data_PCOD9381933
_publ_section_title
;
Structure prediction by ZEFSAII (Michael W. Deem and Ramdas Pophale) SiO2 
 PCOD9381933
Probable space group: P M M M
;
_chemical_formula_sum "Si O2"
_cell_formula_units_Z 44
_cell_length_a 15.158114
_cell_length_b 7.325985
_cell_length_c 18.438718
_cell_angle_alpha 90.000000
_cell_angle_beta 90.000000
_cell_angle_gamma 90.000000
_cell_volume 2047.584892
_symmetry_space_group_name_H-M "P M M M"
_symmetry_group_IT_number 47
_symmetry_cell_setting 'orthorhombic'
loop_
_space_group_symop_operation_xyz
x,y,z
-x,-y,z
x,-y,-z
-x,y,-z
-x,-y,-z
x,y,-z
-x,y,z
x,-y,z
loop_
_atom_site_type_symbol
_atom_site_label
_atom_site_fract_x
_atom_site_fract_y
_atom_site_fract_z
Si Si1 0.351790 0.291345 0.699263
Si Si2 0.000000 0.777405 0.419441
Si Si3 0.705084 0.723929 0.142502
Si Si4 0.151908 0.780218 0.315311
Si Si5 0.600271 0.722187 0.000000
Si Si6 0.500000 0.277104 0.414340
Si Si7 0.097512 0.709828 0.846733
O O1 0.381488 0.500000 0.710092
O O2 0.339733 0.214063 0.781469
O O3 0.250804 0.286429 0.673367
O O4 0.416346 0.218849 0.636228
O O5 0.912863 0.721081 0.377933
O O6 0.000000 0.712173 0.500000
O O7 0.000000 0.000000 0.418945
O O8 0.709066 0.500000 0.147159
O O9 0.649150 0.777660 0.073179
O O10 0.806651 0.786802 0.131085
O O11 0.109943 0.713212 0.240132
O O12 0.154599 0.000000 0.311066
O O13 0.600964 0.500000 0.000000
O O14 0.500000 0.782868 0.000000
O O15 0.500000 0.500000 0.418141
O O16 0.500000 0.218225 0.500000
O O17 0.095656 0.500000 0.872178
O O18 0.000000 0.788105 0.864244
#
# Coordination Sequence:
#
# PCOD9381933 Si02
#       7
#     8   4   8   8   4   4   8
#     4   9  18  32  50  70  95 125 158 198 242 287
#     4   9  18  30  43  63  93 124 153 190 238 287
#     4   8  15  26  40  64  94 124 154 187 231 279
#     4  10  18  30  48  69  92 122 161 198 233 280
#     4   9  16  24  39  65  98 125 153 193 232 278
#     4   9  18  32  51  72  94 124 161 201 243 289
#     4   9  16  28  47  67  92 123 154 191 236 278
#
# _framework density 21.488731000000001
#
# number of rings (size 3 to 8) (size 9 to 14) (size 15 to 20)
#    0.000    3.000    0.909    1.636    1.273    0.727 
#    0.000    0.909    0.000    7.091    0.000   10.182 
#    0.000   17.455    0.000    0.000    0.000    0.000 
#
# Total GULP energy -245157.378843 kJ/mol
# GULP energy per Si atom -5571.758610 kJ/mol
# Density = 2.143982 g / cm^3
# Si number density = 21.488731 Si / 1000 Ang^3
#
#
#
# Elastic Constant Matrix: (Units=GPa)
#
#
# Indices 1 2 3 4 5 6 
#
# 1 195.5700 -1.3043 125.5424 0.0000 0.0000 0.0000
# 2 -1.3043 87.1939 -0.6334 0.0000 0.0000 0.0000
# 3 125.5424 -0.6334 159.4460 0.0000 0.0000 0.0000
# 4 0.0000 0.0000 0.0000 8.5965 0.0000 0.0000
# 5 0.0000 0.0000 0.0000 0.0000 40.0319 0.0000
# 6 0.0000 0.0000 0.0000 0.0000 0.0000 -8.3006
#
#
#
# Elastic Compliance Matrix: (Units=1/GPa)
#
#
# Indices 1 2 3 4 5 6 
#
# 1 0.010340 0.000096 -0.008141 0.000000 0.000000 0.000000
# 2 0.000096 0.011470 -0.000030 0.000000 0.000000 0.000000
# 3 -0.008141 -0.000030 0.012681 0.000000 0.000000 0.000000
# 4 0.000000 0.000000 0.000000 0.116326 0.000000 0.000000
# 5 0.000000 0.000000 0.000000 0.000000 0.024980 0.000000
# 6 0.000000 0.000000 0.000000 0.000000 0.000000 -0.120473
#
#
# Mechanical properties :
#
#
# Convention : Reuss Voigt Hill
#
# Bulk Modulus (GPa) = 54.52207 76.60217 65.56212
# Shear Modulus (GPa) = 64.44313 29.30591 46.87452
#
# Velocity S-wave (km/s) = 5.48219 3.69695 4.67556
# Velocity P-wave (km/s) = 8.09321 7.34494 7.72814
#
# Compressibility (1/GPa) = 0.01834120
#
# Stress axis : x y z
#
# Youngs Moduli (GPa) = 96.71477 87.18472 78.85604
#
# Poissons Ratio (x) = -0.00833 0.64195
# Poissons Ratio (y) = -0.00924 0.00234
# Poissons Ratio (z) = 0.78733 0.00259
#
# Static dielectric constant tensor:
#      x y z
#    x 1.759330 0.000000 0.000000 
#    y 0.000000 1.832600 0.000000 
#    z 0.000000 0.000000 1.738670 
# 
# From -- ./inp_files/27940.got.cif
#   From: 2010.05.17/outbox.cif.g08.bks.cpg/sg47_14_cif.got.tgz:27940.got - 2010.06.03 20:15:42.
