data_PCOD9381183
_publ_section_title
;
Structure prediction by ZEFSAII (Michael W. Deem and Ramdas Pophale) SiO2 
 PCOD9381183
Probable space group: P M M M
;
_chemical_formula_sum "Si O2"
_cell_formula_units_Z 52
_cell_length_a 30.617522
_cell_length_b 7.615158
_cell_length_c 12.378781
_cell_angle_alpha 90.000000
_cell_angle_beta 90.000000
_cell_angle_gamma 90.000000
_cell_volume 2886.202754
_symmetry_space_group_name_H-M "P M M M"
_symmetry_group_IT_number 47
_symmetry_cell_setting 'orthorhombic'
loop_
_space_group_symop_operation_xyz
x,y,z
-x,-y,z
x,-y,-z
-x,y,-z
-x,-y,-z
x,y,-z
-x,y,z
x,-y,z
loop_
_atom_site_type_symbol
_atom_site_label
_atom_site_fract_x
_atom_site_fract_y
_atom_site_fract_z
Si Si1 0.380996 0.708628 0.370811
Si Si2 0.711701 0.286190 0.284807
Si Si3 0.136716 0.199820 0.500000
Si Si4 0.236205 0.286835 0.500000
Si Si5 0.783483 0.291527 0.878397
Si Si6 0.549487 0.000000 0.630641
Si Si7 0.132388 0.795736 0.735380
Si Si8 0.951223 0.287593 0.875262
O O1 0.371764 0.732979 0.500000
O O2 0.388545 0.500000 0.355712
O O3 0.338439 0.765182 0.302781
O O4 0.422246 0.828033 0.341149
O O5 0.711266 0.500000 0.281652
O O6 0.737645 0.237083 0.393138
O O7 0.740663 0.222294 0.184231
O O8 0.189107 0.201384 0.500000
O O9 0.125556 0.283825 0.384164
O O10 0.118800 0.000000 0.500000
O O11 0.231032 0.500000 0.500000
O O12 0.777040 0.500000 0.888125
O O13 0.826365 0.271650 0.803764
O O14 0.789748 0.220637 0.000000
O O15 0.500000 0.000000 0.672586
O O16 0.546908 0.000000 0.500000
O O17 0.088334 0.776775 0.803218
O O18 0.142177 0.000000 0.718012
O O19 0.950295 0.500000 0.873611
O O20 0.000000 0.232098 0.840811
O O21 0.945176 0.233208 0.000000
#
# Coordination Sequence:
#
# PCOD9381183 Si02
#       8
#     8   8   4   4   8   4   8   8
#     4   9  16  28  45  66  93 128 169 212 254 302
#     4   9  16  28  46  69  96 124 164 207 243 290
#     4  10  22  36  45  69 102 131 167 201 239 287
#     4  10  16  28  50  69  87 123 170 210 241 276
#     4  10  20  33  50  72 100 134 166 200 246 296
#     4   9  18  30  42  66  99 131 169 207 253 313
#     4  11  22  35  51  72 101 132 163 201 242 292
#     4   9  19  37  59  79  97 120 156 202 248 295
#
# _framework density 18.016753000000001
#
# number of rings (size 3 to 8) (size 9 to 14) (size 15 to 20)
#    0.000    2.385    2.308    1.385    0.000    3.692 
#    2.769    2.692    0.000    2.308    0.000    0.000 
#    0.000    1.231    0.000    6.000    0.000    0.154 
#
# Total GULP energy -289912.229539 kJ/mol
# GULP energy per Si atom -5575.235183 kJ/mol
# Density = 1.797575 g / cm^3
# Si number density = 18.016753 Si / 1000 Ang^3
#
#
#
# Elastic Constant Matrix: (Units=GPa)
#
#
# Indices 1 2 3 4 5 6 
#
# 1 140.2390 19.0455 62.5734 0.0000 0.0000 0.0000
# 2 19.0455 46.2650 17.0261 0.0000 0.0000 0.0000
# 3 62.5734 17.0261 113.9231 0.0000 0.0000 0.0000
# 4 0.0000 0.0000 0.0000 10.3731 0.0000 0.0000
# 5 0.0000 0.0000 0.0000 0.0000 7.0332 0.0000
# 6 0.0000 0.0000 0.0000 0.0000 0.0000 31.6920
#
#
#
# Elastic Compliance Matrix: (Units=1/GPa)
#
#
# Indices 1 2 3 4 5 6 
#
# 1 0.009641 -0.002138 -0.004976 0.000000 0.000000 0.000000
# 2 -0.002138 0.023347 -0.002315 0.000000 0.000000 0.000000
# 3 -0.004976 -0.002315 0.011857 0.000000 0.000000 0.000000
# 4 0.000000 0.000000 0.000000 0.096403 0.000000 0.000000
# 5 0.000000 0.000000 0.000000 0.000000 0.142184 0.000000
# 6 0.000000 0.000000 0.000000 0.000000 0.000000 0.031554
#
#
# Mechanical properties :
#
#
# Convention : Reuss Voigt Hill
#
# Bulk Modulus (GPa) = 38.48049 55.30192 46.89120
# Shear Modulus (GPa) = 14.59832 23.27180 18.93506
#
# Velocity S-wave (km/s) = 2.84960 3.59789 3.24538
# Velocity P-wave (km/s) = 5.67728 6.92972 6.33453
#
# Compressibility (1/GPa) = 0.02598720
#
# Stress axis : x y z
#
# Youngs Moduli (GPa) = 103.72067 42.83284 84.33833
#
# Poissons Ratio (x) = 0.09156 0.41967
# Poissons Ratio (y) = 0.22172 0.19525
# Poissons Ratio (z) = 0.51612 0.09916
#
# Static dielectric constant tensor:
#      x y z
#    x 1.591620 0.000000 0.000000 
#    y 0.000000 1.684280 0.000000 
#    z 0.000000 0.000000 1.649940 
# 
# From -- ./inp_files/19867.got.cif
#   From: 2010.05.17/outbox.cif.g08.bks.cpg/sg47_10_cif.got.tgz:19867.got - 2010.06.03 20:15:42.
