data_PCOD9381394
_publ_section_title
;
Structure prediction by ZEFSAII (Michael W. Deem and Ramdas Pophale) SiO2 
 PCOD9381394
Probable space group: P M M M
;
_chemical_formula_sum "Si O2"
_cell_formula_units_Z 37
_cell_length_a 7.970769
_cell_length_b 18.653283
_cell_length_c 12.390972
_cell_angle_alpha 90.000000
_cell_angle_beta 90.000000
_cell_angle_gamma 90.000000
_cell_volume 1842.302230
_symmetry_space_group_name_H-M "P M M M"
_symmetry_group_IT_number 47
_symmetry_cell_setting 'orthorhombic'
loop_
_space_group_symop_operation_xyz
x,y,z
-x,-y,z
x,-y,-z
-x,y,-z
-x,-y,-z
x,y,-z
-x,y,z
x,-y,z
loop_
_atom_site_type_symbol
_atom_site_label
_atom_site_fract_x
_atom_site_fract_y
_atom_site_fract_z
Si Si1 0.205122 0.079336 0.235049
Si Si2 0.300409 0.704325 0.000000
Si Si3 0.799493 0.787330 0.621818
Si Si4 0.302551 0.343261 0.230835
Si Si5 0.000000 0.500000 0.000000
Si Si6 0.203418 0.869923 0.000000
Si Si7 0.816639 0.500000 0.773882
O O1 0.265192 0.145183 0.308468
O O2 0.000000 0.080549 0.236281
O O3 0.257583 0.000000 0.271078
O O4 0.255919 0.092448 0.110881
O O5 0.228894 0.672437 0.111027
O O6 0.268974 0.788916 0.000000
O O7 0.500000 0.689976 0.000000
O O8 0.732112 0.785884 0.500000
O O9 0.769007 0.713531 0.684901
O O10 0.000000 0.796627 0.615381
O O11 0.500000 0.329192 0.226534
O O12 0.272225 0.426177 0.255798
O O13 0.856079 0.500000 0.902714
O O14 0.000000 0.867485 0.000000
O O15 0.000000 0.500000 0.720614
#
# Coordination Sequence:
#
# PCOD9381394 Si02
#       7
#     8   4   8   8   1   4   4
#     4   9  17  30  51  82 114 145 184 235 291 342
#     4  10  21  33  52  81 114 148 184 226 277 340
#     4  10  21  37  57  83 112 148 197 247 289 335
#     4  11  22  38  59  84 117 154 190 231 282 340
#     4   8  20  36  58  92 122 156 180 220 284 342
#     4  10  17  29  52  81 110 145 187 232 280 347
#     4  10  21  37  58  88 120 148 185 224 274 338
#
# _framework density 20.083566999999999
#
# number of rings (size 3 to 8) (size 9 to 14) (size 15 to 20)
#    0.324    1.730    2.162    1.946    0.000    3.027 
#    0.000    4.865    0.000    6.486    0.000    1.514 
#    0.000    0.000    0.000    0.000    0.000    0.000 
#
# Total GULP energy -206192.718928 kJ/mol
# GULP energy per Si atom -5572.776187 kJ/mol
# Density = 2.003786 g / cm^3
# Si number density = 20.083567 Si / 1000 Ang^3
#
#
#
# Elastic Constant Matrix: (Units=GPa)
#
#
# Indices 1 2 3 4 5 6 
#
# 1 10.6337 -13.1537 11.6545 0.0000 0.0000 0.0000
# 2 -13.1537 164.8582 81.6883 0.0000 0.0000 0.0000
# 3 11.6545 81.6883 146.6336 0.0000 0.0000 0.0000
# 4 0.0000 0.0000 0.0000 -0.6454 0.0000 0.0000
# 5 0.0000 0.0000 0.0000 0.0000 11.5875 0.0000
# 6 0.0000 0.0000 0.0000 0.0000 0.0000-1403.6563
#
#
#
# Elastic Compliance Matrix: (Units=1/GPa)
#
#
# Indices 1 2 3 4 5 6 
#
# 1 0.154478 0.025429 -0.026444 0.000000 0.000000 0.000000
# 2 0.025429 0.012565 -0.009021 0.000000 0.000000 0.000000
# 3 -0.026444 -0.009021 0.013947 0.000000 0.000000 0.000000
# 4 0.000000 0.000000 0.000000 -1.549347 0.000000 0.000000
# 5 0.000000 0.000000 0.000000 0.000000 0.086300 0.000000
# 6 0.000000 0.000000 0.000000 0.000000 0.000000 -0.000712
#
#
# Mechanical properties :
#
#
# Convention : Reuss Voigt Hill
#
# Bulk Modulus (GPa) = 6.21437 53.61152 29.91295
# Shear Modulus (GPa) = -4.13545 -262.41374 -133.27459
#
# Velocity S-wave (km/s) = -1.43652 -11.44310 -8.15500
# Velocity P-wave (km/s) = 0.59120 12.15897 8.58752
#
# Compressibility (1/GPa) = 0.16091734
#
# Stress axis : x y z
#
# Youngs Moduli (GPa) = 6.47341 79.58928 71.70093
#
# Poissons Ratio (x) = -2.02385 1.89606
# Poissons Ratio (y) = -0.16461 0.64679
# Poissons Ratio (z) = 0.17118 0.71795
#
# Static dielectric constant tensor:
#      x y z
#    x 1.737930 0.000000 0.000000 
#    y 0.000000 1.771730 0.000000 
#    z 0.000000 0.000000 1.717380 
# 
# From -- ./inp_files/14922.got.cif
#   From: 2010.05.17/outbox.cif.g08.bks.cpg/sg47_8_cif.got.tgz:14922.got - 2010.06.03 20:15:42.
