data_PCOD9381460
_publ_section_title
;
Structure prediction by ZEFSAII (Michael W. Deem and Ramdas Pophale) SiO2 
 PCOD9381460
Probable space group: P M M M
;
_chemical_formula_sum "Si O2"
_cell_formula_units_Z 52
_cell_length_a 27.684044
_cell_length_b 14.267274
_cell_length_c 7.490946
_cell_angle_alpha 90.000000
_cell_angle_beta 90.000000
_cell_angle_gamma 90.000000
_cell_volume 2958.742698
_symmetry_space_group_name_H-M "P M M M"
_symmetry_group_IT_number 47
_symmetry_cell_setting 'orthorhombic'
loop_
_space_group_symop_operation_xyz
x,y,z
-x,-y,z
x,-y,-z
-x,y,-z
-x,-y,-z
x,y,-z
-x,y,z
x,-y,z
loop_
_atom_site_type_symbol
_atom_site_label
_atom_site_fract_x
_atom_site_fract_y
_atom_site_fract_z
Si Si1 0.247290 0.895049 0.214983
Si Si2 0.198446 0.604133 0.208232
Si Si3 0.150297 0.790601 0.218860
Si Si4 0.053930 0.891442 0.782434
Si Si5 0.702528 0.295573 0.289918
Si Si6 0.500000 0.386139 0.708090
Si Si7 0.605372 0.390891 0.718566
O O1 0.194309 0.858867 0.273072
O O2 0.284906 0.813460 0.262994
O O3 0.257490 0.000000 0.280114
O O4 0.246099 0.898073 0.000000
O O5 0.195437 0.500000 0.286754
O O6 0.164758 0.686818 0.282603
O O7 0.252934 0.644120 0.215142
O O8 0.185677 0.596810 0.000000
O O9 0.098586 0.828582 0.277699
O O10 0.150423 0.789977 0.000000
O O11 0.000000 0.862517 0.725626
O O12 0.061249 0.000000 0.730425
O O13 0.054184 0.889991 0.000000
O O14 0.702871 0.314464 0.500000
O O15 0.650700 0.329458 0.221158
O O16 0.500000 0.500000 0.712298
O O17 0.500000 0.357801 0.500000
O O18 0.552309 0.358563 0.782727
O O19 0.603678 0.388990 0.500000
O O20 0.612675 0.500000 0.768194
#
# Coordination Sequence:
#
# PCOD9381460 Si02
#       7
#     8   8   8   8   8   4   8
#     4   9  17  29  43  57  76 105 137 162 187 228
#     4   9  17  28  40  54  75 106 140 165 187 224
#     4   8  13  22  36  52  71  98 130 159 187 224
#     4   8  12  17  28  49  74  96 119 152 196 240
#     4  10  18  26  39  61  85 104 125 159 201 236
#     4   7  10  18  32  50  74 103 130 152 179 223
#     4   8  13  21  34  54  80 106 128 152 186 228
#
# _framework density 17.575032
#
# number of rings (size 3 to 8) (size 9 to 14) (size 15 to 20)
#    0.000    3.462    0.000    3.692    0.000    3.077 
#    0.000    0.000    0.000    0.462    0.000    5.923 
#    0.000   22.769    0.000   39.385    0.000   36.923 
#
# Total GULP energy -289628.067278 kJ/mol
# GULP energy per Si atom -5569.770525 kJ/mol
# Density = 1.753503 g / cm^3
# Si number density = 17.575032 Si / 1000 Ang^3
#
#
#
# Elastic Constant Matrix: (Units=GPa)
#
#
# Indices 1 2 3 4 5 6 
#
# 1 179.8760 90.6482 0.3914 0.0000 0.0000 0.0000
# 2 90.6482 120.5496 -1.2076 0.0000 0.0000 0.0000
# 3 0.3914 -1.2076 46.2640 0.0000 0.0000 0.0000
# 4 0.0000 0.0000 0.0000 4.1621 0.0000 0.0000
# 5 0.0000 0.0000 0.0000 0.0000 8.9078 0.0000
# 6 0.0000 0.0000 0.0000 0.0000 0.0000 25.8975
#
#
#
# Elastic Compliance Matrix: (Units=1/GPa)
#
#
# Indices 1 2 3 4 5 6 
#
# 1 0.008954 -0.006736 -0.000252 0.000000 0.000000 0.000000
# 2 -0.006736 0.013365 0.000406 0.000000 0.000000 0.000000
# 3 -0.000252 0.000406 0.021628 0.000000 0.000000 0.000000
# 4 0.000000 0.000000 0.000000 0.240261 0.000000 0.000000
# 5 0.000000 0.000000 0.000000 0.000000 0.112261 0.000000
# 6 0.000000 0.000000 0.000000 0.000000 0.000000 0.038614
#
#
# Mechanical properties :
#
#
# Convention : Reuss Voigt Hill
#
# Bulk Modulus (GPa) = 32.48493 58.48371 45.48432
# Shear Modulus (GPa) = 10.90497 24.91733 17.91115
#
# Velocity S-wave (km/s) = 2.49365 3.76941 3.19584
# Velocity P-wave (km/s) = 5.17829 7.23142 6.28920
#
# Compressibility (1/GPa) = 0.03078350
#
# Stress axis : x y z
#
# Youngs Moduli (GPa) = 111.67585 74.82491 46.23680
#
# Poissons Ratio (x) = 0.50401 0.01163
# Poissons Ratio (y) = 0.75224 -0.01876
# Poissons Ratio (z) = 0.02810 -0.03037
#
# Static dielectric constant tensor:
#      x y z
#    x 1.607360 0.000000 0.000000 
#    y 0.000000 1.593040 0.000000 
#    z 0.000000 0.000000 1.717100 
# 
# From -- ./inp_files/13386.got.cif
#   From: 2010.05.17/outbox.cif.g08.bks.cpg/sg47_7_cif.got.tgz:13386.got - 2010.06.03 20:15:42.
