data_PCOD9381983
_publ_section_title
;
Structure prediction by ZEFSAII (Michael W. Deem and Ramdas Pophale) SiO2 
 PCOD9381983
Probable space group: P M M M
;
_chemical_formula_sum "Si O2"
_cell_formula_units_Z 64
_cell_length_a 31.893661
_cell_length_b 14.697346
_cell_length_c 8.887548
_cell_angle_alpha 90.000000
_cell_angle_beta 90.000000
_cell_angle_gamma 90.000000
_cell_volume 4166.057419
_symmetry_space_group_name_H-M "P M M M"
_symmetry_group_IT_number 47
_symmetry_cell_setting 'orthorhombic'
loop_
_space_group_symop_operation_xyz
x,y,z
-x,-y,z
x,-y,-z
-x,y,-z
-x,-y,-z
x,y,-z
-x,y,z
x,-y,z
loop_
_atom_site_type_symbol
_atom_site_label
_atom_site_fract_x
_atom_site_fract_y
_atom_site_fract_z
Si Si1 0.741959 0.603964 0.820163
Si Si2 0.951990 0.104936 0.181271
Si Si3 0.875905 0.212628 0.318726
Si Si4 0.207720 0.895488 0.683054
Si Si5 0.633228 0.892561 0.179141
Si Si6 0.834050 0.397078 0.319627
Si Si7 0.709703 0.782837 0.680575
Si Si8 0.546259 0.889758 0.323974
O O1 0.729785 0.500000 0.781313
O O2 0.789433 0.616773 0.760272
O O3 0.713985 0.681592 0.745458
O O4 0.741371 0.613057 0.000000
O O5 0.917690 0.171368 0.249451
O O6 0.000000 0.125866 0.226034
O O7 0.943108 0.000000 0.226168
O O8 0.950163 0.108519 0.000000
O O9 0.878675 0.207337 0.500000
O O10 0.835300 0.153451 0.270640
O O11 0.865702 0.316890 0.277165
O O12 0.207800 0.896032 0.500000
O O13 0.248567 0.838593 0.729508
O O14 0.209610 0.000000 0.734197
O O15 0.669196 0.835154 0.259288
O O16 0.586991 0.861463 0.231598
O O17 0.637764 0.000000 0.218965
O O18 0.636978 0.884628 0.000000
O O19 0.826896 0.389839 0.500000
O O20 0.848535 0.500000 0.287225
O O21 0.709246 0.780115 0.500000
O O22 0.551143 0.865695 0.500000
O O23 0.500000 0.858205 0.272613
O O24 0.545434 0.000000 0.316575
#
# Coordination Sequence:
#
# PCOD9381983 Si02
#       8
#     8   8   8   8   8   8   8   8
#     4  10  20  33  49  69  93 120 153 197 243 282
#     4   9  19  35  51  68  93 123 152 184 227 276
#     4  10  18  30  49  73  95 117 151 192 230 269
#     4   9  17  28  42  64  93 121 150 187 226 263
#     4  10  20  31  43  64  96 131 165 201 242 287
#     4   9  17  31  50  71  95 121 151 187 229 277
#     4  11  20  32  48  65  91 129 165 195 232 280
#     4   8  14  26  44  64  86 117 161 207 245 284
#
# _framework density 15.362246000000001
#
# number of rings (size 3 to 8) (size 9 to 14) (size 15 to 20)
#    0.000    2.500    1.250    2.625    0.000    3.750 
#    0.000    1.875    0.000    2.625    0.000    2.625 
#    0.000    0.500    0.000    5.250    0.000    2.500 
#
# Total GULP energy -356765.576416 kJ/mol
# GULP energy per Si atom -5574.462132 kJ/mol
# Density = 1.532728 g / cm^3
# Si number density = 15.362246 Si / 1000 Ang^3
#
#
#
# Elastic Constant Matrix: (Units=GPa)
#
#
# Indices 1 2 3 4 5 6 
#
# 1 118.2985 73.1836 40.9051 0.0000 0.0000 0.0000
# 2 73.1836 112.5830 42.0260 0.0000 0.0000 0.0000
# 3 40.9051 42.0260 30.7488 0.0000 0.0000 0.0000
# 4 0.0000 0.0000 0.0000 19.8255 0.0000 0.0000
# 5 0.0000 0.0000 0.0000 0.0000 9.2188 0.0000
# 6 0.0000 0.0000 0.0000 0.0000 0.0000 8.0931
#
#
#
# Elastic Compliance Matrix: (Units=1/GPa)
#
#
# Indices 1 2 3 4 5 6 
#
# 1 0.017103 -0.005358 -0.015428 0.000000 0.000000 0.000000
# 2 -0.005358 0.019813 -0.019952 0.000000 0.000000 0.000000
# 3 -0.015428 -0.019952 0.080315 0.000000 0.000000 0.000000
# 4 0.000000 0.000000 0.000000 0.050440 0.000000 0.000000
# 5 0.000000 0.000000 0.000000 0.000000 0.108474 0.000000
# 6 0.000000 0.000000 0.000000 0.000000 0.000000 0.123562
#
#
# Mechanical properties :
#
#
# Convention : Reuss Voigt Hill
#
# Bulk Modulus (GPa) = 27.96863 63.76220 45.86541
# Shear Modulus (GPa) = 10.13990 14.46185 12.30087
#
# Velocity S-wave (km/s) = 2.57194 3.07154 2.83277
# Velocity P-wave (km/s) = 5.20244 7.36037 6.37340
#
# Compressibility (1/GPa) = 0.03575435
#
# Stress axis : x y z
#
# Youngs Moduli (GPa) = 58.46982 50.47158 12.45097
#
# Poissons Ratio (x) = 0.27044 0.19210
# Poissons Ratio (y) = 0.31330 0.24842
# Poissons Ratio (z) = 0.90210 1.00699
#
# Static dielectric constant tensor:
#      x y z
#    x 1.495740 0.000000 0.000000 
#    y 0.000000 1.511540 0.000000 
#    z 0.000000 0.000000 1.514470 
# 
# From -- ./inp_files/14350.got.cif
#   From: 2010.05.17/outbox.cif.g08.bks.cpg/sg47_8_cif.got.tgz:14350.got - 2010.06.03 20:15:42.
