data_PCOD9381813
_publ_section_title
;
Structure prediction by ZEFSAII (Michael W. Deem and Ramdas Pophale) SiO2 
 PCOD9381813
Probable space group: P M M M
;
_chemical_formula_sum "Si O2"
_cell_formula_units_Z 64
_cell_length_a 9.454604
_cell_length_b 14.732200
_cell_length_c 31.895405
_cell_angle_alpha 90.000000
_cell_angle_beta 90.000000
_cell_angle_gamma 90.000000
_cell_volume 4442.619010
_symmetry_space_group_name_H-M "P M M M"
_symmetry_group_IT_number 47
_symmetry_cell_setting 'orthorhombic'
loop_
_space_group_symop_operation_xyz
x,y,z
-x,-y,z
x,-y,-z
-x,y,-z
-x,-y,-z
x,y,-z
-x,y,z
x,-y,z
loop_
_atom_site_type_symbol
_atom_site_label
_atom_site_fract_x
_atom_site_fract_y
_atom_site_fract_z
Si Si1 0.172070 0.103729 0.125875
Si Si2 0.830323 0.224064 0.047071
Si Si3 0.170246 0.777395 0.206527
Si Si4 0.668244 0.396418 0.821221
Si Si5 0.831278 0.893265 0.288860
Si Si6 0.668073 0.396550 0.921480
Si Si7 0.835666 0.110359 0.453081
Si Si8 0.337713 0.110475 0.627693
O O1 0.215686 0.154640 0.083379
O O2 0.214212 0.161920 0.166416
O O3 0.000000 0.101323 0.126034
O O4 0.221797 0.000000 0.127919
O O5 0.755739 0.319990 0.055167
O O6 0.000000 0.235227 0.050695
O O7 0.799346 0.191543 0.000000
O O8 0.245337 0.680704 0.202449
O O9 0.204477 0.832074 0.248827
O O10 0.000000 0.766462 0.204761
O O11 0.500000 0.385481 0.814568
O O12 0.706549 0.500000 0.809711
O O13 0.692810 0.387108 0.871379
O O14 0.747734 0.864921 0.330482
O O15 0.000000 0.886751 0.296341
O O16 0.800925 0.000000 0.280163
O O17 0.500000 0.385138 0.928618
O O18 0.705499 0.500000 0.933356
O O19 0.791242 0.139036 0.500000
O O20 0.739822 0.141982 0.414671
O O21 0.000000 0.135638 0.446896
O O22 0.831682 0.000000 0.452882
O O23 0.500000 0.140260 0.629372
O O24 0.337038 0.000000 0.626502
#
# Coordination Sequence:
#
# PCOD9381813 Si02
#       8
#     8   8   8   8   8   8   8   8
#     4   9  17  30  47  66  88 111 137 171 207 244
#     4  10  20  32  47  69  92 112 137 170 207 244
#     4  10  18  29  48  70  86 106 139 175 209 245
#     4   9  18  32  49  68  89 111 133 161 202 250
#     4   9  17  28  41  58  82 111 142 176 214 255
#     4   9  18  33  51  68  87 113 140 163 196 246
#     4   8  13  21  33  48  67  96 136 180 224 265
#     4   9  16  24  34  50  74 104 139 179 220 258
#
# _framework density 14.405915999999999
#
# number of rings (size 3 to 8) (size 9 to 14) (size 15 to 20)
#    0.000    2.875    1.250    1.875    0.000    5.000 
#    0.000    5.000    0.000    2.250    0.000    0.875 
#    0.000    0.000    0.000    0.000    0.000    0.625 
#
# Total GULP energy -356485.058008 kJ/mol
# GULP energy per Si atom -5570.079031 kJ/mol
# Density = 1.437313 g / cm^3
# Si number density = 14.405916 Si / 1000 Ang^3
#
#
#
# Elastic Constant Matrix: (Units=GPa)
#
#
# Indices 1 2 3 4 5 6 
#
# 1 34.0956 31.1424 54.1412 0.0000 0.0000 0.0000
# 2 31.1424 74.2733 54.1462 0.0000 0.0000 0.0000
# 3 54.1412 54.1462 128.9072 0.0000 0.0000 0.0000
# 4 0.0000 0.0000 0.0000 5.3651 0.0000 0.0000
# 5 0.0000 0.0000 0.0000 0.0000 15.4006 0.0000
# 6 0.0000 0.0000 0.0000 0.0000 0.0000 11.8358
#
#
#
# Elastic Compliance Matrix: (Units=1/GPa)
#
#
# Indices 1 2 3 4 5 6 
#
# 1 0.100134 -0.016325 -0.035199 0.000000 0.000000 0.000000
# 2 -0.016325 0.022068 -0.002413 0.000000 0.000000 0.000000
# 3 -0.035199 -0.002413 0.023555 0.000000 0.000000 0.000000
# 4 0.000000 0.000000 0.000000 0.186391 0.000000 0.000000
# 5 0.000000 0.000000 0.000000 0.000000 0.064933 0.000000
# 6 0.000000 0.000000 0.000000 0.000000 0.000000 0.084489
#
#
# Mechanical properties :
#
#
# Convention : Reuss Voigt Hill
#
# Bulk Modulus (GPa) = 26.39750 57.34839 41.87294
# Shear Modulus (GPa) = 8.30467 13.04338 10.67402
#
# Velocity S-wave (km/s) = 2.40360 3.01228 2.72499
# Velocity P-wave (km/s) = 5.10557 7.21067 6.24743
#
# Compressibility (1/GPa) = 0.03788238
#
# Stress axis : x y z
#
# Youngs Moduli (GPa) = 9.98660 45.31496 42.45432
#
# Poissons Ratio (x) = 0.73977 1.49436
# Poissons Ratio (y) = 0.16303 0.10243
# Poissons Ratio (z) = 0.35152 0.10934
#
# Static dielectric constant tensor:
#      x y z
#    x 1.475050 0.000000 0.000000 
#    y 0.000000 1.451120 0.000000 
#    z 0.000000 0.000000 1.478530 
# 
# From -- ./inp_files/8270.got.cif
#   From: 2010.05.17/outbox.cif.g08.bks.cpg/sg47_5_cif.got.tgz:8270.got - 2010.06.03 20:15:42.
