data_PCOD9381138
_publ_section_title
;
Structure prediction by ZEFSAII (Michael W. Deem and Ramdas Pophale) SiO2 
 PCOD9381138
Probable space group: I M A 2
;
_chemical_formula_sum "Si O2"
_cell_formula_units_Z 24
_cell_length_a 15.000000
_cell_length_b 27.000000
_cell_length_c 6.000000
_cell_angle_alpha 90.000000
_cell_angle_beta 90.000000
_cell_angle_gamma 90.000000
_cell_volume 2430.000000
_symmetry_space_group_name_H-M "I M A 2"
_symmetry_group_IT_number 46
_symmetry_cell_setting 'orthorhombic'
loop_
_space_group_symop_operation_xyz
x,y,z
-x,-y,z
1/2-x,y,z
1/2+x,-y,z
1/2+x,1/2+y,1/2+z
1/2-x,1/2-y,1/2+z
-x,1/2+y,1/2+z
x,1/2-y,1/2+z
loop_
_atom_site_type_symbol
_atom_site_label
_atom_site_fract_x
_atom_site_fract_y
_atom_site_fract_z
Si Si1 0.645791 0.388215 0.426650
Si Si2 0.651290 0.015226 0.245554
Si Si3 0.476343 0.357053 0.665597
Si Si4 0.019253 0.566550 0.053792
Si Si5 0.356561 0.426594 0.391895
Si Si6 0.650806 0.775601 0.306627
O O1 0.750000 0.372406 0.396680
O O2 0.649110 0.436913 0.584320
O O3 0.572819 0.352292 0.545584
O O4 0.594601 0.405648 0.203923
O O5 0.750000 0.011660 0.348874
O O6 0.577293 0.024163 0.430992
O O7 0.638561 0.968192 0.085574
O O8 0.400259 0.376598 0.493288
O O9 0.434702 0.310251 0.786126
O O10 0.487893 0.398434 0.854131
O O11 0.931681 0.558482 0.208696
O O12 0.250000 0.422196 0.329699
O O13 0.750000 0.799921 0.302222
O O14 0.647619 0.752362 0.560497
#
# Coordination Sequence:
#
# PCOD9381138 Si02
#       6
#     8   8   8   8   8   8
#     4   9  19  35  57  86 117 154 200 245 291 346
#     4   9  19  36  54  79 114 155 200 242 289 345
#     4  10  22  37  59  89 118 153 194 249 304 368
#     4  10  21  35  58  81 112 157 203 247 294 355
#     4  10  22  36  54  83 120 155 197 251 302 354
#     4  10  23  42  68  96 125 160 200 250 310 385
#
# _framework density 9.8765429999999999
#
# number of rings (size 3 to 8) (size 9 to 14) (size 15 to 20)
#    0.000    2.333    0.000    1.000    4.667   10.667 
#    0.000    3.333    0.000    6.000    0.000    0.000 
#    0.000    0.000    0.000    0.000    0.000    0.000 
#
# Total GULP energy -133656.543128 kJ/mol
# GULP energy per Si atom -5569.022630 kJ/mol
# Density = 0.985406 g / cm^3
# Si number density = 9.876543 Si / 1000 Ang^3
#
#
#
# Elastic Constant Matrix: (Units=GPa)
#
#
# Indices 1 2 3 4 5 6 
#
# 1 204.2553 20.2359 49.7413 0.0080 0.0037 0.0003
# 2 20.2359 7.9372 -4.0155 0.0091 0.0024 0.0005
# 3 49.7413 -4.0155 82.7863 0.0169 -0.0013 0.0022
# 4 0.0080 0.0091 0.0169 18.2638 -0.0026 -0.0005
# 5 0.0037 0.0024 -0.0013 -0.0026 33.6066 -0.0007
# 6 0.0003 0.0005 0.0022 -0.0005 -0.0007 31.5032
#
#
#
# Elastic Compliance Matrix: (Units=1/GPa)
#
#
# Indices 1 2 3 4 5 6 
#
# 1 0.009249 -0.027057 -0.006870 0.000016 0.000001 0.000001
# 2 -0.027057 0.208307 0.026361 -0.000116 -0.000011 -0.000005
# 3 -0.006870 0.026361 0.017486 -0.000026 0.000000 -0.000002
# 4 0.000016 -0.000116 -0.000026 0.054753 0.000004 0.000001
# 5 0.000001 -0.000011 0.000000 0.000004 0.029756 0.000001
# 6 0.000001 -0.000005 -0.000002 0.000001 0.000001 0.031743
#
#
# Mechanical properties :
#
#
# Convention : Reuss Voigt Hill
#
# Bulk Modulus (GPa) = 4.54731 47.43358 25.99045
# Shear Modulus (GPa) = 11.37064 31.94253 21.65658
#
# Velocity S-wave (km/s) = 2.40185 4.02567 3.31473
# Velocity P-wave (km/s) = 3.16211 6.75821 5.27600
#
# Compressibility (1/GPa) = 0.21991000
#
# Stress axis : x y z
#
# Youngs Moduli (GPa) = 108.11580 4.80061 57.19017
#
# Poissons Ratio (x) = 0.12989 0.39288
# Poissons Ratio (y) = 2.92526 -1.50757
# Poissons Ratio (z) = 0.74273 -0.12655
#
# Static dielectric constant tensor:
#      x y z
#    x 1.706600 0.000000 0.000000 
#    y 0.000000 1.739910 -0.000010 
#    z 0.000000 -0.000010 1.725150 
# 
# From -- ./inp_files/1314.got.cif
#   From: 2010.05.17/outbox.ucp.g08.bks.cvg/sg46_1_cif.got.tgz:1314.got - 2010.06.11 16:34:52.
