data_PCOD9381894
_publ_section_title
;
Structure prediction by ZEFSAII (Michael W. Deem and Ramdas Pophale) SiO2 
 PCOD9381894
Probable space group: P M M M
;
_chemical_formula_sum "Si O2"
_cell_formula_units_Z 36
_cell_length_a 20.710004
_cell_length_b 7.678930
_cell_length_c 13.241204
_cell_angle_alpha 90.000000
_cell_angle_beta 90.000000
_cell_angle_gamma 90.000000
_cell_volume 2105.757557
_symmetry_space_group_name_H-M "P M M M"
_symmetry_group_IT_number 47
_symmetry_cell_setting 'orthorhombic'
loop_
_space_group_symop_operation_xyz
x,y,z
-x,-y,z
x,-y,-z
-x,y,-z
-x,-y,-z
x,y,-z
-x,y,z
x,-y,z
loop_
_atom_site_type_symbol
_atom_site_label
_atom_site_fract_x
_atom_site_fract_y
_atom_site_fract_z
Si Si1 0.069535 0.790620 0.617448
Si Si2 0.343368 0.292460 0.698604
Si Si3 0.425773 0.287189 0.114102
Si Si4 0.574097 0.208704 0.500000
Si Si5 0.790211 0.291972 0.615597
O O1 0.070847 0.730972 0.500000
O O2 0.138794 0.739361 0.661133
O O3 0.000000 0.731265 0.660311
O O4 0.068415 0.000000 0.616608
O O5 0.337309 0.500000 0.713686
O O6 0.379073 0.222688 0.797790
O O7 0.387440 0.265963 0.599721
O O8 0.271695 0.222836 0.675411
O O9 0.500000 0.234882 0.133666
O O10 0.425288 0.500000 0.115464
O O11 0.408315 0.234059 0.000000
O O12 0.500000 0.272987 0.500000
O O13 0.572583 0.000000 0.500000
O O14 0.788824 0.222536 0.500000
O O15 0.782651 0.500000 0.608496
#
# Coordination Sequence:
#
# PCOD9381894 Si02
#       5
#     8   8   8   4   8
#     4   8  14  24  37  53  74 104 140 169 195 235
#     4  10  18  30  46  63  85 113 143 174 211 257
#     4   8  14  25  43  66  85 103 136 181 220 251
#     4  11  23  33  41  59  86 113 144 179 211 250
#     4   9  16  25  36  55  82 108 136 166 200 245
#
# _framework density 17.095984999999999
#
# number of rings (size 3 to 8) (size 9 to 14) (size 15 to 20)
#    0.000    3.000    1.111    2.333    0.000    3.111 
#    0.000    2.222    0.000    0.667    0.000    3.111 
#    0.000    0.889    0.000   11.111    0.000    2.222 
#
# Total GULP energy -200476.418885 kJ/mol
# GULP energy per Si atom -5568.789413 kJ/mol
# Density = 1.705707 g / cm^3
# Si number density = 17.095985 Si / 1000 Ang^3
#
#
#
# Elastic Constant Matrix: (Units=GPa)
#
#
# Indices 1 2 3 4 5 6 
#
# 1 195.1801 3.0521 81.8668 0.0000 0.0000 0.0000
# 2 3.0521 26.5584 0.2599 0.0000 0.0000 0.0000
# 3 81.8668 0.2599 91.7823 0.0000 0.0000 0.0000
# 4 0.0000 0.0000 0.0000 -5.3924 0.0000 0.0000
# 5 0.0000 0.0000 0.0000 0.0000 33.3659 0.0000
# 6 0.0000 0.0000 0.0000 0.0000 0.0000 25.4536
#
#
#
# Elastic Compliance Matrix: (Units=1/GPa)
#
#
# Indices 1 2 3 4 5 6 
#
# 1 0.008206 -0.000871 -0.007317 0.000000 0.000000 0.000000
# 2 -0.000871 0.037746 0.000670 0.000000 0.000000 0.000000
# 3 -0.007317 0.000670 0.017420 0.000000 0.000000 0.000000
# 4 0.000000 0.000000 0.000000 -0.185446 0.000000 0.000000
# 5 0.000000 0.000000 0.000000 0.000000 0.029971 0.000000
# 6 0.000000 0.000000 0.000000 0.000000 0.000000 0.039287
#
#
# Mechanical properties :
#
#
# Convention : Reuss Voigt Hill
#
# Bulk Modulus (GPa) = 20.68835 53.76427 37.22631
# Shear Modulus (GPa) = -230.77254 25.90821 -102.43216
#
# Velocity S-wave (km/s) = -11.63097 3.89711 -7.74893
# Velocity P-wave (km/s) = 12.97093 7.19491 7.63146
#
# Compressibility (1/GPa) = 0.04833637
#
# Stress axis : x y z
#
# Youngs Moduli (GPa) = 121.85798 26.49253 57.40455
#
# Poissons Ratio (x) = 0.02309 0.42004
# Poissons Ratio (y) = 0.10619 -0.03848
# Poissons Ratio (z) = 0.89167 -0.01776
#
# Static dielectric constant tensor:
#      x y z
#    x 1.635220 0.000000 0.000000 
#    y 0.000000 1.624310 0.000000 
#    z 0.000000 0.000000 1.559870 
# 
# From -- ./inp_files/3720.got.cif
#   From: 2010.05.17/outbox.cif.g08.bks.cpg/sg47_2_cif.got.tgz:3720.got - 2010.06.03 20:15:42.
