data_PCOD9381405
_publ_section_title
;
Structure prediction by ZEFSAII (Michael W. Deem and Ramdas Pophale) SiO2 
 PCOD9381405
Probable space group: P M M M
;
_chemical_formula_sum "Si O2"
_cell_formula_units_Z 52
_cell_length_a 7.396464
_cell_length_b 26.395283
_cell_length_c 12.207929
_cell_angle_alpha 90.000000
_cell_angle_beta 90.000000
_cell_angle_gamma 90.000000
_cell_volume 2383.375470
_symmetry_space_group_name_H-M "P M M M"
_symmetry_group_IT_number 47
_symmetry_cell_setting 'orthorhombic'
loop_
_space_group_symop_operation_xyz
x,y,z
-x,-y,z
x,-y,-z
-x,y,-z
-x,-y,-z
x,y,-z
-x,y,z
x,-y,z
loop_
_atom_site_type_symbol
_atom_site_label
_atom_site_fract_x
_atom_site_fract_y
_atom_site_fract_z
Si Si1 0.789226 0.422320 0.000000
Si Si2 0.716697 0.696520 0.000000
Si Si3 0.221216 0.344735 0.373346
Si Si4 0.785109 0.845701 0.876590
Si Si5 0.220849 0.444644 0.242300
Si Si6 0.282228 0.057482 0.738236
Si Si7 0.707694 0.061653 0.500000
Si Si8 0.792765 0.747949 0.229831
O O1 0.715708 0.440627 0.883701
O O2 0.773615 0.361773 0.000000
O O3 0.000000 0.437081 0.000000
O O4 0.788753 0.722594 0.890468
O O5 0.500000 0.699984 0.000000
O O6 0.273413 0.345618 0.500000
O O7 0.280078 0.395571 0.310090
O O8 0.285713 0.293962 0.311649
O O9 0.000000 0.344565 0.368529
O O10 0.760629 0.901701 0.829853
O O11 0.711191 0.803339 0.792834
O O12 0.000000 0.836341 0.883078
O O13 0.712439 0.840281 0.000000
O O14 0.271784 0.500000 0.286897
O O15 0.000000 0.442744 0.240794
O O16 0.500000 0.055011 0.729361
O O17 0.212750 0.075064 0.618254
O O18 0.219469 0.000000 0.760483
O O19 0.500000 0.079827 0.500000
O O20 0.704479 0.000000 0.500000
O O21 0.000000 0.755303 0.266358
#
# Coordination Sequence:
#
# PCOD9381405 Si02
#       8
#     4   4   8   8   8   8   4   8
#     4  10  17  30  50  72 102 139 171 205 258 317
#     4  12  22  31  53  83 101 125 174 223 262 304
#     4   9  17  29  49  76 103 134 172 214 259 306
#     4  10  21  35  52  75 104 137 173 212 258 313
#     4   9  16  25  44  75 105 133 170 215 257 302
#     4   9  18  34  56  79 105 139 177 213 253 303
#     4   7  12  28  53  75  97 133 175 209 242 289
#     4  10  19  37  57  73 101 140 175 206 257 320
#
# _framework density 21.817796999999999
#
# number of rings (size 3 to 8) (size 9 to 14) (size 15 to 20)
#    0.000    2.538    2.308    1.846    0.000    2.769 
#    1.385    3.462    0.000    2.769    0.000    0.000 
#    0.000    1.231    0.000    0.000    0.000    0.000 
#
# Total GULP energy -290171.971910 kJ/mol
# GULP energy per Si atom -5580.230229 kJ/mol
# Density = 2.176814 g / cm^3
# Si number density = 21.817797 Si / 1000 Ang^3
#
#
#
# Elastic Constant Matrix: (Units=GPa)
#
#
# Indices 1 2 3 4 5 6 
#
# 1 81.3774 1.3808 2.8884 0.0000 0.0000 0.0000
# 2 1.3808 167.2037 78.4627 0.0000 0.0000 0.0000
# 3 2.8884 78.4627 135.2618 0.0000 0.0000 0.0000
# 4 0.0000 0.0000 0.0000 20.1800 0.0000 0.0000
# 5 0.0000 0.0000 0.0000 0.0000 -4.6268 0.0000
# 6 0.0000 0.0000 0.0000 0.0000 0.0000 22.4776
#
#
#
# Elastic Compliance Matrix: (Units=1/GPa)
#
#
# Indices 1 2 3 4 5 6 
#
# 1 0.012298 0.000030 -0.000280 0.000000 0.000000 0.000000
# 2 0.000030 0.008218 -0.004768 0.000000 0.000000 0.000000
# 3 -0.000280 -0.004768 0.010165 0.000000 0.000000 0.000000
# 4 0.000000 0.000000 0.000000 0.049554 0.000000 0.000000
# 5 0.000000 0.000000 0.000000 0.000000 -0.216133 0.000000
# 6 0.000000 0.000000 0.000000 0.000000 0.000000 0.044489
#
#
# Mechanical properties :
#
#
# Convention : Reuss Voigt Hill
#
# Bulk Modulus (GPa) = 48.43823 61.03407 54.73615
# Shear Modulus (GPa) = -67.11989 27.68025 -19.71982
#
# Velocity S-wave (km/s) = -5.55253 3.56575 -3.00966
# Velocity P-wave (km/s) = 4.34258 6.70730 3.61454
#
# Compressibility (1/GPa) = 0.02064485
#
# Stress axis : x y z
#
# Youngs Moduli (GPa) = 81.31502 121.68789 98.38035
#
# Poissons Ratio (x) = -0.00362 0.02753
# Poissons Ratio (y) = -0.00242 0.46904
# Poissons Ratio (z) = 0.02276 0.58016
#
# Static dielectric constant tensor:
#      x y z
#    x 1.868870 0.000000 0.000000 
#    y 0.000000 1.793380 0.000000 
#    z 0.000000 0.000000 1.773590 
# 
# From -- ./inp_files/15594.got.cif
#   From: 2010.05.17/outbox.cif.g08.bks.cpg/sg47_8_cif.got.tgz:15594.got - 2010.06.03 20:15:42.
