data_PCOD9381590
_publ_section_title
;
Structure prediction by ZEFSAII (Michael W. Deem and Ramdas Pophale) SiO2 
 PCOD9381590
Probable space group: P M M M
;
_chemical_formula_sum "Si O2"
_cell_formula_units_Z 46
_cell_length_a 27.448771
_cell_length_b 12.508221
_cell_length_c 8.117404
_cell_angle_alpha 90.000000
_cell_angle_beta 90.000000
_cell_angle_gamma 90.000000
_cell_volume 2786.991288
_symmetry_space_group_name_H-M "P M M M"
_symmetry_group_IT_number 47
_symmetry_cell_setting 'orthorhombic'
loop_
_space_group_symop_operation_xyz
x,y,z
-x,-y,z
x,-y,-z
-x,y,-z
-x,-y,-z
x,y,-z
-x,y,z
x,-y,z
loop_
_atom_site_type_symbol
_atom_site_label
_atom_site_fract_x
_atom_site_fract_y
_atom_site_fract_z
Si Si1 0.275821 0.376019 0.804326
Si Si2 0.114883 0.500000 0.699482
Si Si3 0.556369 0.630460 0.000000
Si Si4 0.825437 0.290320 0.300310
Si Si5 0.000000 0.759257 0.192727
Si Si6 0.902764 0.120901 0.697814
Si Si7 0.000000 0.500000 0.771469
Si Si8 0.381941 0.629965 0.683115
O O1 0.265225 0.500000 0.754938
O O2 0.229173 0.305173 0.762481
O O3 0.325639 0.341601 0.716784
O O4 0.284678 0.375929 0.000000
O O5 0.113494 0.500000 0.500000
O O6 0.143743 0.394558 0.753239
O O7 0.059452 0.500000 0.755570
O O8 0.584479 0.665819 0.834778
O O9 0.557503 0.500000 0.000000
O O10 0.500000 0.662773 0.000000
O O11 0.824108 0.290554 0.500000
O O12 0.855734 0.187206 0.243349
O O13 0.951558 0.812626 0.265980
O O14 0.000000 0.631917 0.215866
O O15 0.000000 0.781846 0.000000
O O16 0.898856 0.114997 0.500000
O O17 0.905829 0.000000 0.762744
O O18 0.397160 0.664738 0.500000
O O19 0.383276 0.500000 0.685330
#
# Coordination Sequence:
#
# PCOD9381590 Si02
#       8
#     8   4   4   8   4   8   2   8
#     4  10  18  28  43  65  93 123 152 194 247 298
#     4  10  19  31  51  74  95 118 153 193 238 297
#     4   9  16  26  38  56  86 122 167 215 250 285
#     4  10  19  32  49  72  93 115 151 195 242 294
#     4  12  25  38  54  75  98 123 151 191 243 298
#     4  10  22  40  58  73  92 122 161 199 236 289
#     4  12  22  38  52  74 101 128 149 184 251 310
#     4   9  16  26  40  58  84 121 163 205 251 298
#
# _framework density 16.505254999999998
#
# number of rings (size 3 to 8) (size 9 to 14) (size 15 to 20)
#    0.000    2.000    3.478    1.304    0.000    3.826 
#    0.000    1.739    0.000    0.000    0.000    0.000 
#    0.000    0.000    0.000    0.000    0.000    1.739 
#
# Total GULP energy -256084.815964 kJ/mol
# GULP energy per Si atom -5567.061217 kJ/mol
# Density = 1.646769 g / cm^3
# Si number density = 16.505255 Si / 1000 Ang^3
#
#
#
# Elastic Constant Matrix: (Units=GPa)
#
#
# Indices 1 2 3 4 5 6 
#
# 1 132.2346 33.5146 47.4533 0.0000 0.0000 0.0000
# 2 33.5146 74.1145 18.4733 0.0000 0.0000 0.0000
# 3 47.4533 18.4733 63.8004 0.0000 0.0000 0.0000
# 4 0.0000 0.0000 0.0000 -4.5069 0.0000 0.0000
# 5 0.0000 0.0000 0.0000 0.0000 52.8113 0.0000
# 6 0.0000 0.0000 0.0000 0.0000 0.0000 -0.5233
#
#
#
# Elastic Compliance Matrix: (Units=1/GPa)
#
#
# Indices 1 2 3 4 5 6 
#
# 1 0.010958 -0.003151 -0.007238 0.000000 0.000000 0.000000
# 2 -0.003151 0.015448 -0.002129 0.000000 0.000000 0.000000
# 3 -0.007238 -0.002129 0.021674 0.000000 0.000000 0.000000
# 4 0.000000 0.000000 0.000000 -0.221881 0.000000 0.000000
# 5 0.000000 0.000000 0.000000 0.000000 0.018935 0.000000
# 6 0.000000 0.000000 0.000000 0.000000 0.000000 -1.910976
#
#
# Mechanical properties :
#
#
# Convention : Reuss Voigt Hill
#
# Bulk Modulus (GPa) = 43.39626 52.11466 47.75546
# Shear Modulus (GPa) = -2.45927 20.93677 9.23875
#
# Velocity S-wave (km/s) = -1.22198 3.56545 2.36846
# Velocity P-wave (km/s) = 4.93543 6.97087 6.03952
#
# Compressibility (1/GPa) = 0.02304346
#
# Stress axis : x y z
#
# Youngs Moduli (GPa) = 91.25343 64.73185 46.13818
#
# Poissons Ratio (x) = 0.20399 0.33396
# Poissons Ratio (y) = 0.28756 0.09824
# Poissons Ratio (z) = 0.66051 0.13783
#
# Static dielectric constant tensor:
#      x y z
#    x 1.543630 0.000000 0.000000 
#    y 0.000000 1.548340 0.000000 
#    z 0.000000 0.000000 1.598310 
# 
# From -- ./inp_files/12407.got.cif
#   From: 2010.05.17/outbox.cif.g08.bks.cpg/sg47_7_cif.got.tgz:12407.got - 2010.06.03 20:15:42.
