data_PCOD9381524
_publ_section_title
;
Structure prediction by ZEFSAII (Michael W. Deem and Ramdas Pophale) SiO2 
 PCOD9381524
Probable space group: P M M M
;
_chemical_formula_sum "Si O2"
_cell_formula_units_Z 64
_cell_length_a 7.517526
_cell_length_b 15.383425
_cell_length_c 28.504000
_cell_angle_alpha 90.000000
_cell_angle_beta 90.000000
_cell_angle_gamma 90.000000
_cell_volume 3296.353557
_symmetry_space_group_name_H-M "P M M M"
_symmetry_group_IT_number 47
_symmetry_cell_setting 'orthorhombic'
loop_
_space_group_symop_operation_xyz
x,y,z
-x,-y,z
x,-y,-z
-x,y,-z
-x,-y,-z
x,y,-z
-x,y,z
x,-y,z
loop_
_atom_site_type_symbol
_atom_site_label
_atom_site_fract_x
_atom_site_fract_y
_atom_site_fract_z
Si Si1 0.712286 0.402431 0.326233
Si Si2 0.211891 0.275075 0.862952
Si Si3 0.286279 0.403196 0.946514
Si Si4 0.291571 0.226989 0.367020
Si Si5 0.782927 0.902670 0.174801
Si Si6 0.214745 0.098733 0.283037
Si Si7 0.717254 0.901780 0.553943
Si Si8 0.214531 0.597962 0.782326
O O1 0.500000 0.406177 0.333571
O O2 0.783499 0.500000 0.334703
O O3 0.784973 0.322287 0.356416
O O4 0.740029 0.381424 0.271312
O O5 0.239742 0.327279 0.910769
O O6 0.278500 0.176598 0.857636
O O7 0.282855 0.333862 0.820200
O O8 0.000000 0.269628 0.856345
O O9 0.500000 0.406630 0.947915
O O10 0.223799 0.500000 0.931156
O O11 0.224025 0.388910 0.000000
O O12 0.500000 0.239522 0.377588
O O13 0.279489 0.168822 0.320118
O O14 0.216558 0.169651 0.409493
O O15 0.732512 0.884382 0.229067
O O16 0.000000 0.905275 0.174074
O O17 0.722263 0.000000 0.162478
O O18 0.000000 0.100600 0.284186
O O19 0.271403 0.000000 0.295215
O O20 0.768741 0.885516 0.500000
O O21 0.500000 0.901769 0.555211
O O22 0.772916 0.000000 0.566904
O O23 0.278313 0.500000 0.792473
O O24 0.000000 0.596929 0.785298
#
# Coordination Sequence:
#
# PCOD9381524 Si02
#       8
#     8   8   8   8   8   8   8   8
#     4   9  18  30  41  57  85 118 148 178 213 251
#     4  10  18  28  47  71  90 112 146 185 217 245
#     4   9  19  35  51  67  90 118 143 170 213 268
#     4  10  18  27  43  64  84 110 145 183 217 250
#     4   8  15  28  44  63  90 122 150 175 208 252
#     4   9  17  29  45  65  90 119 146 172 209 258
#     4   8  14  25  41  61  83 105 132 170 217 267
#     4   9  17  28  42  63  90 116 144 179 216 255
#
# _framework density 19.415393999999999
#
# number of rings (size 3 to 8) (size 9 to 14) (size 15 to 20)
#    0.000    3.000    0.000    3.000    0.000    3.750 
#    0.000    2.500    0.000    2.250    0.000    7.000 
#    0.000    0.000    0.000    4.250    0.000    4.625 
#
# Total GULP energy -356981.221057 kJ/mol
# GULP energy per Si atom -5577.831579 kJ/mol
# Density = 1.937120 g / cm^3
# Si number density = 19.415394 Si / 1000 Ang^3
#
#
#
# Elastic Constant Matrix: (Units=GPa)
#
#
# Indices 1 2 3 4 5 6 
#
# 1 48.8482 5.5871 -0.7419 0.0000 0.0000 0.0000
# 2 5.5871 178.0618 112.7807 0.0000 0.0000 0.0000
# 3 -0.7419 112.7807 95.9753 0.0000 0.0000 0.0000
# 4 0.0000 0.0000 0.0000 33.7668 0.0000 0.0000
# 5 0.0000 0.0000 0.0000 0.0000 15.5852 0.0000
# 6 0.0000 0.0000 0.0000 0.0000 0.0000 -0.5232
#
#
#
# Elastic Compliance Matrix: (Units=1/GPa)
#
#
# Indices 1 2 3 4 5 6 
#
# 1 0.020865 -0.002960 0.003639 0.000000 0.000000 0.000000
# 2 -0.002960 0.022382 -0.026324 0.000000 0.000000 0.000000
# 3 0.003639 -0.026324 0.041381 0.000000 0.000000 0.000000
# 4 0.000000 0.000000 0.000000 0.029615 0.000000 0.000000
# 5 0.000000 0.000000 0.000000 0.000000 0.064164 0.000000
# 6 0.000000 0.000000 0.000000 0.000000 0.000000 -1.911194
#
#
# Mechanical properties :
#
#
# Convention : Reuss Voigt Hill
#
# Bulk Modulus (GPa) = 29.99458 62.01523 46.00490
# Shear Modulus (GPa) = -2.99332 23.44970 10.22819
#
# Velocity S-wave (km/s) = -1.24301 3.47910 2.29772
# Velocity P-wave (km/s) = 3.66365 6.93898 5.54850
#
# Compressibility (1/GPa) = 0.03333936
#
# Stress axis : x y z
#
# Youngs Moduli (GPa) = 47.92622 44.67890 24.16582
#
# Poissons Ratio (x) = 0.13224 -0.08795
# Poissons Ratio (y) = 0.14185 0.63614
# Poissons Ratio (z) = -0.17442 1.17612
#
# Static dielectric constant tensor:
#      x y z
#    x 1.854980 0.000000 0.000000 
#    y 0.000000 1.711880 0.000000 
#    z 0.000000 0.000000 1.647370 
# 
# From -- ./inp_files/34423.got.cif
#   From: 2010.05.17/outbox.cif.g08.bks.cpg/sg47_18_cif.got.tgz:34423.got - 2010.06.03 20:15:42.
