data_PCOD9381843
_publ_section_title
;
Structure prediction by ZEFSAII (Michael W. Deem and Ramdas Pophale) SiO2 
 PCOD9381843
Probable space group: P M M M
;
_chemical_formula_sum "Si O2"
_cell_formula_units_Z 40
_cell_length_a 7.729971
_cell_length_b 12.339954
_cell_length_c 21.179855
_cell_angle_alpha 90.000000
_cell_angle_beta 90.000000
_cell_angle_gamma 90.000000
_cell_volume 2020.293134
_symmetry_space_group_name_H-M "P M M M"
_symmetry_group_IT_number 47
_symmetry_cell_setting 'orthorhombic'
loop_
_space_group_symop_operation_xyz
x,y,z
-x,-y,z
x,-y,-z
-x,y,-z
-x,-y,-z
x,y,-z
-x,y,z
x,-y,z
loop_
_atom_site_type_symbol
_atom_site_label
_atom_site_fract_x
_atom_site_fract_y
_atom_site_fract_z
Si Si1 0.790940 0.259759 0.431353
Si Si2 0.292868 0.278160 0.197876
Si Si3 0.289219 0.500000 0.738268
Si Si4 0.207779 0.622909 0.928598
Si Si5 0.798668 0.500000 0.406736
Si Si6 0.707468 0.122158 0.693191
O O1 0.738259 0.213972 0.500000
O O2 0.725229 0.384100 0.427656
O O3 0.739576 0.192376 0.369761
O O4 0.000000 0.263897 0.430145
O O5 0.500000 0.276679 0.203551
O O6 0.230375 0.391898 0.226843
O O7 0.254407 0.288798 0.123871
O O8 0.226496 0.183472 0.243804
O O9 0.500000 0.500000 0.735336
O O10 0.216917 0.500000 0.668343
O O11 0.270990 0.500000 0.912164
O O12 0.000000 0.617501 0.930016
O O13 0.267617 0.646665 0.000000
O O14 0.000000 0.500000 0.426071
O O15 0.500000 0.115294 0.699319
O O16 0.775991 0.000000 0.687151
#
# Coordination Sequence:
#
# PCOD9381843 Si02
#       6
#     8   8   4   8   4   8
#     4  10  21  36  54  77 105 135 168 210 259 311
#     4  10  19  32  51  75 103 132 166 210 256 301
#     4  10  18  29  48  76 104 130 166 213 258 304
#     4   9  18  31  48  75 110 141 166 196 241 300
#     4  10  19  32  52  77 105 135 166 202 253 316
#     4  10  22  39  56  74  99 134 177 221 261 302
#
# _framework density 19.799106999999999
#
# number of rings (size 3 to 8) (size 9 to 14) (size 15 to 20)
#    0.000    2.200    3.000    0.900    0.000    4.400 
#    0.000    3.000    0.000    2.400    0.000    4.200 
#    0.000    0.000    0.000    0.000    0.000    0.000 
#
# Total GULP energy -223076.386006 kJ/mol
# GULP energy per Si atom -5576.909650 kJ/mol
# Density = 1.975404 g / cm^3
# Si number density = 19.799107 Si / 1000 Ang^3
#
#
#
# Elastic Constant Matrix: (Units=GPa)
#
#
# Indices 1 2 3 4 5 6 
#
# 1 28.0894 10.9685 -0.5647 0.0000 0.0000 0.0000
# 2 10.9685 135.0338 81.3882 0.0000 0.0000 0.0000
# 3 -0.5647 81.3882 177.9331 0.0000 0.0000 0.0000
# 4 0.0000 0.0000 0.0000 -169.5964 0.0000 0.0000
# 5 0.0000 0.0000 0.0000 0.0000 24.3860 0.0000
# 6 0.0000 0.0000 0.0000 0.0000 0.0000 12.5140
#
#
#
# Elastic Compliance Matrix: (Units=1/GPa)
#
#
# Indices 1 2 3 4 5 6 
#
# 1 0.037315 -0.004283 0.002078 0.000000 0.000000 0.000000
# 2 -0.004283 0.010716 -0.004915 0.000000 0.000000 0.000000
# 3 0.002078 -0.004915 0.007875 0.000000 0.000000 0.000000
# 4 0.000000 0.000000 0.000000 -0.005896 0.000000 0.000000
# 5 0.000000 0.000000 0.000000 0.000000 0.041007 0.000000
# 6 0.000000 0.000000 0.000000 0.000000 0.000000 0.079910
#
#
# Mechanical properties :
#
#
# Convention : Reuss Voigt Hill
#
# Bulk Modulus (GPa) = 24.00141 58.29337 41.14739
# Shear Modulus (GPa) = 25.11847 -9.92165 7.59841
#
# Velocity S-wave (km/s) = 3.56570 -2.24099 1.96114
# Velocity P-wave (km/s) = 5.39454 4.77601 5.09467
#
# Compressibility (1/GPa) = 0.04166422
#
# Stress axis : x y z
#
# Youngs Moduli (GPa) = 26.79894 93.31869 126.98526
#
# Poissons Ratio (x) = 0.39971 -0.26383
# Poissons Ratio (y) = 0.11479 0.62415
# Poissons Ratio (z) = -0.05568 0.45868
#
# Static dielectric constant tensor:
#      x y z
#    x 1.734740 0.000000 0.000000 
#    y 0.000000 1.699890 0.000000 
#    z 0.000000 0.000000 1.717060 
# 
# From -- ./inp_files/4091.got.cif
#   From: 2010.05.17/outbox.cif.g08.bks.cpg/sg47_3_cif.got.tgz:4091.got - 2010.06.03 20:15:42.
