data_PCOD9381685
_publ_section_title
;
Structure prediction by ZEFSAII (Michael W. Deem and Ramdas Pophale) SiO2 
 PCOD9381685
Probable space group: P M M M
;
_chemical_formula_sum "Si O2"
_cell_formula_units_Z 56
_cell_length_a 7.532393
_cell_length_b 15.748012
_cell_length_c 21.039463
_cell_angle_alpha 90.000000
_cell_angle_beta 90.000000
_cell_angle_gamma 90.000000
_cell_volume 2495.705632
_symmetry_space_group_name_H-M "P M M M"
_symmetry_group_IT_number 47
_symmetry_cell_setting 'orthorhombic'
loop_
_space_group_symop_operation_xyz
x,y,z
-x,-y,z
x,-y,-z
-x,y,-z
-x,-y,-z
x,y,-z
-x,y,z
x,-y,z
loop_
_atom_site_type_symbol
_atom_site_label
_atom_site_fract_x
_atom_site_fract_y
_atom_site_fract_z
Si Si1 0.213693 0.094046 0.163224
Si Si2 0.716530 0.637867 0.431647
Si Si3 0.717254 0.593362 0.844201
Si Si4 0.286885 0.839178 0.568328
Si Si5 0.791906 0.174576 0.294130
Si Si6 0.711820 0.249828 0.071732
Si Si7 0.703591 0.370013 0.295702
O O1 0.275116 0.123122 0.233326
O O2 0.259018 0.164481 0.111481
O O3 0.000000 0.090409 0.166229
O O4 0.279843 0.000000 0.147694
O O5 0.775043 0.602785 0.500000
O O6 0.500000 0.631934 0.430547
O O7 0.759937 0.738623 0.432120
O O8 0.782105 0.603796 0.363965
O O9 0.500000 0.598585 0.841878
O O10 0.763420 0.500000 0.868700
O O11 0.781120 0.670500 0.887563
O O12 0.781793 0.602521 0.771472
O O13 0.223999 0.874850 0.500000
O O14 0.500000 0.844842 0.568185
O O15 0.227730 0.870594 0.637415
O O16 0.702580 0.267122 0.295726
O O17 0.000000 0.191427 0.284813
O O18 0.500000 0.261590 0.067323
O O19 0.782339 0.245621 0.000000
O O20 0.500000 0.399906 0.295750
#
# Coordination Sequence:
#
# PCOD9381685 Si02
#       7
#     8   8   8   8   8   8   8
#     4  10  22  39  57  78 107 144 181 216 262 322
#     4   7  10  17  32  57  86 118 159 202 241 285
#     4   9  17  30  51  79 108 139 175 214 259 314
#     4   8  14  25  42  66  98 136 175 214 261 316
#     4  10  18  28  47  73 100 131 173 223 266 307
#     4  10  21  37  58  84 110 135 170 219 270 318
#     4   9  15  26  46  67  94 134 174 211 257 312
#
# _framework density 22.438542999999999
#
# number of rings (size 3 to 8) (size 9 to 14) (size 15 to 20)
#    0.000    3.000    1.429    2.143    0.000    2.000 
#    0.000    2.857    0.000    2.571    0.000    7.000 
#    0.000    0.000    0.000    7.143    0.000    9.000 
#
# Total GULP energy -312313.551388 kJ/mol
# GULP energy per Si atom -5577.027703 kJ/mol
# Density = 2.238747 g / cm^3
# Si number density = 22.438543 Si / 1000 Ang^3
#
#
#
# Elastic Constant Matrix: (Units=GPa)
#
#
# Indices 1 2 3 4 5 6 
#
# 1 58.0538 0.3729 6.7873 0.0000 0.0000 0.0000
# 2 0.3729 115.6362 98.7803 0.0000 0.0000 0.0000
# 3 6.7873 98.7803 236.1602 0.0000 0.0000 0.0000
# 4 0.0000 0.0000 0.0000 -26.9833 0.0000 0.0000
# 5 0.0000 0.0000 0.0000 0.0000 -4.3931 0.0000
# 6 0.0000 0.0000 0.0000 0.0000 0.0000 23.7560
#
#
#
# Elastic Compliance Matrix: (Units=1/GPa)
#
#
# Indices 1 2 3 4 5 6 
#
# 1 0.017308 0.000574 -0.000738 0.000000 0.000000 0.000000
# 2 0.000574 0.013475 -0.005653 0.000000 0.000000 0.000000
# 3 -0.000738 -0.005653 0.006620 0.000000 0.000000 0.000000
# 4 0.000000 0.000000 0.000000 -0.037060 0.000000 0.000000
# 5 0.000000 0.000000 0.000000 0.000000 -0.227629 0.000000
# 6 0.000000 0.000000 0.000000 0.000000 0.000000 0.042095
#
#
# Mechanical properties :
#
#
# Convention : Reuss Voigt Hill
#
# Bulk Modulus (GPa) = 38.80386 69.08124 53.94255
# Shear Modulus (GPa) = -30.30860 18.73656 -5.78602
#
# Velocity S-wave (km/s) = -3.67923 2.89280 -1.60755
# Velocity P-wave (km/s) = 0.84735 6.48162 4.54387
#
# Compressibility (1/GPa) = 0.02577063
#
# Stress axis : x y z
#
# Youngs Moduli (GPa) = 57.77687 74.21355 151.05793
#
# Poissons Ratio (x) = -0.04262 0.11143
# Poissons Ratio (y) = -0.03318 0.85387
# Poissons Ratio (z) = 0.04262 0.41950
#
# Static dielectric constant tensor:
#      x y z
#    x 1.857430 0.000000 0.000000 
#    y 0.000000 1.821340 0.000000 
#    z 0.000000 0.000000 1.866750 
# 
# From -- ./inp_files/29727.got.cif
#   From: 2010.05.17/outbox.cif.g08.bks.cpg/sg47_15_cif.got.tgz:29727.got - 2010.06.03 20:15:42.
