data_PCOD9381002
_publ_section_title
;
Structure prediction by ZEFSAII (Michael W. Deem and Ramdas Pophale) SiO2 
 PCOD9381002
Probable space group: I M A 2
;
_chemical_formula_sum "Si O2"
_cell_formula_units_Z 44
_cell_length_a 27.703976
_cell_length_b 7.185824
_cell_length_c 8.914315
_cell_angle_alpha 90.000000
_cell_angle_beta 90.000000
_cell_angle_gamma 90.000000
_cell_volume 1774.625243
_symmetry_space_group_name_H-M "I M A 2"
_symmetry_group_IT_number 46
_symmetry_cell_setting 'orthorhombic'
loop_
_space_group_symop_operation_xyz
x,y,z
-x,-y,z
1/2-x,y,z
1/2+x,-y,z
1/2+x,1/2+y,1/2+z
1/2-x,1/2-y,1/2+z
-x,1/2+y,1/2+z
x,1/2-y,1/2+z
loop_
_atom_site_type_symbol
_atom_site_label
_atom_site_fract_x
_atom_site_fract_y
_atom_site_fract_z
Si Si1 0.939579 0.309370 0.145550
Si Si2 0.000000 0.500000 0.585266
Si Si3 0.804377 0.583383 0.520804
Si Si4 0.698815 0.512183 0.879057
Si Si5 0.400031 0.951553 0.361859
Si Si6 0.408697 0.395440 0.379134
O O1 0.901981 0.157833 0.207316
O O2 0.924894 0.495814 0.230334
O O3 0.987826 0.189263 0.174846
O O4 0.938617 0.360093 0.971954
O O5 0.047285 0.447094 0.490019
O O6 0.750000 0.507975 0.478832
O O7 0.808130 0.560167 0.701643
O O8 0.800524 0.800637 0.476122
O O9 0.855399 0.537689 0.436904
O O10 0.750000 0.415997 0.895610
O O11 0.651865 0.406489 0.932573
O O12 0.405643 0.173008 0.353941
#
# Coordination Sequence:
#
# PCOD9381002 Si02
#       6
#     8   4   8   8   8   8
#     4  12  28  50  75 111 152 197 259 311 386 472
#     4  12  28  50  74 112 154 194 246 322 390 456
#     4   9  19  39  70 108 151 200 255 315 386 462
#     4   9  19  37  68 107 147 197 257 317 387 459
#     4  11  27  48  75 107 154 202 251 321 382 458
#     4  11  27  47  77 112 150 201 256 313 387 463
#
# _framework density 24.793965
#
# number of rings (size 3 to 8) (size 9 to 14) (size 15 to 20)
#    0.000    1.455    1.818    1.091   15.273    0.727 
#    0.000    1.818    0.000    1.091    0.000    0.000 
#    0.000    0.000    0.000    0.000    0.000    0.000 
#
# Total GULP energy -122715.820537 kJ/mol
# GULP energy per Si atom -5577.991843 kJ/mol
# Density = 2.473753 g / cm^3
# Si number density = 24.793965 Si / 1000 Ang^3
#
#
#
# Elastic Constant Matrix: (Units=GPa)
#
#
# Indices 1 2 3 4 5 6 
#
# 1 142.6222 37.8129 11.2449 0.0000 0.0000 0.0000
# 2 37.8129 166.5170 40.5258 0.0000 0.0000 0.0000
# 3 11.2449 40.5258 67.6389 0.0000 0.0000 0.0000
# 4 0.0000 0.0000 0.0000 31.9087 0.0000 0.0000
# 5 0.0000 0.0000 0.0000 0.0000 25.0111 0.0000
# 6 0.0000 0.0000 0.0000 0.0000 0.0000 13.5152
#
#
#
# Elastic Compliance Matrix: (Units=1/GPa)
#
#
# Indices 1 2 3 4 5 6 
#
# 1 0.007465 -0.001631 -0.000264 0.000000 0.000000 0.000000
# 2 -0.001631 0.007387 -0.004155 0.000000 0.000000 0.000000
# 3 -0.000264 -0.004155 0.017318 0.000000 0.000000 0.000000
# 4 0.000000 0.000000 0.000000 0.031339 0.000000 0.000000
# 5 0.000000 0.000000 0.000000 0.000000 0.039982 0.000000
# 6 0.000000 0.000000 0.000000 0.000000 0.000000 0.073991
#
#
# Mechanical properties :
#
#
# Convention : Reuss Voigt Hill
#
# Bulk Modulus (GPa) = 49.82500 61.77172 55.79836
# Shear Modulus (GPa) = 25.47503 33.23328 29.35415
#
# Velocity S-wave (km/s) = 3.20889 3.66509 3.44455
# Velocity P-wave (km/s) = 5.81967 6.54818 6.19464
#
# Compressibility (1/GPa) = 0.02007025
#
# Stress axis : x y z
#
# Youngs Moduli (GPa) = 133.96338 135.37507 57.74482
#
# Poissons Ratio (x) = 0.22078 0.01524
# Poissons Ratio (y) = 0.21848 0.23991
# Poissons Ratio (z) = 0.03535 0.56245
#
# Static dielectric constant tensor:
#      x y z
#    x 2.098210 0.000000 0.000000 
#    y 0.000000 1.963160 0.000000 
#    z 0.000000 0.000000 1.978770 
# 
# From -- ./inp_files/8343.got.cif
#   From: 2010.05.17/outbox.cif.g08.bks.cpg/sg46_5_cif.got.tgz:8343.got - 2010.06.03 19:58:25.
