data_PCOD9381905
_publ_section_title
;
Structure prediction by ZEFSAII (Michael W. Deem and Ramdas Pophale) SiO2 
 PCOD9381905
Probable space group: P M M M
;
_chemical_formula_sum "Si O2"
_cell_formula_units_Z 40
_cell_length_a 13.248197
_cell_length_b 9.204032
_cell_length_c 22.801729
_cell_angle_alpha 90.000000
_cell_angle_beta 90.000000
_cell_angle_gamma 90.000000
_cell_volume 2780.370533
_symmetry_space_group_name_H-M "P M M M"
_symmetry_group_IT_number 47
_symmetry_cell_setting 'orthorhombic'
loop_
_space_group_symop_operation_xyz
x,y,z
-x,-y,z
x,-y,-z
-x,y,-z
-x,-y,-z
x,y,-z
-x,y,z
x,-y,z
loop_
_atom_site_type_symbol
_atom_site_label
_atom_site_fract_x
_atom_site_fract_y
_atom_site_fract_z
Si Si1 0.619954 0.827599 0.235755
Si Si2 0.500000 0.326639 0.430046
Si Si3 0.622935 0.667397 0.117511
Si Si4 0.886970 0.823479 0.432316
Si Si5 0.376923 0.167408 0.000000
Si Si6 0.313167 0.824037 0.365020
O O1 0.500000 0.799956 0.244488
O O2 0.654535 0.742208 0.178192
O O3 0.674575 0.789196 0.296314
O O4 0.631160 0.000000 0.225391
O O5 0.500000 0.500000 0.419516
O O6 0.500000 0.302077 0.500000
O O7 0.597887 0.253036 0.400917
O O8 0.500000 0.671628 0.117433
O O9 0.653687 0.500000 0.115033
O O10 0.656053 0.752276 0.059299
O O11 0.868960 0.779589 0.500000
O O12 0.794834 0.779134 0.391243
O O13 0.000000 0.775327 0.415232
O O14 0.888024 0.000000 0.431828
O O15 0.500000 0.170062 0.000000
O O16 0.345797 0.000000 0.000000
O O17 0.324217 0.000000 0.370789
#
# Coordination Sequence:
#
# PCOD9381905 Si02
#       6
#     8   4   8   8   4   8
#     4   9  16  26  37  53  77 104 136 170 203 244
#     4  11  23  33  41  59  87 112 137 174 217 257
#     4   9  16  24  35  51  72 101 136 170 203 240
#     4   8  14  25  43  67  88 104 131 176 223 261
#     4   9  15  23  35  51  71  99 134 173 208 233
#     4  10  18  30  47  64  82 110 144 176 211 258
#
# _framework density 14.386571
#
# number of rings (size 3 to 8) (size 9 to 14) (size 15 to 20)
#    0.000    2.800    1.000    2.400    0.000    6.000 
#    0.000    0.000    0.000    0.600    0.000    2.800 
#    0.000    0.000    0.000    0.900    0.000   21.300 
#
# Total GULP energy -222780.065408 kJ/mol
# GULP energy per Si atom -5569.501635 kJ/mol
# Density = 1.435383 g / cm^3
# Si number density = 14.386571 Si / 1000 Ang^3
#
#
#
# Elastic Constant Matrix: (Units=GPa)
#
#
# Indices 1 2 3 4 5 6 
#
# 1 73.6004 32.4487 65.8389 0.0000 0.0000 0.0000
# 2 32.4487 56.7646 70.2171 0.0000 0.0000 0.0000
# 3 65.8389 70.2171 154.5795 0.0000 0.0000 0.0000
# 4 0.0000 0.0000 0.0000 16.9897 0.0000 0.0000
# 5 0.0000 0.0000 0.0000 0.0000 10.6260 0.0000
# 6 0.0000 0.0000 0.0000 0.0000 0.0000 2.9430
#
#
#
# Elastic Compliance Matrix: (Units=1/GPa)
#
#
# Indices 1 2 3 4 5 6 
#
# 1 0.022076 -0.002256 -0.008378 0.000000 0.000000 0.000000
# 2 -0.002256 0.040442 -0.017410 0.000000 0.000000 0.000000
# 3 -0.008378 -0.017410 0.017946 0.000000 0.000000 0.000000
# 4 0.000000 0.000000 0.000000 0.058859 0.000000 0.000000
# 5 0.000000 0.000000 0.000000 0.000000 0.094109 0.000000
# 6 0.000000 0.000000 0.000000 0.000000 0.000000 0.339785
#
#
# Mechanical properties :
#
#
# Convention : Reuss Voigt Hill
#
# Bulk Modulus (GPa) = 41.02351 69.10600 55.06476
# Shear Modulus (GPa) = 7.84402 13.87439 10.85921
#
# Velocity S-wave (km/s) = 2.33755 3.10885 2.75037
# Velocity P-wave (km/s) = 5.98854 7.81191 6.96019
#
# Compressibility (1/GPa) = 0.02437627
#
# Stress axis : x y z
#
# Youngs Moduli (GPa) = 45.29836 24.72694 55.72387
#
# Poissons Ratio (x) = 0.05579 0.46684
# Poissons Ratio (y) = 0.10220 0.97013
# Poissons Ratio (z) = 0.37950 0.43048
#
# Static dielectric constant tensor:
#      x y z
#    x 1.451520 0.000000 0.000000 
#    y 0.000000 1.476960 0.000000 
#    z 0.000000 0.000000 1.472480 
# 
# From -- ./inp_files/30727.got.cif
#   From: 2010.05.17/outbox.cif.g08.bks.cpg/sg47_16_cif.got.tgz:30727.got - 2010.06.03 20:15:42.
