data_PCOD9381568
_publ_section_title
;
Structure prediction by ZEFSAII (Michael W. Deem and Ramdas Pophale) SiO2 
 PCOD9381568
Probable space group: P M M M
;
_chemical_formula_sum "Si O2"
_cell_formula_units_Z 40
_cell_length_a 18.814875
_cell_length_b 17.357604
_cell_length_c 9.021666
_cell_angle_alpha 90.000000
_cell_angle_beta 90.000000
_cell_angle_gamma 90.000000
_cell_volume 2946.306053
_symmetry_space_group_name_H-M "P M M M"
_symmetry_group_IT_number 47
_symmetry_cell_setting 'orthorhombic'
loop_
_space_group_symop_operation_xyz
x,y,z
-x,-y,z
x,-y,-z
-x,y,-z
-x,-y,-z
x,y,-z
-x,y,z
x,-y,z
loop_
_atom_site_type_symbol
_atom_site_label
_atom_site_fract_x
_atom_site_fract_y
_atom_site_fract_z
Si Si1 0.276136 0.089598 0.821687
Si Si2 0.137962 0.813586 0.820478
Si Si3 0.000000 0.087944 0.819835
Si Si4 0.915492 0.659860 0.677010
Si Si5 0.422052 0.093288 0.674061
Si Si6 0.913732 0.500000 0.170754
O O1 0.210163 0.142797 0.776779
O O2 0.351530 0.118108 0.759122
O O3 0.264951 0.000000 0.775053
O O4 0.279085 0.089506 0.000000
O O5 0.126721 0.730613 0.748028
O O6 0.070638 0.866281 0.775958
O O7 0.136989 0.806397 0.000000
O O8 0.000000 0.000000 0.766864
O O9 0.000000 0.085595 0.000000
O O10 0.908053 0.658432 0.500000
O O11 0.892626 0.578195 0.746092
O O12 0.000000 0.670550 0.710965
O O13 0.416225 0.112079 0.500000
O O14 0.500000 0.120210 0.727803
O O15 0.422909 0.000000 0.685328
O O16 0.000000 0.500000 0.171286
O O17 0.890282 0.500000 0.000000
#
# Coordination Sequence:
#
# PCOD9381568 Si02
#       6
#     8   8   4   8   8   4
#     4   9  17  27  39  58  81 104 136 177 214 244
#     4  10  18  28  42  58  78 106 141 175 207 244
#     4   9  16  26  41  56  71 100 143 183 210 233
#     4  10  19  30  43  60  82 104 130 166 208 248
#     4   8  14  25  40  56  74  99 131 164 202 252
#     4   9  17  29  47  65  79  97 126 161 202 251
#
# _framework density 13.576323
#
# number of rings (size 3 to 8) (size 9 to 14) (size 15 to 20)
#    0.000    2.800    1.000    2.100    0.000    5.600 
#    0.000    2.000    0.000    2.400    0.000    0.000 
#    0.000    0.000    0.000    0.900    0.000   16.800 
#
# Total GULP energy -222757.409665 kJ/mol
# GULP energy per Si atom -5568.935242 kJ/mol
# Density = 1.354542 g / cm^3
# Si number density = 13.576323 Si / 1000 Ang^3
#
#
#
# Elastic Constant Matrix: (Units=GPa)
#
#
# Indices 1 2 3 4 5 6 
#
# 1 117.4542 57.7735 35.3646 0.0000 0.0000 0.0000
# 2 57.7735 103.4135 33.3230 0.0000 0.0000 0.0000
# 3 35.3646 33.3230 27.5182 0.0000 0.0000 0.0000
# 4 0.0000 0.0000 0.0000 12.3527 0.0000 0.0000
# 5 0.0000 0.0000 0.0000 0.0000 18.2423 0.0000
# 6 0.0000 0.0000 0.0000 0.0000 0.0000 4.0678
#
#
#
# Elastic Compliance Matrix: (Units=1/GPa)
#
#
# Indices 1 2 3 4 5 6 
#
# 1 0.014607 -0.003463 -0.014579 0.000000 0.000000 0.000000
# 2 -0.003463 0.016678 -0.015747 0.000000 0.000000 0.000000
# 3 -0.014579 -0.015747 0.074144 0.000000 0.000000 0.000000
# 4 0.000000 0.000000 0.000000 0.080954 0.000000 0.000000
# 5 0.000000 0.000000 0.000000 0.000000 0.054818 0.000000
# 6 0.000000 0.000000 0.000000 0.000000 0.000000 0.245835
#
#
# Mechanical properties :
#
#
# Convention : Reuss Voigt Hill
#
# Bulk Modulus (GPa) = 26.41809 55.70091 41.05950
# Shear Modulus (GPa) = 8.81479 15.06087 11.93783
#
# Velocity S-wave (km/s) = 2.55085 3.33430 2.96854
# Velocity P-wave (km/s) = 5.30820 7.47934 6.48527
#
# Compressibility (1/GPa) = 0.03785285
#
# Stress axis : x y z
#
# Youngs Moduli (GPa) = 68.46207 59.95764 13.48732
#
# Poissons Ratio (x) = 0.20761 0.19663
# Poissons Ratio (y) = 0.23705 0.21238
# Poissons Ratio (z) = 0.99808 0.94414
#
# Static dielectric constant tensor:
#      x y z
#    x 1.444870 0.000000 0.000000 
#    y 0.000000 1.425670 0.000000 
#    z 0.000000 0.000000 1.453700 
# 
# From -- ./inp_files/9331.got.cif
#   From: 2010.05.17/outbox.cif.g08.bks.cpg/sg47_5_cif.got.tgz:9331.got - 2010.06.03 20:15:42.
