data_PCOD9381224
_publ_section_title
;
Structure prediction by ZEFSAII (Michael W. Deem and Ramdas Pophale) SiO2 
 PCOD9381224
Probable space group: P M M M
;
_chemical_formula_sum "Si O2"
_cell_formula_units_Z 56
_cell_length_a 24.216152
_cell_length_b 7.515848
_cell_length_c 15.170830
_cell_angle_alpha 90.000000
_cell_angle_beta 90.000000
_cell_angle_gamma 90.000000
_cell_volume 2761.165664
_symmetry_space_group_name_H-M "P M M M"
_symmetry_group_IT_number 47
_symmetry_cell_setting 'orthorhombic'
loop_
_space_group_symop_operation_xyz
x,y,z
-x,-y,z
x,-y,-z
-x,y,-z
-x,-y,-z
x,y,-z
-x,y,z
x,-y,z
loop_
_atom_site_type_symbol
_atom_site_label
_atom_site_fract_x
_atom_site_fract_y
_atom_site_fract_z
Si Si1 0.059857 0.712869 0.223662
Si Si2 0.286569 0.786242 0.100194
Si Si3 0.436968 0.282866 0.600464
Si Si4 0.111747 0.717388 0.599008
Si Si5 0.163271 0.786962 0.099775
Si Si6 0.761924 0.716583 0.600555
Si Si7 0.337576 0.288207 0.279846
O O1 0.056286 0.500000 0.229102
O O2 0.073296 0.779093 0.321979
O O3 0.112407 0.746680 0.162486
O O4 0.000000 0.779488 0.192109
O O5 0.224598 0.722182 0.126467
O O6 0.329619 0.740025 0.176174
O O7 0.284898 0.000000 0.096677
O O8 0.297820 0.723930 0.000000
O O9 0.421641 0.231896 0.500000
O O10 0.500000 0.225583 0.617179
O O11 0.437424 0.500000 0.601687
O O12 0.392552 0.220339 0.671948
O O13 0.097064 0.774094 0.500000
O O14 0.111121 0.500000 0.598573
O O15 0.175099 0.772231 0.617995
O O16 0.167052 0.000000 0.096435
O O17 0.152916 0.722708 0.000000
O O18 0.747602 0.766687 0.500000
O O19 0.762348 0.500000 0.603115
O O20 0.716687 0.781979 0.669346
O O21 0.337836 0.500000 0.293780
#
# Coordination Sequence:
#
# PCOD9381224 Si02
#       7
#     8   8   8   8   8   8   8
#     4  10  20  31  45  69  96 118 146 188 232 268
#     4   9  19  35  51  67  90 119 149 186 237 290
#     4   8  14  25  42  68 104 140 167 191 223 265
#     4   8  14  25  40  59  87 120 147 174 215 266
#     4   9  19  36  54  68  85 115 152 185 225 284
#     4   8  13  21  36  62  92 116 141 178 223 267
#     4  10  17  25  45  74  97 120 155 195 229 265
#
# _framework density 20.281289000000001
#
# number of rings (size 3 to 8) (size 9 to 14) (size 15 to 20)
#    0.000    3.143    0.000    3.429    0.000    4.857 
#    0.000    4.286    0.000    3.000    0.000   11.000 
#    0.000    0.000    0.000    0.000    0.000    0.000 
#
# Total GULP energy -312326.979655 kJ/mol
# GULP energy per Si atom -5577.267494 kJ/mol
# Density = 2.023513 g / cm^3
# Si number density = 20.281289 Si / 1000 Ang^3
#
#
#
# Elastic Constant Matrix: (Units=GPa)
#
#
# Indices 1 2 3 4 5 6 
#
# 1 104.9267 4.6931 90.8829 0.0000 0.0000 0.0000
# 2 4.6931 49.9322 -0.6479 0.0000 0.0000 0.0000
# 3 90.8829 -0.6479 119.6633 0.0000 0.0000 0.0000
# 4 0.0000 0.0000 0.0000 24.4865 0.0000 0.0000
# 5 0.0000 0.0000 0.0000 0.0000 17.5564 0.0000
# 6 0.0000 0.0000 0.0000 0.0000 0.0000 -2.0979
#
#
#
# Elastic Compliance Matrix: (Units=1/GPa)
#
#
# Indices 1 2 3 4 5 6 
#
# 1 0.028278 -0.002937 -0.021492 0.000000 0.000000 0.000000
# 2 -0.002937 0.020334 0.002340 0.000000 0.000000 0.000000
# 3 -0.021492 0.002340 0.024693 0.000000 0.000000 0.000000
# 4 0.000000 0.000000 0.000000 0.040839 0.000000 0.000000
# 5 0.000000 0.000000 0.000000 0.000000 0.056959 0.000000
# 6 0.000000 0.000000 0.000000 0.000000 0.000000 -0.476674
#
#
# Mechanical properties :
#
#
# Convention : Reuss Voigt Hill
#
# Bulk Modulus (GPa) = 34.33291 51.59761 42.96526
# Shear Modulus (GPa) = -19.86606 19.96194 0.04794
#
# Velocity S-wave (km/s) = -3.13313 3.14069 0.15391
# Velocity P-wave (km/s) = 1.96886 6.21676 4.61110
#
# Compressibility (1/GPa) = 0.02912657
#
# Stress axis : x y z
#
# Youngs Moduli (GPa) = 35.36371 49.17985 40.49783
#
# Poissons Ratio (x) = 0.14443 0.87040
# Poissons Ratio (y) = 0.10385 -0.09478
# Poissons Ratio (z) = 0.76005 -0.11510
#
# Static dielectric constant tensor:
#      x y z
#    x 1.724330 0.000000 0.000000 
#    y 0.000000 1.793110 0.000000 
#    z 0.000000 0.000000 1.717420 
# 
# From -- ./inp_files/25144.got.cif
#   From: 2010.05.17/outbox.cif.g08.bks.cpg/sg47_13_cif.got.tgz:25144.got - 2010.06.03 20:15:42.
