data_PCOD9381128
_publ_section_title
;
Structure prediction by ZEFSAII (Michael W. Deem and Ramdas Pophale) SiO2 
 PCOD9381128
Probable space group: I M A 2
;
_chemical_formula_sum "Si O2"
_cell_formula_units_Z 32
_cell_length_a 9.000000
_cell_length_b 15.000000
_cell_length_c 24.000000
_cell_angle_alpha 90.000000
_cell_angle_beta 90.000000
_cell_angle_gamma 90.000000
_cell_volume 3240.000000
_symmetry_space_group_name_H-M "I M A 2"
_symmetry_group_IT_number 46
_symmetry_cell_setting 'orthorhombic'
loop_
_space_group_symop_operation_xyz
x,y,z
-x,-y,z
1/2-x,y,z
1/2+x,-y,z
1/2+x,1/2+y,1/2+z
1/2-x,1/2-y,1/2+z
-x,1/2+y,1/2+z
x,1/2-y,1/2+z
loop_
_atom_site_type_symbol
_atom_site_label
_atom_site_fract_x
_atom_site_fract_y
_atom_site_fract_z
Si Si1 0.075294 0.349870 0.787770
Si Si2 0.572000 0.270742 0.997414
Si Si3 0.926715 0.092040 0.934302
Si Si4 0.924639 0.335558 0.313474
Si Si5 0.428087 0.261741 0.115756
Si Si6 0.073518 0.091963 0.413522
Si Si7 0.071973 0.593623 0.672960
Si Si8 0.924195 0.091609 0.692405
O O1 0.250000 0.355507 0.773128
O O2 0.051502 0.397533 0.847054
O O3 0.024862 0.249137 0.799512
O O4 0.978882 0.386169 0.736605
O O5 0.750000 0.282061 0.002647
O O6 0.539932 0.170157 0.977612
O O7 0.508552 0.331448 0.947894
O O8 0.490756 0.289611 0.055482
O O9 0.750000 0.081036 0.932220
O O10 0.972921 0.120753 0.871588
O O11 0.000000 0.000000 0.950161
O O12 0.750000 0.308282 0.319464
O O13 0.933211 0.397687 0.259277
O O14 0.250000 0.256898 0.115665
O O15 0.502122 0.168797 0.133670
O O16 0.486834 0.330234 0.162199
O O17 0.250000 0.094530 0.423987
O O18 0.000000 0.000000 0.431697
O O19 0.250000 0.593393 0.669571
O O20 0.000000 0.500000 0.657333
O O21 0.750000 0.095985 0.677288
O O22 0.000000 0.000000 0.675378
#
# Coordination Sequence:
#
# PCOD9381128 Si02
#       8
#     8   8   8   8   8   8   8   8
#     4  11  22  37  63  97 131 169 209 255 316 381
#     4  11  24  44  67  91 124 167 214 264 316 373
#     4  10  22  39  63  94 127 166 207 252 309 368
#     4  10  20  37  62  93 129 169 205 251 313 376
#     4  12  26  45  67  93 126 165 214 268 320 379
#     4  11  24  41  64  96 129 167 210 259 316 378
#     4  12  25  43  67  96 130 168 212 261 317 381
#     4  11  23  40  65  96 130 169 211 258 313 378
#
# _framework density 9.8765429999999999
#
# number of rings (size 3 to 8) (size 9 to 14) (size 15 to 20)
#    0.000    1.000    2.500    4.500    0.000    5.500 
#    0.000    3.750    0.000    0.000    0.000    0.000 
#    0.000    0.000    0.000    0.000    0.000    0.000 
#
# Total GULP energy -178938.051015 kJ/mol
# GULP energy per Si atom -5591.814094 kJ/mol
# Density = 0.985406 g / cm^3
# Si number density = 9.876543 Si / 1000 Ang^3
#
#
#
# Elastic Constant Matrix: (Units=GPa)
#
#
# Indices 1 2 3 4 5 6 
#
# 1 114.7727 27.8682 22.8060 0.0000 0.0000 0.0000
# 2 27.8682 76.8416 -26.5136 0.0000 0.0000 0.0000
# 3 22.8060 -26.5136 35.7398 0.0000 0.0000 0.0000
# 4 0.0000 0.0000 0.0000 -18.4275 0.0000 0.0000
# 5 0.0000 0.0000 0.0000 0.0000 29.2265 0.0000
# 6 0.0000 0.0000 0.0000 0.0000 0.0000 31.4912
#
#
#
# Elastic Compliance Matrix: (Units=1/GPa)
#
#
# Indices 1 2 3 4 5 6 
#
# 1 0.015353 -0.012027 -0.018719 0.000000 0.000000 0.000000
# 2 -0.012027 0.026912 0.027639 0.000000 0.000000 0.000000
# 3 -0.018719 0.027639 0.060429 0.000000 0.000000 0.000000
# 4 0.000000 0.000000 0.000000 -0.054267 0.000000 0.000000
# 5 0.000000 0.000000 0.000000 0.000000 0.034216 0.000000
# 6 0.000000 0.000000 0.000000 0.000000 0.000000 0.031755
#
#
# Mechanical properties :
#
#
# Convention : Reuss Voigt Hill
#
# Bulk Modulus (GPa) = 10.36472 30.63058 20.49765
# Shear Modulus (GPa) = 32.72896 22.00426 27.36661
#
# Velocity S-wave (km/s) = 4.07492 3.34123 3.72618
# Velocity P-wave (km/s) = 5.23436 5.51593 5.37699
#
# Compressibility (1/GPa) = 0.09648109
#
# Stress axis : x y z
#
# Youngs Moduli (GPa) = 65.13559 37.15794 16.54844
#
# Poissons Ratio (x) = 0.44689 0.30976
# Poissons Ratio (y) = 0.78336 -0.45738
# Poissons Ratio (z) = 1.21925 -1.02701
#
# Static dielectric constant tensor:
#      x y z
#    x 1.644760 0.000000 0.000000 
#    y 0.000000 1.968530 0.000000 
#    z 0.000000 0.000000 1.685440 
# 
# From -- ./inp_files/23240.got.cif
#   From: 2010.05.17/outbox.ucp.g08.bks.cvg/sg46_12_cif.got.tgz:23240.got - 2010.06.11 16:34:52.
