data_PCOD9381788
_publ_section_title
;
Structure prediction by ZEFSAII (Michael W. Deem and Ramdas Pophale) SiO2 
 PCOD9381788
Probable space group: P M M M
;
_chemical_formula_sum "Si O2"
_cell_formula_units_Z 36
_cell_length_a 9.366379
_cell_length_b 10.521254
_cell_length_c 22.686280
_cell_angle_alpha 90.000000
_cell_angle_beta 90.000000
_cell_angle_gamma 90.000000
_cell_volume 2235.643340
_symmetry_space_group_name_H-M "P M M M"
_symmetry_group_IT_number 47
_symmetry_cell_setting 'orthorhombic'
loop_
_space_group_symop_operation_xyz
x,y,z
-x,-y,z
x,-y,-z
-x,y,-z
-x,-y,-z
x,y,-z
-x,y,z
x,-y,z
loop_
_atom_site_type_symbol
_atom_site_label
_atom_site_fract_x
_atom_site_fract_y
_atom_site_fract_z
Si Si1 0.673537 0.000000 0.931969
Si Si2 0.164149 0.654561 0.385326
Si Si3 0.673196 0.500000 0.066923
Si Si4 0.672738 0.749121 0.859492
Si Si5 0.663799 0.344804 0.500000
Si Si6 0.172119 0.349436 0.252564
O O1 0.714617 0.874689 0.895591
O O2 0.500000 0.000000 0.934526
O O3 0.723532 0.000000 0.000000
O O4 0.164323 0.500000 0.385613
O O5 0.257909 0.697476 0.440328
O O6 0.211957 0.689717 0.319364
O O7 0.000000 0.694506 0.393450
O O8 0.500000 0.500000 0.064604
O O9 0.714267 0.373782 0.101850
O O10 0.726099 0.500000 0.000000
O O11 0.500000 0.749279 0.852486
O O12 0.748254 0.731377 0.796820
O O13 0.668275 0.500000 0.500000
O O14 0.500000 0.305932 0.500000
O O15 0.207555 0.500000 0.244987
O O16 0.000000 0.338995 0.247623
#
# Coordination Sequence:
#
# PCOD9381788 Si02
#       6
#     4   8   4   8   4   8
#     4   9  18  32  49  69  93 120 149 186 233 281
#     4   8  14  24  37  52  76 115 154 181 214 266
#     4   9  16  26  43  67  89 110 143 184 221 265
#     4  10  18  29  47  69  90 115 150 190 230 272
#     4   9  15  21  31  53  83 114 147 186 225 256
#     4   9  17  29  44  63  89 120 152 189 232 273
#
# _framework density 16.102747999999998
#
# number of rings (size 3 to 8) (size 9 to 14) (size 15 to 20)
#    0.000    3.000    1.111    2.333    0.000    4.889 
#    0.000    2.778    0.000    4.000    0.000    0.000 
#    0.000    0.889    0.000   10.000    0.000    7.556 
#
# Total GULP energy -200451.040078 kJ/mol
# GULP energy per Si atom -5568.084447 kJ/mol
# Density = 1.606610 g / cm^3
# Si number density = 16.102748 Si / 1000 Ang^3
#
#
#
# Elastic Constant Matrix: (Units=GPa)
#
#
# Indices 1 2 3 4 5 6 
#
# 1 37.8507 23.9189 68.1352 0.0000 0.0000 0.0000
# 2 23.9189 78.9878 61.9398 0.0000 0.0000 0.0000
# 3 68.1352 61.9398 200.1115 0.0000 0.0000 0.0000
# 4 0.0000 0.0000 0.0000 14.9137 0.0000 0.0000
# 5 0.0000 0.0000 0.0000 0.0000 37.1511 0.0000
# 6 0.0000 0.0000 0.0000 0.0000 0.0000 7.8919
#
#
#
# Elastic Compliance Matrix: (Units=1/GPa)
#
#
# Indices 1 2 3 4 5 6 
#
# 1 0.068881 -0.003258 -0.022445 0.000000 0.000000 0.000000
# 2 -0.003258 0.016872 -0.004113 0.000000 0.000000 0.000000
# 3 -0.022445 -0.004113 0.013912 0.000000 0.000000 0.000000
# 4 0.000000 0.000000 0.000000 0.067052 0.000000 0.000000
# 5 0.000000 0.000000 0.000000 0.000000 0.026917 0.000000
# 6 0.000000 0.000000 0.000000 0.000000 0.000000 0.126712
#
#
# Mechanical properties :
#
#
# Convention : Reuss Voigt Hill
#
# Bulk Modulus (GPa) = 24.97865 69.43751 47.20808
# Shear Modulus (GPa) = 12.71221 22.85509 17.78365
#
# Velocity S-wave (km/s) = 2.81275 3.77148 3.32684
# Velocity P-wave (km/s) = 5.10828 7.88547 6.64361
#
# Compressibility (1/GPa) = 0.04003418
#
# Stress axis : x y z
#
# Youngs Moduli (GPa) = 14.51781 59.26946 71.87844
#
# Poissons Ratio (x) = 0.19310 1.61328
# Poissons Ratio (y) = 0.04730 0.29564
# Poissons Ratio (z) = 0.32585 0.24378
#
# Static dielectric constant tensor:
#      x y z
#    x 1.534480 0.000000 0.000000 
#    y 0.000000 1.525510 0.000000 
#    z 0.000000 0.000000 1.549640 
# 
# From -- ./inp_files/15048.got.cif
#   From: 2010.05.17/outbox.cif.g08.bks.cpg/sg47_8_cif.got.tgz:15048.got - 2010.06.03 20:15:42.
