data_PCOD9381439
_publ_section_title
;
Structure prediction by ZEFSAII (Michael W. Deem and Ramdas Pophale) SiO2 
 PCOD9381439
Probable space group: P M M M
;
_chemical_formula_sum "Si O2"
_cell_formula_units_Z 48
_cell_length_a 8.336507
_cell_length_b 17.698770
_cell_length_c 17.423661
_cell_angle_alpha 90.000000
_cell_angle_beta 90.000000
_cell_angle_gamma 90.000000
_cell_volume 2570.790092
_symmetry_space_group_name_H-M "P M M M"
_symmetry_group_IT_number 47
_symmetry_cell_setting 'orthorhombic'
loop_
_space_group_symop_operation_xyz
x,y,z
-x,-y,z
x,-y,-z
-x,y,-z
-x,-y,-z
x,y,-z
-x,y,z
x,-y,z
loop_
_atom_site_type_symbol
_atom_site_label
_atom_site_fract_x
_atom_site_fract_y
_atom_site_fract_z
Si Si1 0.306872 0.329718 0.414013
Si Si2 0.811816 0.500000 0.215488
Si Si3 0.181999 0.342976 0.863460
Si Si4 0.685261 0.500000 0.619727
Si Si5 0.814971 0.225284 0.275997
Si Si6 0.672223 0.734757 0.000000
Si Si7 0.804822 0.085285 0.826057
Si Si8 0.183389 0.887773 0.000000
O O1 0.260392 0.305480 0.500000
O O2 0.500000 0.334511 0.409905
O O3 0.246287 0.417131 0.403319
O O4 0.256714 0.268975 0.349517
O O5 0.785771 0.426145 0.165930
O O6 0.699875 0.500000 0.288870
O O7 0.000000 0.500000 0.241123
O O8 0.188126 0.287137 0.791496
O O9 0.000000 0.340256 0.894849
O O10 0.305414 0.315634 0.925956
O O11 0.500000 0.500000 0.593610
O O12 0.746518 0.149728 0.233641
O O13 0.000000 0.208113 0.295612
O O14 0.808536 0.797582 0.000000
O O15 0.500000 0.773955 0.000000
O O16 0.747912 0.091658 0.915500
O O17 0.000000 0.094846 0.830233
O O18 0.770499 0.000000 0.799825
O O19 0.000000 0.915344 0.000000
#
# Coordination Sequence:
#
# PCOD9381439 Si02
#       8
#     8   4   8   4   8   4   8   4
#     4  10  21  36  54  78 109 143 176 211 257 315
#     4  10  20  34  54  75 100 134 175 220 265 312
#     4  10  20  36  54  73 100 138 180 219 263 311
#     4  10  19  32  53  79 107 138 172 213 260 309
#     4  10  19  33  56  81 106 136 172 217 263 312
#     4  12  24  34  50  75 104 140 182 225 260 299
#     4   9  17  30  53  84 110 135 172 215 260 312
#     4  10  17  32  55  79 107 140 173 212 261 314
#
# _framework density 18.671303000000002
#
# number of rings (size 3 to 8) (size 9 to 14) (size 15 to 20)
#    0.000    2.000    3.333    1.250    0.000    4.000 
#    0.000    1.667    0.000    4.500    0.000    3.500 
#    0.000    0.000    0.000    0.000    0.000    0.000 
#
# Total GULP energy -267349.693396 kJ/mol
# GULP energy per Si atom -5569.785279 kJ/mol
# Density = 1.862881 g / cm^3
# Si number density = 18.671303 Si / 1000 Ang^3
#
#
#
# Elastic Constant Matrix: (Units=GPa)
#
#
# Indices 1 2 3 4 5 6 
#
# 1 16.8909 15.7609 24.9017 0.0000 0.0000 0.0000
# 2 15.7609 149.0228 62.6689 0.0000 0.0000 0.0000
# 3 24.9017 62.6689 115.9780 0.0000 0.0000 0.0000
# 4 0.0000 0.0000 0.0000 78.1514 0.0000 0.0000
# 5 0.0000 0.0000 0.0000 0.0000 20.8711 0.0000
# 6 0.0000 0.0000 0.0000 0.0000 0.0000 -2.9894
#
#
#
# Elastic Compliance Matrix: (Units=1/GPa)
#
#
# Indices 1 2 3 4 5 6 
#
# 1 0.086971 -0.001741 -0.017733 0.000000 0.000000 0.000000
# 2 -0.001741 0.008718 -0.004337 0.000000 0.000000 0.000000
# 3 -0.017733 -0.004337 0.014773 0.000000 0.000000 0.000000
# 4 0.000000 0.000000 0.000000 0.012796 0.000000 0.000000
# 5 0.000000 0.000000 0.000000 0.000000 0.047913 0.000000
# 6 0.000000 0.000000 0.000000 0.000000 0.000000 -0.334519
#
#
# Mechanical properties :
#
#
# Convention : Reuss Voigt Hill
#
# Bulk Modulus (GPa) = 15.91329 54.28386 35.09857
# Shear Modulus (GPa) = -52.75424 31.11064 -10.82180
#
# Velocity S-wave (km/s) = -5.32123 4.08637 -2.41009
# Velocity P-wave (km/s) = 5.40487 7.16946 3.33080
#
# Compressibility (1/GPa) = 0.06284057
#
# Stress axis : x y z
#
# Youngs Moduli (GPa) = 11.49813 114.69918 67.68937
#
# Poissons Ratio (x) = 0.19968 1.20032
# Poissons Ratio (y) = 0.02002 0.29358
# Poissons Ratio (z) = 0.20389 0.49748
#
# Static dielectric constant tensor:
#      x y z
#    x 1.706240 0.000000 0.000000 
#    y 0.000000 1.650160 0.000000 
#    z 0.000000 0.000000 1.638120 
# 
# From -- ./inp_files/21173.got.cif
#   From: 2010.05.17/outbox.cif.g08.bks.cpg/sg47_11_cif.got.tgz:21173.got - 2010.06.03 20:15:42.
