data_PCOD9381875
_publ_section_title
;
Structure prediction by ZEFSAII (Michael W. Deem and Ramdas Pophale) SiO2 
 PCOD9381875
Probable space group: P M M M
;
_chemical_formula_sum "Si O2"
_cell_formula_units_Z 46
_cell_length_a 25.506515
_cell_length_b 12.340072
_cell_length_c 9.130730
_cell_angle_alpha 90.000000
_cell_angle_beta 90.000000
_cell_angle_gamma 90.000000
_cell_volume 2873.917643
_symmetry_space_group_name_H-M "P M M M"
_symmetry_group_IT_number 47
_symmetry_cell_setting 'orthorhombic'
loop_
_space_group_symop_operation_xyz
x,y,z
-x,-y,z
x,-y,-z
-x,y,-z
-x,-y,-z
x,y,-z
-x,y,z
x,-y,z
loop_
_atom_site_type_symbol
_atom_site_label
_atom_site_fract_x
_atom_site_fract_y
_atom_site_fract_z
Si Si1 0.286345 0.369020 0.828090
Si Si2 0.120546 0.500000 0.833741
Si Si3 0.500000 0.632134 0.830605
Si Si4 0.820100 0.304892 0.324006
Si Si5 0.000000 0.746716 0.327293
Si Si6 0.898621 0.123614 0.678189
Si Si7 0.000000 0.500000 0.766329
Si Si8 0.393757 0.631881 0.668997
O O1 0.282048 0.500000 0.815045
O O2 0.237327 0.319632 0.742344
O O3 0.341582 0.336046 0.756356
O O4 0.284862 0.342530 0.000000
O O5 0.142658 0.396442 0.747183
O O6 0.057411 0.500000 0.840146
O O7 0.141432 0.500000 0.000000
O O8 0.500000 0.500000 0.829102
O O9 0.447196 0.667217 0.748103
O O10 0.500000 0.665564 0.000000
O O11 0.819428 0.318680 0.500000
O O12 0.846155 0.189636 0.286978
O O13 0.948037 0.805421 0.267700
O O14 0.000000 0.768348 0.500000
O O15 0.000000 0.617264 0.311755
O O16 0.901397 0.120682 0.500000
O O17 0.900329 0.000000 0.730169
O O18 0.391973 0.666661 0.500000
O O19 0.394442 0.500000 0.669272
#
# Coordination Sequence:
#
# PCOD9381875 Si02
#       8
#     8   4   4   8   4   8   2   8
#     4  10  19  30  44  64  92 125 156 193 242 294
#     4  12  24  37  50  69  98 130 155 189 241 298
#     4   9  15  23  35  53  81 119 162 203 242 285
#     4  11  21  33  52  74  94 121 157 201 241 287
#     4  10  18  29  50  78 103 123 151 195 239 286
#     4   9  18  32  50  73  98 124 155 194 241 288
#     4  12  22  34  50  74  97 132 157 192 237 298
#     4   9  16  25  38  57  83 118 161 205 240 278
#
# _framework density 16.006025999999999
#
# number of rings (size 3 to 8) (size 9 to 14) (size 15 to 20)
#    0.000    2.000    2.609    2.609    0.000    5.565 
#    0.000    0.000    0.000    2.087    0.000    1.217 
#    0.000    0.000    0.000    0.783    0.000   16.261 
#
# Total GULP energy -256373.303753 kJ/mol
# GULP energy per Si atom -5573.332690 kJ/mol
# Density = 1.596960 g / cm^3
# Si number density = 16.006026 Si / 1000 Ang^3
#
#
#
# Elastic Constant Matrix: (Units=GPa)
#
#
# Indices 1 2 3 4 5 6 
#
# 1 161.4378 43.6457 68.0686 0.0000 0.0000 0.0000
# 2 43.6457 75.6429 25.8819 0.0000 0.0000 0.0000
# 3 68.0686 25.8819 96.2007 0.0000 0.0000 0.0000
# 4 0.0000 0.0000 0.0000 1.7341 0.0000 0.0000
# 5 0.0000 0.0000 0.0000 0.0000 14.6882 0.0000
# 6 0.0000 0.0000 0.0000 0.0000 0.0000 5.7274
#
#
#
# Elastic Compliance Matrix: (Units=1/GPa)
#
#
# Indices 1 2 3 4 5 6 
#
# 1 0.009622 -0.003549 -0.005853 0.000000 0.000000 0.000000
# 2 -0.003549 0.015869 -0.001758 0.000000 0.000000 0.000000
# 3 -0.005853 -0.001758 0.015010 0.000000 0.000000 0.000000
# 4 0.000000 0.000000 0.000000 0.576676 0.000000 0.000000
# 5 0.000000 0.000000 0.000000 0.000000 0.068082 0.000000
# 6 0.000000 0.000000 0.000000 0.000000 0.000000 0.174598
#
#
# Mechanical properties :
#
#
# Convention : Reuss Voigt Hill
#
# Bulk Modulus (GPa) = 55.00683 67.60821 61.30752
# Shear Modulus (GPa) = 5.62912 17.47562 11.55237
#
# Velocity S-wave (km/s) = 1.87737 3.30785 2.68946
# Velocity P-wave (km/s) = 6.25622 7.54454 6.93038
#
# Compressibility (1/GPa) = 0.01817956
#
# Stress axis : x y z
#
# Youngs Moduli (GPa) = 103.93068 63.01431 66.62405
#
# Poissons Ratio (x) = 0.22364 0.38997
# Poissons Ratio (y) = 0.36885 0.11715
# Poissons Ratio (z) = 0.60833 0.11080
#
# Static dielectric constant tensor:
#      x y z
#    x 1.542970 0.000000 0.000000 
#    y 0.000000 1.512310 0.000000 
#    z 0.000000 0.000000 1.541200 
# 
# From -- ./inp_files/12408.got.cif
#   From: 2010.05.17/outbox.cif.g08.bks.cpg/sg47_7_cif.got.tgz:12408.got - 2010.06.03 20:15:42.
