data_PCOD9381431
_publ_section_title
;
Structure prediction by ZEFSAII (Michael W. Deem and Ramdas Pophale) SiO2 
 PCOD9381431
Probable space group: P M M M
;
_chemical_formula_sum "Si O2"
_cell_formula_units_Z 37
_cell_length_a 9.411779
_cell_length_b 17.415379
_cell_length_c 12.105868
_cell_angle_alpha 90.000000
_cell_angle_beta 90.000000
_cell_angle_gamma 90.000000
_cell_volume 1984.269172
_symmetry_space_group_name_H-M "P M M M"
_symmetry_group_IT_number 47
_symmetry_cell_setting 'orthorhombic'
loop_
_space_group_symop_operation_xyz
x,y,z
-x,-y,z
x,-y,-z
-x,y,-z
-x,-y,-z
x,y,-z
-x,y,z
x,-y,z
loop_
_atom_site_type_symbol
_atom_site_label
_atom_site_fract_x
_atom_site_fract_y
_atom_site_fract_z
Si Si1 0.172945 0.087631 0.214106
Si Si2 0.235894 0.639012 0.000000
Si Si3 0.828883 0.782034 0.627240
Si Si4 0.334775 0.348906 0.245149
Si Si5 0.000000 0.500000 0.000000
Si Si6 0.167710 0.819756 0.000000
Si Si7 0.672667 0.500000 0.625863
O O1 0.208207 0.134091 0.325069
O O2 0.000000 0.085396 0.209088
O O3 0.223201 0.000000 0.210044
O O4 0.224459 0.138179 0.109754
O O5 0.319768 0.635199 0.115255
O O6 0.182029 0.727908 0.000000
O O7 0.122957 0.569444 0.000000
O O8 0.785056 0.770981 0.500000
O O9 0.757709 0.720956 0.708925
O O10 0.000000 0.773620 0.632832
O O11 0.500000 0.335151 0.271627
O O12 0.282662 0.424267 0.309827
O O13 0.000000 0.834962 0.000000
O O14 0.500000 0.500000 0.625256
O O15 0.722341 0.500000 0.500000
#
# Coordination Sequence:
#
# PCOD9381431 Si02
#       7
#     8   4   8   8   1   4   4
#     4   9  17  30  52  84 118 154 195 245 306 365
#     4  12  23  39  58  92 123 156 198 239 300 359
#     4  10  21  36  57  88 122 156 199 253 305 360
#     4  11  23  40  62  86 119 159 204 249 296 359
#     4  12  28  36  62 100 124 168 186 236 308 366
#     4  10  17  31  55  82 117 150 191 244 294 352
#     4   9  19  37  59  81 107 146 193 237 279 335
#
# _framework density 18.646664000000001
#
# number of rings (size 3 to 8) (size 9 to 14) (size 15 to 20)
#    0.000    1.838    2.703    1.946    1.514    3.027 
#    0.000    4.324    0.000    2.595    0.000    3.027 
#    0.000    0.000    0.000    0.000    0.000    0.000 
#
# Total GULP energy -205995.716046 kJ/mol
# GULP energy per Si atom -5567.451785 kJ/mol
# Density = 1.860422 g / cm^3
# Si number density = 18.646664 Si / 1000 Ang^3
#
#
#
# Elastic Constant Matrix: (Units=GPa)
#
#
# Indices 1 2 3 4 5 6 
#
# 1 18.8823 19.2473 12.3948 0.0000 0.0000 0.0000
# 2 19.2473 155.1111 51.1387 0.0000 0.0000 0.0000
# 3 12.3948 51.1387 130.9016 0.0000 0.0000 0.0000
# 4 0.0000 0.0000 0.0000 26.1045 0.0000 0.0000
# 5 0.0000 0.0000 0.0000 0.0000 12.5304 0.0000
# 6 0.0000 0.0000 0.0000 0.0000 0.0000 9.4117
#
#
#
# Elastic Compliance Matrix: (Units=1/GPa)
#
#
# Indices 1 2 3 4 5 6 
#
# 1 0.061831 -0.006591 -0.003280 0.000000 0.000000 0.000000
# 2 -0.006591 0.008103 -0.002541 0.000000 0.000000 0.000000
# 3 -0.003280 -0.002541 0.008943 0.000000 0.000000 0.000000
# 4 0.000000 0.000000 0.000000 0.038308 0.000000 0.000000
# 5 0.000000 0.000000 0.000000 0.000000 0.079806 0.000000
# 6 0.000000 0.000000 0.000000 0.000000 0.000000 0.106250
#
#
# Mechanical properties :
#
#
# Convention : Reuss Voigt Hill
#
# Bulk Modulus (GPa) = 18.50067 52.27294 35.38681
# Shear Modulus (GPa) = 14.44743 24.41693 19.43218
#
# Velocity S-wave (km/s) = 2.78654 3.62256 3.23170
# Velocity P-wave (km/s) = 4.50515 6.75215 5.73968
#
# Compressibility (1/GPa) = 0.05405208
#
# Stress axis : x y z
#
# Youngs Moduli (GPa) = 16.17309 123.41532 111.82312
#
# Poissons Ratio (x) = 0.81345 0.36675
# Poissons Ratio (y) = 0.10660 0.28418
# Poissons Ratio (z) = 0.05304 0.31364
#
# Static dielectric constant tensor:
#      x y z
#    x 1.636230 0.000000 0.000000 
#    y 0.000000 1.644050 0.000000 
#    z 0.000000 0.000000 1.660430 
# 
# From -- ./inp_files/14923.got.cif
#   From: 2010.05.17/outbox.cif.g08.bks.cpg/sg47_8_cif.got.tgz:14923.got - 2010.06.03 20:15:42.
