data_PCOD9381872
_publ_section_title
;
Structure prediction by ZEFSAII (Michael W. Deem and Ramdas Pophale) SiO2 
 PCOD9381872
Probable space group: P M M M
;
_chemical_formula_sum "Si O2"
_cell_formula_units_Z 52
_cell_length_a 7.766251
_cell_length_b 14.662966
_cell_length_c 25.073392
_cell_angle_alpha 90.000000
_cell_angle_beta 90.000000
_cell_angle_gamma 90.000000
_cell_volume 2855.264467
_symmetry_space_group_name_H-M "P M M M"
_symmetry_group_IT_number 47
_symmetry_cell_setting 'orthorhombic'
loop_
_space_group_symop_operation_xyz
x,y,z
-x,-y,z
x,-y,-z
-x,y,-z
-x,-y,-z
x,y,-z
-x,y,z
x,-y,z
loop_
_atom_site_type_symbol
_atom_site_label
_atom_site_fract_x
_atom_site_fract_y
_atom_site_fract_z
Si Si1 0.206948 0.603283 0.059824
Si Si2 0.708347 0.103169 0.336728
Si Si3 0.290772 0.605890 0.731450
Si Si4 0.710141 0.101235 0.212372
Si Si5 0.808086 0.294850 0.376646
Si Si6 0.706422 0.713127 0.836147
Si Si7 0.500000 0.393928 0.436231
O O1 0.268687 0.500000 0.072065
O O2 0.252891 0.672114 0.106533
O O3 0.000000 0.599645 0.057861
O O4 0.267784 0.627424 0.000000
O O5 0.500000 0.108212 0.338776
O O6 0.757730 0.115863 0.274425
O O7 0.780173 0.186382 0.370761
O O8 0.758867 0.000000 0.352285
O O9 0.500000 0.612241 0.728344
O O10 0.243360 0.500000 0.727220
O O11 0.217540 0.663310 0.682491
O O12 0.234342 0.647544 0.788030
O O13 0.500000 0.100654 0.211458
O O14 0.770938 0.185114 0.176605
O O15 0.767711 0.000000 0.196262
O O16 0.665456 0.342382 0.412926
O O17 0.000000 0.314527 0.395651
O O18 0.500000 0.716166 0.832017
O O19 0.500000 0.500000 0.418314
O O20 0.500000 0.391977 0.500000
#
# Coordination Sequence:
#
# PCOD9381872 Si02
#       7
#     8   8   8   8   8   8   4
#     4   9  19  35  50  64  91 134 179 223 272 326
#     4   9  16  32  59  86 118 160 196 229 283 350
#     4  10  19  32  50  76 115 152 179 221 285 345
#     4   8  14  26  47  75 107 143 178 213 264 333
#     4  12  23  37  62  92 122 155 195 242 295 350
#     4  10  18  29  50  77 104 134 172 222 275 327
#     4  11  26  48  69  87 117 161 205 251 291 330
#
# _framework density 18.211973
#
# number of rings (size 3 to 8) (size 9 to 14) (size 15 to 20)
#    0.000    2.231    3.077    2.308    0.000    3.692 
#    0.000    1.538    0.000    1.846    0.000    4.308 
#    0.000    0.000    0.000    0.000    0.000    0.000 
#
# Total GULP energy -290232.414589 kJ/mol
# GULP energy per Si atom -5581.392588 kJ/mol
# Density = 1.817052 g / cm^3
# Si number density = 18.211973 Si / 1000 Ang^3
#
#
#
# Elastic Constant Matrix: (Units=GPa)
#
#
# Indices 1 2 3 4 5 6 
#
# 1 63.1032 41.2891 26.8067 0.0000 0.0000 0.0000
# 2 41.2891 148.7666 54.8773 0.0000 0.0000 0.0000
# 3 26.8067 54.8773 73.2853 0.0000 0.0000 0.0000
# 4 0.0000 0.0000 0.0000 19.0001 0.0000 0.0000
# 5 0.0000 0.0000 0.0000 0.0000 784.8373 0.0000
# 6 0.0000 0.0000 0.0000 0.0000 0.0000 5.3338
#
#
#
# Elastic Compliance Matrix: (Units=1/GPa)
#
#
# Indices 1 2 3 4 5 6 
#
# 1 0.020359 -0.004012 -0.004443 0.000000 0.000000 0.000000
# 2 -0.004012 0.010078 -0.006079 0.000000 0.000000 0.000000
# 3 -0.004443 -0.006079 0.019823 0.000000 0.000000 0.000000
# 4 0.000000 0.000000 0.000000 0.052631 0.000000 0.000000
# 5 0.000000 0.000000 0.000000 0.000000 0.001274 0.000000
# 6 0.000000 0.000000 0.000000 0.000000 0.000000 0.187483
#
#
# Mechanical properties :
#
#
# Convention : Reuss Voigt Hill
#
# Bulk Modulus (GPa) = 47.18732 59.01124 53.09928
# Shear Modulus (GPa) = 15.25415 172.64638 93.95026
#
# Velocity S-wave (km/s) = 2.89725 9.74700 7.19021
# Velocity P-wave (km/s) = 6.09577 12.61526 9.90715
#
# Compressibility (1/GPa) = 0.02119213
#
# Stress axis : x y z
#
# Youngs Moduli (GPa) = 49.11734 99.22841 50.44730
#
# Poissons Ratio (x) = 0.39806 0.22415
# Poissons Ratio (y) = 0.19704 0.30667
# Poissons Ratio (z) = 0.21824 0.60321
#
# Static dielectric constant tensor:
#      x y z
#    x 1.673770 0.000000 0.000000 
#    y 0.000000 1.638260 0.000000 
#    z 0.000000 0.000000 1.591750 
# 
# From -- ./inp_files/31982.got.cif
#   From: 2010.05.17/outbox.cif.g08.bks.cpg/sg47_16_cif.got.tgz:31982.got - 2010.06.03 20:15:42.
