data_PCOD9381941
_publ_section_title
;
Structure prediction by ZEFSAII (Michael W. Deem and Ramdas Pophale) SiO2 
 PCOD9381941
Probable space group: P M M M
;
_chemical_formula_sum "Si O2"
_cell_formula_units_Z 52
_cell_length_a 13.180659
_cell_length_b 8.357959
_cell_length_c 27.000788
_cell_angle_alpha 90.000000
_cell_angle_beta 90.000000
_cell_angle_gamma 90.000000
_cell_volume 2974.498812
_symmetry_space_group_name_H-M "P M M M"
_symmetry_group_IT_number 47
_symmetry_cell_setting 'orthorhombic'
loop_
_space_group_symop_operation_xyz
x,y,z
-x,-y,z
x,-y,-z
-x,y,-z
-x,-y,-z
x,y,-z
-x,y,z
x,-y,z
loop_
_atom_site_type_symbol
_atom_site_label
_atom_site_fract_x
_atom_site_fract_y
_atom_site_fract_z
Si Si1 0.117249 0.692901 0.055656
Si Si2 0.615189 0.306710 0.333827
Si Si3 0.000000 0.195332 0.782977
Si Si4 0.882782 0.191438 0.500000
Si Si5 0.198962 0.192932 0.843282
Si Si6 0.000000 0.807817 0.331366
Si Si7 0.384873 0.806495 0.222858
Si Si8 0.808401 0.308212 0.394821
O O1 0.117761 0.500000 0.056345
O O2 0.185188 0.754481 0.100283
O O3 0.000000 0.744773 0.064024
O O4 0.146532 0.744327 0.000000
O O5 0.500000 0.252315 0.345196
O O6 0.614796 0.500000 0.334112
O O7 0.640404 0.250393 0.278275
O O8 0.701832 0.251487 0.371559
O O9 0.899387 0.248267 0.812059
O O10 0.000000 0.246653 0.725796
O O11 0.000000 0.000000 0.783004
O O12 0.828773 0.248877 0.450179
O O13 0.000000 0.249799 0.500000
O O14 0.885363 0.000000 0.500000
O O15 0.300951 0.249395 0.816155
O O16 0.198863 0.000000 0.841984
O O17 0.099439 0.749104 0.360162
O O18 0.000000 0.000000 0.331957
O O19 0.500000 0.753461 0.211628
O O20 0.384050 0.000000 0.223049
O O21 0.808233 0.500000 0.395125
#
# Coordination Sequence:
#
# PCOD9381941 Si02
#       8
#     8   8   4   4   8   4   8   8
#     4   9  18  32  48  68  96 129 164 205 255 306
#     4   9  19  36  56  79 107 138 173 211 253 304
#     4   9  18  29  43  69 101 130 156 194 247 296
#     4  11  23  39  58  79 103 137 176 211 253 308
#     4  10  18  30  48  71 100 130 165 206 248 296
#     4  11  21  34  52  74 106 141 171 204 251 308
#     4   9  18  32  51  75 103 137 173 207 247 296
#     4  11  22  36  56  80 105 135 171 214 257 300
#
# _framework density 17.481936999999999
#
# number of rings (size 3 to 8) (size 9 to 14) (size 15 to 20)
#    0.000    2.231    1.538    2.308    0.000    3.692 
#    0.000    2.692    0.000    2.769    0.000    3.231 
#    0.000    0.000    0.000    0.000    0.000    0.000 
#
# Total GULP energy -290170.544887 kJ/mol
# GULP energy per Si atom -5580.202786 kJ/mol
# Density = 1.744215 g / cm^3
# Si number density = 17.481937 Si / 1000 Ang^3
#
#
#
# Elastic Constant Matrix: (Units=GPa)
#
#
# Indices 1 2 3 4 5 6 
#
# 1 137.1751 20.3438 110.2751 0.0000 0.0000 0.0000
# 2 20.3438 14.1708 19.0379 0.0000 0.0000 0.0000
# 3 110.2751 19.0379 176.2349 0.0000 0.0000 0.0000
# 4 0.0000 0.0000 0.0000 28.9536 0.0000 0.0000
# 5 0.0000 0.0000 0.0000 0.0000 21.0521 0.0000
# 6 0.0000 0.0000 0.0000 0.0000 0.0000 4.6773
#
#
#
# Elastic Compliance Matrix: (Units=1/GPa)
#
#
# Indices 1 2 3 4 5 6 
#
# 1 0.016050 -0.011171 -0.008836 0.000000 0.000000 0.000000
# 2 -0.011171 0.090322 -0.002767 0.000000 0.000000 0.000000
# 3 -0.008836 -0.002767 0.011502 0.000000 0.000000 0.000000
# 4 0.000000 0.000000 0.000000 0.034538 0.000000 0.000000
# 5 0.000000 0.000000 0.000000 0.000000 0.047501 0.000000
# 6 0.000000 0.000000 0.000000 0.000000 0.000000 0.213798
#
#
# Mechanical properties :
#
#
# Convention : Reuss Voigt Hill
#
# Bulk Modulus (GPa) = 13.82622 69.65492 41.74057
# Shear Modulus (GPa) = 10.34405 22.79821 16.57113
#
# Velocity S-wave (km/s) = 2.43513 3.61515 3.08214
# Velocity P-wave (km/s) = 3.97901 7.57339 6.04933
#
# Compressibility (1/GPa) = 0.07232636
#
# Stress axis : x y z
#
# Youngs Moduli (GPa) = 62.30485 11.07144 86.93908
#
# Poissons Ratio (x) = 0.12368 0.76822
# Poissons Ratio (y) = 0.69599 0.24059
# Poissons Ratio (z) = 0.55054 0.03064
#
# Static dielectric constant tensor:
#      x y z
#    x 1.598670 0.000000 0.000000 
#    y 0.000000 1.602390 0.000000 
#    z 0.000000 0.000000 1.570730 
# 
# From -- ./inp_files/33638.got.cif
#   From: 2010.05.17/outbox.cif.g08.bks.cpg/sg47_17_cif.got.tgz:33638.got - 2010.06.03 20:15:42.
