data_PCOD9381315
_publ_section_title
;
Structure prediction by ZEFSAII (Michael W. Deem and Ramdas Pophale) SiO2 
 PCOD9381315
Probable space group: P M M M
;
_chemical_formula_sum "Si O2"
_cell_formula_units_Z 52
_cell_length_a 22.692876
_cell_length_b 13.739272
_cell_length_c 7.534295
_cell_angle_alpha 90.000000
_cell_angle_beta 90.000000
_cell_angle_gamma 90.000000
_cell_volume 2349.069587
_symmetry_space_group_name_H-M "P M M M"
_symmetry_group_IT_number 47
_symmetry_cell_setting 'orthorhombic'
loop_
_space_group_symop_operation_xyz
x,y,z
-x,-y,z
x,-y,-z
-x,y,-z
-x,-y,-z
x,y,-z
-x,y,z
x,-y,z
loop_
_atom_site_type_symbol
_atom_site_label
_atom_site_fract_x
_atom_site_fract_y
_atom_site_fract_z
Si Si1 0.069391 0.000000 0.714918
Si Si2 0.748587 0.883959 0.789283
Si Si3 0.689783 0.383342 0.699514
Si Si4 0.871157 0.196192 0.699634
Si Si5 0.819245 0.612595 0.281278
Si Si6 0.437468 0.303420 0.211290
Si Si7 0.615839 0.889870 0.783100
O O1 0.097189 0.101684 0.782912
O O2 0.080174 0.000000 0.500000
O O3 0.000000 0.000000 0.746393
O O4 0.802754 0.835245 0.693115
O O5 0.682278 0.857826 0.733906
O O6 0.752977 0.000000 0.763519
O O7 0.754101 0.865372 0.000000
O O8 0.692803 0.345510 0.500000
O O9 0.691556 0.500000 0.697261
O O10 0.753117 0.358183 0.784577
O O11 0.624886 0.355649 0.762582
O O12 0.895636 0.206139 0.500000
O O13 0.865949 0.305188 0.777101
O O14 0.817946 0.614283 0.500000
O O15 0.830853 0.500000 0.231415
O O16 0.500000 0.344714 0.279214
O O17 0.428324 0.193060 0.277389
O O18 0.442391 0.298566 0.000000
O O19 0.604869 0.000000 0.722945
O O20 0.615242 0.892597 0.000000
#
# Coordination Sequence:
#
# PCOD9381315 Si02
#       7
#     4   8   8   8   8   8   8
#     4   9  18  30  43  67 103 135 158 181 216 260
#     4   9  16  26  42  65  92 117 142 182 235 277
#     4   9  18  33  50  65  84 112 143 178 227 282
#     4  10  17  27  47  69  91 122 157 188 216 261
#     4   8  15  28  47  71  93 113 145 192 238 270
#     4  10  20  31  44  64  87 112 147 189 225 261
#     4   8  15  28  44  62  86 116 145 175 221 277
#
# _framework density 22.136423000000001
#
# number of rings (size 3 to 8) (size 9 to 14) (size 15 to 20)
#    0.000    3.000    0.769    2.769    0.000    1.231 
#    0.000    3.077    0.000    3.231    0.000    4.308 
#    0.000    0.000    0.000    1.385    0.000    1.538 
#
# Total GULP energy -289736.771909 kJ/mol
# GULP energy per Si atom -5571.860998 kJ/mol
# Density = 2.208604 g / cm^3
# Si number density = 22.136423 Si / 1000 Ang^3
#
#
#
# Elastic Constant Matrix: (Units=GPa)
#
#
# Indices 1 2 3 4 5 6 
#
# 1 67.6966 68.0521 0.3904 0.0000 0.0000 0.0000
# 2 68.0521 121.0959 11.1580 0.0000 0.0000 0.0000
# 3 0.3904 11.1580 46.4195 0.0000 0.0000 0.0000
# 4 0.0000 0.0000 0.0000 8.9539 0.0000 0.0000
# 5 0.0000 0.0000 0.0000 0.0000 12.1108 0.0000
# 6 0.0000 0.0000 0.0000 0.0000 0.0000 2.8511
#
#
#
# Elastic Compliance Matrix: (Units=1/GPa)
#
#
# Indices 1 2 3 4 5 6 
#
# 1 0.034853 -0.020002 0.004515 0.000000 0.000000 0.000000
# 2 -0.020002 0.019924 -0.004621 0.000000 0.000000 0.000000
# 3 0.004515 -0.004621 0.022616 0.000000 0.000000 0.000000
# 4 0.000000 0.000000 0.000000 0.111683 0.000000 0.000000
# 5 0.000000 0.000000 0.000000 0.000000 0.082571 0.000000
# 6 0.000000 0.000000 0.000000 0.000000 0.000000 0.350745
#
#
# Mechanical properties :
#
#
# Convention : Reuss Voigt Hill
#
# Bulk Modulus (GPa) = 26.89905 43.82366 35.36136
# Shear Modulus (GPa) = 7.40740 15.15727 11.28234
#
# Velocity S-wave (km/s) = 1.83126 2.61956 2.26004
# Velocity P-wave (km/s) = 4.08035 5.38419 4.77696
#
# Compressibility (1/GPa) = 0.03717604
#
# Stress axis : x y z
#
# Youngs Moduli (GPa) = 28.69173 50.18959 44.21745
#
# Poissons Ratio (x) = 1.00391 -0.19964
# Poissons Ratio (y) = 0.57390 0.20433
# Poissons Ratio (z) = -0.12954 0.23193
#
# Static dielectric constant tensor:
#      x y z
#    x 1.835400 0.000000 0.000000 
#    y 0.000000 1.870700 0.000000 
#    z 0.000000 0.000000 1.870460 
# 
# From -- ./inp_files/12517.got.cif
#   From: 2010.05.17/outbox.cif.g08.bks.cpg/sg47_7_cif.got.tgz:12517.got - 2010.06.03 20:15:42.
