data_PCOD9381647
_publ_section_title
;
Structure prediction by ZEFSAII (Michael W. Deem and Ramdas Pophale) SiO2 
 PCOD9381647
Probable space group: P M M M
;
_chemical_formula_sum "Si O2"
_cell_formula_units_Z 32
_cell_length_a 12.154196
_cell_length_b 19.890730
_cell_length_c 7.688490
_cell_angle_alpha 90.000000
_cell_angle_beta 90.000000
_cell_angle_gamma 90.000000
_cell_volume 1858.737289
_symmetry_space_group_name_H-M "P M M M"
_symmetry_group_IT_number 47
_symmetry_cell_setting 'orthorhombic'
loop_
_space_group_symop_operation_xyz
x,y,z
-x,-y,z
x,-y,-z
-x,y,-z
-x,-y,-z
x,y,-z
-x,y,z
x,-y,z
loop_
_atom_site_type_symbol
_atom_site_label
_atom_site_fract_x
_atom_site_fract_y
_atom_site_fract_z
Si Si1 0.500000 0.076348 0.211262
Si Si2 0.131547 0.920667 0.500000
Si Si3 0.370853 0.572446 0.790430
Si Si4 0.272233 0.855516 0.799292
Si Si5 0.627670 0.279525 0.295792
O O1 0.388754 0.113287 0.262799
O O2 0.500000 0.000000 0.272472
O O3 0.500000 0.076422 0.000000
O O4 0.181447 0.883747 0.669009
O O5 0.000000 0.916611 0.500000
O O6 0.162764 0.000000 0.500000
O O7 0.500000 0.571876 0.739919
O O8 0.323855 0.500000 0.732178
O O9 0.329522 0.644331 0.726936
O O10 0.366156 0.573481 0.000000
O O11 0.294926 0.775865 0.790225
O O12 0.251952 0.875223 0.000000
O O13 0.623789 0.264485 0.500000
O O14 0.500000 0.275911 0.228733
#
# Coordination Sequence:
#
# PCOD9381647 Si02
#       5
#     4   4   8   8   8
#     4   9  18  31  51  81 109 135 168 208 261 326
#     4  11  26  45  61  79 104 136 180 230 273 320
#     4   8  14  24  38  59  94 143 189 220 250 299
#     4  11  21  36  58  82 110 142 176 217 268 324
#     4  10  18  28  45  73 109 145 180 218 264 317
#
# _framework density 17.215989
#
# number of rings (size 3 to 8) (size 9 to 14) (size 15 to 20)
#    0.000    2.250    2.500    2.250    0.000    4.000 
#    0.000    5.000    0.000    0.000    0.000    0.000 
#    0.000    2.000    0.000    5.250    0.000    0.250 
#
# Total GULP energy -178372.039262 kJ/mol
# GULP energy per Si atom -5574.126227 kJ/mol
# Density = 1.717680 g / cm^3
# Si number density = 17.215989 Si / 1000 Ang^3
#
#
#
# Elastic Constant Matrix: (Units=GPa)
#
#
# Indices 1 2 3 4 5 6 
#
# 1 52.5398 34.8602 28.3252 0.0000 0.0000 0.0000
# 2 34.8602 138.5389 27.4290 0.0000 0.0000 0.0000
# 3 28.3252 27.4290 78.5631 0.0000 0.0000 0.0000
# 4 0.0000 0.0000 0.0000 20.4915 0.0000 0.0000
# 5 0.0000 0.0000 0.0000 0.0000 14.1417 0.0000
# 6 0.0000 0.0000 0.0000 0.0000 0.0000 7.6543
#
#
#
# Elastic Compliance Matrix: (Units=1/GPa)
#
#
# Indices 1 2 3 4 5 6 
#
# 1 0.026672 -0.005165 -0.007813 0.000000 0.000000 0.000000
# 2 -0.005165 0.008754 -0.001194 0.000000 0.000000 0.000000
# 3 -0.007813 -0.001194 0.015963 0.000000 0.000000 0.000000
# 4 0.000000 0.000000 0.000000 0.048801 0.000000 0.000000
# 5 0.000000 0.000000 0.000000 0.000000 0.070713 0.000000
# 6 0.000000 0.000000 0.000000 0.000000 0.000000 0.130645
#
#
# Mechanical properties :
#
#
# Convention : Reuss Voigt Hill
#
# Bulk Modulus (GPa) = 43.39406 50.09673 46.74539
# Shear Modulus (GPa) = 14.81160 20.39267 17.60213
#
# Velocity S-wave (km/s) = 2.93634 3.44542 3.20101
# Velocity P-wave (km/s) = 6.06271 6.70746 6.39322
#
# Compressibility (1/GPa) = 0.02304463
#
# Stress axis : x y z
#
# Youngs Moduli (GPa) = 37.49232 114.23092 62.64636
#
# Poissons Ratio (x) = 0.58995 0.48947
# Poissons Ratio (y) = 0.19363 0.07482
# Poissons Ratio (z) = 0.29294 0.13643
#
# Static dielectric constant tensor:
#      x y z
#    x 1.540350 0.000000 0.000000 
#    y 0.000000 1.649100 0.000000 
#    z 0.000000 0.000000 1.617880 
# 
# From -- ./inp_files/3634.got.cif
#   From: 2010.05.17/outbox.cif.g08.bks.cpg/sg47_2_cif.got.tgz:3634.got - 2010.06.03 20:15:42.
