data_PCOD9381909
_publ_section_title
;
Structure prediction by ZEFSAII (Michael W. Deem and Ramdas Pophale) SiO2 
 PCOD9381909
Probable space group: P M M M
;
_chemical_formula_sum "Si O2"
_cell_formula_units_Z 44
_cell_length_a 11.721323
_cell_length_b 16.543330
_cell_length_c 15.716025
_cell_angle_alpha 90.000000
_cell_angle_beta 90.000000
_cell_angle_gamma 90.000000
_cell_volume 3047.489920
_symmetry_space_group_name_H-M "P M M M"
_symmetry_group_IT_number 47
_symmetry_cell_setting 'orthorhombic'
loop_
_space_group_symop_operation_xyz
x,y,z
-x,-y,z
x,-y,-z
-x,y,-z
-x,-y,-z
x,y,-z
-x,y,z
x,-y,z
loop_
_atom_site_type_symbol
_atom_site_label
_atom_site_fract_x
_atom_site_fract_y
_atom_site_fract_z
Si Si1 0.000000 0.215301 0.403715
Si Si2 0.868205 0.500000 0.603523
Si Si3 0.636075 0.810363 0.331607
Si Si4 0.775254 0.672957 0.599695
Si Si5 0.000000 0.905015 0.244397
Si Si6 0.361140 0.907480 0.500000
Si Si7 0.750693 0.096591 0.176554
Si Si8 0.632149 0.097970 0.000000
O O1 0.889907 0.273061 0.395914
O O2 0.000000 0.180625 0.500000
O O3 0.000000 0.149512 0.329100
O O4 0.871780 0.500000 0.500000
O O5 0.805492 0.582533 0.628355
O O6 0.000000 0.500000 0.632279
O O7 0.500000 0.812143 0.328339
O O8 0.682434 0.720305 0.345492
O O9 0.675058 0.860335 0.415525
O O10 0.687149 0.854304 0.250046
O O11 0.739998 0.670381 0.500000
O O12 0.885530 0.889846 0.190069
O O13 0.000000 0.000000 0.268068
O O14 0.500000 0.908455 0.500000
O O15 0.321661 0.000000 0.500000
O O16 0.700135 0.121107 0.085213
O O17 0.729966 0.000000 0.187336
O O18 0.500000 0.125795 0.000000
O O19 0.628725 0.000000 0.000000
#
# Coordination Sequence:
#
# PCOD9381909 Si02
#       8
#     4   4   8   8   4   4   8   4
#     4  10  18  30  47  65  93 132 166 198 233 270
#     4   9  16  28  47  69  85 112 158 202 236 284
#     4  11  20  30  45  65  93 128 161 194 236 281
#     4  10  18  30  47  67  91 121 159 200 240 277
#     4  10  20  32  45  69  99 128 162 197 244 287
#     4   9  18  30  42  58  85 124 168 200 222 264
#     4  10  20  33  49  68  93 124 162 205 242 282
#     4   9  18  33  51  69  89 119 161 204 244 284
#
# _framework density 14.438110999999999
#
# number of rings (size 3 to 8) (size 9 to 14) (size 15 to 20)
#    0.000    2.091    3.636    1.091    0.000    2.364 
#    0.000    2.273    0.000    1.636    0.000    0.000 
#    0.000    0.727    0.000    5.273    0.000    0.182 
#
# Total GULP energy -245339.244739 kJ/mol
# GULP energy per Si atom -5575.891926 kJ/mol
# Density = 1.440525 g / cm^3
# Si number density = 14.438111 Si / 1000 Ang^3
#
#
#
# Elastic Constant Matrix: (Units=GPa)
#
#
# Indices 1 2 3 4 5 6 
#
# 1 90.0612 46.6218 54.6115 0.0000 0.0000 0.0000
# 2 46.6218 88.6962 52.2025 0.0000 0.0000 0.0000
# 3 54.6115 52.2025 114.5695 0.0000 0.0000 0.0000
# 4 0.0000 0.0000 0.0000 6.2634 0.0000 0.0000
# 5 0.0000 0.0000 0.0000 0.0000 18.2128 0.0000
# 6 0.0000 0.0000 0.0000 0.0000 0.0000 17.7525
#
#
#
# Elastic Compliance Matrix: (Units=1/GPa)
#
#
# Indices 1 2 3 4 5 6 
#
# 1 0.017621 -0.005901 -0.005711 0.000000 0.000000 0.000000
# 2 -0.005901 0.017382 -0.005107 0.000000 0.000000 0.000000
# 3 -0.005711 -0.005107 0.013777 0.000000 0.000000 0.000000
# 4 0.000000 0.000000 0.000000 0.159658 0.000000 0.000000
# 5 0.000000 0.000000 0.000000 0.000000 0.054906 0.000000
# 6 0.000000 0.000000 0.000000 0.000000 0.000000 0.056330
#
#
# Mechanical properties :
#
#
# Convention : Reuss Voigt Hill
#
# Bulk Modulus (GPa) = 65.17701 66.68871 65.93286
# Shear Modulus (GPa) = 13.95762 17.77182 15.86472
#
# Velocity S-wave (km/s) = 3.11259 3.51222 3.31842
# Velocity P-wave (km/s) = 7.62613 7.92068 7.77480
#
# Compressibility (1/GPa) = 0.01534283
#
# Stress axis : x y z
#
# Youngs Moduli (GPa) = 56.74948 57.53024 72.58295
#
# Poissons Ratio (x) = 0.33951 0.41449
# Poissons Ratio (y) = 0.33490 0.37068
# Poissons Ratio (z) = 0.32407 0.29381
#
# Static dielectric constant tensor:
#      x y z
#    x 1.495140 0.000000 0.000000 
#    y 0.000000 1.467000 0.000000 
#    z 0.000000 0.000000 1.454770 
# 
# From -- ./inp_files/22672.got.cif
#   From: 2010.05.17/outbox.cif.g08.bks.cpg/sg47_12_cif.got.tgz:22672.got - 2010.06.03 20:15:42.
