data_PCOD9381975
_publ_section_title
;
Structure prediction by ZEFSAII (Michael W. Deem and Ramdas Pophale) SiO2 
 PCOD9381975
Probable space group: P M M M
;
_chemical_formula_sum "Si O2"
_cell_formula_units_Z 64
_cell_length_a 20.463455
_cell_length_b 7.504118
_cell_length_c 21.304280
_cell_angle_alpha 90.000000
_cell_angle_beta 90.000000
_cell_angle_gamma 90.000000
_cell_volume 3271.489093
_symmetry_space_group_name_H-M "P M M M"
_symmetry_group_IT_number 47
_symmetry_cell_setting 'orthorhombic'
loop_
_space_group_symop_operation_xyz
x,y,z
-x,-y,z
x,-y,-z
-x,y,-z
-x,-y,-z
x,y,-z
-x,y,z
x,-y,z
loop_
_atom_site_type_symbol
_atom_site_label
_atom_site_fract_x
_atom_site_fract_y
_atom_site_fract_z
Si Si1 0.143347 0.710620 0.932410
Si Si2 0.711292 0.216353 0.894512
Si Si3 0.429160 0.793942 0.092170
Si Si4 0.074595 0.782274 0.428469
Si Si5 0.288272 0.788844 0.750263
Si Si6 0.837803 0.208316 0.684058
Si Si7 0.570147 0.287220 0.238905
Si Si8 0.924371 0.716214 0.194947
O O1 0.128907 0.500000 0.933092
O O2 0.221381 0.732342 0.926676
O O3 0.109546 0.781320 0.869384
O O4 0.121971 0.784808 0.000000
O O5 0.642432 0.280880 0.923849
O O6 0.715912 0.280268 0.821945
O O7 0.707630 0.000000 0.894545
O O8 0.500000 0.714664 0.074039
O O9 0.427793 0.790492 0.168365
O O10 0.430282 0.000000 0.072096
O O11 0.089822 0.729555 0.500000
O O12 0.124814 0.716103 0.376161
O O13 0.000000 0.727596 0.413950
O O14 0.074580 0.000000 0.427112
O O15 0.231677 0.714241 0.706080
O O16 0.362555 0.763377 0.728133
O O17 0.276642 0.000000 0.755701
O O18 0.884725 0.220599 0.744517
O O19 0.826809 0.000000 0.669546
O O20 0.500000 0.233530 0.266996
O O21 0.570314 0.500000 0.232061
O O22 0.921764 0.500000 0.195587
O O23 0.000000 0.769768 0.197521
#
# Coordination Sequence:
#
# PCOD9381975 Si02
#       8
#     8   8   8   8   8   8   8   8
#     4  10  21  35  49  64  83 112 149 188 232 280
#     4   9  16  28  45  65  87 111 142 181 225 271
#     4   8  14  25  41  61  86 114 142 175 217 264
#     4   8  14  25  43  69  98 126 156 188 221 259
#     4   9  17  27  41  63  90 119 149 182 223 268
#     4  10  18  30  49  72  97 124 155 188 223 266
#     4   9  16  24  36  58  87 118 151 184 220 263
#     4  10  21  35  50  69  91 115 146 187 235 281
#
# _framework density 19.562956
#
# number of rings (size 3 to 8) (size 9 to 14) (size 15 to 20)
#    0.000    2.875    1.250    1.875    0.000    4.500 
#    0.000    1.250    0.000    0.750    0.000    6.125 
#    0.000    0.500    0.000    6.250    0.000    1.125 
#
# Total GULP energy -356835.897440 kJ/mol
# GULP energy per Si atom -5575.560898 kJ/mol
# Density = 1.951843 g / cm^3
# Si number density = 19.562956 Si / 1000 Ang^3
#
#
#
# Elastic Constant Matrix: (Units=GPa)
#
#
# Indices 1 2 3 4 5 6 
#
# 1 147.8684 -8.7865 69.5433 0.0000 0.0000 0.0000
# 2 -8.7865 51.8497 0.6746 0.0000 0.0000 0.0000
# 3 69.5433 0.6746 102.8414 0.0000 0.0000 0.0000
# 4 0.0000 0.0000 0.0000 1.3283 0.0000 0.0000
# 5 0.0000 0.0000 0.0000 0.0000 32.3502 0.0000
# 6 0.0000 0.0000 0.0000 0.0000 0.0000 13.4770
#
#
#
# Elastic Compliance Matrix: (Units=1/GPa)
#
#
# Indices 1 2 3 4 5 6 
#
# 1 0.010081 0.001797 -0.006829 0.000000 0.000000 0.000000
# 2 0.001797 0.019609 -0.001344 0.000000 0.000000 0.000000
# 3 -0.006829 -0.001344 0.014350 0.000000 0.000000 0.000000
# 4 0.000000 0.000000 0.000000 0.752857 0.000000 0.000000
# 5 0.000000 0.000000 0.000000 0.000000 0.030912 0.000000
# 6 0.000000 0.000000 0.000000 0.000000 0.000000 0.074200
#
#
# Mechanical properties :
#
#
# Convention : Reuss Voigt Hill
#
# Bulk Modulus (GPa) = 31.96024 47.26915 39.61469
# Shear Modulus (GPa) = 5.40430 25.50630 15.45530
#
# Velocity S-wave (km/s) = 1.66388 3.61474 2.81379
# Velocity P-wave (km/s) = 4.47928 6.45266 5.55431
#
# Compressibility (1/GPa) = 0.03128888
#
# Stress axis : x y z
#
# Youngs Moduli (GPa) = 99.19416 50.99817 69.68462
#
# Poissons Ratio (x) = -0.09166 0.47587
# Poissons Ratio (y) = -0.17827 0.09365
# Poissons Ratio (z) = 0.67739 0.06854
#
# Static dielectric constant tensor:
#      x y z
#    x 1.736250 0.000000 0.000000 
#    y 0.000000 1.768650 0.000000 
#    z 0.000000 0.000000 1.670490 
# 
# From -- ./inp_files/30146.got.cif
#   From: 2010.05.17/outbox.cif.g08.bks.cpg/sg47_16_cif.got.tgz:30146.got - 2010.06.03 20:15:42.
