data_PCOD9381614
_publ_section_title
;
Structure prediction by ZEFSAII (Michael W. Deem and Ramdas Pophale) SiO2 
 PCOD9381614
Probable space group: P M M M
;
_chemical_formula_sum "Si O2"
_cell_formula_units_Z 40
_cell_length_a 11.633506
_cell_length_b 22.234721
_cell_length_c 7.448353
_cell_angle_alpha 90.000000
_cell_angle_beta 90.000000
_cell_angle_gamma 90.000000
_cell_volume 1926.648787
_symmetry_space_group_name_H-M "P M M M"
_symmetry_group_IT_number 47
_symmetry_cell_setting 'orthorhombic'
loop_
_space_group_symop_operation_xyz
x,y,z
-x,-y,z
x,-y,-z
-x,y,-z
-x,-y,-z
x,y,-z
-x,y,z
x,-y,z
loop_
_atom_site_type_symbol
_atom_site_label
_atom_site_fract_x
_atom_site_fract_y
_atom_site_fract_z
Si Si1 0.701323 0.844761 0.798479
Si Si2 0.758428 0.378981 0.206950
Si Si3 0.500000 0.763583 0.707339
Si Si4 0.500000 0.379062 0.704417
Si Si5 0.500000 0.069649 0.219822
Si Si6 0.865898 0.253659 0.780509
Si Si7 0.864380 0.500000 0.786176
O O1 0.610573 0.789897 0.803471
O O2 0.617662 0.896688 0.719974
O O3 0.809938 0.809655 0.716006
O O4 0.732697 0.864809 0.000000
O O5 0.622806 0.393251 0.211639
O O6 0.795833 0.313455 0.281317
O O7 0.817730 0.437396 0.290033
O O8 0.796783 0.375437 0.000000
O O9 0.500000 0.784127 0.500000
O O10 0.500000 0.692997 0.706157
O O11 0.500000 0.401431 0.500000
O O12 0.500000 0.000000 0.268083
O O13 0.500000 0.074861 0.000000
O O14 0.000000 0.259515 0.733146
O O15 0.858582 0.250846 0.000000
O O16 0.000000 0.500000 0.772595
O O17 0.832890 0.500000 0.000000
#
# Coordination Sequence:
#
# PCOD9381614 Si02
#       7
#     8   8   4   4   4   8   4
#     4   9  16  27  46  68  91 119 153 187 224 272
#     4  10  19  32  52  72  93 120 153 191 231 281
#     4  10  18  28  44  66  93 119 144 184 233 271
#     4  11  22  33  47  68  97 124 149 189 238 281
#     4   8  14  24  41  66  93 122 155 188 223 265
#     4   9  16  26  44  70  93 115 149 192 230 266
#     4   9  18  33  53  76  96 117 152 197 238 273
#
# _framework density 20.761437999999998
#
# number of rings (size 3 to 8) (size 9 to 14) (size 15 to 20)
#    0.000    2.600    2.000    1.800    0.000    3.600 
#    0.000    2.500    0.000   10.200    0.000    4.200 
#    0.000    0.000    0.000    7.200    0.000    8.000 
#
# Total GULP energy -222718.737204 kJ/mol
# GULP energy per Si atom -5567.968430 kJ/mol
# Density = 2.071418 g / cm^3
# Si number density = 20.761438 Si / 1000 Ang^3
#
#
#
# Elastic Constant Matrix: (Units=GPa)
#
#
# Indices 1 2 3 4 5 6 
#
# 1 93.0144 54.8998 -8.5388 0.0000 0.0000 0.0000
# 2 54.8998 140.5002 7.8907 0.0000 0.0000 0.0000
# 3 -8.5388 7.8907 67.4995 0.0000 0.0000 0.0000
# 4 0.0000 0.0000 0.0000 -10.5598 0.0000 0.0000
# 5 0.0000 0.0000 0.0000 0.0000 -131.9172 0.0000
# 6 0.0000 0.0000 0.0000 0.0000 0.0000 15.7869
#
#
#
# Elastic Compliance Matrix: (Units=1/GPa)
#
#
# Indices 1 2 3 4 5 6 
#
# 1 0.014379 -0.005758 0.002492 0.000000 0.000000 0.000000
# 2 -0.005758 0.009471 -0.001836 0.000000 0.000000 0.000000
# 3 0.002492 -0.001836 0.015345 0.000000 0.000000 0.000000
# 4 0.000000 0.000000 0.000000 -0.094699 0.000000 0.000000
# 5 0.000000 0.000000 0.000000 0.000000 -0.007581 0.000000
# 6 0.000000 0.000000 0.000000 0.000000 0.000000 0.063344
#
#
# Mechanical properties :
#
#
# Convention : Reuss Voigt Hill
#
# Bulk Modulus (GPa) = 34.49436 45.50192 39.99814
# Shear Modulus (GPa) = 248.44260 -8.88719 119.77771
#
# Velocity S-wave (km/s) = 10.95104 -2.07121 7.60379
# Velocity P-wave (km/s) = 13.28725 4.03042 9.81823
#
# Compressibility (1/GPa) = 0.02899025
#
# Stress axis : x y z
#
# Youngs Moduli (GPa) = 69.54822 105.59060 65.16889
#
# Poissons Ratio (x) = 0.60802 -0.16240
# Poissons Ratio (y) = 0.40048 0.11962
# Poissons Ratio (z) = -0.17332 0.19382
#
# Static dielectric constant tensor:
#      x y z
#    x 1.760170 0.000000 0.000000 
#    y 0.000000 1.747890 0.000000 
#    z 0.000000 0.000000 1.813670 
# 
# From -- ./inp_files/4144.got.cif
#   From: 2010.05.17/outbox.cif.g08.bks.cpg/sg47_3_cif.got.tgz:4144.got - 2010.06.03 20:15:42.
