data_PCOD9381688
_publ_section_title
;
Structure prediction by ZEFSAII (Michael W. Deem and Ramdas Pophale) SiO2 
 PCOD9381688
Probable space group: P M M M
;
_chemical_formula_sum "Si O2"
_cell_formula_units_Z 48
_cell_length_a 8.671019
_cell_length_b 16.326452
_cell_length_c 19.221871
_cell_angle_alpha 90.000000
_cell_angle_beta 90.000000
_cell_angle_gamma 90.000000
_cell_volume 2721.182141
_symmetry_space_group_name_H-M "P M M M"
_symmetry_group_IT_number 47
_symmetry_cell_setting 'orthorhombic'
loop_
_space_group_symop_operation_xyz
x,y,z
-x,-y,z
x,-y,-z
-x,y,-z
-x,-y,-z
x,y,-z
-x,y,z
x,-y,z
loop_
_atom_site_type_symbol
_atom_site_label
_atom_site_fract_x
_atom_site_fract_y
_atom_site_fract_z
Si Si1 0.314777 0.258475 0.823838
Si Si2 0.315639 0.407390 0.582677
Si Si3 0.315093 0.910619 0.334488
Si Si4 0.817368 0.742417 0.667731
Si Si5 0.687836 0.408111 0.919759
Si Si6 0.184832 0.910674 0.823167
O O1 0.500000 0.257058 0.821767
O O2 0.253257 0.265871 0.745139
O O3 0.261203 0.335509 0.869505
O O4 0.255681 0.171851 0.854229
O O5 0.288594 0.400149 0.500000
O O6 0.500000 0.399609 0.593969
O O7 0.270694 0.500000 0.603841
O O8 0.230529 0.336366 0.623717
O O9 0.500000 0.904434 0.331292
O O10 0.248225 0.826874 0.365257
O O11 0.248315 0.912246 0.255967
O O12 0.275940 0.000000 0.366092
O O13 0.000000 0.749605 0.673545
O O14 0.500000 0.407714 0.918778
O O15 0.736636 0.500000 0.898683
O O16 0.734279 0.394873 0.000000
O O17 0.000000 0.903836 0.821312
O O18 0.224896 0.000000 0.854268
#
# Coordination Sequence:
#
# PCOD9381688 Si02
#       6
#     8   8   8   8   8   8
#     4  10  18  28  47  73  97 123 158 199 239 278
#     4   9  19  37  58  75  93 123 163 203 241 283
#     4   9  16  27  45  68  94 125 162 201 237 276
#     4  11  21  31  47  73 105 134 158 192 238 286
#     4   8  15  29  48  69  92 119 154 196 241 286
#     4   9  16  26  41  62  91 125 156 189 234 284
#
# _framework density 17.639392999999998
#
# number of rings (size 3 to 8) (size 9 to 14) (size 15 to 20)
#    0.000    2.667    0.000    6.000    0.000    3.333 
#    0.000    2.500    0.000    4.500    0.000   11.667 
#    0.000    0.000    0.000    0.000    0.000    0.000 
#
# Total GULP energy -267370.713317 kJ/mol
# GULP energy per Si atom -5570.223194 kJ/mol
# Density = 1.759925 g / cm^3
# Si number density = 17.639393 Si / 1000 Ang^3
#
#
#
# Elastic Constant Matrix: (Units=GPa)
#
#
# Indices 1 2 3 4 5 6 
#
# 1 66.7024 60.4607 21.9236 0.0000 0.0000 0.0000
# 2 60.4607 198.0951 50.6342 0.0000 0.0000 0.0000
# 3 21.9236 50.6342 22.7285 0.0000 0.0000 0.0000
# 4 0.0000 0.0000 0.0000 -8.3763 0.0000 0.0000
# 5 0.0000 0.0000 0.0000 0.0000 -65.6125 0.0000
# 6 0.0000 0.0000 0.0000 0.0000 0.0000 14.4394
#
#
#
# Elastic Compliance Matrix: (Units=1/GPa)
#
#
# Indices 1 2 3 4 5 6 
#
# 1 0.022742 -0.003098 -0.015034 0.000000 0.000000 0.000000
# 2 -0.003098 0.012146 -0.024071 0.000000 0.000000 0.000000
# 3 -0.015034 -0.024071 0.112124 0.000000 0.000000 0.000000
# 4 0.000000 0.000000 0.000000 -0.119385 0.000000 0.000000
# 5 0.000000 0.000000 0.000000 0.000000 -0.015241 0.000000
# 6 0.000000 0.000000 0.000000 0.000000 0.000000 0.069255
#
#
# Mechanical properties :
#
#
# Convention : Reuss Voigt Hill
#
# Bulk Modulus (GPa) = 15.97305 61.50701 38.74003
# Shear Modulus (GPa) = 26.75000 -1.60936 12.57032
#
# Velocity S-wave (km/s) = 3.89844 -0.95622 2.67240
# Velocity P-wave (km/s) = 5.41653 5.80738 5.61536
#
# Compressibility (1/GPa) = 0.06260544
#
# Stress axis : x y z
#
# Youngs Moduli (GPa) = 43.97231 82.32939 8.91870
#
# Poissons Ratio (x) = 0.25507 0.13408
# Poissons Ratio (y) = 0.13623 0.21468
# Poissons Ratio (z) = 0.66109 1.98174
#
# Static dielectric constant tensor:
#      x y z
#    x 1.592700 0.000000 0.000000 
#    y 0.000000 1.661280 0.000000 
#    z 0.000000 0.000000 1.572950 
# 
# From -- ./inp_files/29460.got.cif
#   From: 2010.05.17/outbox.cif.g08.bks.cpg/sg47_15_cif.got.tgz:29460.got - 2010.06.03 20:15:42.
