data_PCOD9381324
_publ_section_title
;
Structure prediction by ZEFSAII (Michael W. Deem and Ramdas Pophale) SiO2 
 PCOD9381324
Probable space group: P M M M
;
_chemical_formula_sum "Si O2"
_cell_formula_units_Z 56
_cell_length_a 7.500968
_cell_length_b 19.315068
_cell_length_c 19.685759
_cell_angle_alpha 90.000000
_cell_angle_beta 90.000000
_cell_angle_gamma 90.000000
_cell_volume 2852.106367
_symmetry_space_group_name_H-M "P M M M"
_symmetry_group_IT_number 47
_symmetry_cell_setting 'orthorhombic'
loop_
_space_group_symop_operation_xyz
x,y,z
-x,-y,z
x,-y,-z
-x,y,-z
-x,-y,-z
x,y,-z
-x,y,z
x,-y,z
loop_
_atom_site_type_symbol
_atom_site_label
_atom_site_fract_x
_atom_site_fract_y
_atom_site_fract_z
Si Si1 0.706055 0.143362 0.283394
Si Si2 0.284734 0.352058 0.575729
Si Si3 0.793127 0.075926 0.855229
Si Si4 0.217902 0.783898 0.076478
Si Si5 0.209176 0.423468 0.714781
Si Si6 0.783247 0.712727 0.211727
Si Si7 0.282156 0.808546 0.423851
O O1 0.500000 0.122629 0.286649
O O2 0.789165 0.097035 0.224223
O O3 0.718470 0.222447 0.256410
O O4 0.779706 0.146254 0.359918
O O5 0.227872 0.373438 0.500000
O O6 0.500000 0.352199 0.576883
O O7 0.222714 0.400136 0.636501
O O8 0.228194 0.271941 0.585897
O O9 0.718169 0.140904 0.896970
O O10 0.000000 0.071964 0.875378
O O11 0.713116 0.000000 0.865594
O O12 0.269218 0.729114 0.134331
O O13 0.000000 0.785318 0.076562
O O14 0.276217 0.769852 0.000000
O O15 0.286293 0.500000 0.724716
O O16 0.282990 0.359756 0.758722
O O17 0.000000 0.427240 0.731847
O O18 0.000000 0.714380 0.215628
O O19 0.228328 0.829739 0.500000
O O20 0.500000 0.808974 0.422240
#
# Coordination Sequence:
#
# PCOD9381324 Si02
#       7
#     8   8   8   8   8   8   8
#     4  10  17  27  48  70  88 114 150 189 224 261
#     4   9  17  30  46  63  86 116 151 191 232 271
#     4   9  18  31  46  67  97 127 148 171 210 261
#     4   8  14  26  47  72  91 112 147 185 216 252
#     4  10  20  31  43  61  89 124 155 186 227 274
#     4   9  17  30  46  64  89 117 148 185 224 267
#     4   8  14  25  42  64  87 110 141 186 232 264
#
# _framework density 19.634611
#
# number of rings (size 3 to 8) (size 9 to 14) (size 15 to 20)
#    0.000    3.000    1.429    2.143    0.000    1.429 
#    0.000    2.857    0.000    9.429    0.000   10.000 
#    0.000    0.000    0.000    6.429    0.000    7.143 
#
# Total GULP energy -312184.375243 kJ/mol
# GULP energy per Si atom -5574.720986 kJ/mol
# Density = 1.958992 g / cm^3
# Si number density = 19.634611 Si / 1000 Ang^3
#
#
#
# Elastic Constant Matrix: (Units=GPa)
#
#
# Indices 1 2 3 4 5 6 
#
# 1 51.8123 -2.3351 -9.5787 0.0000 0.0000 0.0000
# 2 -2.3351 67.9057 34.3200 0.0000 0.0000 0.0000
# 3 -9.5787 34.3200 124.5454 0.0000 0.0000 0.0000
# 4 0.0000 0.0000 0.0000 12.3872 0.0000 0.0000
# 5 0.0000 0.0000 0.0000 0.0000 19.3568 0.0000
# 6 0.0000 0.0000 0.0000 0.0000 0.0000 -3.0724
#
#
#
# Elastic Compliance Matrix: (Units=1/GPa)
#
#
# Indices 1 2 3 4 5 6 
#
# 1 0.019579 -0.000102 0.001534 0.000000 0.000000 0.000000
# 2 -0.000102 0.017110 -0.004723 0.000000 0.000000 0.000000
# 3 0.001534 -0.004723 0.009449 0.000000 0.000000 0.000000
# 4 0.000000 0.000000 0.000000 0.080728 0.000000 0.000000
# 5 0.000000 0.000000 0.000000 0.000000 0.051661 0.000000
# 6 0.000000 0.000000 0.000000 0.000000 0.000000 -0.325476
#
#
# Mechanical properties :
#
#
# Convention : Reuss Voigt Hill
#
# Bulk Modulus (GPa) = 25.28042 32.11953 28.69997
# Shear Modulus (GPa) = -39.31394 20.52479 -9.39457
#
# Velocity S-wave (km/s) = -4.47954 3.23668 -2.18977
# Velocity P-wave (km/s) = 3.72177 5.51019 2.87321
#
# Compressibility (1/GPa) = 0.03955631
#
# Stress axis : x y z
#
# Youngs Moduli (GPa) = 51.07400 58.44659 105.83630
#
# Poissons Ratio (x) = 0.00596 -0.16235
# Poissons Ratio (y) = 0.00521 0.49982
# Poissons Ratio (z) = -0.07834 0.27602
#
# Static dielectric constant tensor:
#      x y z
#    x 1.887290 0.000000 0.000000 
#    y 0.000000 1.680510 0.000000 
#    z 0.000000 0.000000 1.694830 
# 
# From -- ./inp_files/9798.got.cif
#   From: 2010.05.17/outbox.cif.g08.bks.cpg/sg47_5_cif.got.tgz:9798.got - 2010.06.03 20:15:42.
