data_PCOD9381527
_publ_section_title
;
Structure prediction by ZEFSAII (Michael W. Deem and Ramdas Pophale) SiO2 
 PCOD9381527
Probable space group: P M M M
;
_chemical_formula_sum "Si O2"
_cell_formula_units_Z 48
_cell_length_a 14.267915
_cell_length_b 20.497385
_cell_length_c 7.233680
_cell_angle_alpha 90.000000
_cell_angle_beta 90.000000
_cell_angle_gamma 90.000000
_cell_volume 2115.525500
_symmetry_space_group_name_H-M "P M M M"
_symmetry_group_IT_number 47
_symmetry_cell_setting 'orthorhombic'
loop_
_space_group_symop_operation_xyz
x,y,z
-x,-y,z
x,-y,-z
-x,y,-z
-x,-y,-z
x,y,-z
-x,y,z
x,-y,z
loop_
_atom_site_type_symbol
_atom_site_label
_atom_site_fract_x
_atom_site_fract_y
_atom_site_fract_z
Si Si1 0.895419 0.076149 0.724882
Si Si2 0.750773 0.821174 0.293600
Si Si3 0.390575 0.285467 0.274622
Si Si4 0.387042 0.429049 0.720552
Si Si5 0.109154 0.290827 0.776257
Si Si6 0.887313 0.568888 0.221143
O O1 0.894587 0.080277 0.500000
O O2 0.806455 0.117800 0.791112
O O3 0.000000 0.099492 0.782951
O O4 0.888094 0.000000 0.773517
O O5 0.719601 0.840863 0.500000
O O6 0.667695 0.777367 0.209511
O O7 0.832665 0.767543 0.303661
O O8 0.383872 0.286151 0.500000
O O9 0.500000 0.279621 0.227828
O O10 0.356099 0.357501 0.210654
O O11 0.370439 0.429644 0.500000
O O12 0.500000 0.428613 0.745884
O O13 0.354011 0.500000 0.793102
O O14 0.145673 0.361411 0.710572
O O15 0.000000 0.285423 0.729485
O O16 0.115969 0.288711 0.000000
O O17 0.851693 0.500000 0.295414
O O18 0.000000 0.569267 0.248575
O O19 0.873123 0.568508 0.000000
#
# Coordination Sequence:
#
# PCOD9381527 Si02
#       6
#     8   8   8   8   8   8
#     4   8  14  25  41  61  84 109 137 167 198 240
#     4  10  18  27  43  65  85 107 137 172 209 249
#     4   8  14  24  37  55  80 108 137 170 209 248
#     4   7   9  15  29  47  68  99 136 166 194 238
#     4   9  17  28  42  61  85 111 137 169 210 250
#     4   7  10  19  36  54  71  99 141 175 193 225
#
# _framework density 22.689398000000001
#
# number of rings (size 3 to 8) (size 9 to 14) (size 15 to 20)
#    0.000    3.833    0.000    4.000    0.000    1.000 
#    0.000    0.833    0.000    3.000    0.000    8.167 
#    0.000    0.000    0.000    9.833    0.000    5.500 
#
# Total GULP energy -267607.337565 kJ/mol
# GULP energy per Si atom -5575.152866 kJ/mol
# Density = 2.263776 g / cm^3
# Si number density = 22.689398 Si / 1000 Ang^3
#
#
#
# Elastic Constant Matrix: (Units=GPa)
#
#
# Indices 1 2 3 4 5 6 
#
# 1 117.7929 53.9726 2.7930 0.0000 0.0000 0.0000
# 2 53.9726 130.7167 3.0766 0.0000 0.0000 0.0000
# 3 2.7930 3.0766 104.8481 0.0000 0.0000 0.0000
# 4 0.0000 0.0000 0.0000 -12.1858 0.0000 0.0000
# 5 0.0000 0.0000 0.0000 0.0000 1.6132 0.0000
# 6 0.0000 0.0000 0.0000 0.0000 0.0000 78.4669
#
#
#
# Elastic Compliance Matrix: (Units=1/GPa)
#
#
# Indices 1 2 3 4 5 6 
#
# 1 0.010473 -0.004321 -0.000152 0.000000 0.000000 0.000000
# 2 -0.004321 0.009438 -0.000162 0.000000 0.000000 0.000000
# 3 -0.000152 -0.000162 0.009546 0.000000 0.000000 0.000000
# 4 0.000000 0.000000 0.000000 -0.082063 0.000000 0.000000
# 5 0.000000 0.000000 0.000000 0.000000 0.619904 0.000000
# 6 0.000000 0.000000 0.000000 0.000000 0.000000 0.012744
#
#
# Mechanical properties :
#
#
# Convention : Reuss Voigt Hill
#
# Bulk Modulus (GPa) = 49.53484 52.56023 51.04753
# Shear Modulus (GPa) = 8.38868 33.14655 20.76761
#
# Velocity S-wave (km/s) = 1.92489 3.82630 3.02868
# Velocity P-wave (km/s) = 5.17874 6.53729 5.89727
#
# Compressibility (1/GPa) = 0.02018781
#
# Stress axis : x y z
#
# Youngs Moduli (GPa) = 95.48561 105.95566 104.75140
#
# Poissons Ratio (x) = 0.45779 0.01594
# Poissons Ratio (y) = 0.41256 0.01695
# Poissons Ratio (z) = 0.01453 0.01715
#
# Static dielectric constant tensor:
#      x y z
#    x 1.879970 0.000000 0.000000 
#    y 0.000000 1.868220 0.000000 
#    z 0.000000 0.000000 1.857710 
# 
# From -- ./inp_files/16418.got.cif
#   From: 2010.05.17/outbox.cif.g08.bks.cpg/sg47_9_cif.got.tgz:16418.got - 2010.06.03 20:15:42.
