data_PCOD9381028
_publ_section_title
;
Structure prediction by ZEFSAII (Michael W. Deem and Ramdas Pophale) SiO2 
 PCOD9381028
Probable space group: I M A 2
;
_chemical_formula_sum "Si O2"
_cell_formula_units_Z 40
_cell_length_a 9.689778
_cell_length_b 7.755921
_cell_length_c 26.012574
_cell_angle_alpha 90.000000
_cell_angle_beta 90.000000
_cell_angle_gamma 90.000000
_cell_volume 1954.926945
_symmetry_space_group_name_H-M "I M A 2"
_symmetry_group_IT_number 46
_symmetry_cell_setting 'orthorhombic'
loop_
_space_group_symop_operation_xyz
x,y,z
-x,-y,z
1/2-x,y,z
1/2+x,-y,z
1/2+x,1/2+y,1/2+z
1/2-x,1/2-y,1/2+z
-x,1/2+y,1/2+z
x,1/2-y,1/2+z
loop_
_atom_site_type_symbol
_atom_site_label
_atom_site_fract_x
_atom_site_fract_y
_atom_site_fract_z
Si Si1 0.250000 0.977045 0.541430
Si Si2 0.500000 0.500000 0.119158
Si Si3 0.250000 0.279767 0.454679
Si Si4 0.579865 0.667830 0.687298
Si Si5 0.583611 0.179712 0.780467
Si Si6 0.250000 0.839604 0.971416
Si Si7 0.518513 0.205208 0.395453
O O1 0.123962 0.991381 0.579528
O O2 0.250000 0.786252 0.518967
O O3 0.250000 0.118323 0.494663
O O4 0.465602 0.335496 0.154694
O O5 0.250000 0.459914 0.484740
O O6 0.375662 0.279474 0.415145
O O7 0.500000 0.500000 0.665266
O O8 0.750000 0.653487 0.690052
O O9 0.503085 0.698648 0.742035
O O10 0.750000 0.167033 0.768413
O O11 0.566328 0.246113 0.838587
O O12 0.500000 0.000000 0.777145
O O13 0.123002 0.783573 0.936239
O O14 0.500000 0.000000 0.399271
#
# Coordination Sequence:
#
# PCOD9381028 Si02
#       7
#     4   4   4   8   8   4   8
#     4  12  26  48  78 108 144 200 256 318 382 440
#     4  12  28  50  80 106 152 196 260 322 384 438
#     4  12  26  44  75 105 149 196 248 309 370 457
#     4  12  28  50  80 114 152 197 253 318 385 462
#     4  12  26  44  74 112 153 200 253 309 382 461
#     4  12  24  48  71 105 147 194 250 307 370 449
#     4  12  24  44  70 107 152 196 245 303 373 452
#
# _framework density 20.461124000000002
#
# number of rings (size 3 to 8) (size 9 to 14) (size 15 to 20)
#    0.000    0.000    5.000    4.800    5.600    1.600 
#    0.000    0.000    0.000    0.000    0.000    0.000 
#    0.000    0.000    0.000    0.000    0.000    0.000 
#
# Total GULP energy -111670.678943 kJ/mol
# GULP energy per Si atom -5583.533947 kJ/mol
# Density = 2.041455 g / cm^3
# Si number density = 20.461124 Si / 1000 Ang^3
#
#
#
# Elastic Constant Matrix: (Units=GPa)
#
#
# Indices 1 2 3 4 5 6 
#
# 1 188.4398 22.3164 20.1233 0.0000 0.0000 0.0000
# 2 22.3164 142.8826 5.3931 0.0000 0.0000 0.0000
# 3 20.1233 5.3931 70.8378 0.0000 0.0000 0.0000
# 4 0.0000 0.0000 0.0000 22.0528 0.0000 0.0000
# 5 0.0000 0.0000 0.0000 0.0000 50.7091 0.0000
# 6 0.0000 0.0000 0.0000 0.0000 0.0000 26.2540
#
#
#
# Elastic Compliance Matrix: (Units=1/GPa)
#
#
# Indices 1 2 3 4 5 6 
#
# 1 0.005565 -0.000812 -0.001519 0.000000 0.000000 0.000000
# 2 -0.000812 0.007137 -0.000313 0.000000 0.000000 0.000000
# 3 -0.001519 -0.000313 0.014572 0.000000 0.000000 0.000000
# 4 0.000000 0.000000 0.000000 0.045346 0.000000 0.000000
# 5 0.000000 0.000000 0.000000 0.000000 0.019720 0.000000
# 6 0.000000 0.000000 0.000000 0.000000 0.000000 0.038089
#
#
# Mechanical properties :
#
#
# Convention : Reuss Voigt Hill
#
# Bulk Modulus (GPa) = 45.48117 55.31399 50.39758
# Shear Modulus (GPa) = 34.95366 43.42501 39.18934
#
# Velocity S-wave (km/s) = 4.13764 4.61186 4.38117
# Velocity P-wave (km/s) = 6.71588 7.44657 7.09064
#
# Compressibility (1/GPa) = 0.02198712
#
# Stress axis : x y z
#
# Youngs Moduli (GPa) = 179.69114 140.10786 68.62428
#
# Poissons Ratio (x) = 0.11375 0.10425
# Poissons Ratio (y) = 0.14588 0.02146
# Poissons Ratio (z) = 0.27297 0.04382
#
# Static dielectric constant tensor:
#      x y z
#    x 1.605270 0.000000 0.000000 
#    y 0.000000 1.837880 0.000000 
#    z 0.000000 0.000000 1.695670 
# 
# From -- ./inp_files/22812.got.cif
#   From: 2010.05.17/outbox.cif.g08.bks.cpg/sg46_12_cif.got.tgz:22812.got - 2010.06.03 19:58:25.
