data_PCOD9381036
_publ_section_title
;
Structure prediction by ZEFSAII (Michael W. Deem and Ramdas Pophale) SiO2 
 PCOD9381036
Probable space group: I M A 2
;
_chemical_formula_sum "Si O2"
_cell_formula_units_Z 36
_cell_length_a 20.923444
_cell_length_b 5.027689
_cell_length_c 13.801524
_cell_angle_alpha 90.000000
_cell_angle_beta 90.000000
_cell_angle_gamma 90.000000
_cell_volume 1451.872975
_symmetry_space_group_name_H-M "I M A 2"
_symmetry_group_IT_number 46
_symmetry_cell_setting 'orthorhombic'
loop_
_space_group_symop_operation_xyz
x,y,z
-x,-y,z
1/2-x,y,z
1/2+x,-y,z
1/2+x,1/2+y,1/2+z
1/2-x,1/2-y,1/2+z
-x,1/2+y,1/2+z
x,1/2-y,1/2+z
loop_
_atom_site_type_symbol
_atom_site_label
_atom_site_fract_x
_atom_site_fract_y
_atom_site_fract_z
Si Si1 0.500000 0.000000 0.937551
Si Si2 0.637121 0.114789 0.867404
Si Si3 0.149269 0.111661 0.244417
Si Si4 0.439817 0.348216 0.107405
Si Si5 0.319342 0.755008 0.571844
O O1 0.560404 0.094966 0.876132
O O2 0.467112 0.213832 0.010014
O O3 0.651703 0.409732 0.832376
O O4 0.663573 0.899373 0.790708
O O5 0.666091 0.091250 0.974107
O O6 0.081755 0.144249 0.189718
O O7 0.184486 0.957885 0.158358
O O8 0.500000 0.500000 0.148388
O O9 0.378799 0.540781 0.086837
O O10 0.250000 0.891407 0.564354
#
# Coordination Sequence:
#
# PCOD9381036 Si02
#       5
#     4   8   8   8   8
#     4  12  26  44  84 120 160 208 272 334 412 486
#     4  12  28  49  81 119 159 211 274 330 412 477
#     4  12  28  52  79 120 156 217 265 337 401 497
#     4  12  24  52  82 115 161 210 268 337 410 491
#     4  12  29  54  81 116 169 218 271 346 412 490
#
# _framework density 24.795556000000001
#
# number of rings (size 3 to 8) (size 9 to 14) (size 15 to 20)
#    0.000    0.000    6.667    1.333    1.556    4.444 
#    0.000    0.000    0.000    0.000    0.000    0.000 
#    0.000    0.000    0.000    0.000    0.000    0.000 
#
# Total GULP energy -100674.783149 kJ/mol
# GULP energy per Si atom -5593.043508 kJ/mol
# Density = 2.473912 g / cm^3
# Si number density = 24.795556 Si / 1000 Ang^3
#
#
#
# Elastic Constant Matrix: (Units=GPa)
#
#
# Indices 1 2 3 4 5 6 
#
# 1 172.3508 40.6766 23.2449 0.0000 0.0000 0.0000
# 2 40.6766 104.2866 15.4517 0.0000 0.0000 0.0000
# 3 23.2449 15.4517 106.5794 0.0000 0.0000 0.0000
# 4 0.0000 0.0000 0.0000 25.6924 0.0000 0.0000
# 5 0.0000 0.0000 0.0000 0.0000 -61.3382 0.0000
# 6 0.0000 0.0000 0.0000 0.0000 0.0000 17.6027
#
#
#
# Elastic Compliance Matrix: (Units=1/GPa)
#
#
# Indices 1 2 3 4 5 6 
#
# 1 0.006509 -0.002379 -0.001075 0.000000 0.000000 0.000000
# 2 -0.002379 0.010669 -0.001028 0.000000 0.000000 0.000000
# 3 -0.001075 -0.001028 0.009766 0.000000 0.000000 0.000000
# 4 0.000000 0.000000 0.000000 0.038922 0.000000 0.000000
# 5 0.000000 0.000000 0.000000 0.000000 -0.016303 0.000000
# 6 0.000000 0.000000 0.000000 0.000000 0.000000 0.056809
#
#
# Mechanical properties :
#
#
# Convention : Reuss Voigt Hill
#
# Bulk Modulus (GPa) = 55.61649 60.21813 57.91731
# Shear Modulus (GPa) = 41.21011 16.64764 28.92887
#
# Velocity S-wave (km/s) = 4.08118 2.59394 3.41940
# Velocity P-wave (km/s) = 6.68482 5.77148 6.24487
#
# Compressibility (1/GPa) = 0.01798028
#
# Stress axis : x y z
#
# Youngs Moduli (GPa) = 153.64236 93.72645 102.39548
#
# Poissons Ratio (x) = 0.22302 0.11003
# Poissons Ratio (y) = 0.36558 0.10525
# Poissons Ratio (z) = 0.16510 0.09634
#
# Static dielectric constant tensor:
#      x y z
#    x 2.034870 0.000000 0.000000 
#    y 0.000000 2.019850 0.000000 
#    z 0.000000 0.000000 1.962400 
# 
# From -- ./inp_files/16898.got.cif
#   From: 2010.05.17/outbox.cif.g08.bks.cpg/sg46_9_cif.got.tgz:16898.got - 2010.06.03 19:58:25.
