data_PCOD9381483
_publ_section_title
;
Structure prediction by ZEFSAII (Michael W. Deem and Ramdas Pophale) SiO2 
 PCOD9381483
Probable space group: P M M M
;
_chemical_formula_sum "Si O2"
_cell_formula_units_Z 56
_cell_length_a 19.231178
_cell_length_b 22.142809
_cell_length_c 7.559680
_cell_angle_alpha 90.000000
_cell_angle_beta 90.000000
_cell_angle_gamma 90.000000
_cell_volume 3219.155931
_symmetry_space_group_name_H-M "P M M M"
_symmetry_group_IT_number 47
_symmetry_cell_setting 'orthorhombic'
loop_
_space_group_symop_operation_xyz
x,y,z
-x,-y,z
x,-y,-z
-x,y,-z
-x,-y,-z
x,y,-z
-x,y,z
x,-y,z
loop_
_atom_site_type_symbol
_atom_site_label
_atom_site_fract_x
_atom_site_fract_y
_atom_site_fract_z
Si Si1 0.657655 0.686274 0.212560
Si Si2 0.419411 0.567592 0.215870
Si Si3 0.922033 0.188218 0.213063
Si Si4 0.218363 0.238749 0.297455
Si Si5 0.579660 0.808557 0.783008
Si Si6 0.706436 0.119764 0.801409
Si Si7 0.845608 0.933543 0.216747
O O1 0.627711 0.622918 0.278176
O O2 0.737013 0.701843 0.260098
O O3 0.611122 0.743625 0.272561
O O4 0.652844 0.685495 0.000000
O O5 0.500000 0.577528 0.265926
O O6 0.398919 0.500000 0.272743
O O7 0.417858 0.567692 0.000000
O O8 0.863498 0.237008 0.262719
O O9 0.892743 0.122841 0.273902
O O10 0.000000 0.199229 0.277674
O O11 0.924136 0.186164 0.000000
O O12 0.229742 0.221860 0.500000
O O13 0.253371 0.184402 0.188234
O O14 0.500000 0.815385 0.728613
O O15 0.632583 0.861031 0.721399
O O16 0.581523 0.809273 0.000000
O O17 0.766090 0.077637 0.721319
O O18 0.692899 0.096961 0.000000
O O19 0.870169 0.000000 0.268779
O O20 0.844087 0.931633 0.000000
#
# Coordination Sequence:
#
# PCOD9381483 Si02
#       7
#     8   8   8   8   8   8   8
#     4   9  15  24  39  57  79 107 138 169 199 233
#     4   8  13  21  36  61  89 114 143 178 209 234
#     4   9  17  29  44  61  81 103 126 154 191 236
#     4  10  18  27  40  57  78 103 131 163 198 235
#     4   8  12  18  32  53  72  94 128 166 200 232
#     4   8  14  25  39  54  73  98 129 163 199 238
#     4   8  13  22  38  59  79 100 128 157 184 223
#
# _framework density 17.395865000000001
#
# number of rings (size 3 to 8) (size 9 to 14) (size 15 to 20)
#    0.000    3.429    0.000    3.857    0.000    2.286 
#    0.000    1.429    0.000   18.429    0.000    8.000 
#    0.000    0.571    0.000   27.143    0.000   24.714 
#
# Total GULP energy -311736.425932 kJ/mol
# GULP energy per Si atom -5566.721892 kJ/mol
# Density = 1.735627 g / cm^3
# Si number density = 17.395865 Si / 1000 Ang^3
#
#
#
# Elastic Constant Matrix: (Units=GPa)
#
#
# Indices 1 2 3 4 5 6 
#
# 1 133.5739 32.8304 -0.3494 0.0000 0.0000 0.0000
# 2 32.8304 47.6671 -1.3405 0.0000 0.0000 0.0000
# 3 -0.3494 -1.3405 48.0999 0.0000 0.0000 0.0000
# 4 0.0000 0.0000 0.0000 -14.7363 0.0000 0.0000
# 5 0.0000 0.0000 0.0000 0.0000 -23.1103 0.0000
# 6 0.0000 0.0000 0.0000 0.0000 0.0000 20.2775
#
#
#
# Elastic Compliance Matrix: (Units=1/GPa)
#
#
# Indices 1 2 3 4 5 6 
#
# 1 0.009013 -0.006210 -0.000108 0.000000 0.000000 0.000000
# 2 -0.006210 0.025275 0.000659 0.000000 0.000000 0.000000
# 3 -0.000108 0.000659 0.020808 0.000000 0.000000 0.000000
# 4 0.000000 0.000000 0.000000 -0.067860 0.000000 0.000000
# 5 0.000000 0.000000 0.000000 0.000000 -0.043271 0.000000
# 6 0.000000 0.000000 0.000000 0.000000 0.000000 0.049316
#
#
# Mechanical properties :
#
#
# Convention : Reuss Voigt Hill
#
# Bulk Modulus (GPa) = 22.84276 32.40242 27.62259
# Shear Modulus (GPa) = 260.54704 9.69954 135.12329
#
# Velocity S-wave (km/s) = 12.25155 2.36387 8.82293
# Velocity P-wave (km/s) = 14.60457 5.11052 10.94100
#
# Compressibility (1/GPa) = 0.04377755
#
# Stress axis : x y z
#
# Youngs Moduli (GPa) = 110.95533 39.56521 48.05921
#
# Poissons Ratio (x) = 0.24572 0.00517
# Poissons Ratio (y) = 0.68908 -0.03168
# Poissons Ratio (z) = 0.01194 -0.02608
#
# Static dielectric constant tensor:
#      x y z
#    x 1.617860 0.000000 0.000000 
#    y 0.000000 1.582370 0.000000 
#    z 0.000000 0.000000 1.656440 
# 
# From -- ./inp_files/10102.got.cif
#   From: 2010.05.17/outbox.cif.g08.bks.cpg/sg47_6_cif.got.tgz:10102.got - 2010.06.03 20:15:42.
