data_PCOD9381977
_publ_section_title
;
Structure prediction by ZEFSAII (Michael W. Deem and Ramdas Pophale) SiO2 
 PCOD9381977
Probable space group: P M M M
;
_chemical_formula_sum "Si O2"
_cell_formula_units_Z 52
_cell_length_a 27.313605
_cell_length_b 7.699177
_cell_length_c 13.201589
_cell_angle_alpha 90.000000
_cell_angle_beta 90.000000
_cell_angle_gamma 90.000000
_cell_volume 2776.192243
_symmetry_space_group_name_H-M "P M M M"
_symmetry_group_IT_number 47
_symmetry_cell_setting 'orthorhombic'
loop_
_space_group_symop_operation_xyz
x,y,z
-x,-y,z
x,-y,-z
-x,y,-z
-x,-y,-z
x,y,-z
-x,y,z
x,-y,z
loop_
_atom_site_type_symbol
_atom_site_label
_atom_site_fract_x
_atom_site_fract_y
_atom_site_fract_z
Si Si1 0.393800 0.792345 0.616253
Si Si2 0.944871 0.791664 0.693673
Si Si3 0.227850 0.212210 0.885223
Si Si4 0.706996 0.206736 0.299015
Si Si5 0.120667 0.706372 0.500000
Si Si6 0.232151 0.708760 0.500000
Si Si7 0.500000 0.293698 0.384667
Si Si8 0.884712 0.787858 0.885606
O O1 0.392269 0.723873 0.500000
O O2 0.347391 0.723569 0.678180
O O3 0.447753 0.758654 0.660397
O O4 0.388213 0.000000 0.609560
O O5 0.909672 0.757411 0.599202
O O6 0.920339 0.725761 0.797279
O O7 0.000000 0.724814 0.677482
O O8 0.948107 0.000000 0.703053
O O9 0.264237 0.276664 0.798475
O O10 0.171549 0.264133 0.864972
O O11 0.228066 0.000000 0.883574
O O12 0.240561 0.264800 0.000000
O O13 0.739187 0.232736 0.399808
O O14 0.702288 0.000000 0.282636
O O15 0.124576 0.500000 0.500000
O O16 0.176241 0.775631 0.500000
O O17 0.231660 0.500000 0.500000
O O18 0.500000 0.500000 0.390704
O O19 0.500000 0.219494 0.500000
O O20 0.885444 0.000000 0.885002
O O21 0.897729 0.733699 0.000000
#
# Coordination Sequence:
#
# PCOD9381977 Si02
#       8
#     8   8   8   8   4   4   4   8
#     4   9  16  27  41  62  92 124 157 191 228 274
#     4  10  20  33  51  74  94 116 153 197 234 274
#     4   8  14  25  44  70  96 122 154 190 227 274
#     4  10  18  30  49  72  98 128 159 190 233 284
#     4  11  24  38  49  64  91 129 162 189 230 280
#     4  11  23  34  46  68  97 124 156 195 233 276
#     4   9  17  27  41  61  86 123 162 194 233 274
#     4   8  14  26  45  71 100 123 144 181 236 286
#
# _framework density 18.730691
#
# number of rings (size 3 to 8) (size 9 to 14) (size 15 to 20)
#    0.000    2.692    0.769    2.769    0.000    5.538 
#    0.000    1.538    0.000    0.923    0.000    5.923 
#    0.000    4.308    0.000    0.000    0.000    0.000 
#
# Total GULP energy -290013.960532 kJ/mol
# GULP energy per Si atom -5577.191549 kJ/mol
# Density = 1.868806 g / cm^3
# Si number density = 18.730691 Si / 1000 Ang^3
#
#
#
# Elastic Constant Matrix: (Units=GPa)
#
#
# Indices 1 2 3 4 5 6 
#
# 1 170.1505 -0.9862 76.1917 0.0000 0.0000 0.0000
# 2 -0.9862 29.5141 -5.5134 0.0000 0.0000 0.0000
# 3 76.1917 -5.5134 95.0138 0.0000 0.0000 0.0000
# 4 0.0000 0.0000 0.0000 -20.3657 0.0000 0.0000
# 5 0.0000 0.0000 0.0000 0.0000 -20.2846 0.0000
# 6 0.0000 0.0000 0.0000 0.0000 0.0000 -3.6697
#
#
#
# Elastic Compliance Matrix: (Units=1/GPa)
#
#
# Indices 1 2 3 4 5 6 
#
# 1 0.009204 -0.001083 -0.007444 0.000000 0.000000 0.000000
# 2 -0.001083 0.034381 0.002863 0.000000 0.000000 0.000000
# 3 -0.007444 0.002863 0.016660 0.000000 0.000000 0.000000
# 4 0.000000 0.000000 0.000000 -0.049102 0.000000 0.000000
# 5 0.000000 0.000000 0.000000 0.000000 -0.049299 0.000000
# 6 0.000000 0.000000 0.000000 0.000000 0.000000 -0.272504
#
#
# Mechanical properties :
#
#
# Convention : Reuss Voigt Hill
#
# Bulk Modulus (GPa) = 20.44207 48.22916 34.33562
# Shear Modulus (GPa) = -17.66614 6.13509 -5.76553
#
# Velocity S-wave (km/s) = -3.07443 1.81178 -1.75636
# Velocity P-wave (km/s) = 1.29053 5.49376 3.77597
#
# Compressibility (1/GPa) = 0.04891872
#
# Stress axis : x y z
#
# Youngs Moduli (GPa) = 108.64815 29.08594 60.02423
#
# Poissons Ratio (x) = 0.03150 0.44679
# Poissons Ratio (y) = 0.11766 -0.17188
# Poissons Ratio (z) = 0.80873 -0.08329
#
# Static dielectric constant tensor:
#      x y z
#    x 1.672450 0.000000 0.000000 
#    y 0.000000 1.706510 0.000000 
#    z 0.000000 0.000000 1.626750 
# 
# From -- ./inp_files/19848.got.cif
#   From: 2010.05.17/outbox.cif.g08.bks.cpg/sg47_10_cif.got.tgz:19848.got - 2010.06.03 20:15:42.
