data_PCOD9381990
_publ_section_title
;
Structure prediction by ZEFSAII (Michael W. Deem and Ramdas Pophale) SiO2 
 PCOD9381990
Probable space group: P M M M
;
_chemical_formula_sum "Si O2"
_cell_formula_units_Z 60
_cell_length_a 15.008636
_cell_length_b 14.436190
_cell_length_c 14.699688
_cell_angle_alpha 90.000000
_cell_angle_beta 90.000000
_cell_angle_gamma 90.000000
_cell_volume 3184.944958
_symmetry_space_group_name_H-M "P M M M"
_symmetry_group_IT_number 47
_symmetry_cell_setting 'orthorhombic'
loop_
_space_group_symop_operation_xyz
x,y,z
-x,-y,z
x,-y,-z
-x,y,-z
-x,-y,-z
x,y,-z
-x,y,z
x,-y,z
loop_
_atom_site_type_symbol
_atom_site_label
_atom_site_fract_x
_atom_site_fract_y
_atom_site_fract_z
Si Si1 0.603416 0.262599 0.163725
Si Si2 0.260696 0.889781 0.108831
Si Si3 0.210038 0.600395 0.396668
Si Si4 0.391663 0.605252 0.000000
Si Si5 0.596758 0.604336 0.334787
Si Si6 0.099692 0.889815 0.764492
Si Si7 0.209701 0.805090 0.389867
Si Si8 0.400768 0.892086 0.610161
O O1 0.500000 0.240145 0.145647
O O2 0.661531 0.170998 0.153544
O O3 0.634913 0.335862 0.087677
O O4 0.607312 0.319365 0.257272
O O5 0.169166 0.859403 0.157795
O O6 0.273577 0.000000 0.124688
O O7 0.258827 0.875313 0.000000
O O8 0.176717 0.598686 0.500000
O O9 0.187144 0.500000 0.354145
O O10 0.317789 0.606184 0.398192
O O11 0.186170 0.700412 0.357867
O O12 0.358858 0.500000 0.000000
O O13 0.500000 0.601002 0.000000
O O14 0.500000 0.617268 0.379650
O O15 0.596138 0.500000 0.293585
O O16 0.143881 0.869089 0.666964
O O17 0.000000 0.850676 0.771860
O O18 0.093488 0.000000 0.774475
O O19 0.200658 0.810690 0.500000
O O20 0.311678 0.835059 0.367676
O O21 0.404674 0.890835 0.500000
O O22 0.500000 0.860858 0.642530
O O23 0.389533 0.000000 0.637628
#
# Coordination Sequence:
#
# PCOD9381990 Si02
#       8
#     8   8   8   4   8   8   8   8
#     4  10  18  30  49  75 107 140 171 208 252 301
#     4  10  21  37  56  77 103 137 177 215 252 303
#     4   9  18  31  46  67  97 134 176 219 258 299
#     4   9  16  26  43  71 106 139 169 203 245 294
#     4   9  17  28  43  65  96 136 179 220 259 298
#     4  10  22  39  58  81 106 130 164 216 271 320
#     4  10  19  32  53  79 108 140 172 211 260 316
#     4   8  14  25  42  66  98 136 173 204 239 291
#
# _framework density 18.838630999999999
#
# number of rings (size 3 to 8) (size 9 to 14) (size 15 to 20)
#    0.000    2.600    0.667    2.000    0.000    4.000 
#    0.000    6.000    0.000    1.200    0.000    1.867 
#    0.000    0.533    0.000    0.000    0.000    0.000 
#
# Total GULP energy -334320.108921 kJ/mol
# GULP energy per Si atom -5572.001815 kJ/mol
# Density = 1.879575 g / cm^3
# Si number density = 18.838631 Si / 1000 Ang^3
#
#
#
# Elastic Constant Matrix: (Units=GPa)
#
#
# Indices 1 2 3 4 5 6 
#
# 1 83.2485 35.8274 24.4652 0.0000 0.0000 0.0000
# 2 35.8274 75.9259 23.6855 0.0000 0.0000 0.0000
# 3 24.4652 23.6855 55.0347 0.0000 0.0000 0.0000
# 4 0.0000 0.0000 0.0000 16.8322 0.0000 0.0000
# 5 0.0000 0.0000 0.0000 0.0000 12.6890 0.0000
# 6 0.0000 0.0000 0.0000 0.0000 0.0000 10.8565
#
#
#
# Elastic Compliance Matrix: (Units=1/GPa)
#
#
# Indices 1 2 3 4 5 6 
#
# 1 0.015965 -0.006144 -0.004453 0.000000 0.000000 0.000000
# 2 -0.006144 0.017578 -0.004834 0.000000 0.000000 0.000000
# 3 -0.004453 -0.004834 0.022230 0.000000 0.000000 0.000000
# 4 0.000000 0.000000 0.000000 0.059410 0.000000 0.000000
# 5 0.000000 0.000000 0.000000 0.000000 0.078808 0.000000
# 6 0.000000 0.000000 0.000000 0.000000 0.000000 0.092111
#
#
# Mechanical properties :
#
#
# Convention : Reuss Voigt Hill
#
# Bulk Modulus (GPa) = 40.14209 42.46280 41.30244
# Shear Modulus (GPa) = 15.37195 16.75762 16.06479
#
# Velocity S-wave (km/s) = 2.85964 2.98574 2.92337
# Velocity P-wave (km/s) = 5.67961 5.87158 5.77639
#
# Compressibility (1/GPa) = 0.02491151
#
# Stress axis : x y z
#
# Youngs Moduli (GPa) = 62.63626 56.88916 44.98419
#
# Poissons Ratio (x) = 0.34956 0.20030
# Poissons Ratio (y) = 0.38487 0.21744
# Poissons Ratio (z) = 0.27890 0.27498
#
# Static dielectric constant tensor:
#      x y z
#    x 1.656610 0.000000 0.000000 
#    y 0.000000 1.700720 0.000000 
#    z 0.000000 0.000000 1.658020 
# 
# From -- ./inp_files/23951.got.cif
#   From: 2010.05.17/outbox.cif.g08.bks.cpg/sg47_12_cif.got.tgz:23951.got - 2010.06.03 20:15:42.
