data_PCOD9381272
_publ_section_title
;
Structure prediction by ZEFSAII (Michael W. Deem and Ramdas Pophale) SiO2 
 PCOD9381272
Probable space group: P M M M
;
_chemical_formula_sum "Si O2"
_cell_formula_units_Z 64
_cell_length_a 19.422443
_cell_length_b 22.340895
_cell_length_c 7.440619
_cell_angle_alpha 90.000000
_cell_angle_beta 90.000000
_cell_angle_gamma 90.000000
_cell_volume 3228.594405
_symmetry_space_group_name_H-M "P M M M"
_symmetry_group_IT_number 47
_symmetry_cell_setting 'orthorhombic'
loop_
_space_group_symop_operation_xyz
x,y,z
-x,-y,z
x,-y,-z
-x,y,-z
-x,-y,-z
x,y,-z
-x,y,z
x,-y,z
loop_
_atom_site_type_symbol
_atom_site_label
_atom_site_fract_x
_atom_site_fract_y
_atom_site_fract_z
Si Si1 0.422669 0.569552 0.280715
Si Si2 0.575736 0.094193 0.707444
Si Si3 0.682975 0.334317 0.702639
Si Si4 0.875517 0.064187 0.212437
Si Si5 0.223317 0.762532 0.712896
Si Si6 0.275738 0.892138 0.717777
Si Si7 0.423379 0.234211 0.785343
Si Si8 0.924951 0.191695 0.216808
O O1 0.422758 0.573320 0.500000
O O2 0.500000 0.587453 0.222233
O O3 0.412759 0.500000 0.233654
O O4 0.361397 0.612059 0.214325
O O5 0.574620 0.074298 0.500000
O O6 0.500000 0.077416 0.785112
O O7 0.651748 0.080032 0.783208
O O8 0.578548 0.166671 0.713580
O O9 0.701611 0.353612 0.500000
O O10 0.747767 0.299943 0.787924
O O11 0.629732 0.278894 0.698511
O O12 0.793267 0.072542 0.233646
O O13 0.910483 0.124139 0.284750
O O14 0.896477 0.000000 0.288176
O O15 0.890592 0.063227 0.000000
O O16 0.237438 0.761591 0.500000
O O17 0.260729 0.823495 0.781712
O O18 0.142124 0.770682 0.734982
O O19 0.279877 0.890509 0.500000
O O20 0.500000 0.257484 0.751565
O O21 0.412336 0.231691 0.000000
O O22 0.000000 0.212545 0.277726
O O23 0.925754 0.189376 0.000000
#
# Coordination Sequence:
#
# PCOD9381272 Si02
#       8
#     8   8   8   8   8   8   8   8
#     4   8  14  24  39  61  87 117 157 199 230 254
#     4   9  16  27  42  58  79 108 141 176 216 260
#     4  10  17  27  43  61  84 116 152 187 221 259
#     4   9  18  31  47  67  87 110 141 173 206 248
#     4   9  17  28  42  64  89 113 142 173 213 261
#     4   9  16  28  43  61  85 110 139 176 217 259
#     4  10  19  26  34  55  85 112 141 179 220 259
#     4   9  18  32  49  68  90 116 140 165 206 257
#
# _framework density 19.822866999999999
#
# number of rings (size 3 to 8) (size 9 to 14) (size 15 to 20)
#    0.000    2.875    1.250    1.125    0.000    3.000 
#    0.000    1.250    0.000    0.750    0.000    7.875 
#    0.000    0.500    0.000    6.250    0.000    1.000 
#
# Total GULP energy -356768.437270 kJ/mol
# GULP energy per Si atom -5574.506832 kJ/mol
# Density = 1.977775 g / cm^3
# Si number density = 19.822867 Si / 1000 Ang^3
#
#
#
# Elastic Constant Matrix: (Units=GPa)
#
#
# Indices 1 2 3 4 5 6 
#
# 1 126.0480 37.7480 3.5880 0.0000 0.0000 0.0000
# 2 37.7480 87.5164 0.0344 0.0000 0.0000 0.0000
# 3 3.5880 0.0344 65.4445 0.0000 0.0000 0.0000
# 4 0.0000 0.0000 0.0000 0.3204 0.0000 0.0000
# 5 0.0000 0.0000 0.0000 0.0000 18.4543 0.0000
# 6 0.0000 0.0000 0.0000 0.0000 0.0000 -586.6946
#
#
#
# Elastic Compliance Matrix: (Units=1/GPa)
#
#
# Indices 1 2 3 4 5 6 
#
# 1 0.009126 -0.003936 -0.000498 0.000000 0.000000 0.000000
# 2 -0.003936 0.013124 0.000209 0.000000 0.000000 0.000000
# 3 -0.000498 0.000209 0.015307 0.000000 0.000000 0.000000
# 4 0.000000 0.000000 0.000000 3.120781 0.000000 0.000000
# 5 0.000000 0.000000 0.000000 0.000000 0.054188 0.000000
# 6 0.000000 0.000000 0.000000 0.000000 0.000000 -0.001704
#
#
# Mechanical properties :
#
#
# Convention : Reuss Voigt Hill
#
# Bulk Modulus (GPa) = 34.35643 40.19443 37.27543
# Shear Modulus (GPa) = 1.54848 -97.74140 -48.09646
#
# Velocity S-wave (km/s) = 0.88479 -7.02954 -4.93110
# Velocity P-wave (km/s) = 4.29105 6.75019 3.68456
#
# Compressibility (1/GPa) = 0.02910664
#
# Stress axis : x y z
#
# Youngs Moduli (GPa) = 109.57126 76.19535 65.32821
#
# Poissons Ratio (x) = 0.29993 0.03255
# Poissons Ratio (y) = 0.43130 -0.01365
# Poissons Ratio (z) = 0.05460 -0.01592
#
# Static dielectric constant tensor:
#      x y z
#    x 1.750350 0.000000 0.000000 
#    y 0.000000 1.706950 0.000000 
#    z 0.000000 0.000000 1.774490 
# 
# From -- ./inp_files/11904.got.cif
#   From: 2010.05.17/outbox.cif.g08.bks.cpg/sg47_6_cif.got.tgz:11904.got - 2010.06.03 20:15:42.
