data_PCOD9381707
_publ_section_title
;
Structure prediction by ZEFSAII (Michael W. Deem and Ramdas Pophale) SiO2 
 PCOD9381707
Probable space group: P M M M
;
_chemical_formula_sum "Si O2"
_cell_formula_units_Z 64
_cell_length_a 7.898086
_cell_length_b 25.060757
_cell_length_c 15.921494
_cell_angle_alpha 90.000000
_cell_angle_beta 90.000000
_cell_angle_gamma 90.000000
_cell_volume 3151.373373
_symmetry_space_group_name_H-M "P M M M"
_symmetry_group_IT_number 47
_symmetry_cell_setting 'orthorhombic'
loop_
_space_group_symop_operation_xyz
x,y,z
-x,-y,z
x,-y,-z
-x,y,-z
-x,-y,-z
x,y,-z
-x,y,z
x,-y,z
loop_
_atom_site_type_symbol
_atom_site_label
_atom_site_fract_x
_atom_site_fract_y
_atom_site_fract_z
Si Si1 0.299943 0.355343 0.909282
Si Si2 0.301562 0.230064 0.726674
Si Si3 0.793206 0.560445 0.403748
Si Si4 0.703218 0.936948 0.909608
Si Si5 0.801878 0.351992 0.727126
Si Si6 0.201239 0.854008 0.405378
Si Si7 0.202743 0.060874 0.272897
Si Si8 0.298358 0.226273 0.090581
O O1 0.500000 0.367103 0.905297
O O2 0.218111 0.372995 0.822434
O O3 0.284944 0.290784 0.910289
O O4 0.234043 0.374567 0.000000
O O5 0.500000 0.217507 0.727884
O O6 0.281875 0.293853 0.720793
O O7 0.225142 0.199814 0.647703
O O8 0.228377 0.211607 0.817666
O O9 0.743901 0.571833 0.500000
O O10 0.739356 0.500000 0.382881
O O11 0.733770 0.605037 0.338868
O O12 0.000000 0.560530 0.401394
O O13 0.500000 0.932981 0.909898
O O14 0.762714 0.916030 0.820081
O O15 0.748295 0.000000 0.908982
O O16 0.764127 0.915522 0.000000
O O17 0.000000 0.343546 0.710384
O O18 0.270696 0.852050 0.500000
O O19 0.270925 0.901382 0.346334
O O20 0.000000 0.862863 0.412171
O O21 0.000000 0.058013 0.281269
O O22 0.269492 0.000000 0.277359
O O23 0.500000 0.213253 0.090480
O O24 0.229088 0.207784 0.000000
#
# Coordination Sequence:
#
# PCOD9381707 Si02
#       8
#     8   8   8   8   8   8   8   8
#     4   8  14  26  44  66  96 135 172 203 241 291
#     4  10  20  34  52  74 102 135 168 200 239 295
#     4   8  15  29  48  70  97 129 165 205 250 300
#     4   8  14  26  46  73 104 135 163 191 229 282
#     4  10  18  28  49  79 104 129 165 208 251 293
#     4  10  22  39  55  71  96 129 164 208 258 300
#     4   9  18  33  54  78 100 125 161 204 249 296
#     4   7  11  23  44  67  90 119 155 191 227 272
#
# _framework density 20.308606000000001
#
# number of rings (size 3 to 8) (size 9 to 14) (size 15 to 20)
#    0.000    3.250    0.000    3.000    0.000    2.000 
#    0.000    4.375    0.000    6.375    0.000    8.750 
#    0.000    0.000    0.000    0.000    0.000    0.000 
#
# Total GULP energy -356528.685008 kJ/mol
# GULP energy per Si atom -5570.760703 kJ/mol
# Density = 2.026238 g / cm^3
# Si number density = 20.308606 Si / 1000 Ang^3
#
#
#
# Elastic Constant Matrix: (Units=GPa)
#
#
# Indices 1 2 3 4 5 6 
#
# 1 16.6286 -3.6948 7.5279 0.0000 0.0000 0.0000
# 2 -3.6948 80.5146 78.6396 0.0000 0.0000 0.0000
# 3 7.5279 78.6396 217.2637 0.0000 0.0000 0.0000
# 4 0.0000 0.0000 0.0000 74.8744 0.0000 0.0000
# 5 0.0000 0.0000 0.0000 0.0000 27.9688 0.0000
# 6 0.0000 0.0000 0.0000 0.0000 0.0000 -19.4671
#
#
#
# Elastic Compliance Matrix: (Units=1/GPa)
#
#
# Indices 1 2 3 4 5 6 
#
# 1 0.064201 0.007918 -0.005090 0.000000 0.000000 0.000000
# 2 0.007918 0.020189 -0.007582 0.000000 0.000000 0.000000
# 3 -0.005090 -0.007582 0.007523 0.000000 0.000000 0.000000
# 4 0.000000 0.000000 0.000000 0.013356 0.000000 0.000000
# 5 0.000000 0.000000 0.000000 0.000000 0.035754 0.000000
# 6 0.000000 0.000000 0.000000 0.000000 0.000000 -0.051369
#
#
# Mechanical properties :
#
#
# Convention : Reuss Voigt Hill
#
# Bulk Modulus (GPa) = 12.13521 53.26137 32.69829
# Shear Modulus (GPa) = 39.48496 32.13752 35.81124
#
# Velocity S-wave (km/s) = 4.41415 3.98233 4.20379
# Velocity P-wave (km/s) = 5.65402 6.88681 6.30064
#
# Compressibility (1/GPa) = 0.08240481
#
# Stress axis : x y z
#
# Youngs Moduli (GPa) = 15.57606 49.53289 132.92016
#
# Poissons Ratio (x) = -0.39221 0.67663
# Poissons Ratio (y) = -0.12333 1.00776
# Poissons Ratio (z) = 0.07929 0.37554
#
# Static dielectric constant tensor:
#      x y z
#    x 1.740280 0.000000 0.000000 
#    y 0.000000 1.726580 0.000000 
#    z 0.000000 0.000000 1.768900 
# 
# From -- ./inp_files/21920.got.cif
#   From: 2010.05.17/outbox.cif.g08.bks.cpg/sg47_11_cif.got.tgz:21920.got - 2010.06.03 20:15:42.
