data_PCOD9381556
_publ_section_title
;
Structure prediction by ZEFSAII (Michael W. Deem and Ramdas Pophale) SiO2 
 PCOD9381556
Probable space group: P M M M
;
_chemical_formula_sum "Si O2"
_cell_formula_units_Z 34
_cell_length_a 12.364389
_cell_length_b 7.685702
_cell_length_c 18.010920
_cell_angle_alpha 90.000000
_cell_angle_beta 90.000000
_cell_angle_gamma 90.000000
_cell_volume 1711.559884
_symmetry_space_group_name_H-M "P M M M"
_symmetry_group_IT_number 47
_symmetry_cell_setting 'orthorhombic'
loop_
_space_group_symop_operation_xyz
x,y,z
-x,-y,z
x,-y,-z
-x,y,-z
-x,-y,-z
x,y,-z
-x,y,z
x,-y,z
loop_
_atom_site_type_symbol
_atom_site_label
_atom_site_fract_x
_atom_site_fract_y
_atom_site_fract_z
Si Si1 0.000000 0.803921 0.677171
Si Si2 0.624593 0.713885 0.354845
Si Si3 0.213053 0.295507 0.235918
Si Si4 0.873700 0.712618 0.918185
Si Si5 0.744954 0.301173 0.500000
Si Si6 0.000000 0.247458 0.500000
O O1 0.107416 0.718171 0.711055
O O2 0.000000 0.811248 0.587455
O O3 0.000000 0.000000 0.705349
O O4 0.500000 0.765114 0.360637
O O5 0.627557 0.500000 0.353471
O O6 0.685844 0.776814 0.281338
O O7 0.694568 0.776145 0.425407
O O8 0.233472 0.500000 0.224880
O O9 0.187417 0.222082 0.154712
O O10 0.871108 0.500000 0.917233
O O11 0.000000 0.760549 0.911251
O O12 0.835049 0.767777 0.000000
O O13 0.706213 0.500000 0.500000
O O14 0.874610 0.309085 0.500000
#
# Coordination Sequence:
#
# PCOD9381556 Si02
#       6
#     4   8   8   8   4   2
#     4  12  24  35  47  68 100 131 156 192 244 290
#     4   9  17  28  44  69  97 124 157 200 242 271
#     4  10  18  31  52  73  94 125 164 200 230 278
#     4   8  13  22  41  70  99 123 150 187 233 284
#     4  10  18  27  46  72  97 119 153 203 241 280
#     4  12  22  34  46  64  91 134 161 180 239 300
#
# _framework density 19.864920000000001
#
# number of rings (size 3 to 8) (size 9 to 14) (size 15 to 20)
#    0.000    2.353    3.529    1.765    0.000    2.353 
#    0.000    0.000    0.000    2.824    0.000    6.588 
#    0.000    0.000    0.000    2.118    0.000    2.353 
#
# Total GULP energy -189288.994736 kJ/mol
# GULP energy per Si atom -5567.323375 kJ/mol
# Density = 1.981971 g / cm^3
# Si number density = 19.864920 Si / 1000 Ang^3
#
#
#
# Elastic Constant Matrix: (Units=GPa)
#
#
# Indices 1 2 3 4 5 6 
#
# 1 117.4642 4.1698 73.1149 0.0000 0.0000 0.0000
# 2 4.1698 24.8318 13.5796 0.0000 0.0000 0.0000
# 3 73.1149 13.5796 198.8628 0.0000 0.0000 0.0000
# 4 0.0000 0.0000 0.0000 -22.1167 0.0000 0.0000
# 5 0.0000 0.0000 0.0000 0.0000 10.4794 0.0000
# 6 0.0000 0.0000 0.0000 0.0000 0.0000 -11.9857
#
#
#
# Elastic Compliance Matrix: (Units=1/GPa)
#
#
# Indices 1 2 3 4 5 6 
#
# 1 0.011043 0.000380 -0.004086 0.000000 0.000000 0.000000
# 2 0.000380 0.041846 -0.002997 0.000000 0.000000 0.000000
# 3 -0.004086 -0.002997 0.006736 0.000000 0.000000 0.000000
# 4 0.000000 0.000000 0.000000 -0.045215 0.000000 0.000000
# 5 0.000000 0.000000 0.000000 0.000000 0.095426 0.000000
# 6 0.000000 0.000000 0.000000 0.000000 0.000000 -0.083433
#
#
# Mechanical properties :
#
#
# Convention : Reuss Voigt Hill
#
# Bulk Modulus (GPa) = 21.63640 58.09860 39.86750
# Shear Modulus (GPa) = 90.55401 11.96170 51.25785
#
# Velocity S-wave (km/s) = 6.75898 2.45654 5.08520
# Velocity P-wave (km/s) = 8.47509 6.11199 7.38863
#
# Compressibility (1/GPa) = 0.04621842
#
# Stress axis : x y z
#
# Youngs Moduli (GPa) = 90.55409 23.89703 148.46503
#
# Poissons Ratio (x) = -0.00908 0.60665
# Poissons Ratio (y) = -0.03443 0.44499
# Poissons Ratio (z) = 0.37002 0.07163
#
# Static dielectric constant tensor:
#      x y z
#    x 1.662470 0.000000 0.000000 
#    y 0.000000 1.658110 0.000000 
#    z 0.000000 0.000000 1.734850 
# 
# From -- ./inp_files/27233.got.cif
#   From: 2010.05.17/outbox.cif.g08.bks.cpg/sg47_14_cif.got.tgz:27233.got - 2010.06.03 20:15:42.
