data_PCOD9381892
_publ_section_title
;
Structure prediction by ZEFSAII (Michael W. Deem and Ramdas Pophale) SiO2 
 PCOD9381892
Probable space group: P M M M
;
_chemical_formula_sum "Si O2"
_cell_formula_units_Z 60
_cell_length_a 14.852289
_cell_length_b 21.613444
_cell_length_c 13.243819
_cell_angle_alpha 90.000000
_cell_angle_beta 90.000000
_cell_angle_gamma 90.000000
_cell_volume 4251.386637
_symmetry_space_group_name_H-M "P M M M"
_symmetry_group_IT_number 47
_symmetry_cell_setting 'orthorhombic'
loop_
_space_group_symop_operation_xyz
x,y,z
-x,-y,z
x,-y,-z
-x,y,-z
-x,-y,-z
x,y,-z
-x,y,z
x,-y,z
loop_
_atom_site_type_symbol
_atom_site_label
_atom_site_fract_x
_atom_site_fract_y
_atom_site_fract_z
Si Si1 0.208774 0.689547 0.377929
Si Si2 0.280559 0.072955 0.884433
Si Si3 0.400141 0.733302 0.380132
Si Si4 0.107128 0.813809 0.618025
Si Si5 0.606908 0.073363 0.500000
Si Si6 0.394759 0.868642 0.292556
Si Si7 0.894798 0.568684 0.377266
Si Si8 0.895124 0.070663 0.762475
O O1 0.198441 0.689561 0.500000
O O2 0.314766 0.691339 0.356018
O O3 0.162364 0.753912 0.344718
O O4 0.160864 0.627563 0.339939
O O5 0.339044 0.110558 0.803991
O O6 0.176059 0.078493 0.852284
O O7 0.303961 0.000000 0.875477
O O8 0.294677 0.092015 0.000000
O O9 0.393897 0.749998 0.500000
O O10 0.500000 0.706479 0.364725
O O11 0.392590 0.795937 0.316202
O O12 0.129069 0.823901 0.500000
O O13 0.124087 0.876017 0.680851
O O14 0.000000 0.800065 0.624283
O O15 0.500000 0.090402 0.500000
O O16 0.643060 0.099879 0.394977
O O17 0.614715 0.000000 0.500000
O O18 0.500000 0.887051 0.280350
O O19 0.890090 0.568796 0.500000
O O20 0.864700 0.500000 0.344197
O O21 0.000000 0.575887 0.351425
O O22 0.000000 0.076611 0.792767
O O23 0.883421 0.000000 0.723006
#
# Coordination Sequence:
#
# PCOD9381892 Si02
#       8
#     8   8   8   8   4   8   8   8
#     4   9  15  22  35  53  74 103 133 165 200 239
#     4  10  21  34  45  59  78 100 133 174 211 253
#     4   9  16  26  39  56  77 102 131 163 195 233
#     4   9  16  25  39  60  83 103 126 162 208 257
#     4   9  16  26  42  62  81 101 126 159 201 253
#     4  10  18  30  46  62  82 104 128 162 208 256
#     4   8  13  21  33  50  73 100 132 169 204 236
#     4   9  18  32  46  58  75 102 136 172 209 247
#
# _framework density 14.113042
#
# number of rings (size 3 to 8) (size 9 to 14) (size 15 to 20)
#    0.000    2.867    0.667    2.000    0.000    3.200 
#    1.200    3.333    0.000    0.400    0.000    2.800 
#    0.000    0.000    0.000    0.000    0.000   10.667 
#
# Total GULP energy -334045.315952 kJ/mol
# GULP energy per Si atom -5567.421933 kJ/mol
# Density = 1.408092 g / cm^3
# Si number density = 14.113042 Si / 1000 Ang^3
#
#
#
# Elastic Constant Matrix: (Units=GPa)
#
#
# Indices 1 2 3 4 5 6 
#
# 1 73.7033 51.1008 32.4954 0.0000 0.0000 0.0000
# 2 51.1008 75.2881 30.3213 0.0000 0.0000 0.0000
# 3 32.4954 30.3213 49.5526 0.0000 0.0000 0.0000
# 4 0.0000 0.0000 0.0000 3.2890 0.0000 0.0000
# 5 0.0000 0.0000 0.0000 0.0000 12.2125 0.0000
# 6 0.0000 0.0000 0.0000 0.0000 0.0000 16.1804
#
#
#
# Elastic Compliance Matrix: (Units=1/GPa)
#
#
# Indices 1 2 3 4 5 6 
#
# 1 0.028395 -0.015624 -0.009061 0.000000 0.000000 0.000000
# 2 -0.015624 0.026223 -0.005800 0.000000 0.000000 0.000000
# 3 -0.009061 -0.005800 0.029671 0.000000 0.000000 0.000000
# 4 0.000000 0.000000 0.000000 0.304044 0.000000 0.000000
# 5 0.000000 0.000000 0.000000 0.000000 0.081883 0.000000
# 6 0.000000 0.000000 0.000000 0.000000 0.000000 0.061803
#
#
# Mechanical properties :
#
#
# Convention : Reuss Voigt Hill
#
# Bulk Modulus (GPa) = 42.88106 47.37547 45.12826
# Shear Modulus (GPa) = 8.32276 11.97814 10.15045
#
# Velocity S-wave (km/s) = 2.43105 2.91645 2.68475
# Velocity P-wave (km/s) = 6.19112 6.70689 6.45416
#
# Compressibility (1/GPa) = 0.02332032
#
# Stress axis : x y z
#
# Youngs Moduli (GPa) = 35.21727 38.13503 33.70257
#
# Poissons Ratio (x) = 0.59581 0.30537
# Poissons Ratio (y) = 0.55023 0.19547
# Poissons Ratio (z) = 0.31909 0.22118
#
# Static dielectric constant tensor:
#      x y z
#    x 1.502350 0.000000 0.000000 
#    y 0.000000 1.461440 0.000000 
#    z 0.000000 0.000000 1.435840 
# 
# From -- ./inp_files/18026.got.cif
#   From: 2010.05.17/outbox.cif.g08.bks.cpg/sg47_10_cif.got.tgz:18026.got - 2010.06.03 20:15:42.
