data_PCOD9381336
_publ_section_title
;
Structure prediction by ZEFSAII (Michael W. Deem and Ramdas Pophale) SiO2 
 PCOD9381336
Probable space group: P M M M
;
_chemical_formula_sum "Si O2"
_cell_formula_units_Z 40
_cell_length_a 14.950640
_cell_length_b 7.565524
_cell_length_c 23.447375
_cell_angle_alpha 90.000000
_cell_angle_beta 90.000000
_cell_angle_gamma 90.000000
_cell_volume 2652.119121
_symmetry_space_group_name_H-M "P M M M"
_symmetry_group_IT_number 47
_symmetry_cell_setting 'orthorhombic'
loop_
_space_group_symop_operation_xyz
x,y,z
-x,-y,z
x,-y,-z
-x,y,-z
-x,-y,-z
x,y,-z
-x,y,z
x,-y,z
loop_
_atom_site_type_symbol
_atom_site_label
_atom_site_fract_x
_atom_site_fract_y
_atom_site_fract_z
Si Si1 0.400836 0.215742 0.566472
Si Si2 0.102376 0.711437 0.500000
Si Si3 0.897038 0.216253 0.720177
Si Si4 0.891161 0.202162 0.847212
Si Si5 0.890898 0.500000 0.934630
Si Si6 0.215461 0.209892 0.386840
O O1 0.390185 0.265925 0.500000
O O2 0.500000 0.271640 0.585544
O O3 0.314859 0.280258 0.600914
O O4 0.399827 0.000000 0.567528
O O5 0.099307 0.500000 0.500000
O O6 0.155611 0.766963 0.556581
O O7 0.000000 0.778266 0.500000
O O8 0.866057 0.266691 0.783740
O O9 0.835588 0.280077 0.668607
O O10 0.000000 0.272493 0.711633
O O11 0.898088 0.000000 0.720100
O O12 0.862768 0.329744 0.897990
O O13 0.000000 0.200776 0.846528
O O14 0.861651 0.000000 0.855171
O O15 0.000000 0.500000 0.935618
O O16 0.860651 0.500000 0.000000
O O17 0.224749 0.000000 0.377807
#
# Coordination Sequence:
#
# PCOD9381336 Si02
#       6
#     8   4   8   8   4   8
#     4   8  13  22  38  60  79  91 113 157 205 240
#     4  11  23  33  36  49  80 102 117 159 214 249
#     4   8  14  24  38  55  72  92 125 164 193 225
#     4   8  14  25  37  50  73 100 126 162 199 227
#     4   9  16  24  36  56  76  97 132 165 188 225
#     4  10  17  28  46  60  69  94 134 165 193 238
#
# _framework density 15.082279
#
# number of rings (size 3 to 8) (size 9 to 14) (size 15 to 20)
#    0.000    3.200    1.000    2.700    0.000    2.000 
#    1.800    2.000    0.000    1.200    0.000    0.000 
#    0.000    0.000    0.000    0.000    0.000    2.000 
#
# Total GULP energy -222823.656024 kJ/mol
# GULP energy per Si atom -5570.591401 kJ/mol
# Density = 1.504795 g / cm^3
# Si number density = 15.082279 Si / 1000 Ang^3
#
#
#
# Elastic Constant Matrix: (Units=GPa)
#
#
# Indices 1 2 3 4 5 6 
#
# 1 90.1572 14.5048 58.5459 0.0000 0.0000 0.0000
# 2 14.5048 47.1193 33.2371 0.0000 0.0000 0.0000
# 3 58.5459 33.2371 145.4533 0.0000 0.0000 0.0000
# 4 0.0000 0.0000 0.0000 36.5752 0.0000 0.0000
# 5 0.0000 0.0000 0.0000 0.0000 3.4067 0.0000
# 6 0.0000 0.0000 0.0000 0.0000 0.0000 -3.5327
#
#
#
# Elastic Compliance Matrix: (Units=1/GPa)
#
#
# Indices 1 2 3 4 5 6 
#
# 1 0.015024 -0.000428 -0.005949 0.000000 0.000000 0.000000
# 2 -0.000428 0.025313 -0.005612 0.000000 0.000000 0.000000
# 3 -0.005949 -0.005612 0.010552 0.000000 0.000000 0.000000
# 4 0.000000 0.000000 0.000000 0.027341 0.000000 0.000000
# 5 0.000000 0.000000 0.000000 0.000000 0.293536 0.000000
# 6 0.000000 0.000000 0.000000 0.000000 0.000000 -0.283070
#
#
# Mechanical properties :
#
#
# Convention : Reuss Voigt Hill
#
# Bulk Modulus (GPa) = 37.16072 55.03394 46.09733
# Shear Modulus (GPa) = 41.10301 19.05264 30.07782
#
# Velocity S-wave (km/s) = 5.22606 3.55807 4.47055
# Velocity P-wave (km/s) = 7.81714 7.31083 7.56822
#
# Compressibility (1/GPa) = 0.02691014
#
# Stress axis : x y z
#
# Youngs Moduli (GPa) = 66.55995 39.50535 94.76803
#
# Poissons Ratio (x) = 0.01692 0.56381
# Poissons Ratio (y) = 0.02851 0.53182
# Poissons Ratio (z) = 0.39599 0.22170
#
# Static dielectric constant tensor:
#      x y z
#    x 1.491760 0.000000 0.000000 
#    y 0.000000 1.563340 0.000000 
#    z 0.000000 0.000000 1.497940 
# 
# From -- ./inp_files/30734.got.cif
#   From: 2010.05.17/outbox.cif.g08.bks.cpg/sg47_16_cif.got.tgz:30734.got - 2010.06.03 20:15:42.
