data_PCOD9381691
_publ_section_title
;
Structure prediction by ZEFSAII (Michael W. Deem and Ramdas Pophale) SiO2 
 PCOD9381691
Probable space group: P M M M
;
_chemical_formula_sum "Si O2"
_cell_formula_units_Z 52
_cell_length_a 9.040773
_cell_length_b 24.300445
_cell_length_c 14.250994
_cell_angle_alpha 90.000000
_cell_angle_beta 90.000000
_cell_angle_gamma 90.000000
_cell_volume 3130.869377
_symmetry_space_group_name_H-M "P M M M"
_symmetry_group_IT_number 47
_symmetry_cell_setting 'orthorhombic'
loop_
_space_group_symop_operation_xyz
x,y,z
-x,-y,z
x,-y,-z
-x,y,-z
-x,-y,-z
x,y,-z
-x,y,z
x,-y,z
loop_
_atom_site_type_symbol
_atom_site_label
_atom_site_fract_x
_atom_site_fract_y
_atom_site_fract_z
Si Si1 0.676007 0.936994 0.306693
Si Si2 0.831983 0.261798 0.889684
Si Si3 0.171123 0.166054 0.250325
Si Si4 0.320086 0.564001 0.105491
Si Si5 0.834568 0.066314 0.500000
Si Si6 0.821447 0.264316 0.390477
Si Si7 0.325221 0.657590 0.756605
O O1 0.500000 0.936602 0.312495
O O2 0.735291 0.889040 0.240990
O O3 0.745752 0.920361 0.406776
O O4 0.722672 0.000000 0.284912
O O5 0.823010 0.201908 0.843729
O O6 0.711750 0.298820 0.838467
O O7 0.000000 0.282282 0.867235
O O8 0.813772 0.261309 0.000000
O O9 0.220742 0.208870 0.332535
O O10 0.000000 0.151438 0.269978
O O11 0.500000 0.566539 0.104696
O O12 0.278428 0.500000 0.115446
O O13 0.272037 0.601006 0.193766
O O14 0.271758 0.582692 0.000000
O O15 0.000000 0.090068 0.500000
O O16 0.846404 0.000000 0.500000
O O17 0.778401 0.262094 0.500000
O O18 0.754587 0.316511 0.334383
O O19 0.000000 0.267445 0.385400
O O20 0.500000 0.653921 0.738288
#
# Coordination Sequence:
#
# PCOD9381691 Si02
#       7
#     8   8   8   8   4   8   8
#     4  10  20  32  45  65  94 122 148 184 233 283
#     4   9  18  33  51  70  95 126 156 190 235 283
#     4   9  18  31  49  71  90 116 156 194 229 274
#     4   8  14  25  42  67 100 133 160 190 233 281
#     4   9  17  29  45  63  83 113 151 183 214 261
#     4   9  19  35  51  67  92 127 161 195 237 282
#     4  10  18  28  47  75 100 123 158 199 238 281
#
# _framework density 16.608806000000001
#
# number of rings (size 3 to 8) (size 9 to 14) (size 15 to 20)
#    0.000    2.846    0.000    3.000    1.077    5.538 
#    0.000    0.000    0.000    2.769    0.000   11.846 
#    0.000    0.000    0.000    0.000    0.000    0.000 
#
# Total GULP energy -289479.296574 kJ/mol
# GULP energy per Si atom -5566.909550 kJ/mol
# Density = 1.657100 g / cm^3
# Si number density = 16.608806 Si / 1000 Ang^3
#
#
#
# Elastic Constant Matrix: (Units=GPa)
#
#
# Indices 1 2 3 4 5 6 
#
# 1 23.0271 18.3706 7.9030 0.0000 0.0000 0.0000
# 2 18.3706 70.0470 16.7663 0.0000 0.0000 0.0000
# 3 7.9030 16.7663 59.4410 0.0000 0.0000 0.0000
# 4 0.0000 0.0000 0.0000 14.7211 0.0000 0.0000
# 5 0.0000 0.0000 0.0000 0.0000 20.0218 0.0000
# 6 0.0000 0.0000 0.0000 0.0000 0.0000 6.9731
#
#
#
# Elastic Compliance Matrix: (Units=1/GPa)
#
#
# Indices 1 2 3 4 5 6 
#
# 1 0.055594 -0.013739 -0.003516 0.000000 0.000000 0.000000
# 2 -0.013739 0.018705 -0.003449 0.000000 0.000000 0.000000
# 3 -0.003516 -0.003449 0.018264 0.000000 0.000000 0.000000
# 4 0.000000 0.000000 0.000000 0.067930 0.000000 0.000000
# 5 0.000000 0.000000 0.000000 0.000000 0.049946 0.000000
# 6 0.000000 0.000000 0.000000 0.000000 0.000000 0.143408
#
#
# Mechanical properties :
#
#
# Convention : Reuss Voigt Hill
#
# Bulk Modulus (GPa) = 19.54864 26.51055 23.02959
# Shear Modulus (GPa) = 12.12689 15.64155 13.88422
#
# Velocity S-wave (km/s) = 2.70506 3.07214 2.89443
# Velocity P-wave (km/s) = 4.64242 5.34607 5.00662
#
# Compressibility (1/GPa) = 0.05115446
#
# Stress axis : x y z
#
# Youngs Moduli (GPa) = 17.98741 53.46205 54.75287
#
# Poissons Ratio (x) = 0.73449 0.19253
# Poissons Ratio (y) = 0.24712 0.18886
# Poissons Ratio (z) = 0.06325 0.18441
#
# Static dielectric constant tensor:
#      x y z
#    x 1.572200 0.000000 0.000000 
#    y 0.000000 1.583440 0.000000 
#    z 0.000000 0.000000 1.566450 
# 
# From -- ./inp_files/21762.got.cif
#   From: 2010.05.17/outbox.cif.g08.bks.cpg/sg47_11_cif.got.tgz:21762.got - 2010.06.03 20:15:42.
