data_PCOD9381303
_publ_section_title
;
Structure prediction by ZEFSAII (Michael W. Deem and Ramdas Pophale) SiO2 
 PCOD9381303
Probable space group: P M M M
;
_chemical_formula_sum "Si O2"
_cell_formula_units_Z 52
_cell_length_a 7.486072
_cell_length_b 14.778879
_cell_length_c 25.233250
_cell_angle_alpha 90.000000
_cell_angle_beta 90.000000
_cell_angle_gamma 90.000000
_cell_volume 2791.699596
_symmetry_space_group_name_H-M "P M M M"
_symmetry_group_IT_number 47
_symmetry_cell_setting 'orthorhombic'
loop_
_space_group_symop_operation_xyz
x,y,z
-x,-y,z
x,-y,-z
-x,y,-z
-x,-y,-z
x,y,-z
-x,y,z
x,-y,z
loop_
_atom_site_type_symbol
_atom_site_label
_atom_site_fract_x
_atom_site_fract_y
_atom_site_fract_z
Si Si1 0.000000 0.105726 0.436726
Si Si2 0.717866 0.399405 0.792659
Si Si3 0.285075 0.787330 0.838813
Si Si4 0.212028 0.103998 0.731511
Si Si5 0.282080 0.104398 0.940429
Si Si6 0.717444 0.399380 0.330269
Si Si7 0.296246 0.788928 0.373241
O O1 0.828865 0.154157 0.411483
O O2 0.000000 0.112702 0.500000
O O3 0.000000 0.000000 0.421697
O O4 0.500000 0.398673 0.793029
O O5 0.773868 0.500000 0.809900
O O6 0.780208 0.313900 0.826307
O O7 0.771640 0.387342 0.731165
O O8 0.500000 0.782537 0.842724
O O9 0.244746 0.850119 0.788230
O O10 0.218682 0.832242 0.892956
O O11 0.294393 0.163156 0.684453
O O12 0.000000 0.103453 0.721807
O O13 0.275364 0.000000 0.731019
O O14 0.500000 0.105542 0.939965
O O15 0.229255 0.000000 0.931177
O O16 0.226544 0.130397 0.000000
O O17 0.500000 0.398007 0.330378
O O18 0.773597 0.500000 0.347491
O O19 0.773612 0.313179 0.364128
O O20 0.500000 0.785832 0.392356
#
# Coordination Sequence:
#
# PCOD9381303 Si02
#       7
#     4   8   8   8   8   8   8
#     4  11  26  46  63  83 115 151 189 233 271 308
#     4   8  13  22  38  64  97 127 156 197 253 313
#     4  10  17  27  46  69  91 124 171 214 253 314
#     4  11  22  33  46  71 109 141 164 208 274 327
#     4   8  14  24  38  59  88 121 162 215 265 306
#     4   8  14  27  50  81 113 142 175 216 266 326
#     4  11  21  37  62  86 111 147 187 225 270 325
#
# _framework density 18.626646000000001
#
# number of rings (size 3 to 8) (size 9 to 14) (size 15 to 20)
#    0.000    2.538    2.308    2.769    0.000    3.077 
#    0.000    1.154    0.000    3.231    0.000    7.538 
#    0.000    0.000    0.000    1.385    0.000    1.692 
#
# Total GULP energy -290245.208349 kJ/mol
# GULP energy per Si atom -5581.638622 kJ/mol
# Density = 1.858425 g / cm^3
# Si number density = 18.626646 Si / 1000 Ang^3
#
#
#
# Elastic Constant Matrix: (Units=GPa)
#
#
# Indices 1 2 3 4 5 6 
#
# 1 69.1493 28.8287 21.1663 0.0000 0.0000 0.0000
# 2 28.8287 177.6492 70.5220 0.0000 0.0000 0.0000
# 3 21.1663 70.5220 82.1724 0.0000 0.0000 0.0000
# 4 0.0000 0.0000 0.0000 14.8949 0.0000 0.0000
# 5 0.0000 0.0000 0.0000 0.0000 11.7554 0.0000
# 6 0.0000 0.0000 0.0000 0.0000 0.0000 41.9913
#
#
#
# Elastic Compliance Matrix: (Units=1/GPa)
#
#
# Indices 1 2 3 4 5 6 
#
# 1 0.015942 -0.001451 -0.002861 0.000000 0.000000 0.000000
# 2 -0.001451 0.008670 -0.007067 0.000000 0.000000 0.000000
# 3 -0.002861 -0.007067 0.018971 0.000000 0.000000 0.000000
# 4 0.000000 0.000000 0.000000 0.067137 0.000000 0.000000
# 5 0.000000 0.000000 0.000000 0.000000 0.085067 0.000000
# 6 0.000000 0.000000 0.000000 0.000000 0.000000 0.023814
#
#
# Mechanical properties :
#
#
# Convention : Reuss Voigt Hill
#
# Bulk Modulus (GPa) = 48.01845 63.33388 55.67616
# Shear Modulus (GPa) = 20.05596 27.62525 23.84060
#
# Velocity S-wave (km/s) = 3.28492 3.85529 3.58148
# Velocity P-wave (km/s) = 6.34216 7.34120 6.85989
#
# Compressibility (1/GPa) = 0.02082533
#
# Stress axis : x y z
#
# Youngs Moduli (GPa) = 62.72639 115.34067 52.71097
#
# Poissons Ratio (x) = 0.16741 0.15080
# Poissons Ratio (y) = 0.09104 0.37250
# Poissons Ratio (z) = 0.17945 0.81510
#
# Static dielectric constant tensor:
#      x y z
#    x 1.706790 0.000000 0.000000 
#    y 0.000000 1.654670 0.000000 
#    z 0.000000 0.000000 1.603190 
# 
# From -- ./inp_files/32014.got.cif
#   From: 2010.05.17/outbox.cif.g08.bks.cpg/sg47_17_cif.got.tgz:32014.got - 2010.06.03 20:15:42.
