data_PCOD9381071
_publ_section_title
;
Structure prediction by ZEFSAII (Michael W. Deem and Ramdas Pophale) SiO2 
 PCOD9381071
Probable space group: I M A 2
;
_chemical_formula_sum "Si O2"
_cell_formula_units_Z 64
_cell_length_a 14.649214
_cell_length_b 9.786807
_cell_length_c 18.008706
_cell_angle_alpha 90.000000
_cell_angle_beta 90.000000
_cell_angle_gamma 90.000000
_cell_volume 2581.890713
_symmetry_space_group_name_H-M "I M A 2"
_symmetry_group_IT_number 46
_symmetry_cell_setting 'orthorhombic'
loop_
_space_group_symop_operation_xyz
x,y,z
-x,-y,z
1/2-x,y,z
1/2+x,-y,z
1/2+x,1/2+y,1/2+z
1/2-x,1/2-y,1/2+z
-x,1/2+y,1/2+z
x,1/2-y,1/2+z
loop_
_atom_site_type_symbol
_atom_site_label
_atom_site_fract_x
_atom_site_fract_y
_atom_site_fract_z
Si Si1 0.441786 0.318948 0.387710
Si Si2 0.397658 0.479417 0.857890
Si Si3 0.941786 0.681052 0.560585
Si Si4 0.641209 0.903551 0.748164
Si Si5 0.652357 0.228914 0.058993
Si Si6 0.847643 0.228914 0.889303
Si Si7 0.641209 0.903551 0.200132
Si Si8 0.897658 0.520583 0.090406
O O1 0.381724 0.178561 0.379098
O O2 0.440157 0.357337 0.474148
O O3 0.397632 0.424326 0.330075
O O4 0.547561 0.295478 0.363103
O O5 0.500000 0.500000 0.884718
O O6 0.343623 0.605589 0.889860
O O7 0.391681 0.494489 0.768524
O O8 0.897632 0.575674 0.618220
O O9 0.881724 0.821439 0.569197
O O10 0.047561 0.704522 0.585193
O O11 0.750000 0.907042 0.748926
O O12 0.611689 0.750000 0.724148
O O13 0.608319 0.994489 0.679772
O O14 0.750000 0.183294 0.094673
O O15 0.656377 0.394411 0.058435
O O16 0.653094 0.178822 0.974148
O O17 0.750000 0.183294 0.853622
O O18 0.750000 0.907042 0.199369
O O19 0.000000 0.500000 0.063578
#
# Coordination Sequence:
#
# PCOD9381071 Si02
#       8
#     8   8   8   8   8   8   8   8
#     4   9  17  28  42  63  89 114 142 177 215 256
#     4   9  16  27  44  63  88 115 142 176 217 258
#     4   9  17  28  42  63  89 114 142 177 215 256
#     4   9  17  28  42  61  86 116 147 178 213 253
#     4   9  16  26  43  67  92 116 140 170 213 262
#     4   9  16  26  43  67  92 116 140 170 213 262
#     4   9  17  28  42  61  86 116 147 178 213 253
#     4   9  16  27  44  63  88 115 142 176 217 258
#
# _framework density 24.788036999999999
#
# number of rings (size 3 to 8) (size 9 to 14) (size 15 to 20)
#    0.000    3.000    0.000    1.500    0.000    4.500 
#    0.000    0.000    0.000   21.000    0.000    0.000 
#    0.000    0.000    0.000    0.000    0.000    0.000 
#
# Total GULP energy -178419.510015 kJ/mol
# GULP energy per Si atom -5575.609688 kJ/mol
# Density = 2.473162 g / cm^3
# Si number density = 24.788037 Si / 1000 Ang^3
#
#
#
# Elastic Constant Matrix: (Units=GPa)
#
#
# Indices 1 2 3 4 5 6 
#
# 1 115.7569 -21.7660 22.4166 0.0000 0.0000 0.0000
# 2 -21.7660 56.5356 6.7376 0.0000 0.0000 0.0000
# 3 22.4166 6.7376 140.1098 0.0000 0.0000 0.0000
# 4 0.0000 0.0000 0.0000 15.5974 0.0000 0.0000
# 5 0.0000 0.0000 0.0000 0.0000 65.4506 0.0000
# 6 0.0000 0.0000 0.0000 0.0000 0.0000 11.0401
#
#
#
# Elastic Compliance Matrix: (Units=1/GPa)
#
#
# Indices 1 2 3 4 5 6 
#
# 1 0.009719 0.003950 -0.001745 0.000000 0.000000 0.000000
# 2 0.003950 0.019395 -0.001565 0.000000 0.000000 0.000000
# 3 -0.001745 -0.001565 0.007492 0.000000 0.000000 0.000000
# 4 0.000000 0.000000 0.000000 0.064113 0.000000 0.000000
# 5 0.000000 0.000000 0.000000 0.000000 0.015279 0.000000
# 6 0.000000 0.000000 0.000000 0.000000 0.000000 0.090579
#
#
# Mechanical properties :
#
#
# Convention : Reuss Voigt Hill
#
# Bulk Modulus (GPa) = 26.39443 36.35321 31.37382
# Shear Modulus (GPa) = 22.94362 38.75189 30.84775
#
# Velocity S-wave (km/s) = 3.04566 3.95819 3.53152
# Velocity P-wave (km/s) = 4.79992 5.96549 5.41416
#
# Compressibility (1/GPa) = 0.03788678
#
# Stress axis : x y z
#
# Youngs Moduli (GPa) = 102.88678 51.55937 133.48135
#
# Poissons Ratio (x) = -0.20365 0.23292
# Poissons Ratio (y) = -0.40639 0.20885
# Poissons Ratio (z) = 0.17954 0.08067
#
# Static dielectric constant tensor:
#      x y z
#    x 1.968200 0.000000 0.000000 
#    y 0.000000 2.021750 0.000000 
#    z 0.000000 0.000000 1.989990 
# 
# From -- ./inp_files/16756.got.cif
#   From: 2010.05.17/outbox.cif.g08.bks.cpg/sg46_9_cif.got.tgz:16756.got - 2010.06.03 19:58:25.
