data_PCOD9381904
_publ_section_title
;
Structure prediction by ZEFSAII (Michael W. Deem and Ramdas Pophale) SiO2 
 PCOD9381904
Probable space group: P M M M
;
_chemical_formula_sum "Si O2"
_cell_formula_units_Z 40
_cell_length_a 8.262176
_cell_length_b 24.115284
_cell_length_c 13.021215
_cell_angle_alpha 90.000000
_cell_angle_beta 90.000000
_cell_angle_gamma 90.000000
_cell_volume 2594.408346
_symmetry_space_group_name_H-M "P M M M"
_symmetry_group_IT_number 47
_symmetry_cell_setting 'orthorhombic'
loop_
_space_group_symop_operation_xyz
x,y,z
-x,-y,z
x,-y,-z
-x,y,-z
-x,-y,-z
x,y,-z
-x,y,z
x,-y,z
loop_
_atom_site_type_symbol
_atom_site_label
_atom_site_fract_x
_atom_site_fract_y
_atom_site_fract_z
Si Si1 0.804475 0.063874 0.118271
Si Si2 0.319590 0.631122 0.375062
Si Si3 0.809943 0.749451 0.380156
Si Si4 0.000000 0.435642 0.625143
Si Si5 0.690092 0.135722 0.306263
Si Si6 0.194527 0.064036 0.500000
O O1 0.730443 0.105286 0.200209
O O2 0.000000 0.066636 0.125256
O O3 0.757938 0.000000 0.141211
O O4 0.759629 0.075581 0.000000
O O5 0.317581 0.629578 0.500000
O O6 0.500000 0.613164 0.342285
O O7 0.288160 0.695242 0.346648
O O8 0.165423 0.594843 0.340911
O O9 0.769109 0.761209 0.500000
O O10 0.776147 0.805041 0.317973
O O11 0.000000 0.735294 0.376590
O O12 0.000000 0.500000 0.654994
O O13 0.000000 0.433415 0.500000
O O14 0.500000 0.144989 0.316262
O O15 0.746811 0.096158 0.399144
O O16 0.000000 0.064676 0.500000
O O17 0.249065 0.000000 0.500000
#
# Coordination Sequence:
#
# PCOD9381904 Si02
#       6
#     8   8   8   4   8   4
#     4   9  19  37  57  71  86 115 154 191 230 285
#     4   9  16  26  40  58  81 113 151 192 235 275
#     4  10  18  30  47  63  86 119 155 191 232 280
#     4   9  16  26  38  56  82 114 153 194 231 267
#     4  12  23  32  47  72  95 117 148 190 241 289
#     4  11  23  37  49  63  89 123 153 186 233 288
#
# _framework density 15.417773
#
# number of rings (size 3 to 8) (size 9 to 14) (size 15 to 20)
#    0.000    2.000    2.000    3.900    0.000    5.200 
#    0.000    3.000    0.000    0.000    0.000    0.000 
#    0.000    0.000    0.000    0.000    0.000    2.000 
#
# Total GULP energy -223131.245510 kJ/mol
# GULP energy per Si atom -5578.281138 kJ/mol
# Density = 1.538268 g / cm^3
# Si number density = 15.417773 Si / 1000 Ang^3
#
#
#
# Elastic Constant Matrix: (Units=GPa)
#
#
# Indices 1 2 3 4 5 6 
#
# 1 80.7104 39.2468 12.4952 0.0000 0.0000 0.0000
# 2 39.2468 91.9392 22.9986 0.0000 0.0000 0.0000
# 3 12.4952 22.9986 35.1547 0.0000 0.0000 0.0000
# 4 0.0000 0.0000 0.0000 8.0334 0.0000 0.0000
# 5 0.0000 0.0000 0.0000 0.0000 1.8170 0.0000
# 6 0.0000 0.0000 0.0000 0.0000 0.0000 4.6345
#
#
#
# Elastic Compliance Matrix: (Units=1/GPa)
#
#
# Indices 1 2 3 4 5 6 
#
# 1 0.015695 -0.006342 -0.001429 0.000000 0.000000 0.000000
# 2 -0.006342 0.015568 -0.007930 0.000000 0.000000 0.000000
# 3 -0.001429 -0.007930 0.034142 0.000000 0.000000 0.000000
# 4 0.000000 0.000000 0.000000 0.124480 0.000000 0.000000
# 5 0.000000 0.000000 0.000000 0.000000 0.550364 0.000000
# 6 0.000000 0.000000 0.000000 0.000000 0.000000 0.215772
#
#
# Mechanical properties :
#
#
# Convention : Reuss Voigt Hill
#
# Bulk Modulus (GPa) = 29.41109 39.69837 34.55473
# Shear Modulus (GPa) = 5.00622 11.76791 8.38707
#
# Velocity S-wave (km/s) = 1.80391 2.76573 2.33488
# Velocity P-wave (km/s) = 4.84317 6.00028 5.45251
#
# Compressibility (1/GPa) = 0.03400078
#
# Stress axis : x y z
#
# Youngs Moduli (GPa) = 63.71302 64.23433 29.28954
#
# Poissons Ratio (x) = 0.40740 0.04187
# Poissons Ratio (y) = 0.40410 0.23228
# Poissons Ratio (z) = 0.09107 0.50940
#
# Static dielectric constant tensor:
#      x y z
#    x 1.546110 0.000000 0.000000 
#    y 0.000000 1.509860 0.000000 
#    z 0.000000 0.000000 1.474510 
# 
# From -- ./inp_files/15111.got.cif
#   From: 2010.05.17/outbox.cif.g08.bks.cpg/sg47_8_cif.got.tgz:15111.got - 2010.06.03 20:15:42.
