data_PCOD9381271
_publ_section_title
;
Structure prediction by ZEFSAII (Michael W. Deem and Ramdas Pophale) SiO2 
 PCOD9381271
Probable space group: P M M M
;
_chemical_formula_sum "Si O2"
_cell_formula_units_Z 64
_cell_length_a 15.053781
_cell_length_b 32.104404
_cell_length_c 7.697788
_cell_angle_alpha 90.000000
_cell_angle_beta 90.000000
_cell_angle_gamma 90.000000
_cell_volume 3720.284492
_symmetry_space_group_name_H-M "P M M M"
_symmetry_group_IT_number 47
_symmetry_cell_setting 'orthorhombic'
loop_
_space_group_symop_operation_xyz
x,y,z
-x,-y,z
x,-y,-z
-x,y,-z
-x,-y,-z
x,y,-z
-x,y,z
x,-y,z
loop_
_atom_site_type_symbol
_atom_site_label
_atom_site_fract_x
_atom_site_fract_y
_atom_site_fract_z
Si Si1 0.397818 0.295291 0.786889
Si Si2 0.098385 0.755980 0.788442
Si Si3 0.283356 0.374248 0.207642
Si Si4 0.714361 0.215934 0.205958
Si Si5 0.901664 0.658283 0.788449
Si Si6 0.601377 0.863923 0.295360
Si Si7 0.399836 0.452872 0.709058
Si Si8 0.603566 0.955183 0.790906
O O1 0.500000 0.295142 0.730863
O O2 0.345997 0.336613 0.728619
O O3 0.345771 0.254082 0.726940
O O4 0.398276 0.295191 0.000000
O O5 0.184832 0.780849 0.725858
O O6 0.111240 0.707108 0.744926
O O7 0.000000 0.768842 0.727026
O O8 0.095861 0.758183 0.000000
O O9 0.183120 0.367621 0.273919
O O10 0.328887 0.418255 0.241986
O O11 0.278836 0.369238 0.000000
O O12 0.664458 0.172503 0.229779
O O13 0.721357 0.223135 0.000000
O O14 0.000000 0.645441 0.727914
O O15 0.903223 0.656407 0.000000
O O16 0.594068 0.858210 0.500000
O O17 0.500000 0.861458 0.221305
O O18 0.639116 0.910367 0.264216
O O19 0.402729 0.454041 0.500000
O O20 0.500000 0.441764 0.769944
O O21 0.380028 0.500000 0.769520
O O22 0.500000 0.954842 0.734528
O O23 0.641632 0.000000 0.731826
O O24 0.604626 0.955529 0.000000
#
# Coordination Sequence:
#
# PCOD9381271 Si02
#       8
#     8   8   8   8   8   8   8   8
#     4   9  16  24  36  59  88 113 139 174 210 243
#     4   8  13  23  41  64  86 108 141 183 219 252
#     4  10  17  27  46  71  91 109 140 180 218 253
#     4  10  17  27  43  61  83 116 151 178 210 254
#     4   8  13  23  41  66  93 114 135 171 219 263
#     4  10  20  30  39  56  86 122 154 183 217 255
#     4   9  19  35  50  63  84 115 145 172 210 260
#     4   8  14  26  44  63  81 105 143 188 226 260
#
# _framework density 17.202985000000002
#
# number of rings (size 3 to 8) (size 9 to 14) (size 15 to 20)
#    0.000    3.000    1.250    2.625    0.000    2.500 
#    0.000    2.500    0.000    3.375    0.000    4.375 
#    0.000    0.500    0.000    5.750    0.000    1.875 
#
# Total GULP energy -356516.279331 kJ/mol
# GULP energy per Si atom -5570.566865 kJ/mol
# Density = 1.716383 g / cm^3
# Si number density = 17.202985 Si / 1000 Ang^3
#
#
#
# Elastic Constant Matrix: (Units=GPa)
#
#
# Indices 1 2 3 4 5 6 
#
# 1 156.5176 89.2135 7.6425 0.0000 0.0000 0.0000
# 2 89.2135 117.0512 -3.9100 0.0000 0.0000 0.0000
# 3 7.6425 -3.9100 23.0923 0.0000 0.0000 0.0000
# 4 0.0000 0.0000 0.0000 47.2699 0.0000 0.0000
# 5 0.0000 0.0000 0.0000 0.0000 -0.5344 0.0000
# 6 0.0000 0.0000 0.0000 0.0000 0.0000 8.4963
#
#
#
# Elastic Compliance Matrix: (Units=1/GPa)
#
#
# Indices 1 2 3 4 5 6 
#
# 1 0.011961 -0.009301 -0.005533 0.000000 0.000000 0.000000
# 2 -0.009301 0.015825 0.005758 0.000000 0.000000 0.000000
# 3 -0.005533 0.005758 0.046111 0.000000 0.000000 0.000000
# 4 0.000000 0.000000 0.000000 0.021155 0.000000 0.000000
# 5 0.000000 0.000000 0.000000 0.000000 -1.871158 0.000000
# 6 0.000000 0.000000 0.000000 0.000000 0.000000 0.117698
#
#
# Mechanical properties :
#
#
# Convention : Reuss Voigt Hill
#
# Bulk Modulus (GPa) = 17.93960 53.61700 35.77830
# Shear Modulus (GPa) = -3.08323 24.62739 10.77208
#
# Velocity S-wave (km/s) = -1.34021 3.78772 2.50506
# Velocity P-wave (km/s) = 2.83830 7.09676 5.40463
#
# Compressibility (1/GPa) = 0.05574260
#
# Stress axis : x y z
#
# Youngs Moduli (GPa) = 83.60712 63.19285 21.68699
#
# Poissons Ratio (x) = 0.58776 0.12000
# Poissons Ratio (y) = 0.77763 -0.12487
# Poissons Ratio (z) = 0.46262 -0.36384
#
# Static dielectric constant tensor:
#      x y z
#    x 1.602600 0.000000 0.000000 
#    y 0.000000 1.580050 0.000000 
#    z 0.000000 0.000000 1.636690 
# 
# From -- ./inp_files/8328.got.cif
#   From: 2010.05.17/outbox.cif.g08.bks.cpg/sg47_5_cif.got.tgz:8328.got - 2010.06.03 20:15:42.
