data_PCOD9381591
_publ_section_title
;
Structure prediction by ZEFSAII (Michael W. Deem and Ramdas Pophale) SiO2 
 PCOD9381591
Probable space group: P M M M
;
_chemical_formula_sum "Si O2"
_cell_formula_units_Z 64
_cell_length_a 8.899677
_cell_length_b 20.309077
_cell_length_c 21.106174
_cell_angle_alpha 90.000000
_cell_angle_beta 90.000000
_cell_angle_gamma 90.000000
_cell_volume 3814.819072
_symmetry_space_group_name_H-M "P M M M"
_symmetry_group_IT_number 47
_symmetry_cell_setting 'orthorhombic'
loop_
_space_group_symop_operation_xyz
x,y,z
-x,-y,z
x,-y,-z
-x,y,-z
-x,-y,-z
x,y,-z
-x,y,z
x,-y,z
loop_
_atom_site_type_symbol
_atom_site_label
_atom_site_fract_x
_atom_site_fract_y
_atom_site_fract_z
Si Si1 0.323368 0.072444 0.754159
Si Si2 0.819872 0.792401 0.390901
Si Si3 0.183040 0.351691 0.431220
Si Si4 0.323809 0.072075 0.399554
Si Si5 0.178571 0.207573 0.241085
Si Si6 0.819168 0.422582 0.302627
Si Si7 0.317147 0.575133 0.927798
Si Si8 0.319700 0.662241 0.810241
O O1 0.500000 0.080260 0.768640
O O2 0.311570 0.071719 0.677335
O O3 0.231733 0.134772 0.778123
O O4 0.273521 0.000000 0.776262
O O5 0.770548 0.724476 0.422959
O O6 0.754285 0.860041 0.418652
O O7 0.780952 0.785661 0.316022
O O8 0.000000 0.796586 0.395040
O O9 0.231946 0.376719 0.500000
O O10 0.229794 0.393797 0.370640
O O11 0.000000 0.352038 0.430551
O O12 0.500000 0.075097 0.415585
O O13 0.265874 0.000000 0.421156
O O14 0.256484 0.265054 0.201698
O O15 0.000000 0.214010 0.236530
O O16 0.788296 0.500000 0.298326
O O17 0.739574 0.382631 0.247178
O O18 0.000000 0.412891 0.297307
O O19 0.500000 0.575213 0.927701
O O20 0.270847 0.500000 0.911653
O O21 0.268409 0.627500 0.875439
O O22 0.269274 0.589257 0.000000
O O23 0.500000 0.664024 0.809537
#
# Coordination Sequence:
#
# PCOD9381591 Si02
#       8
#     8   8   8   8   8   8   8   8
#     4   8  14  25  40  61  91 124 158 195 235 279
#     4   9  16  27  43  62  85 113 148 189 229 271
#     4   9  17  31  49  67  88 115 152 196 238 281
#     4   8  14  24  39  60  85 112 142 179 224 273
#     4  10  18  28  43  65  96 127 158 196 237 280
#     4  10  20  34  51  71  95 120 149 191 242 289
#     4   8  15  29  48  70  96 125 159 198 234 271
#     4  11  20  30  49  74  99 127 159 193 233 281
#
# _framework density 16.776681
#
# number of rings (size 3 to 8) (size 9 to 14) (size 15 to 20)
#    0.000    2.875    1.250    2.250    0.000    2.000 
#    0.000    3.750    0.000    3.375    0.000    7.875 
#    0.000    0.500    0.000    5.750    0.000    1.875 
#
# Total GULP energy -356612.654070 kJ/mol
# GULP energy per Si atom -5572.072720 kJ/mol
# Density = 1.673850 g / cm^3
# Si number density = 16.776681 Si / 1000 Ang^3
#
#
#
# Elastic Constant Matrix: (Units=GPa)
#
#
# Indices 1 2 3 4 5 6 
#
# 1 13.6756 34.0672 19.5589 0.0000 0.0000 0.0000
# 2 34.0672 120.5204 56.9817 0.0000 0.0000 0.0000
# 3 19.5589 56.9817 79.4271 0.0000 0.0000 0.0000
# 4 0.0000 0.0000 0.0000 -81.4087 0.0000 0.0000
# 5 0.0000 0.0000 0.0000 0.0000 33.6031 0.0000
# 6 0.0000 0.0000 0.0000 0.0000 0.0000 27.8220
#
#
#
# Elastic Compliance Matrix: (Units=1/GPa)
#
#
# Indices 1 2 3 4 5 6 
#
# 1 0.261855 -0.065875 -0.017222 0.000000 0.000000 0.000000
# 2 -0.065875 0.029129 -0.004675 0.000000 0.000000 0.000000
# 3 -0.017222 -0.004675 0.020185 0.000000 0.000000 0.000000
# 4 0.000000 0.000000 0.000000 -0.012284 0.000000 0.000000
# 5 0.000000 0.000000 0.000000 0.000000 0.029759 0.000000
# 6 0.000000 0.000000 0.000000 0.000000 0.000000 0.035943
#
#
# Mechanical properties :
#
#
# Convention : Reuss Voigt Hill
#
# Bulk Modulus (GPa) = 7.37337 48.31541 27.84439
# Shear Modulus (GPa) = 8.54203 2.87096 5.70649
#
# Velocity S-wave (km/s) = 2.25891 1.30958 1.84630
# Velocity P-wave (km/s) = 3.34785 5.58107 4.60198
#
# Compressibility (1/GPa) = 0.13562327
#
# Stress axis : x y z
#
# Youngs Moduli (GPa) = 3.81891 34.33035 49.54101
#
# Poissons Ratio (x) = 2.26153 0.85320
# Poissons Ratio (y) = 0.25157 0.23163
# Poissons Ratio (z) = 0.06577 0.16051
#
# Static dielectric constant tensor:
#      x y z
#    x 1.565870 0.000000 0.000000 
#    y 0.000000 1.579920 0.000000 
#    z 0.000000 0.000000 1.566730 
# 
# From -- ./inp_files/27054.got.cif
#   From: 2010.05.17/outbox.cif.g08.bks.cpg/sg47_14_cif.got.tgz:27054.got - 2010.06.03 20:15:42.
