data_PCOD9381901
_publ_section_title
;
Structure prediction by ZEFSAII (Michael W. Deem and Ramdas Pophale) SiO2 
 PCOD9381901
Probable space group: P M M M
;
_chemical_formula_sum "Si O2"
_cell_formula_units_Z 52
_cell_length_a 12.144667
_cell_length_b 28.711837
_cell_length_c 8.973085
_cell_angle_alpha 90.000000
_cell_angle_beta 90.000000
_cell_angle_gamma 90.000000
_cell_volume 3128.876149
_symmetry_space_group_name_H-M "P M M M"
_symmetry_group_IT_number 47
_symmetry_cell_setting 'orthorhombic'
loop_
_space_group_symop_operation_xyz
x,y,z
-x,-y,z
x,-y,-z
-x,y,-z
-x,-y,-z
x,y,-z
-x,y,z
x,-y,z
loop_
_atom_site_type_symbol
_atom_site_label
_atom_site_fract_x
_atom_site_fract_y
_atom_site_fract_z
Si Si1 0.633261 0.000000 0.829807
Si Si2 0.371111 0.554161 0.320937
Si Si3 0.279447 0.358797 0.178706
Si Si4 0.267944 0.183762 0.170186
Si Si5 0.126989 0.727229 0.181487
Si Si6 0.500000 0.765008 0.839245
Si Si7 0.370287 0.097274 0.322033
Si Si8 0.500000 0.678349 0.671706
O O1 0.663170 0.047521 0.746176
O O2 0.500000 0.000000 0.833112
O O3 0.672953 0.000000 0.000000
O O4 0.364438 0.559047 0.500000
O O5 0.500000 0.564534 0.279781
O O6 0.351822 0.500000 0.283865
O O7 0.285071 0.589064 0.244555
O O8 0.187067 0.321060 0.225751
O O9 0.392257 0.338340 0.243580
O O10 0.280060 0.360854 0.000000
O O11 0.190573 0.225654 0.229452
O O12 0.389549 0.205795 0.161317
O O13 0.288623 0.137301 0.263736
O O14 0.232914 0.172473 0.000000
O O15 0.000000 0.727735 0.227423
O O16 0.131793 0.727975 0.000000
O O17 0.500000 0.733442 0.694120
O O18 0.500000 0.738198 0.000000
O O19 0.368275 0.095348 0.500000
O O20 0.500000 0.106287 0.278189
O O21 0.500000 0.663945 0.500000
#
# Coordination Sequence:
#
# PCOD9381901 Si02
#       8
#     4   8   8   8   8   4   8   4
#     4   9  17  29  45  65  94 135 174 203 237 287
#     4   9  18  32  49  73 106 138 162 192 243 301
#     4  11  20  32  52  76 101 130 168 208 245 291
#     4  10  18  30  49  70  97 129 164 203 246 298
#     4   9  19  35  53  73  98 130 168 212 257 295
#     4  10  18  30  46  70  98 126 164 208 250 291
#     4  10  19  29  43  68 102 135 166 201 244 293
#     4  12  22  30  45  71 103 135 164 195 247 306
#
# _framework density 16.619387
#
# number of rings (size 3 to 8) (size 9 to 14) (size 15 to 20)
#    0.000    2.077    3.077    2.308    0.000    2.462 
#    0.000    0.769    0.000    4.615    0.000    3.769 
#    0.000    4.308    0.000    0.000    0.000    0.000 
#
# Total GULP energy -289605.908791 kJ/mol
# GULP energy per Si atom -5569.344400 kJ/mol
# Density = 1.658156 g / cm^3
# Si number density = 16.619387 Si / 1000 Ang^3
#
#
#
# Elastic Constant Matrix: (Units=GPa)
#
#
# Indices 1 2 3 4 5 6 
#
# 1 86.2791 60.2774 20.8884 0.0000 0.0000 0.0000
# 2 60.2774 153.8663 52.3102 0.0000 0.0000 0.0000
# 3 20.8884 52.3102 46.7369 0.0000 0.0000 0.0000
# 4 0.0000 0.0000 0.0000 10.6885 0.0000 0.0000
# 5 0.0000 0.0000 0.0000 0.0000 23.7648 0.0000
# 6 0.0000 0.0000 0.0000 0.0000 0.0000 -3.3325
#
#
#
# Elastic Compliance Matrix: (Units=1/GPa)
#
#
# Indices 1 2 3 4 5 6 
#
# 1 0.015959 -0.006178 -0.000218 0.000000 0.000000 0.000000
# 2 -0.006178 0.012883 -0.011658 0.000000 0.000000 0.000000
# 3 -0.000218 -0.011658 0.034542 0.000000 0.000000 0.000000
# 4 0.000000 0.000000 0.000000 0.093559 0.000000 0.000000
# 5 0.000000 0.000000 0.000000 0.000000 0.042079 0.000000
# 6 0.000000 0.000000 0.000000 0.000000 0.000000 -0.300073
#
#
# Mechanical properties :
#
#
# Convention : Reuss Voigt Hill
#
# Bulk Modulus (GPa) = 36.66221 61.53716 49.09968
# Shear Modulus (GPa) = -89.52236 16.45124 -36.53556
#
# Velocity S-wave (km/s) = -7.34732 3.14965 -4.69376
# Velocity P-wave (km/s) = 7.06185 7.09470 0.48221
#
# Compressibility (1/GPa) = 0.02727605
#
# Stress axis : x y z
#
# Youngs Moduli (GPa) = 62.65989 77.62363 28.95038
#
# Poissons Ratio (x) = 0.47955 0.00632
# Poissons Ratio (y) = 0.38711 0.33750
# Poissons Ratio (z) = 0.01367 0.90492
#
# Static dielectric constant tensor:
#      x y z
#    x 1.552070 0.000000 0.000000 
#    y 0.000000 1.612940 0.000000 
#    z 0.000000 0.000000 1.579270 
# 
# From -- ./inp_files/4690.got.cif
#   From: 2010.05.17/outbox.cif.g08.bks.cpg/sg47_3_cif.got.tgz:4690.got - 2010.06.03 20:15:42.
