data_PCOD9381812
_publ_section_title
;
Structure prediction by ZEFSAII (Michael W. Deem and Ramdas Pophale) SiO2 
 PCOD9381812
Probable space group: P M M M
;
_chemical_formula_sum "Si O2"
_cell_formula_units_Z 52
_cell_length_a 15.092533
_cell_length_b 7.444722
_cell_length_c 21.355378
_cell_angle_alpha 90.000000
_cell_angle_beta 90.000000
_cell_angle_gamma 90.000000
_cell_volume 2399.484132
_symmetry_space_group_name_H-M "P M M M"
_symmetry_group_IT_number 47
_symmetry_cell_setting 'orthorhombic'
loop_
_space_group_symop_operation_xyz
x,y,z
-x,-y,z
x,-y,-z
-x,y,-z
-x,-y,-z
x,y,-z
-x,y,z
x,-y,z
loop_
_atom_site_type_symbol
_atom_site_label
_atom_site_fract_x
_atom_site_fract_y
_atom_site_fract_z
Si Si1 0.775970 0.706578 0.613008
Si Si2 0.400491 0.714589 0.814637
Si Si3 0.099216 0.219213 0.871459
Si Si4 0.724113 0.214682 0.932066
Si Si5 0.602092 0.719793 0.673765
Si Si6 0.898826 0.783122 0.727593
Si Si7 0.897585 0.279510 0.500000
O O1 0.761308 0.500000 0.594198
O O2 0.678644 0.784201 0.626919
O O3 0.829121 0.711073 0.678272
O O4 0.841674 0.781935 0.560477
O O5 0.500000 0.781424 0.827383
O O6 0.404727 0.500000 0.809482
O O7 0.337297 0.752392 0.872413
O O8 0.374419 0.778111 0.745005
O O9 0.177610 0.282085 0.915742
O O10 0.118057 0.271569 0.799381
O O11 0.000000 0.277294 0.888021
O O12 0.098686 0.000000 0.872171
O O13 0.729983 0.000000 0.936394
O O14 0.692842 0.282034 0.000000
O O15 0.500000 0.772018 0.661140
O O16 0.603873 0.500000 0.672739
O O17 0.000000 0.729876 0.711582
O O18 0.895079 0.000000 0.725497
O O19 0.901269 0.500000 0.500000
O O20 0.000000 0.220146 0.500000
#
# Coordination Sequence:
#
# PCOD9381812 Si02
#       7
#     8   8   8   8   8   8   4
#     4  10  18  29  48  69  91 124 157 183 220 268
#     4   9  18  33  51  68  88 117 150 185 230 279
#     4   8  15  29  47  66  90 119 149 184 229 276
#     4  10  20  31  45  68  94 119 150 188 226 265
#     4   8  15  29  49  72  93 112 145 195 237 265
#     4   9  17  29  46  68  92 117 148 190 234 268
#     4   9  18  30  42  64 100 131 153 181 218 263
#
# _framework density 21.671326000000001
#
# number of rings (size 3 to 8) (size 9 to 14) (size 15 to 20)
#    0.000    3.000    0.000    3.231    0.000    2.154 
#    0.000    3.846    0.000    6.462    0.000    1.077 
#    0.000    1.231    0.000    0.000    0.000    0.000 
#
# Total GULP energy -290138.798460 kJ/mol
# GULP energy per Si atom -5579.592278 kJ/mol
# Density = 2.162200 g / cm^3
# Si number density = 21.671326 Si / 1000 Ang^3
#
#
#
# Elastic Constant Matrix: (Units=GPa)
#
#
# Indices 1 2 3 4 5 6 
#
# 1 155.5363 5.0372 98.1709 0.0000 0.0000 0.0000
# 2 5.0372 64.0991 7.1683 0.0000 0.0000 0.0000
# 3 98.1709 7.1683 85.9750 0.0000 0.0000 0.0000
# 4 0.0000 0.0000 0.0000 7.0364 0.0000 0.0000
# 5 0.0000 0.0000 0.0000 0.0000 -6.8492 0.0000
# 6 0.0000 0.0000 0.0000 0.0000 0.0000 7.1227
#
#
#
# Elastic Compliance Matrix: (Units=1/GPa)
#
#
# Indices 1 2 3 4 5 6 
#
# 1 0.023103 0.001145 -0.026476 0.000000 0.000000 0.000000
# 2 0.001145 0.015804 -0.002625 0.000000 0.000000 0.000000
# 3 -0.026476 -0.002625 0.042082 0.000000 0.000000 0.000000
# 4 0.000000 0.000000 0.000000 0.142118 0.000000 0.000000
# 5 0.000000 0.000000 0.000000 0.000000 -0.146003 0.000000
# 6 0.000000 0.000000 0.000000 0.000000 0.000000 0.140397
#
#
# Mechanical properties :
#
#
# Convention : Reuss Voigt Hill
#
# Bulk Modulus (GPa) = 39.87680 58.48478 49.18079
# Shear Modulus (GPa) = 17.74473 14.47759 16.11116
#
# Velocity S-wave (km/s) = 2.86459 2.58748 2.72955
# Velocity P-wave (km/s) = 5.42050 5.99770 5.71639
#
# Compressibility (1/GPa) = 0.02507724
#
# Stress axis : x y z
#
# Youngs Moduli (GPa) = 43.28349 63.27327 23.76298
#
# Poissons Ratio (x) = -0.07247 0.62916
# Poissons Ratio (y) = -0.04957 0.06239
# Poissons Ratio (z) = 1.14599 0.16612
#
# Static dielectric constant tensor:
#      x y z
#    x 1.786840 0.000000 0.000000 
#    y 0.000000 1.873110 0.000000 
#    z 0.000000 0.000000 1.781320 
# 
# From -- ./inp_files/7087.got.cif
#   From: 2010.05.17/outbox.cif.g08.bks.cpg/sg47_4_cif.got.tgz:7087.got - 2010.06.03 20:15:42.
