data_PCOD9381190
_publ_section_title
;
Structure prediction by ZEFSAII (Michael W. Deem and Ramdas Pophale) SiO2 
 PCOD9381190
Probable space group: P M M M
;
_chemical_formula_sum "Si O2"
_cell_formula_units_Z 52
_cell_length_a 7.434871
_cell_length_b 13.894150
_cell_length_c 22.433770
_cell_angle_alpha 90.000000
_cell_angle_beta 90.000000
_cell_angle_gamma 90.000000
_cell_volume 2317.435651
_symmetry_space_group_name_H-M "P M M M"
_symmetry_group_IT_number 47
_symmetry_cell_setting 'orthorhombic'
loop_
_space_group_symop_operation_xyz
x,y,z
-x,-y,z
x,-y,-z
-x,y,-z
-x,-y,-z
x,y,-z
-x,y,z
x,-y,z
loop_
_atom_site_type_symbol
_atom_site_label
_atom_site_fract_x
_atom_site_fract_y
_atom_site_fract_z
Si Si1 0.295302 0.140409 0.500000
Si Si2 0.292678 0.603225 0.366985
Si Si3 0.280904 0.000000 0.069829
Si Si4 0.214065 0.894752 0.244032
Si Si5 0.718865 0.606527 0.930099
Si Si6 0.285699 0.820511 0.626840
Si Si7 0.291691 0.198358 0.127495
Si Si8 0.782886 0.363838 0.500000
O O1 0.500000 0.103766 0.500000
O O2 0.215971 0.125521 0.433261
O O3 0.287943 0.255645 0.500000
O O4 0.500000 0.607285 0.346376
O O5 0.216633 0.500000 0.344206
O O6 0.213775 0.711511 0.359942
O O7 0.285826 0.595208 0.438481
O O8 0.214736 0.900531 0.099687
O O9 0.500000 0.000000 0.075267
O O10 0.237212 0.000000 0.000000
O O11 0.259274 0.877757 0.312658
O O12 0.284216 0.815231 0.198495
O O13 0.000000 0.894571 0.238592
O O14 0.284003 0.000000 0.225588
O O15 0.500000 0.604791 0.926224
O O16 0.780159 0.500000 0.910239
O O17 0.784729 0.700250 0.894767
O O18 0.763713 0.617328 0.000000
O O19 0.500000 0.809589 0.616174
O O20 0.500000 0.199617 0.108441
O O21 0.000000 0.367218 0.500000
#
# Coordination Sequence:
#
# PCOD9381190 Si02
#       8
#     4   8   4   8   8   8   8   4
#     4   8  16  33  54  77 103 128 161 211 273 333
#     4   9  17  30  47  68  97 130 161 198 249 307
#     4   9  16  26  47  83 115 134 167 224 275 303
#     4  11  24  40  55  72 100 138 177 218 270 328
#     4   8  14  26  48  82 120 151 180 219 267 315
#     4   9  18  34  57  80 100 128 169 216 265 321
#     4  10  18  31  54  81 108 142 183 224 264 310
#     4  10  17  23  38  68 102 134 166 198 237 295
#
# _framework density 22.438594999999999
#
# number of rings (size 3 to 8) (size 9 to 14) (size 15 to 20)
#    0.000    2.692    0.769    3.231    0.000    6.462 
#    0.000    1.154    0.000    9.692    0.000    1.077 
#    0.000    0.000    0.000    0.000    0.000    0.000 
#
# Total GULP energy -289675.794214 kJ/mol
# GULP energy per Si atom -5570.688350 kJ/mol
# Density = 2.238752 g / cm^3
# Si number density = 22.438595 Si / 1000 Ang^3
#
#
#
# Elastic Constant Matrix: (Units=GPa)
#
#
# Indices 1 2 3 4 5 6 
#
# 1 79.0665 7.1172 -5.9949 0.0000 0.0000 0.0000
# 2 7.1172 167.2605 68.8791 0.0000 0.0000 0.0000
# 3 -5.9949 68.8791 108.1853 0.0000 0.0000 0.0000
# 4 0.0000 0.0000 0.0000 38.0480 0.0000 0.0000
# 5 0.0000 0.0000 0.0000 0.0000 60.5402 0.0000
# 6 0.0000 0.0000 0.0000 0.0000 0.0000 1.2755
#
#
#
# Elastic Compliance Matrix: (Units=1/GPa)
#
#
# Indices 1 2 3 4 5 6 
#
# 1 0.012859 -0.001139 0.001438 0.000000 0.000000 0.000000
# 2 -0.001139 0.008204 -0.005287 0.000000 0.000000 0.000000
# 3 0.001438 -0.005287 0.012689 0.000000 0.000000 0.000000
# 4 0.000000 0.000000 0.000000 0.026283 0.000000 0.000000
# 5 0.000000 0.000000 0.000000 0.000000 0.016518 0.000000
# 6 0.000000 0.000000 0.000000 0.000000 0.000000 0.784035
#
#
# Mechanical properties :
#
#
# Convention : Reuss Voigt Hill
#
# Bulk Modulus (GPa) = 42.05851 54.94612 48.50232
# Shear Modulus (GPa) = 5.69159 38.94013 22.31586
#
# Velocity S-wave (km/s) = 1.59437 4.17034 3.15704
# Velocity P-wave (km/s) = 4.70892 6.90865 5.91200
#
# Compressibility (1/GPa) = 0.02377640
#
# Stress axis : x y z
#
# Youngs Moduli (GPa) = 77.76555 121.88831 78.80888
#
# Poissons Ratio (x) = 0.13887 -0.11332
# Poissons Ratio (y) = 0.08860 0.41663
# Poissons Ratio (z) = -0.11182 0.64437
#
# Static dielectric constant tensor:
#      x y z
#    x 1.856670 0.000000 0.000000 
#    y 0.000000 1.907800 0.000000 
#    z 0.000000 0.000000 1.809400 
# 
# From -- ./inp_files/29673.got.cif
#   From: 2010.05.17/outbox.cif.g08.bks.cpg/sg47_15_cif.got.tgz:29673.got - 2010.06.03 20:15:42.
