data_PCOD9381459
_publ_section_title
;
Structure prediction by ZEFSAII (Michael W. Deem and Ramdas Pophale) SiO2 
 PCOD9381459
Probable space group: P M M M
;
_chemical_formula_sum "Si O2"
_cell_formula_units_Z 64
_cell_length_a 19.700657
_cell_length_b 7.462067
_cell_length_c 24.771904
_cell_angle_alpha 90.000000
_cell_angle_beta 90.000000
_cell_angle_gamma 90.000000
_cell_volume 3641.658711
_symmetry_space_group_name_H-M "P M M M"
_symmetry_group_IT_number 47
_symmetry_cell_setting 'orthorhombic'
loop_
_space_group_symop_operation_xyz
x,y,z
-x,-y,z
x,-y,-z
-x,y,-z
-x,-y,-z
x,y,-z
-x,y,z
x,-y,z
loop_
_atom_site_type_symbol
_atom_site_label
_atom_site_fract_x
_atom_site_fract_y
_atom_site_fract_z
Si Si1 0.922575 0.782274 0.733696
Si Si2 0.278694 0.709931 0.236021
Si Si3 0.077663 0.281048 0.938477
Si Si4 0.716195 0.780347 0.439157
Si Si5 0.575179 0.781719 0.388788
Si Si6 0.837077 0.709172 0.839161
Si Si7 0.425334 0.784339 0.263533
Si Si8 0.802882 0.205975 0.659838
O O1 0.892226 0.723868 0.791168
O O2 0.870474 0.716989 0.687544
O O3 0.000000 0.725127 0.726516
O O4 0.920722 0.000000 0.733567
O O5 0.262717 0.500000 0.241186
O O6 0.232036 0.783206 0.187522
O O7 0.359019 0.729557 0.230799
O O8 0.253133 0.793241 0.292304
O O9 0.077854 0.500000 0.937244
O O10 0.129982 0.214843 0.893414
O O11 0.000000 0.226771 0.926046
O O12 0.093299 0.227930 0.000000
O O13 0.732568 0.726611 0.500000
O O14 0.640119 0.723333 0.422615
O O15 0.768707 0.715989 0.393566
O O16 0.716094 0.000000 0.437376
O O17 0.500000 0.725366 0.407461
O O18 0.582916 0.726566 0.326099
O O19 0.575329 0.000000 0.389266
O O20 0.824113 0.500000 0.850474
O O21 0.500000 0.723476 0.244952
O O22 0.426027 0.000000 0.264048
O O23 0.819196 0.000000 0.646784
#
# Coordination Sequence:
#
# PCOD9381459 Si02
#       8
#     8   8   8   8   8   8   8   8
#     4   9  17  27  40  58  78 103 133 164 201 242
#     4  10  18  26  39  60  84 106 130 161 198 237
#     4   8  13  22  38  59  82 110 142 170 194 224
#     4   9  15  22  36  56  73  93 125 163 198 231
#     4   8  13  21  34  53  74  93 117 151 186 222
#     4   9  17  27  40  61  86 109 134 166 199 231
#     4   9  16  27  43  59  77 105 137 163 192 235
#     4   9  16  28  42  54  75 102 128 161 199 241
#
# _framework density 17.574408999999999
#
# number of rings (size 3 to 8) (size 9 to 14) (size 15 to 20)
#    0.000    3.125    1.250    1.875    0.000    1.750 
#    0.000    1.250    0.000    1.125    0.000    4.375 
#    0.000    2.500    0.000   12.500    0.000    7.500 
#
# Total GULP energy -356650.590623 kJ/mol
# GULP energy per Si atom -5572.665478 kJ/mol
# Density = 1.753441 g / cm^3
# Si number density = 17.574409 Si / 1000 Ang^3
#
#
#
# Elastic Constant Matrix: (Units=GPa)
#
#
# Indices 1 2 3 4 5 6 
#
# 1 131.7509 -5.9445 71.1185 0.0000 0.0000 0.0000
# 2 -5.9445 50.2943 -0.6438 0.0000 0.0000 0.0000
# 3 71.1185 -0.6438 118.9719 0.0000 0.0000 0.0000
# 4 0.0000 0.0000 0.0000 6.0277 0.0000 0.0000
# 5 0.0000 0.0000 0.0000 0.0000 29.4236 0.0000
# 6 0.0000 0.0000 0.0000 0.0000 0.0000 3.0847
#
#
#
# Elastic Compliance Matrix: (Units=1/GPa)
#
#
# Indices 1 2 3 4 5 6 
#
# 1 0.011284 0.001247 -0.006738 0.000000 0.000000 0.000000
# 2 0.001247 0.020022 -0.000637 0.000000 0.000000 0.000000
# 3 -0.006738 -0.000637 0.012430 0.000000 0.000000 0.000000
# 4 0.000000 0.000000 0.000000 0.165900 0.000000 0.000000
# 5 0.000000 0.000000 0.000000 0.000000 0.033986 0.000000
# 6 0.000000 0.000000 0.000000 0.000000 0.000000 0.324180
#
#
# Mechanical properties :
#
#
# Convention : Reuss Voigt Hill
#
# Bulk Modulus (GPa) = 31.76692 47.78641 39.77667
# Shear Modulus (GPa) = 8.46666 23.47299 15.96982
#
# Velocity S-wave (km/s) = 2.19729 3.65860 3.01773
# Velocity P-wave (km/s) = 4.95503 6.71543 5.90125
#
# Compressibility (1/GPa) = 0.03147929
#
# Stress axis : x y z
#
# Youngs Moduli (GPa) = 88.62337 49.94447 80.45098
#
# Poissons Ratio (x) = -0.06230 0.54211
# Poissons Ratio (y) = -0.11055 0.05127
# Poissons Ratio (z) = 0.59718 0.03183
#
# Static dielectric constant tensor:
#      x y z
#    x 1.617380 0.000000 0.000000 
#    y 0.000000 1.689780 0.000000 
#    z 0.000000 0.000000 1.579960 
# 
# From -- ./inp_files/32269.got.cif
#   From: 2010.05.17/outbox.cif.g08.bks.cpg/sg47_17_cif.got.tgz:32269.got - 2010.06.03 20:15:42.
