data_PCOD9381502
_publ_section_title
;
Structure prediction by ZEFSAII (Michael W. Deem and Ramdas Pophale) SiO2 
 PCOD9381502
Probable space group: P M M M
;
_chemical_formula_sum "Si O2"
_cell_formula_units_Z 64
_cell_length_a 7.518114
_cell_length_b 29.638003
_cell_length_c 15.195643
_cell_angle_alpha 90.000000
_cell_angle_beta 90.000000
_cell_angle_gamma 90.000000
_cell_volume 3385.921821
_symmetry_space_group_name_H-M "P M M M"
_symmetry_group_IT_number 47
_symmetry_cell_setting 'orthorhombic'
loop_
_space_group_symop_operation_xyz
x,y,z
-x,-y,z
x,-y,-z
-x,y,-z
-x,-y,-z
x,y,-z
-x,y,z
x,-y,z
loop_
_atom_site_type_symbol
_atom_site_label
_atom_site_fract_x
_atom_site_fract_y
_atom_site_fract_z
Si Si1 0.286759 0.732186 0.278265
Si Si2 0.714997 0.084152 0.598786
Si Si3 0.211506 0.548524 0.393698
Si Si4 0.213884 0.353150 0.399347
Si Si5 0.708795 0.236068 0.098172
Si Si6 0.785177 0.867133 0.101648
Si Si7 0.283448 0.187567 0.400506
Si Si8 0.790839 0.951126 0.785988
O O1 0.500000 0.737423 0.273118
O O2 0.254156 0.687232 0.333543
O O3 0.216868 0.734786 0.178641
O O4 0.218215 0.775400 0.332495
O O5 0.773186 0.070963 0.500000
O O6 0.500000 0.083455 0.598154
O O7 0.772846 0.136041 0.615186
O O8 0.774739 0.055207 0.681295
O O9 0.228308 0.548821 0.500000
O O10 0.284825 0.500000 0.362599
O O11 0.281259 0.597721 0.366932
O O12 0.000000 0.547838 0.374350
O O13 0.277446 0.344471 0.500000
O O14 0.000000 0.356657 0.404722
O O15 0.500000 0.246687 0.090845
O O16 0.722048 0.183197 0.124067
O O17 0.787084 0.240914 0.000000
O O18 0.717907 0.906956 0.164699
O O19 0.000000 0.865661 0.106116
O O20 0.735047 0.876087 0.000000
O O21 0.231749 0.200113 0.500000
O O22 0.500000 0.187222 0.398155
O O23 0.000000 0.952094 0.807980
O O24 0.714871 0.000000 0.811289
#
# Coordination Sequence:
#
# PCOD9381502 Si02
#       8
#     8   8   8   8   8   8   8   8
#     4  10  18  27  42  62  86 117 145 170 209 259
#     4   9  18  33  51  67  83 108 145 183 211 239
#     4   7  10  19  36  55  76 108 149 185 214 247
#     4   9  17  27  39  60  90 119 148 183 217 248
#     4   9  18  32  49  68  88 111 142 178 213 251
#     4   9  18  33  52  71  89 110 137 169 207 253
#     4   8  14  25  41  60  80 104 136 168 196 235
#     4  10  21  34  47  66  91 115 137 165 206 254
#
# _framework density 18.901796000000001
#
# number of rings (size 3 to 8) (size 9 to 14) (size 15 to 20)
#    0.000    3.125    0.000    3.000    0.000    3.750 
#    0.000    3.125    0.000    1.125    0.000    4.375 
#    0.000    0.500    0.000    6.250    0.000    0.250 
#
# Total GULP energy -356730.862601 kJ/mol
# GULP energy per Si atom -5573.919728 kJ/mol
# Density = 1.885877 g / cm^3
# Si number density = 18.901796 Si / 1000 Ang^3
#
#
#
# Elastic Constant Matrix: (Units=GPa)
#
#
# Indices 1 2 3 4 5 6 
#
# 1 47.8681 -3.4456 1.4739 0.0000 0.0000 0.0000
# 2 -3.4456 82.1669 68.9301 0.0000 0.0000 0.0000
# 3 1.4739 68.9301 92.3126 0.0000 0.0000 0.0000
# 4 0.0000 0.0000 0.0000 11.8518 0.0000 0.0000
# 5 0.0000 0.0000 0.0000 0.0000 9.3985 0.0000
# 6 0.0000 0.0000 0.0000 0.0000 0.0000 19.1039
#
#
#
# Elastic Compliance Matrix: (Units=1/GPa)
#
#
# Indices 1 2 3 4 5 6 
#
# 1 0.021199 0.003140 -0.002683 0.000000 0.000000 0.000000
# 2 0.003140 0.033042 -0.024723 0.000000 0.000000 0.000000
# 3 -0.002683 -0.024723 0.029336 0.000000 0.000000 0.000000
# 4 0.000000 0.000000 0.000000 0.084375 0.000000 0.000000
# 5 0.000000 0.000000 0.000000 0.000000 0.106400 0.000000
# 6 0.000000 0.000000 0.000000 0.000000 0.000000 0.052345
#
#
# Mechanical properties :
#
#
# Convention : Reuss Voigt Hill
#
# Bulk Modulus (GPa) = 28.53424 39.58494 34.05959
# Shear Modulus (GPa) = 12.92287 18.43013 15.67650
#
# Velocity S-wave (km/s) = 2.61757 3.12596 2.88300
# Velocity P-wave (km/s) = 4.92589 5.83239 5.39820
#
# Compressibility (1/GPa) = 0.03504561
#
# Stress axis : x y z
#
# Youngs Moduli (GPa) = 47.17129 30.26462 34.08777
#
# Poissons Ratio (x) = -0.09502 0.09145
# Poissons Ratio (y) = -0.14810 0.84274
# Poissons Ratio (z) = 0.12655 0.74822
#
# Static dielectric constant tensor:
#      x y z
#    x 1.725030 0.000000 0.000000 
#    y 0.000000 1.681380 0.000000 
#    z 0.000000 0.000000 1.663260 
# 
# From -- ./inp_files/22131.got.cif
#   From: 2010.05.17/outbox.cif.g08.bks.cpg/sg47_12_cif.got.tgz:22131.got - 2010.06.03 20:15:42.
