data_PCOD9381499
_publ_section_title
;
Structure prediction by ZEFSAII (Michael W. Deem and Ramdas Pophale) SiO2 
 PCOD9381499
Probable space group: P M M M
;
_chemical_formula_sum "Si O2"
_cell_formula_units_Z 64
_cell_length_a 14.904684
_cell_length_b 32.446831
_cell_length_c 7.713897
_cell_angle_alpha 90.000000
_cell_angle_beta 90.000000
_cell_angle_gamma 90.000000
_cell_volume 3730.515899
_symmetry_space_group_name_H-M "P M M M"
_symmetry_group_IT_number 47
_symmetry_cell_setting 'orthorhombic'
loop_
_space_group_symop_operation_xyz
x,y,z
-x,-y,z
x,-y,-z
-x,y,-z
-x,-y,-z
x,y,-z
-x,y,z
x,-y,z
loop_
_atom_site_type_symbol
_atom_site_label
_atom_site_fract_x
_atom_site_fract_y
_atom_site_fract_z
Si Si1 0.709841 0.285618 0.706889
Si Si2 0.607968 0.455692 0.292185
Si Si3 0.900518 0.254886 0.791405
Si Si4 0.900102 0.840556 0.788214
Si Si5 0.285169 0.125582 0.794613
Si Si6 0.395303 0.634352 0.712426
Si Si7 0.398282 0.206149 0.292774
Si Si8 0.398423 0.046323 0.291501
O O1 0.696468 0.285870 0.500000
O O2 0.815585 0.281512 0.737699
O O3 0.663918 0.327327 0.773256
O O4 0.660100 0.244545 0.776048
O O5 0.623487 0.456181 0.500000
O O6 0.500000 0.455389 0.268939
O O7 0.641162 0.500000 0.222913
O O8 0.637958 0.410838 0.227555
O O9 0.886371 0.207243 0.735930
O O10 0.000000 0.267801 0.730930
O O11 0.902250 0.254495 0.000000
O O12 0.815494 0.866834 0.725603
O O13 0.000000 0.853394 0.731713
O O14 0.900993 0.841180 0.000000
O O15 0.348725 0.162991 0.736343
O O16 0.329361 0.081895 0.754273
O O17 0.279339 0.129045 0.000000
O O18 0.393929 0.633614 0.500000
O O19 0.500000 0.639885 0.761006
O O20 0.404117 0.211340 0.500000
O O21 0.500000 0.205985 0.224051
O O22 0.402015 0.044943 0.500000
O O23 0.500000 0.056175 0.230304
O O24 0.375621 0.000000 0.230491
#
# Coordination Sequence:
#
# PCOD9381499 Si02
#       8
#     8   8   8   8   8   8   8   8
#     4  10  18  27  41  61  85 113 145 179 209 243
#     4   7   9  14  26  45  70 102 140 178 211 246
#     4   9  17  31  48  61  79 111 145 176 215 259
#     4   8  15  29  47  65  86 112 140 171 211 256
#     4  11  20  30  49  73  91 109 142 185 218 242
#     4   8  13  21  33  51  79 115 148 174 208 255
#     4  10  20  31  41  57  87 124 151 168 196 246
#     4   9  19  36  54  69  90 122 150 170 204 256
#
# _framework density 17.155804
#
# number of rings (size 3 to 8) (size 9 to 14) (size 15 to 20)
#    0.000    3.000    1.250    3.375    0.000    4.000 
#    0.000    0.625    0.000    3.000    0.000    2.625 
#    0.000    1.000    0.000    9.375    0.000    3.750 
#
# Total GULP energy -356513.627100 kJ/mol
# GULP energy per Si atom -5570.525423 kJ/mol
# Density = 1.711676 g / cm^3
# Si number density = 17.155804 Si / 1000 Ang^3
#
#
#
# Elastic Constant Matrix: (Units=GPa)
#
#
# Indices 1 2 3 4 5 6 
#
# 1 135.0500 92.0549 4.3268 0.0000 0.0000 0.0000
# 2 92.0549 138.3546 3.1151 0.0000 0.0000 0.0000
# 3 4.3268 3.1151 25.2879 0.0000 0.0000 0.0000
# 4 0.0000 0.0000 0.0000 -9.1265 0.0000 0.0000
# 5 0.0000 0.0000 0.0000 0.0000 15.1597 0.0000
# 6 0.0000 0.0000 0.0000 0.0000 0.0000 11.2423
#
#
#
# Elastic Compliance Matrix: (Units=1/GPa)
#
#
# Indices 1 2 3 4 5 6 
#
# 1 0.013587 -0.009013 -0.001215 0.000000 0.000000 0.000000
# 2 -0.009013 0.013227 -0.000087 0.000000 0.000000 0.000000
# 3 -0.001215 -0.000087 0.039763 0.000000 0.000000 0.000000
# 4 0.000000 0.000000 0.000000 -0.109572 0.000000 0.000000
# 5 0.000000 0.000000 0.000000 0.000000 0.065965 0.000000
# 6 0.000000 0.000000 0.000000 0.000000 0.000000 0.088950
#
#
# Mechanical properties :
#
#
# Convention : Reuss Voigt Hill
#
# Bulk Modulus (GPa) = 21.76392 55.29844 38.53118
# Shear Modulus (GPa) = 33.81475 16.73482 25.27479
#
# Velocity S-wave (km/s) = 4.44445 3.12663 3.84246
# Velocity P-wave (km/s) = 6.24909 6.73331 6.49571
#
# Compressibility (1/GPa) = 0.04594760
#
# Stress axis : x y z
#
# Youngs Moduli (GPa) = 73.59936 75.60562 25.14890
#
# Poissons Ratio (x) = 0.68142 0.03054
# Poissons Ratio (y) = 0.66334 0.00219
# Poissons Ratio (z) = 0.08939 0.00659
#
# Static dielectric constant tensor:
#      x y z
#    x 1.584000 0.000000 0.000000 
#    y 0.000000 1.611680 0.000000 
#    z 0.000000 0.000000 1.650590 
# 
# From -- ./inp_files/8261.got.cif
#   From: 2010.05.17/outbox.cif.g08.bks.cpg/sg47_5_cif.got.tgz:8261.got - 2010.06.03 20:15:42.
