data_PCOD9381160
_publ_section_title
;
Structure prediction by ZEFSAII (Michael W. Deem and Ramdas Pophale) SiO2 
 PCOD9381160
Probable space group: I M A 2
;
_chemical_formula_sum "Si O2"
_cell_formula_units_Z 24
_cell_length_a 18.000000
_cell_length_b 9.000000
_cell_length_c 15.000000
_cell_angle_alpha 90.000000
_cell_angle_beta 90.000000
_cell_angle_gamma 90.000000
_cell_volume 2430.000000
_symmetry_space_group_name_H-M "I M A 2"
_symmetry_group_IT_number 46
_symmetry_cell_setting 'orthorhombic'
loop_
_space_group_symop_operation_xyz
x,y,z
-x,-y,z
1/2-x,y,z
1/2+x,-y,z
1/2+x,1/2+y,1/2+z
1/2-x,1/2-y,1/2+z
-x,1/2+y,1/2+z
x,1/2-y,1/2+z
loop_
_atom_site_type_symbol
_atom_site_label
_atom_site_fract_x
_atom_site_fract_y
_atom_site_fract_z
Si Si1 0.921340 0.181899 0.168820
Si Si2 0.158903 0.925377 0.779798
Si Si3 0.338059 0.055006 0.284093
Si Si4 0.906524 0.694266 0.171432
Si Si5 0.839553 0.705127 0.980091
Si Si6 0.411799 0.966732 0.968841
O O1 0.863580 0.307585 0.202561
O O2 0.007389 0.244181 0.172134
O O3 0.899596 0.061140 0.245945
O O4 0.907889 0.116806 0.067158
O O5 0.250000 0.945707 0.784190
O O6 0.111287 0.065699 0.743170
O O7 0.125778 0.890535 0.880019
O O8 0.250000 0.006476 0.283193
O O9 0.350129 0.181107 0.209007
O O10 0.353532 0.118776 0.384940
O O11 0.881687 0.649016 0.070444
O O12 0.750000 0.701899 0.992920
O O13 0.868910 0.875014 0.973181
O O14 0.500000 0.000000 0.954335
#
# Coordination Sequence:
#
# PCOD9381160 Si02
#       6
#     8   8   8   8   8   8
#     4  12  26  45  70 105 143 182 233 297 355 410
#     4  12  28  46  71 103 142 188 234 293 356 419
#     4  11  23  41  69 102 137 181 234 286 343 416
#     4  12  23  45  69 101 137 184 239 283 349 423
#     4  11  23  40  71 104 138 185 237 288 344 419
#     4  12  23  45  70 104 138 183 238 284 357 420
#
# _framework density 9.8765429999999999
#
# number of rings (size 3 to 8) (size 9 to 14) (size 15 to 20)
#    0.000    0.333    5.000    4.500    0.000    3.333 
#    0.000    1.667    0.000    0.000    0.000    0.000 
#    0.000    0.000    0.000    0.000    0.000    0.000 
#
# Total GULP energy -133785.618584 kJ/mol
# GULP energy per Si atom -5574.400774 kJ/mol
# Density = 0.985406 g / cm^3
# Si number density = 9.876543 Si / 1000 Ang^3
#
#
#
# Elastic Constant Matrix: (Units=GPa)
#
#
# Indices 1 2 3 4 5 6 
#
# 1 163.9040 31.7483 79.7335 0.0000 0.0000 0.0000
# 2 31.7483 62.8158 32.9335 0.0000 0.0000 0.0000
# 3 79.7335 32.9335 189.0580 0.0000 0.0000 0.0000
# 4 0.0000 0.0000 0.0000 47.4759 0.0000 0.0000
# 5 0.0000 0.0000 0.0000 0.0000 51.4234 0.0000
# 6 0.0000 0.0000 0.0000 0.0000 0.0000 36.5389
#
#
#
# Elastic Compliance Matrix: (Units=1/GPa)
#
#
# Indices 1 2 3 4 5 6 
#
# 1 0.008020 -0.002509 -0.002945 0.000000 0.000000 0.000000
# 2 -0.002509 0.018305 -0.002130 0.000000 0.000000 0.000000
# 3 -0.002945 -0.002130 0.006903 0.000000 0.000000 0.000000
# 4 0.000000 0.000000 0.000000 0.021063 0.000000 0.000000
# 5 0.000000 0.000000 0.000000 0.000000 0.019446 0.000000
# 6 0.000000 0.000000 0.000000 0.000000 0.000000 0.027368
#
#
# Mechanical properties :
#
#
# Convention : Reuss Voigt Hill
#
# Bulk Modulus (GPa) = 55.37861 78.28981 66.83421
# Shear Modulus (GPa) = 40.88508 45.17848 43.03178
#
# Velocity S-wave (km/s) = 4.55445 4.78762 4.67249
# Velocity P-wave (km/s) = 7.46683 8.38343 7.93837
#
# Compressibility (1/GPa) = 0.01805751
#
# Stress axis : x y z
#
# Youngs Moduli (GPa) = 124.68943 54.63067 144.87281
#
# Poissons Ratio (x) = 0.13708 0.42668
# Poissons Ratio (y) = 0.31288 0.30863
# Poissons Ratio (z) = 0.36724 0.11638
#
# Static dielectric constant tensor:
#      x y z
#    x 1.671720 0.000000 0.000000 
#    y 0.000000 1.860740 0.000000 
#    z 0.000000 0.000000 1.702820 
# 
# From -- ./inp_files/16539.got.cif
#   From: 2010.05.17/outbox.ucp.g08.bks.cvg/sg46_9_cif.got.tgz:16539.got - 2010.06.11 16:34:52.
