data_PCOD9381081
_publ_section_title
;
Structure prediction by ZEFSAII (Michael W. Deem and Ramdas Pophale) SiO2 
 PCOD9381081
Probable space group: I M A 2
;
_chemical_formula_sum "Si O2"
_cell_formula_units_Z 32
_cell_length_a 9.000000
_cell_length_b 30.000000
_cell_length_c 15.000000
_cell_angle_alpha 90.000000
_cell_angle_beta 90.000000
_cell_angle_gamma 90.000000
_cell_volume 4050.000000
_symmetry_space_group_name_H-M "I M A 2"
_symmetry_group_IT_number 46
_symmetry_cell_setting 'orthorhombic'
loop_
_space_group_symop_operation_xyz
x,y,z
-x,-y,z
1/2-x,y,z
1/2+x,-y,z
1/2+x,1/2+y,1/2+z
1/2-x,1/2-y,1/2+z
-x,1/2+y,1/2+z
x,1/2-y,1/2+z
loop_
_atom_site_type_symbol
_atom_site_label
_atom_site_fract_x
_atom_site_fract_y
_atom_site_fract_z
Si Si1 0.430339 0.784330 0.162210
Si Si2 0.429375 0.636426 0.211424
Si Si3 0.573020 0.045597 0.798524
Si Si4 0.572146 0.046855 0.007033
Si Si5 0.576694 0.865429 0.058347
Si Si6 0.427991 0.723075 0.867338
Si Si7 0.069748 0.804631 0.552755
Si Si8 0.077663 0.185737 0.874882
O O1 0.250000 0.785729 0.160041
O O2 0.497793 0.827681 0.116371
O O3 0.480019 0.783054 0.265766
O O4 0.476641 0.740059 0.106911
O O5 0.250000 0.641908 0.222697
O O6 0.469005 0.586203 0.235518
O O7 0.470888 0.653722 0.114179
O O8 0.511649 0.665848 0.284842
O O9 0.750000 0.041195 0.797184
O O10 0.531860 0.053998 0.902116
O O11 0.500000 0.000000 0.769798
O O12 0.750000 0.045325 0.013498
O O13 0.500000 0.000000 0.033292
O O14 0.505862 0.087588 0.062181
O O15 0.750000 0.869396 0.081684
O O16 0.567657 0.848655 0.956015
O O17 0.250000 0.720199 0.863375
O O18 0.477388 0.772024 0.897209
O O19 0.481972 0.693338 0.950470
O O20 0.250000 0.802758 0.550125
O O21 0.250000 0.198553 0.864412
#
# Coordination Sequence:
#
# PCOD9381081 Si02
#       8
#     8   8   8   8   8   8   8   8
#     4  10  19  31  50  70  91 125 164 202 241 286
#     4  10  18  32  49  69  93 128 165 195 234 283
#     4   9  18  29  46  68  95 125 156 193 234 282
#     4  10  19  32  50  72  98 128 160 197 240 290
#     4  11  22  33  46  69 100 132 165 200 239 286
#     4  10  19  33  49  67  93 126 163 203 241 283
#     4   9  17  29  49  71  92 120 162 205 237 281
#     4  11  21  29  43  68  97 128 159 198 237 278
#
# _framework density 7.9012349999999998
#
# number of rings (size 3 to 8) (size 9 to 14) (size 15 to 20)
#    0.000    2.000    3.750    1.125    0.000    2.500 
#    0.000    0.625    0.000    0.000    0.000    0.875 
#    0.000    2.000    0.000    0.000    0.000    0.000 
#
# Total GULP energy -178292.599669 kJ/mol
# GULP energy per Si atom -5571.643740 kJ/mol
# Density = 0.788325 g / cm^3
# Si number density = 7.901235 Si / 1000 Ang^3
#
#
#
# Elastic Constant Matrix: (Units=GPa)
#
#
# Indices 1 2 3 4 5 6 
#
# 1 -4.0771 2.4242 9.4975 0.0000 0.0000 0.0000
# 2 2.4242 54.2310 -0.6489 0.0000 0.0000 0.0000
# 3 9.4975 -0.6489 43.1621 0.0000 0.0000 0.0000
# 4 0.0000 0.0000 0.0000 19.2594 0.0000 0.0000
# 5 0.0000 0.0000 0.0000 0.0000 10.4573 0.0000
# 6 0.0000 0.0000 0.0000 0.0000 0.0000 19.5121
#
#
#
# Elastic Compliance Matrix: (Units=1/GPa)
#
#
# Indices 1 2 3 4 5 6 
#
# 1 -0.159021 0.007529 0.035105 0.000000 0.000000 0.000000
# 2 0.007529 0.018087 -0.001385 0.000000 0.000000 0.000000
# 3 0.035105 -0.001385 0.015423 0.000000 0.000000 0.000000
# 4 0.000000 0.000000 0.000000 0.051923 0.000000 0.000000
# 5 0.000000 0.000000 0.000000 0.000000 0.095627 0.000000
# 6 0.000000 0.000000 0.000000 0.000000 0.000000 0.051250
#
#
# Mechanical properties :
#
#
# Convention : Reuss Voigt Hill
#
# Bulk Modulus (GPa) = -23.24825 12.87353 -5.18736
# Shear Modulus (GPa) = -212.35204 15.31531 -98.51836
#
# Velocity S-wave (km/s) = -11.60477 3.11653 -7.90437
# Velocity P-wave (km/s) = 13.93932 4.59506 9.30565
#
# Compressibility (1/GPa) = -0.04301399
#
# Stress axis : x y z
#
# Youngs Moduli (GPa) = -6.28849 55.28980 64.83764
#
# Poissons Ratio (x) = -0.41625 -2.27610
# Poissons Ratio (y) = 0.04734 0.08978
# Poissons Ratio (z) = 0.22075 0.07656
#
# Static dielectric constant tensor:
#      x y z
#    x 1.521410 0.000000 0.000000 
#    y 0.000000 1.550090 0.000000 
#    z 0.000000 0.000000 1.541730 
# 
# From -- ./inp_files/14730.got.cif
#   From: 2010.05.17/outbox.ucp.g08.bks.cvg/sg46_8_cif.got.tgz:14730.got - 2010.06.11 16:34:52.
