data_PCOD9381027
_publ_section_title
;
Structure prediction by ZEFSAII (Michael W. Deem and Ramdas Pophale) SiO2 
 PCOD9381027
Probable space group: I M A 2
;
_chemical_formula_sum "Si O2"
_cell_formula_units_Z 20
_cell_length_a 14.309501
_cell_length_b 11.554423
_cell_length_c 4.724121
_cell_angle_alpha 90.000000
_cell_angle_beta 90.000000
_cell_angle_gamma 90.000000
_cell_volume 781.076848
_symmetry_space_group_name_H-M "I M A 2"
_symmetry_group_IT_number 46
_symmetry_cell_setting 'orthorhombic'
loop_
_space_group_symop_operation_xyz
x,y,z
-x,-y,z
1/2-x,y,z
1/2+x,-y,z
1/2+x,1/2+y,1/2+z
1/2-x,1/2-y,1/2+z
-x,1/2+y,1/2+z
x,1/2-y,1/2+z
loop_
_atom_site_type_symbol
_atom_site_label
_atom_site_fract_x
_atom_site_fract_y
_atom_site_fract_z
Si Si1 0.589025 0.554241 0.887140
Si Si2 0.750000 0.675179 0.555513
Si Si3 0.075834 0.671949 0.171597
O O1 0.500000 0.500000 0.718736
O O2 0.660648 0.609615 0.675633
O O3 0.533044 0.642170 0.094939
O O4 0.625669 0.445463 0.069644
O O5 0.750000 0.701395 0.224146
O O6 0.097175 0.784293 0.981473
#
# Coordination Sequence:
#
# PCOD9381027 Si02
#       3
#     8   4   8
#     4   8  22  36  61  88 123 152 211 237 311 355
#     4  12  24  42  64  92 122 160 206 256 300 358
#     4   9  18  34  55  79 112 152 189 236 291 346
#
# _framework density 25.605671999999998
#
# number of rings (size 3 to 8) (size 9 to 14) (size 15 to 20)
#    2.400    0.000    0.000    2.400    0.000    9.600 
#    0.000    2.000    0.000    0.000    0.000    0.000 
#    0.000    0.000    0.000    0.000    0.000    0.000 
#
# Total GULP energy -55860.195293 kJ/mol
# GULP energy per Si atom -5586.019529 kJ/mol
# Density = 2.554739 g / cm^3
# Si number density = 25.605672 Si / 1000 Ang^3
#
#
#
# Elastic Constant Matrix: (Units=GPa)
#
#
# Indices 1 2 3 4 5 6 
#
# 1 71.7455 -6.4379 2.5663 0.0000 0.0000 0.0000
# 2 -6.4379 103.2385 9.9914 0.0000 0.0000 0.0000
# 3 2.5663 9.9914 79.9612 0.0000 0.0000 0.0000
# 4 0.0000 0.0000 0.0000 36.1602 0.0000 0.0000
# 5 0.0000 0.0000 0.0000 0.0000 11.4386 0.0000
# 6 0.0000 0.0000 0.0000 0.0000 0.0000 42.3243
#
#
#
# Elastic Compliance Matrix: (Units=1/GPa)
#
#
# Indices 1 2 3 4 5 6 
#
# 1 0.014042 0.000931 -0.000567 0.000000 0.000000 0.000000
# 2 0.000931 0.009867 -0.001263 0.000000 0.000000 0.000000
# 3 -0.000567 -0.001263 0.012682 0.000000 0.000000 0.000000
# 4 0.000000 0.000000 0.000000 0.027655 0.000000 0.000000
# 5 0.000000 0.000000 0.000000 0.000000 0.087423 0.000000
# 6 0.000000 0.000000 0.000000 0.000000 0.000000 0.023627
#
#
# Mechanical properties :
#
#
# Convention : Reuss Voigt Hill
#
# Bulk Modulus (GPa) = 28.74201 29.68717 29.21459
# Shear Modulus (GPa) = 26.49829 34.57298 30.53563
#
# Velocity S-wave (km/s) = 3.22041 3.67850 3.45705
# Velocity P-wave (km/s) = 5.00773 5.44619 5.23155
#
# Compressibility (1/GPa) = 0.03479227
#
# Stress axis : x y z
#
# Youngs Moduli (GPa) = 71.21524 101.35261 78.85169
#
# Poissons Ratio (x) = -0.09431 0.04470
# Poissons Ratio (y) = -0.06627 0.09957
# Poissons Ratio (z) = 0.04037 0.12798
#
# Static dielectric constant tensor:
#      x y z
#    x 2.063590 0.000000 0.000000 
#    y 0.000000 2.082770 0.000000 
#    z 0.000000 0.000000 1.953720 
# 
# From -- ./inp_files/955.got.cif
#   From: 2010.05.17/outbox.cif.g08.bks.cpg/sg46_1_cif.got.tgz:955.got - 2010.06.03 19:58:25.
