data_PCOD9381337
_publ_section_title
;
Structure prediction by ZEFSAII (Michael W. Deem and Ramdas Pophale) SiO2 
 PCOD9381337
Probable space group: P M M M
;
_chemical_formula_sum "Si O2"
_cell_formula_units_Z 64
_cell_length_a 7.571611
_cell_length_b 14.853656
_cell_length_c 33.009311
_cell_angle_alpha 90.000000
_cell_angle_beta 90.000000
_cell_angle_gamma 90.000000
_cell_volume 3712.428642
_symmetry_space_group_name_H-M "P M M M"
_symmetry_group_IT_number 47
_symmetry_cell_setting 'orthorhombic'
loop_
_space_group_symop_operation_xyz
x,y,z
-x,-y,z
x,-y,-z
-x,y,-z
-x,-y,-z
x,y,-z
-x,y,z
x,-y,z
loop_
_atom_site_type_symbol
_atom_site_label
_atom_site_fract_x
_atom_site_fract_y
_atom_site_fract_z
Si Si1 0.711506 0.104042 0.956428
Si Si2 0.211118 0.787098 0.297346
Si Si3 0.289664 0.399890 0.333261
Si Si4 0.216073 0.896477 0.375917
Si Si5 0.794013 0.400528 0.426774
Si Si6 0.215711 0.894533 0.219360
Si Si7 0.783670 0.209780 0.544585
Si Si8 0.211006 0.897014 0.130695
O O1 0.500000 0.100371 0.958022
O O2 0.752678 0.147036 0.912884
O O3 0.777507 0.000000 0.955174
O O4 0.772530 0.142399 0.000000
O O5 0.244799 0.681644 0.303698
O O6 0.277259 0.839102 0.337299
O O7 0.278944 0.833152 0.256326
O O8 0.000000 0.799028 0.297004
O O9 0.500000 0.401374 0.337955
O O10 0.231153 0.500000 0.320198
O O11 0.214224 0.383842 0.378341
O O12 0.273686 0.851065 0.417855
O O13 0.000000 0.894873 0.375763
O O14 0.270263 0.000000 0.372772
O O15 0.716267 0.500000 0.434457
O O16 0.720880 0.312283 0.448290
O O17 0.000000 0.405249 0.438309
O O18 0.272456 0.862017 0.174456
O O19 0.000000 0.893264 0.220056
O O20 0.265451 0.000000 0.224343
O O21 0.731688 0.177820 0.500000
O O22 0.000000 0.211165 0.545785
O O23 0.000000 0.901893 0.133381
O O24 0.280401 0.000000 0.128450
#
# Coordination Sequence:
#
# PCOD9381337 Si02
#       8
#     8   8   8   8   8   8   8   8
#     4   8  13  20  29  42  62  91 129 171 210 242
#     4  10  17  28  47  66  82 103 134 167 196 234
#     4  10  20  32  46  64  85 106 126 155 198 240
#     4   9  16  25  39  61  85 107 132 163 197 229
#     4   9  16  28  46  65  83 103 129 159 192 234
#     4   8  14  24  39  60  83 106 133 168 207 241
#     4   9  16  25  38  61  89 109 128 158 196 234
#     4   8  13  21  32  47  69  96 127 163 202 241
#
# _framework density 17.239387000000001
#
# number of rings (size 3 to 8) (size 9 to 14) (size 15 to 20)
#    0.000    3.125    1.250    1.875    0.000    3.000 
#    0.000    4.375    0.000    2.625    0.000    1.750 
#    0.000    1.000    0.000    0.000    0.000    0.625 
#
# Total GULP energy -356400.145324 kJ/mol
# GULP energy per Si atom -5568.752271 kJ/mol
# Density = 1.720015 g / cm^3
# Si number density = 17.239387 Si / 1000 Ang^3
#
#
#
# Elastic Constant Matrix: (Units=GPa)
#
#
# Indices 1 2 3 4 5 6 
#
# 1 37.7908 -0.0904 6.1666 0.0000 0.0000 0.0000
# 2 -0.0904 76.2927 62.0567 0.0000 0.0000 0.0000
# 3 6.1666 62.0567 166.5309 0.0000 0.0000 0.0000
# 4 0.0000 0.0000 0.0000 6.0055 0.0000 0.0000
# 5 0.0000 0.0000 0.0000 0.0000 92.0370 0.0000
# 6 0.0000 0.0000 0.0000 0.0000 0.0000 -5.2357
#
#
#
# Elastic Compliance Matrix: (Units=1/GPa)
#
#
# Indices 1 2 3 4 5 6 
#
# 1 0.026699 0.001199 -0.001436 0.000000 0.000000 0.000000
# 2 0.001199 0.018862 -0.007073 0.000000 0.000000 0.000000
# 3 -0.001436 -0.007073 0.008694 0.000000 0.000000 0.000000
# 4 0.000000 0.000000 0.000000 0.166515 0.000000 0.000000
# 5 0.000000 0.000000 0.000000 0.000000 0.010865 0.000000
# 6 0.000000 0.000000 0.000000 0.000000 0.000000 -0.190995
#
#
# Mechanical properties :
#
#
# Convention : Reuss Voigt Hill
#
# Bulk Modulus (GPa) = 25.22983 46.32002 35.77492
# Shear Modulus (GPa) = 73.02342 32.72678 52.87510
#
# Velocity S-wave (km/s) = 6.51540 4.36176 5.54416
# Velocity P-wave (km/s) = 8.44200 7.23143 7.86006
#
# Compressibility (1/GPa) = 0.03963563
#
# Stress axis : x y z
#
# Youngs Moduli (GPa) = 37.45514 53.01583 115.02341
#
# Poissons Ratio (x) = -0.06358 0.16512
# Poissons Ratio (y) = -0.04492 0.81360
# Poissons Ratio (z) = 0.05377 0.37500
#
# Static dielectric constant tensor:
#      x y z
#    x 1.651980 0.000000 0.000000 
#    y 0.000000 1.570850 0.000000 
#    z 0.000000 0.000000 1.632180 
# 
# From -- ./inp_files/34462.got.cif
#   From: 2010.05.17/outbox.cif.g08.bks.cpg/sg47_18_cif.got.tgz:34462.got - 2010.06.03 20:15:42.
