data_PCOD9381833
_publ_section_title
;
Structure prediction by ZEFSAII (Michael W. Deem and Ramdas Pophale) SiO2 
 PCOD9381833
Probable space group: P M M M
;
_chemical_formula_sum "Si O2"
_cell_formula_units_Z 52
_cell_length_a 15.178738
_cell_length_b 24.030306
_cell_length_c 7.798707
_cell_angle_alpha 90.000000
_cell_angle_beta 90.000000
_cell_angle_gamma 90.000000
_cell_volume 2844.576186
_symmetry_space_group_name_H-M "P M M M"
_symmetry_group_IT_number 47
_symmetry_cell_setting 'orthorhombic'
loop_
_space_group_symop_operation_xyz
x,y,z
-x,-y,z
x,-y,-z
-x,y,-z
-x,-y,-z
x,y,-z
-x,y,z
x,-y,z
loop_
_atom_site_type_symbol
_atom_site_label
_atom_site_fract_x
_atom_site_fract_y
_atom_site_fract_z
Si Si1 0.287094 0.392248 0.205980
Si Si2 0.098611 0.435964 0.293631
Si Si3 0.906086 0.933561 0.205055
Si Si4 0.397440 0.500000 0.209904
Si Si5 0.601431 0.287734 0.794143
Si Si6 0.600612 0.835475 0.707112
Si Si7 0.285841 0.936833 0.298596
O O1 0.183998 0.400357 0.245456
O O2 0.343629 0.445521 0.267082
O O3 0.334148 0.336141 0.270445
O O4 0.294133 0.392012 0.000000
O O5 0.096095 0.437322 0.500000
O O6 0.112302 0.500000 0.233629
O O7 0.000000 0.418276 0.235337
O O8 0.814318 0.915418 0.282815
O O9 0.000000 0.910417 0.267025
O O10 0.908491 0.000000 0.237043
O O11 0.902005 0.925963 0.000000
O O12 0.500000 0.500000 0.263131
O O13 0.397829 0.500000 0.000000
O O14 0.500000 0.293336 0.729343
O O15 0.634675 0.225667 0.754270
O O16 0.596860 0.292790 0.000000
O O17 0.600948 0.838319 0.500000
O O18 0.500000 0.837878 0.767610
O O19 0.652532 0.888911 0.775429
O O20 0.306363 0.941782 0.500000
O O21 0.292453 0.000000 0.225652
#
# Coordination Sequence:
#
# PCOD9381833 Si02
#       7
#     8   8   8   4   8   8   8
#     4  10  18  29  48  73  95 120 155 193 231 269
#     4   9  18  32  48  67  95 129 159 189 231 280
#     4   8  14  25  41  62  89 119 147 175 214 268
#     4   9  16  26  42  67  98 124 145 177 224 273
#     4   9  18  32  49  69  93 122 156 191 228 274
#     4   9  18  32  48  66  90 122 158 191 226 272
#     4   9  17  28  44  68  94 118 148 189 234 276
#
# _framework density 18.280403
#
# number of rings (size 3 to 8) (size 9 to 14) (size 15 to 20)
#    0.000    3.000    0.769    1.385    0.000    4.000 
#    0.000    3.846    0.000    2.769    0.000    4.308 
#    0.000    0.000    0.000    0.000    0.000    0.000 
#
# Total GULP energy -289551.833663 kJ/mol
# GULP energy per Si atom -5568.304494 kJ/mol
# Density = 1.823880 g / cm^3
# Si number density = 18.280403 Si / 1000 Ang^3
#
#
#
# Elastic Constant Matrix: (Units=GPa)
#
#
# Indices 1 2 3 4 5 6 
#
# 1 127.3633 94.8863 5.9862 0.0000 0.0000 0.0000
# 2 94.8863 131.2527 3.2615 0.0000 0.0000 0.0000
# 3 5.9862 3.2615 14.7265 0.0000 0.0000 0.0000
# 4 0.0000 0.0000 0.0000 15.5442 0.0000 0.0000
# 5 0.0000 0.0000 0.0000 0.0000 24.4079 0.0000
# 6 0.0000 0.0000 0.0000 0.0000 0.0000 8.1920
#
#
#
# Elastic Compliance Matrix: (Units=1/GPa)
#
#
# Indices 1 2 3 4 5 6 
#
# 1 0.017281 -0.012386 -0.004281 0.000000 0.000000 0.000000
# 2 -0.012386 0.016539 0.001372 0.000000 0.000000 0.000000
# 3 -0.004281 0.001372 0.069341 0.000000 0.000000 0.000000
# 4 0.000000 0.000000 0.000000 0.064333 0.000000 0.000000
# 5 0.000000 0.000000 0.000000 0.000000 0.040970 0.000000
# 6 0.000000 0.000000 0.000000 0.000000 0.000000 0.122070
#
#
# Mechanical properties :
#
#
# Convention : Reuss Voigt Hill
#
# Bulk Modulus (GPa) = 13.77984 53.51227 33.64606
# Shear Modulus (GPa) = 12.97640 20.90939 16.94290
#
# Velocity S-wave (km/s) = 2.66720 3.38570 3.04770
# Velocity P-wave (km/s) = 4.12791 6.67986 5.55249
#
# Compressibility (1/GPa) = 0.07256976
#
# Stress axis : x y z
#
# Youngs Moduli (GPa) = 57.86838 60.46254 14.42148
#
# Poissons Ratio (x) = 0.74890 0.06174
# Poissons Ratio (y) = 0.71677 -0.01979
# Poissons Ratio (z) = 0.24775 -0.08295
#
# Static dielectric constant tensor:
#      x y z
#    x 1.648100 0.000000 0.000000 
#    y 0.000000 1.620390 0.000000 
#    z 0.000000 0.000000 1.677400 
# 
# From -- ./inp_files/7074.got.cif
#   From: 2010.05.17/outbox.cif.g08.bks.cpg/sg47_4_cif.got.tgz:7074.got - 2010.06.03 20:15:42.
