data_PCOD9381554
_publ_section_title
;
Structure prediction by ZEFSAII (Michael W. Deem and Ramdas Pophale) SiO2 
 PCOD9381554
Probable space group: P M M M
;
_chemical_formula_sum "Si O2"
_cell_formula_units_Z 56
_cell_length_a 15.227625
_cell_length_b 23.874946
_cell_length_c 7.995513
_cell_angle_alpha 90.000000
_cell_angle_beta 90.000000
_cell_angle_gamma 90.000000
_cell_volume 2906.838509
_symmetry_space_group_name_H-M "P M M M"
_symmetry_group_IT_number 47
_symmetry_cell_setting 'orthorhombic'
loop_
_space_group_symop_operation_xyz
x,y,z
-x,-y,z
x,-y,-z
-x,y,-z
-x,-y,-z
x,y,-z
-x,y,z
x,-y,z
loop_
_atom_site_type_symbol
_atom_site_label
_atom_site_fract_x
_atom_site_fract_y
_atom_site_fract_z
Si Si1 0.726864 0.339242 0.301017
Si Si2 0.399706 0.759842 0.202030
Si Si3 0.779550 0.061418 0.697454
Si Si4 0.400490 0.564386 0.295636
Si Si5 0.400685 0.889310 0.797629
Si Si6 0.901235 0.712365 0.698604
Si Si7 0.900338 0.163439 0.802611
O O1 0.736153 0.348200 0.500000
O O2 0.668181 0.284007 0.274798
O O3 0.671665 0.391790 0.233458
O O4 0.823703 0.326349 0.231112
O O5 0.500000 0.745605 0.250385
O O6 0.383847 0.824422 0.251321
O O7 0.394462 0.757715 0.000000
O O8 0.795244 0.061188 0.500000
O O9 0.676992 0.072970 0.729507
O O10 0.835318 0.112536 0.769587
O O11 0.803487 0.000000 0.766107
O O12 0.400136 0.565727 0.500000
O O13 0.500000 0.579772 0.243678
O O14 0.384007 0.500000 0.246529
O O15 0.500000 0.904181 0.745422
O O16 0.398328 0.891455 0.000000
O O17 0.906301 0.702137 0.500000
O O18 0.875106 0.777462 0.721130
O O19 0.000000 0.705424 0.768548
O O20 0.000000 0.149646 0.746638
O O21 0.901752 0.173805 0.000000
#
# Coordination Sequence:
#
# PCOD9381554 Si02
#       7
#     8   8   8   8   8   8   8
#     4  10  18  27  45  71  94 122 163 202 233 276
#     4   9  18  31  46  68  98 125 148 184 239 292
#     4  11  24  38  52  73 100 129 161 198 242 292
#     4   8  14  25  41  63  93 127 163 204 243 275
#     4   9  19  36  55  73  96 129 166 202 242 289
#     4   9  18  32  49  71 100 128 152 188 243 297
#     4  10  21  37  57  78  98 123 158 199 242 292
#
# _framework density 19.264915999999999
#
# number of rings (size 3 to 8) (size 9 to 14) (size 15 to 20)
#    0.000    2.571    0.000    3.429    0.000    7.143 
#    0.000    4.286    0.000    0.857    0.000    5.000 
#    0.000    0.000    0.000    4.857    0.000    5.286 
#
# Total GULP energy -312462.328062 kJ/mol
# GULP energy per Si atom -5579.684430 kJ/mol
# Density = 1.922107 g / cm^3
# Si number density = 19.264916 Si / 1000 Ang^3
#
#
#
# Elastic Constant Matrix: (Units=GPa)
#
#
# Indices 1 2 3 4 5 6 
#
# 1 118.5755 76.8267 3.8317 0.0000 0.0000 0.0000
# 2 76.8267 75.7836 1.6177 0.0000 0.0000 0.0000
# 3 3.8317 1.6177 14.2433 0.0000 0.0000 0.0000
# 4 0.0000 0.0000 0.0000 -178.8534 0.0000 0.0000
# 5 0.0000 0.0000 0.0000 0.0000 17.8046 0.0000
# 6 0.0000 0.0000 0.0000 0.0000 0.0000 16.2687
#
#
#
# Elastic Compliance Matrix: (Units=1/GPa)
#
#
# Indices 1 2 3 4 5 6 
#
# 1 0.024781 -0.025041 -0.003823 0.000000 0.000000 0.000000
# 2 -0.025041 0.038530 0.002360 0.000000 0.000000 0.000000
# 3 -0.003823 0.002360 0.070969 0.000000 0.000000 0.000000
# 4 0.000000 0.000000 0.000000 -0.005591 0.000000 0.000000
# 5 0.000000 0.000000 0.000000 0.000000 0.056165 0.000000
# 6 0.000000 0.000000 0.000000 0.000000 0.000000 0.061468
#
#
# Mechanical properties :
#
#
# Convention : Reuss Voigt Hill
#
# Bulk Modulus (GPa) = 12.30402 41.46160 26.88281
# Shear Modulus (GPa) = 15.31773 -20.53427 -2.60827
#
# Velocity S-wave (km/s) = 2.82283 -3.26834 -1.16483
# Velocity P-wave (km/s) = 4.12615 2.70663 3.48934
#
# Compressibility (1/GPa) = 0.08127426
#
# Stress axis : x y z
#
# Youngs Moduli (GPa) = 40.35328 25.95355 14.09074
#
# Poissons Ratio (x) = 0.64989 0.05386
# Poissons Ratio (y) = 1.01047 -0.03326
# Poissons Ratio (z) = 0.15425 -0.06126
#
# Static dielectric constant tensor:
#      x y z
#    x 1.696850 0.000000 0.000000 
#    y 0.000000 1.661270 0.000000 
#    z 0.000000 0.000000 1.682280 
# 
# From -- ./inp_files/7253.got.cif
#   From: 2010.05.17/outbox.cif.g08.bks.cpg/sg47_4_cif.got.tgz:7253.got - 2010.06.03 20:15:42.
