data_PCOD9381697
_publ_section_title
;
Structure prediction by ZEFSAII (Michael W. Deem and Ramdas Pophale) SiO2 
 PCOD9381697
Probable space group: P M M M
;
_chemical_formula_sum "Si O2"
_cell_formula_units_Z 40
_cell_length_a 21.699148
_cell_length_b 7.857710
_cell_length_c 11.369837
_cell_angle_alpha 90.000000
_cell_angle_beta 90.000000
_cell_angle_gamma 90.000000
_cell_volume 1938.621019
_symmetry_space_group_name_H-M "P M M M"
_symmetry_group_IT_number 47
_symmetry_cell_setting 'orthorhombic'
loop_
_space_group_symop_operation_xyz
x,y,z
-x,-y,z
x,-y,-z
-x,y,-z
-x,-y,-z
x,y,-z
-x,y,z
x,-y,z
loop_
_atom_site_type_symbol
_atom_site_label
_atom_site_fract_x
_atom_site_fract_y
_atom_site_fract_z
Si Si1 0.866985 0.798439 0.283263
Si Si2 0.238189 0.296663 0.129686
Si Si3 0.000000 0.298895 0.632964
Si Si4 0.428623 0.292685 0.000000
Si Si5 0.361394 0.708737 0.242000
Si Si6 0.360229 0.299559 0.500000
Si Si7 0.783010 0.207785 0.500000
O O1 0.830937 0.743028 0.167549
O O2 0.823638 0.733159 0.389025
O O3 0.937274 0.747772 0.301190
O O4 0.865022 0.000000 0.289561
O O5 0.244756 0.500000 0.126374
O O6 0.290640 0.235100 0.219361
O O7 0.251875 0.229346 0.000000
O O8 0.000000 0.500000 0.621265
O O9 0.000000 0.223186 0.500000
O O10 0.397560 0.238441 0.876379
O O11 0.424378 0.500000 0.000000
O O12 0.500000 0.244315 0.000000
O O13 0.363513 0.500000 0.245164
O O14 0.381758 0.768679 0.372115
O O15 0.375369 0.500000 0.500000
O O16 0.285844 0.279332 0.500000
O O17 0.779076 0.000000 0.500000
#
# Coordination Sequence:
#
# PCOD9381697 Si02
#       7
#     8   8   4   4   8   4   4
#     4  11  22  36  53  76 109 140 171 217 271 325
#     4  10  19  33  54  77 103 135 178 225 267 320
#     4  11  23  37  56  79 104 139 183 221 263 326
#     4   9  16  28  46  70 107 150 183 212 259 323
#     4   9  16  27  45  73 103 138 178 217 264 315
#     4  10  18  28  48  75 106 136 172 224 273 320
#     4  10  20  31  47  75 108 137 167 210 267 324
#
# _framework density 20.633223000000001
#
# number of rings (size 3 to 8) (size 9 to 14) (size 15 to 20)
#    0.000    2.000    4.000    0.900    0.000    1.600 
#    0.000    1.000    0.000    6.000    0.000    0.000 
#    0.000    7.200    0.000    0.000    0.000    0.000 
#
# Total GULP energy -223075.319332 kJ/mol
# GULP energy per Si atom -5576.882983 kJ/mol
# Density = 2.058626 g / cm^3
# Si number density = 20.633223 Si / 1000 Ang^3
#
#
#
# Elastic Constant Matrix: (Units=GPa)
#
#
# Indices 1 2 3 4 5 6 
#
# 1 92.4121 -9.0273 59.1488 0.0000 0.0000 0.0000
# 2 -9.0273 18.1349 7.8644 0.0000 0.0000 0.0000
# 3 59.1488 7.8644 165.8714 0.0000 0.0000 0.0000
# 4 0.0000 0.0000 0.0000 3.5920 0.0000 0.0000
# 5 0.0000 0.0000 0.0000 0.0000 29.1525 0.0000
# 6 0.0000 0.0000 0.0000 0.0000 0.0000 -26.5395
#
#
#
# Elastic Compliance Matrix: (Units=1/GPa)
#
#
# Indices 1 2 3 4 5 6 
#
# 1 0.015763 0.010500 -0.006119 0.000000 0.000000 0.000000
# 2 0.010500 0.063294 -0.006745 0.000000 0.000000 0.000000
# 3 -0.006119 -0.006745 0.008531 0.000000 0.000000 0.000000
# 4 0.000000 0.000000 0.000000 0.278393 0.000000 0.000000
# 5 0.000000 0.000000 0.000000 0.000000 0.034302 0.000000
# 6 0.000000 0.000000 0.000000 0.000000 0.000000 -0.037680
#
#
# Mechanical properties :
#
#
# Convention : Reuss Voigt Hill
#
# Bulk Modulus (GPa) = 12.06851 43.59889 27.83370
# Shear Modulus (GPa) = 12.65979 15.80318 14.23148
#
# Velocity S-wave (km/s) = 2.47971 2.77051 2.62913
# Velocity P-wave (km/s) = 3.74972 5.60452 4.76817
#
# Compressibility (1/GPa) = 0.08286029
#
# Stress axis : x y z
#
# Youngs Moduli (GPa) = 63.43862 15.79921 117.22567
#
# Poissons Ratio (x) = -0.16590 0.71730
# Poissons Ratio (y) = -0.66612 0.79072
# Poissons Ratio (z) = 0.38818 0.10657
#
# Static dielectric constant tensor:
#      x y z
#    x 1.651710 0.000000 0.000000 
#    y 0.000000 1.728870 0.000000 
#    z 0.000000 0.000000 1.815280 
# 
# From -- ./inp_files/19007.got.cif
#   From: 2010.05.17/outbox.cif.g08.bks.cpg/sg47_10_cif.got.tgz:19007.got - 2010.06.03 20:15:42.
