data_PCOD9381437
_publ_section_title
;
Structure prediction by ZEFSAII (Michael W. Deem and Ramdas Pophale) SiO2 
 PCOD9381437
Probable space group: P M M M
;
_chemical_formula_sum "Si O2"
_cell_formula_units_Z 37
_cell_length_a 18.493865
_cell_length_b 12.521738
_cell_length_c 7.488834
_cell_angle_alpha 90.000000
_cell_angle_beta 90.000000
_cell_angle_gamma 90.000000
_cell_volume 1734.229221
_symmetry_space_group_name_H-M "P M M M"
_symmetry_group_IT_number 47
_symmetry_cell_setting 'orthorhombic'
loop_
_space_group_symop_operation_xyz
x,y,z
-x,-y,z
x,-y,-z
-x,y,-z
-x,-y,-z
x,y,-z
-x,y,z
x,-y,z
loop_
_atom_site_type_symbol
_atom_site_label
_atom_site_fract_x
_atom_site_fract_y
_atom_site_fract_z
Si Si1 0.580161 0.263551 0.781920
Si Si2 0.156302 0.719143 0.785858
Si Si3 0.000000 0.193598 0.215992
Si Si4 0.717456 0.876901 0.781763
Si Si5 0.611217 0.500000 0.799650
Si Si6 0.231156 0.500000 0.303479
Si Si7 0.000000 0.000000 0.500000
O O1 0.500000 0.224903 0.732729
O O2 0.646377 0.188822 0.724182
O O3 0.589551 0.386031 0.719136
O O4 0.583881 0.265877 0.000000
O O5 0.211077 0.812269 0.723972
O O6 0.184333 0.605505 0.721016
O O7 0.073521 0.742799 0.742667
O O8 0.161908 0.716931 0.000000
O O9 0.000000 0.091824 0.342157
O O10 0.000000 0.169859 0.000000
O O11 0.717396 0.000000 0.723561
O O12 0.717358 0.877904 0.000000
O O13 0.697866 0.500000 0.815290
O O14 0.580337 0.500000 0.000000
O O15 0.263204 0.500000 0.500000
#
# Coordination Sequence:
#
# PCOD9381437 Si02
#       7
#     8   8   4   8   4   4   1
#     4   9  16  26  46  78 112 145 188 243 300 358
#     4  10  21  41  63  87 119 160 207 249 304 370
#     4  10  25  44  68  99 130 173 218 258 309 372
#     4   9  17  29  50  80 114 150 191 244 297 355
#     4  10  17  32  53  79 109 150 197 241 301 365
#     4  12  24  36  60  89 120 151 197 255 313 374
#     4  12  26  44  72  96 144 168 212 272 314 354
#
# _framework density 21.335128000000001
#
# number of rings (size 3 to 8) (size 9 to 14) (size 15 to 20)
#    0.000    2.162    2.162    1.459    3.027    2.162 
#    0.000    4.324    0.000    1.297    0.000    0.000 
#    0.000    1.730    0.000    0.000    0.000    0.000 
#
# Total GULP energy -206388.315580 kJ/mol
# GULP energy per Si atom -5578.062583 kJ/mol
# Density = 2.128657 g / cm^3
# Si number density = 21.335128 Si / 1000 Ang^3
#
#
#
# Elastic Constant Matrix: (Units=GPa)
#
#
# Indices 1 2 3 4 5 6 
#
# 1 193.7485 92.8415 24.9729 0.0000 0.0000 0.0000
# 2 92.8415 169.4983 12.1838 0.0000 0.0000 0.0000
# 3 24.9729 12.1838 63.2804 0.0000 0.0000 0.0000
# 4 0.0000 0.0000 0.0000 2.5090 0.0000 0.0000
# 5 0.0000 0.0000 0.0000 0.0000 -17.2896 0.0000
# 6 0.0000 0.0000 0.0000 0.0000 0.0000 61.1157
#
#
#
# Elastic Compliance Matrix: (Units=1/GPa)
#
#
# Indices 1 2 3 4 5 6 
#
# 1 0.007271 -0.003829 -0.002132 0.000000 0.000000 0.000000
# 2 -0.003829 0.007999 -0.000029 0.000000 0.000000 0.000000
# 3 -0.002132 -0.000029 0.016650 0.000000 0.000000 0.000000
# 4 0.000000 0.000000 0.000000 0.398569 0.000000 0.000000
# 5 0.000000 0.000000 0.000000 0.000000 -0.057838 0.000000
# 6 0.000000 0.000000 0.000000 0.000000 0.000000 0.016362
#
#
# Mechanical properties :
#
#
# Convention : Reuss Voigt Hill
#
# Bulk Modulus (GPa) = 50.15265 76.28041 63.21653
# Shear Modulus (GPa) = 12.26570 29.03561 20.65066
#
# Velocity S-wave (km/s) = 2.40032 3.69308 3.11451
# Velocity P-wave (km/s) = 5.58929 7.34957 6.52903
#
# Compressibility (1/GPa) = 0.01993913
#
# Stress axis : x y z
#
# Youngs Moduli (GPa) = 137.52922 125.00920 60.06121
#
# Poissons Ratio (x) = 0.47872 0.12806
# Poissons Ratio (y) = 0.52666 0.00174
# Poissons Ratio (z) = 0.29324 0.00362
#
# Static dielectric constant tensor:
#      x y z
#    x 1.751380 0.000000 0.000000 
#    y 0.000000 1.721790 0.000000 
#    z 0.000000 0.000000 1.810950 
# 
# From -- ./inp_files/8741.got.cif
#   From: 2010.05.17/outbox.cif.g08.bks.cpg/sg47_5_cif.got.tgz:8741.got - 2010.06.03 20:15:42.
