data_PCOD9381551
_publ_section_title
;
Structure prediction by ZEFSAII (Michael W. Deem and Ramdas Pophale) SiO2 
 PCOD9381551
Probable space group: P M M M
;
_chemical_formula_sum "Si O2"
_cell_formula_units_Z 52
_cell_length_a 27.278246
_cell_length_b 8.903314
_cell_length_c 14.112259
_cell_angle_alpha 90.000000
_cell_angle_beta 90.000000
_cell_angle_gamma 90.000000
_cell_volume 3427.399036
_symmetry_space_group_name_H-M "P M M M"
_symmetry_group_IT_number 47
_symmetry_cell_setting 'orthorhombic'
loop_
_space_group_symop_operation_xyz
x,y,z
-x,-y,z
x,-y,-z
-x,y,-z
-x,-y,-z
x,y,-z
-x,y,z
x,-y,z
loop_
_atom_site_type_symbol
_atom_site_label
_atom_site_fract_x
_atom_site_fract_y
_atom_site_fract_z
Si Si1 0.000000 0.327049 0.615001
Si Si2 0.652610 0.819541 0.786418
Si Si3 0.195434 0.679744 0.290848
Si Si4 0.297679 0.680613 0.608759
Si Si5 0.897794 0.820619 0.610866
Si Si6 0.554928 0.817249 0.890424
Si Si7 0.255126 0.680743 0.891369
O O1 0.949783 0.246428 0.643915
O O2 0.000000 0.500000 0.645097
O O3 0.000000 0.322921 0.500000
O O4 0.665988 0.757586 0.682919
O O5 0.599662 0.768513 0.824667
O O6 0.695022 0.757940 0.855822
O O7 0.654117 0.000000 0.786170
O O8 0.187994 0.500000 0.295213
O O9 0.242315 0.716526 0.357126
O O10 0.147252 0.760295 0.328001
O O11 0.212988 0.720063 0.184617
O O12 0.305075 0.724833 0.500000
O O13 0.302720 0.500000 0.616342
O O14 0.890435 0.776069 0.500000
O O15 0.899992 0.000000 0.614373
O O16 0.500000 0.768341 0.862574
O O17 0.554839 0.000000 0.889380
O O18 0.563331 0.772531 0.000000
O O19 0.261769 0.500000 0.884875
O O20 0.244176 0.719523 0.000000
#
# Coordination Sequence:
#
# PCOD9381551 Si02
#       7
#     4   8   8   8   8   8   8
#     4   9  17  29  45  63  84 115 152 183 211 250
#     4  10  18  27  44  69  91 111 141 182 224 264
#     4   9  17  29  45  64  84 111 148 181 210 251
#     4   9  18  32  47  62  85 119 153 181 213 258
#     4  10  19  29  42  63  92 120 144 176 218 258
#     4   8  14  25  41  62  88 115 141 172 215 266
#     4   9  18  32  47  63  88 121 151 179 215 261
#
# _framework density 15.171855000000001
#
# number of rings (size 3 to 8) (size 9 to 14) (size 15 to 20)
#    0.000    2.846    0.000    3.462    0.000    6.154 
#    0.000    0.000    0.000    2.308    0.000    9.154 
#    0.000    4.308    0.000    0.000    0.000    0.000 
#
# Total GULP energy -289743.359565 kJ/mol
# GULP energy per Si atom -5571.987684 kJ/mol
# Density = 1.513732 g / cm^3
# Si number density = 15.171855 Si / 1000 Ang^3
#
#
#
# Elastic Constant Matrix: (Units=GPa)
#
#
# Indices 1 2 3 4 5 6 
#
# 1 151.6332 45.6239 81.7200 0.0000 0.0000 0.0000
# 2 45.6239 27.4551 36.3396 0.0000 0.0000 0.0000
# 3 81.7200 36.3396 118.9541 0.0000 0.0000 0.0000
# 4 0.0000 0.0000 0.0000 20.2582 0.0000 0.0000
# 5 0.0000 0.0000 0.0000 0.0000 22.9412 0.0000
# 6 0.0000 0.0000 0.0000 0.0000 0.0000 43.6434
#
#
#
# Elastic Compliance Matrix: (Units=1/GPa)
#
#
# Indices 1 2 3 4 5 6 
#
# 1 0.014410 -0.018204 -0.004338 0.000000 0.000000 0.000000
# 2 -0.018204 0.084145 -0.013200 0.000000 0.000000 0.000000
# 3 -0.004338 -0.013200 0.015419 0.000000 0.000000 0.000000
# 4 0.000000 0.000000 0.000000 0.049363 0.000000 0.000000
# 5 0.000000 0.000000 0.000000 0.000000 0.043590 0.000000
# 6 0.000000 0.000000 0.000000 0.000000 0.000000 0.022913
#
#
# Mechanical properties :
#
#
# Convention : Reuss Voigt Hill
#
# Bulk Modulus (GPa) = 23.53470 69.48993 46.51232
# Shear Modulus (GPa) = 15.84841 26.32581 21.08711
#
# Velocity S-wave (km/s) = 3.23552 4.17006 3.73216
# Velocity P-wave (km/s) = 5.43175 8.31187 7.02108
#
# Compressibility (1/GPa) = 0.04249044
#
# Stress axis : x y z
#
# Youngs Moduli (GPa) = 69.39454 11.88418 64.85298
#
# Poissons Ratio (x) = 0.21634 0.28136
# Poissons Ratio (y) = 1.26327 0.85604
# Poissons Ratio (z) = 0.30107 0.15687
#
# Static dielectric constant tensor:
#      x y z
#    x 1.488570 0.000000 0.000000 
#    y 0.000000 1.511680 0.000000 
#    z 0.000000 0.000000 1.498680 
# 
# From -- ./inp_files/21805.got.cif
#   From: 2010.05.17/outbox.cif.g08.bks.cpg/sg47_11_cif.got.tgz:21805.got - 2010.06.03 20:15:42.
