data_PCOD9381356
_publ_section_title
;
Structure prediction by ZEFSAII (Michael W. Deem and Ramdas Pophale) SiO2 
 PCOD9381356
Probable space group: P M M M
;
_chemical_formula_sum "Si O2"
_cell_formula_units_Z 56
_cell_length_a 19.855587
_cell_length_b 7.566053
_cell_length_c 19.128567
_cell_angle_alpha 90.000000
_cell_angle_beta 90.000000
_cell_angle_gamma 90.000000
_cell_volume 2873.654466
_symmetry_space_group_name_H-M "P M M M"
_symmetry_group_IT_number 47
_symmetry_cell_setting 'orthorhombic'
loop_
_space_group_symop_operation_xyz
x,y,z
-x,-y,z
x,-y,-z
-x,y,-z
-x,-y,-z
x,y,-z
-x,y,z
x,-y,z
loop_
_atom_site_type_symbol
_atom_site_label
_atom_site_fract_x
_atom_site_fract_y
_atom_site_fract_z
Si Si1 0.711118 0.708593 0.715453
Si Si2 0.790250 0.786821 0.421850
Si Si3 0.925079 0.784002 0.185795
Si Si4 0.354781 0.294207 0.923052
Si Si5 0.575460 0.716233 0.783082
Si Si6 0.925616 0.215352 0.348657
Si Si7 0.216495 0.797692 0.144830
O O1 0.714202 0.500000 0.730553
O O2 0.737054 0.739629 0.637863
O O3 0.634765 0.768578 0.730037
O O4 0.759107 0.794198 0.774094
O O5 0.775442 0.723132 0.500000
O O6 0.863184 0.723347 0.394643
O O7 0.793108 0.000000 0.424073
O O8 0.918041 0.732030 0.267400
O O9 0.859039 0.722052 0.144457
O O10 0.000000 0.730174 0.162065
O O11 0.923421 0.000000 0.184668
O O12 0.373434 0.500000 0.927510
O O13 0.399059 0.221022 0.859357
O O14 0.276857 0.287195 0.898811
O O15 0.363285 0.215194 0.000000
O O16 0.500000 0.775736 0.767560
O O17 0.574482 0.500000 0.783836
O O18 0.000000 0.270681 0.372743
O O19 0.924747 0.000000 0.349290
O O20 0.213297 0.000000 0.121171
#
# Coordination Sequence:
#
# PCOD9381356 Si02
#       7
#     8   8   8   8   8   8   8
#     4  10  19  31  48  69  94 121 151 189 233 279
#     4  10  19  30  46  68  93 123 159 196 233 274
#     4   8  13  22  40  65  88 112 149 199 242 267
#     4   9  18  31  47  71 102 129 150 178 221 272
#     4   8  15  29  50  74  94 116 151 190 224 261
#     4   8  13  23  40  63  90 117 150 194 237 271
#     4  10  17  28  49  70  91 121 158 196 230 268
#
# _framework density 19.487382
#
# number of rings (size 3 to 8) (size 9 to 14) (size 15 to 20)
#    0.000    3.000    1.429    2.571    0.000    1.143 
#    0.000    2.857    0.000   14.571    0.000   11.000 
#    0.000    0.000    0.000    0.000    0.000    0.000 
#
# Total GULP energy -312156.834728 kJ/mol
# GULP energy per Si atom -5574.229192 kJ/mol
# Density = 1.944303 g / cm^3
# Si number density = 19.487382 Si / 1000 Ang^3
#
#
#
# Elastic Constant Matrix: (Units=GPa)
#
#
# Indices 1 2 3 4 5 6 
#
# 1 152.7973 -2.8256 39.8766 0.0000 0.0000 0.0000
# 2 -2.8256 45.9202 -3.7925 0.0000 0.0000 0.0000
# 3 39.8766 -3.7925 60.7812 0.0000 0.0000 0.0000
# 4 0.0000 0.0000 0.0000 67.7318 0.0000 0.0000
# 5 0.0000 0.0000 0.0000 0.0000 12.7928 0.0000
# 6 0.0000 0.0000 0.0000 0.0000 0.0000 12.7149
#
#
#
# Elastic Compliance Matrix: (Units=1/GPa)
#
#
# Indices 1 2 3 4 5 6 
#
# 1 0.007897 0.000058 -0.005177 0.000000 0.000000 0.000000
# 2 0.000058 0.021890 0.001328 0.000000 0.000000 0.000000
# 3 -0.005177 0.001328 0.019932 0.000000 0.000000 0.000000
# 4 0.000000 0.000000 0.000000 0.014764 0.000000 0.000000
# 5 0.000000 0.000000 0.000000 0.000000 0.078169 0.000000
# 6 0.000000 0.000000 0.000000 0.000000 0.000000 0.078648
#
#
# Mechanical properties :
#
#
# Convention : Reuss Voigt Hill
#
# Bulk Modulus (GPa) = 23.73251 36.22396 29.97823
# Shear Modulus (GPa) = 20.58224 33.73058 27.15641
#
# Velocity S-wave (km/s) = 3.25342 4.16491 3.73706
# Velocity P-wave (km/s) = 5.13009 6.46200 5.83418
#
# Compressibility (1/GPa) = 0.04213630
#
# Stress axis : x y z
#
# Youngs Moduli (GPa) = 126.63311 45.68263 50.17083
#
# Poissons Ratio (x) = -0.00266 0.25975
# Poissons Ratio (y) = -0.00739 -0.06661
# Poissons Ratio (z) = 0.65561 -0.06065
#
# Static dielectric constant tensor:
#      x y z
#    x 1.695440 0.000000 0.000000 
#    y 0.000000 1.767600 0.000000 
#    z 0.000000 0.000000 1.666430 
# 
# From -- ./inp_files/11728.got.cif
#   From: 2010.05.17/outbox.cif.g08.bks.cpg/sg47_6_cif.got.tgz:11728.got - 2010.06.03 20:15:42.
