data_PCOD9381230
_publ_section_title
;
Structure prediction by ZEFSAII (Michael W. Deem and Ramdas Pophale) SiO2 
 PCOD9381230
Probable space group: P M M M
;
_chemical_formula_sum "Si O2"
_cell_formula_units_Z 60
_cell_length_a 23.321588
_cell_length_b 8.308937
_cell_length_c 18.487371
_cell_angle_alpha 90.000000
_cell_angle_beta 90.000000
_cell_angle_gamma 90.000000
_cell_volume 3582.438483
_symmetry_space_group_name_H-M "P M M M"
_symmetry_group_IT_number 47
_symmetry_cell_setting 'orthorhombic'
loop_
_space_group_symop_operation_xyz
x,y,z
-x,-y,z
x,-y,-z
-x,y,-z
-x,-y,-z
x,y,-z
-x,y,z
x,-y,z
loop_
_atom_site_type_symbol
_atom_site_label
_atom_site_fract_x
_atom_site_fract_y
_atom_site_fract_z
Si Si1 0.372206 0.176414 0.415436
Si Si2 0.432656 0.500000 0.412095
Si Si3 0.061864 0.688001 0.119938
Si Si4 0.186523 0.806823 0.920988
Si Si5 0.747514 0.687449 0.620088
Si Si6 0.910879 0.181762 0.270123
Si Si7 0.775828 0.814327 0.230384
Si Si8 0.121746 0.693986 0.419470
O O1 0.388310 0.169809 0.500000
O O2 0.403116 0.335469 0.384790
O O3 0.304274 0.209268 0.410837
O O4 0.385594 0.000000 0.383623
O O5 0.500000 0.500000 0.396493
O O6 0.425745 0.500000 0.500000
O O7 0.065298 0.500000 0.101920
O O8 0.119104 0.770221 0.090388
O O9 0.063514 0.709414 0.207016
O O10 0.000000 0.751213 0.094336
O O11 0.222061 0.747843 0.851304
O O12 0.192373 0.000000 0.919507
O O13 0.204024 0.746100 0.000000
O O14 0.739346 0.500000 0.600970
O O15 0.746840 0.711679 0.706839
O O16 0.810849 0.736704 0.592595
O O17 0.842913 0.180708 0.252569
O O18 0.914653 0.238305 0.352701
O O19 0.932121 0.000000 0.261644
O O20 0.754895 0.000000 0.232146
O O21 0.104245 0.745538 0.500000
O O22 0.119217 0.500000 0.415711
#
# Coordination Sequence:
#
# PCOD9381230 Si02
#       8
#     8   4   8   8   8   8   8   8
#     4  10  19  29  43  63  87 117 154 197 240 274
#     4   9  18  32  46  60  84 118 157 201 240 275
#     4  10  20  32  46  63  81 102 130 166 208 250
#     4   9  18  32  48  65  86 111 138 168 201 243
#     4  10  17  26  41  61  87 114 143 179 217 257
#     4   9  17  29  44  60  79 103 132 166 202 247
#     4   8  15  27  41  59  82 108 138 167 201 250
#     4   9  17  27  41  61  85 112 136 163 205 256
#
# _framework density 16.748369
#
# number of rings (size 3 to 8) (size 9 to 14) (size 15 to 20)
#    0.000    2.733    0.667    2.400    0.000    6.400 
#    0.000    2.667    0.000    0.400    0.000    2.800 
#    0.000    0.000    0.000    0.000    0.000    1.333 
#
# Total GULP energy -334222.535801 kJ/mol
# GULP energy per Si atom -5570.375597 kJ/mol
# Density = 1.671025 g / cm^3
# Si number density = 16.748369 Si / 1000 Ang^3
#
#
#
# Elastic Constant Matrix: (Units=GPa)
#
#
# Indices 1 2 3 4 5 6 
#
# 1 16.1111 12.1788 -13.9991 0.0000 0.0000 0.0000
# 2 12.1788 50.9367 -0.0467 0.0000 0.0000 0.0000
# 3 -13.9991 -0.0467 85.2765 0.0000 0.0000 0.0000
# 4 0.0000 0.0000 0.0000 13.3961 0.0000 0.0000
# 5 0.0000 0.0000 0.0000 0.0000 -6.0872 0.0000
# 6 0.0000 0.0000 0.0000 0.0000 0.0000 14.8607
#
#
#
# Elastic Compliance Matrix: (Units=1/GPa)
#
#
# Indices 1 2 3 4 5 6 
#
# 1 0.091704 -0.021912 0.015042 0.000000 0.000000 0.000000
# 2 -0.021912 0.024868 -0.003584 0.000000 0.000000 0.000000
# 3 0.015042 -0.003584 0.014194 0.000000 0.000000 0.000000
# 4 0.000000 0.000000 0.000000 0.074649 0.000000 0.000000
# 5 0.000000 0.000000 0.000000 0.000000 -0.164280 0.000000
# 6 0.000000 0.000000 0.000000 0.000000 0.000000 0.067292
#
#
# Mechanical properties :
#
#
# Convention : Reuss Voigt Hill
#
# Bulk Modulus (GPa) = 9.10260 16.51002 12.80631
# Shear Modulus (GPa) = 30.12901 14.71334 22.42117
#
# Velocity S-wave (km/s) = 4.24597 2.96716 3.66281
# Velocity P-wave (km/s) = 5.42996 4.64949 5.05481
#
# Compressibility (1/GPa) = 0.10985870
#
# Stress axis : x y z
#
# Youngs Moduli (GPa) = 10.90467 40.21219 70.45245
#
# Poissons Ratio (x) = 0.88114 -1.05976
# Poissons Ratio (y) = 0.23895 0.25247
# Poissons Ratio (z) = -0.16403 0.14410
#
# Static dielectric constant tensor:
#      x y z
#    x 1.552200 0.000000 0.000000 
#    y 0.000000 1.597100 0.000000 
#    z 0.000000 0.000000 1.614420 
# 
# From -- ./inp_files/28889.got.cif
#   From: 2010.05.17/outbox.cif.g08.bks.cpg/sg47_15_cif.got.tgz:28889.got - 2010.06.03 20:15:42.
