data_PCOD9381510
_publ_section_title
;
Structure prediction by ZEFSAII (Michael W. Deem and Ramdas Pophale) SiO2 
 PCOD9381510
Probable space group: P M M M
;
_chemical_formula_sum "Si O2"
_cell_formula_units_Z 64
_cell_length_a 22.554652
_cell_length_b 7.641144
_cell_length_c 19.449352
_cell_angle_alpha 90.000000
_cell_angle_beta 90.000000
_cell_angle_gamma 90.000000
_cell_volume 3351.966358
_symmetry_space_group_name_H-M "P M M M"
_symmetry_group_IT_number 47
_symmetry_cell_setting 'orthorhombic'
loop_
_space_group_symop_operation_xyz
x,y,z
-x,-y,z
x,-y,-z
-x,y,-z
-x,-y,-z
x,y,-z
-x,y,z
x,-y,z
loop_
_atom_site_type_symbol
_atom_site_label
_atom_site_fract_x
_atom_site_fract_y
_atom_site_fract_z
Si Si1 0.810024 0.214586 0.424757
Si Si2 0.910515 0.700431 0.924289
Si Si3 0.673320 0.210414 0.174395
Si Si4 0.106623 0.290955 0.776060
Si Si5 0.935946 0.793973 0.374750
Si Si6 0.236513 0.211062 0.719855
Si Si7 0.223449 0.796766 0.922611
Si Si8 0.567420 0.709499 0.076556
O O1 0.788836 0.268496 0.500000
O O2 0.877730 0.275167 0.412497
O O3 0.774506 0.274337 0.357564
O O4 0.810155 0.000000 0.423314
O O5 0.931735 0.500000 0.924843
O O6 0.921358 0.777779 0.848053
O O7 0.838863 0.700124 0.922681
O O8 0.926773 0.777917 0.000000
O O9 0.701274 0.269865 0.246916
O O10 0.724693 0.276021 0.123403
O O11 0.611028 0.252868 0.139708
O O12 0.675392 0.000000 0.174818
O O13 0.099619 0.500000 0.777667
O O14 0.075991 0.222364 0.706989
O O15 0.177337 0.255167 0.764795
O O16 0.000000 0.716790 0.391764
O O17 0.937972 0.000000 0.391142
O O18 0.237088 0.000000 0.717886
O O19 0.210769 0.000000 0.903373
O O20 0.246145 0.797477 0.000000
O O21 0.500000 0.773598 0.087345
O O22 0.564882 0.500000 0.072281
O O23 0.587456 0.772766 0.000000
#
# Coordination Sequence:
#
# PCOD9381510 Si02
#       8
#     8   8   8   8   8   8   8   8
#     4   8  14  26  46  70  93 116 142 172 207 253
#     4   9  17  27  38  55  79 105 135 171 211 254
#     4  10  18  27  42  63  88 116 148 186 223 262
#     4  10  18  28  44  63  85 112 142 179 220 262
#     4   9  18  31  47  66  87 113 144 178 216 257
#     4   9  17  29  44  64  91 118 143 174 215 262
#     4   9  16  24  35  54  80 108 136 167 207 253
#     4   9  19  34  47  60  84 121 162 199 232 263
#
# _framework density 19.093271000000001
#
# number of rings (size 3 to 8) (size 9 to 14) (size 15 to 20)
#    0.000    2.875    1.250    1.875    0.000    3.000 
#    0.000    3.125    0.000    6.375    0.000    6.125 
#    0.000    0.500    0.000    6.250    0.000    1.000 
#
# Total GULP energy -356409.691397 kJ/mol
# GULP energy per Si atom -5568.901428 kJ/mol
# Density = 1.904981 g / cm^3
# Si number density = 19.093271 Si / 1000 Ang^3
#
#
#
# Elastic Constant Matrix: (Units=GPa)
#
#
# Indices 1 2 3 4 5 6 
#
# 1 94.8966 5.5938 42.4142 0.0000 0.0000 0.0000
# 2 5.5938 40.7979 4.2545 0.0000 0.0000 0.0000
# 3 42.4142 4.2545 127.1906 0.0000 0.0000 0.0000
# 4 0.0000 0.0000 0.0000 200.7639 0.0000 0.0000
# 5 0.0000 0.0000 0.0000 0.0000 186.7146 0.0000
# 6 0.0000 0.0000 0.0000 0.0000 0.0000 -12.2405
#
#
#
# Elastic Compliance Matrix: (Units=1/GPa)
#
#
# Indices 1 2 3 4 5 6 
#
# 1 0.012450 -0.001278 -0.004109 0.000000 0.000000 0.000000
# 2 -0.001278 0.024728 -0.000401 0.000000 0.000000 0.000000
# 3 -0.004109 -0.000401 0.009246 0.000000 0.000000 0.000000
# 4 0.000000 0.000000 0.000000 0.004981 0.000000 0.000000
# 5 0.000000 0.000000 0.000000 0.000000 0.005356 0.000000
# 6 0.000000 0.000000 0.000000 0.000000 0.000000 -0.081696
#
#
# Mechanical properties :
#
#
# Convention : Reuss Voigt Hill
#
# Bulk Modulus (GPa) = 28.69661 40.82334 34.75998
# Shear Modulus (GPa) = -2866.77204 89.08912 -1388.84146
#
# Velocity S-wave (km/s) = -38.79067 6.83822 -26.99958
# Velocity P-wave (km/s) = 44.62316 9.15291 30.88244
#
# Compressibility (1/GPa) = 0.03484732
#
# Stress axis : x y z
#
# Youngs Moduli (GPa) = 80.32397 40.43976 108.15744
#
# Poissons Ratio (x) = 0.05170 0.44440
# Poissons Ratio (y) = 0.10269 0.04335
# Poissons Ratio (z) = 0.33003 0.01621
#
# Static dielectric constant tensor:
#      x y z
#    x 1.669000 0.000000 0.000000 
#    y 0.000000 1.720900 0.000000 
#    z 0.000000 0.000000 1.730020 
# 
# From -- ./inp_files/31494.got.cif
#   From: 2010.05.17/outbox.cif.g08.bks.cpg/sg47_16_cif.got.tgz:31494.got - 2010.06.03 20:15:42.
