data_PCOD9381537
_publ_section_title
;
Structure prediction by ZEFSAII (Michael W. Deem and Ramdas Pophale) SiO2 
 PCOD9381537
Probable space group: P M M M
;
_chemical_formula_sum "Si O2"
_cell_formula_units_Z 64
_cell_length_a 15.144397
_cell_length_b 7.671109
_cell_length_c 29.885936
_cell_angle_alpha 90.000000
_cell_angle_beta 90.000000
_cell_angle_gamma 90.000000
_cell_volume 3471.978296
_symmetry_space_group_name_H-M "P M M M"
_symmetry_group_IT_number 47
_symmetry_cell_setting 'orthorhombic'
loop_
_space_group_symop_operation_xyz
x,y,z
-x,-y,z
x,-y,-z
-x,y,-z
-x,-y,-z
x,y,-z
-x,y,z
x,-y,z
loop_
_atom_site_type_symbol
_atom_site_label
_atom_site_fract_x
_atom_site_fract_y
_atom_site_fract_z
Si Si1 0.100112 0.209131 0.367445
Si Si2 0.100320 0.790475 0.732658
Si Si3 0.600515 0.287811 0.690789
Si Si4 0.598892 0.286911 0.411752
Si Si5 0.719221 0.708975 0.771888
Si Si6 0.778511 0.290850 0.451617
Si Si7 0.601314 0.292492 0.853568
Si Si8 0.397026 0.790175 0.048122
O O1 0.126043 0.272604 0.317642
O O2 0.162584 0.252822 0.408509
O O3 0.000000 0.270960 0.375875
O O4 0.097766 0.000000 0.364842
O O5 0.177164 0.744411 0.767075
O O6 0.000000 0.729242 0.742056
O O7 0.096693 0.000000 0.731149
O O8 0.500000 0.238688 0.702980
O O9 0.603154 0.500000 0.690535
O O10 0.616887 0.233106 0.639701
O O11 0.669641 0.224013 0.727314
O O12 0.500000 0.230836 0.424155
O O13 0.598306 0.500000 0.412280
O O14 0.679134 0.227109 0.442235
O O15 0.709670 0.500000 0.771914
O O16 0.666811 0.775904 0.815343
O O17 0.811308 0.226285 0.500000
O O18 0.774532 0.500000 0.453990
O O19 0.500000 0.222384 0.850601
O O20 0.594198 0.500000 0.847160
O O21 0.638080 0.265051 0.903687
O O22 0.500000 0.734036 0.048469
O O23 0.395881 0.000000 0.047751
O O24 0.359138 0.730771 0.000000
#
# Coordination Sequence:
#
# PCOD9381537 Si02
#       8
#     8   8   8   8   8   8   8   8
#     4   9  19  36  54  68  84 110 142 173 210 262
#     4   9  19  35  51  66  85 110 142 180 220 261
#     4   8  13  22  38  60  85 113 143 172 203 243
#     4   8  14  25  41  61  85 113 143 172 203 242
#     4  10  18  27  43  67  93 119 146 177 215 260
#     4  10  20  31  45  69  95 113 135 173 216 253
#     4   9  17  27  39  61  95 129 157 186 222 264
#     4   8  14  25  40  57  80 116 163 207 237 260
#
# _framework density 18.433294
#
# number of rings (size 3 to 8) (size 9 to 14) (size 15 to 20)
#    0.000    3.125    0.000    3.000    0.000    5.000 
#    0.000    5.000    0.000    1.500    0.000    6.125 
#    0.000    0.500    0.000    5.500    0.000    4.250 
#
# Total GULP energy -356596.246927 kJ/mol
# GULP energy per Si atom -5571.816358 kJ/mol
# Density = 1.839134 g / cm^3
# Si number density = 18.433294 Si / 1000 Ang^3
#
#
#
# Elastic Constant Matrix: (Units=GPa)
#
#
# Indices 1 2 3 4 5 6 
#
# 1 83.2070 2.9864 69.2956 0.0000 0.0000 0.0000
# 2 2.9864 30.5279 6.0468 0.0000 0.0000 0.0000
# 3 69.2956 6.0468 98.6178 0.0000 0.0000 0.0000
# 4 0.0000 0.0000 0.0000 7.3261 0.0000 0.0000
# 5 0.0000 0.0000 0.0000 0.0000 17.4219 0.0000
# 6 0.0000 0.0000 0.0000 0.0000 0.0000 22.9158
#
#
#
# Elastic Compliance Matrix: (Units=1/GPa)
#
#
# Indices 1 2 3 4 5 6 
#
# 1 0.029017 0.001215 -0.020464 0.000000 0.000000 0.000000
# 2 0.001215 0.033211 -0.002890 0.000000 0.000000 0.000000
# 3 -0.020464 -0.002890 0.024697 0.000000 0.000000 0.000000
# 4 0.000000 0.000000 0.000000 0.136498 0.000000 0.000000
# 5 0.000000 0.000000 0.000000 0.000000 0.057399 0.000000
# 6 0.000000 0.000000 0.000000 0.000000 0.000000 0.043638
#
#
# Mechanical properties :
#
#
# Convention : Reuss Voigt Hill
#
# Bulk Modulus (GPa) = 23.44870 41.00114 32.22492
# Shear Modulus (GPa) = 13.05643 18.46770 15.76206
#
# Velocity S-wave (km/s) = 2.66429 3.16866 2.92736
# Velocity P-wave (km/s) = 4.71307 5.97315 5.38013
#
# Compressibility (1/GPa) = 0.04264629
#
# Stress axis : x y z
#
# Youngs Moduli (GPa) = 34.46227 30.11095 40.49115
#
# Poissons Ratio (x) = -0.03658 0.82861
# Poissons Ratio (y) = -0.04186 0.11702
# Poissons Ratio (z) = 0.70524 0.08702
#
# Static dielectric constant tensor:
#      x y z
#    x 1.634290 0.000000 0.000000 
#    y 0.000000 1.700070 0.000000 
#    z 0.000000 0.000000 1.665070 
# 
# From -- ./inp_files/34702.got.cif
#   From: 2010.05.17/outbox.cif.g08.bks.cpg/sg47_18_cif.got.tgz:34702.got - 2010.06.03 20:15:42.
