data_PCOD9381062
_publ_section_title
;
Structure prediction by ZEFSAII (Michael W. Deem and Ramdas Pophale) SiO2 
 PCOD9381062
Probable space group: I M A 2
;
_chemical_formula_sum "Si O2"
_cell_formula_units_Z 48
_cell_length_a 17.189729
_cell_length_b 7.159422
_cell_length_c 15.594084
_cell_angle_alpha 90.000000
_cell_angle_beta 90.000000
_cell_angle_gamma 90.000000
_cell_volume 1919.140901
_symmetry_space_group_name_H-M "I M A 2"
_symmetry_group_IT_number 46
_symmetry_cell_setting 'orthorhombic'
loop_
_space_group_symop_operation_xyz
x,y,z
-x,-y,z
1/2-x,y,z
1/2+x,-y,z
1/2+x,1/2+y,1/2+z
1/2-x,1/2-y,1/2+z
-x,1/2+y,1/2+z
x,1/2-y,1/2+z
loop_
_atom_site_type_symbol
_atom_site_label
_atom_site_fract_x
_atom_site_fract_y
_atom_site_fract_z
Si Si1 0.084486 0.280819 0.719140
Si Si2 0.750000 0.728720 0.924718
Si Si3 0.415852 0.718189 0.671518
Si Si4 0.250000 0.228715 0.217250
Si Si5 0.584148 0.218187 0.470449
Si Si6 0.415514 0.280816 0.922828
Si Si7 0.750000 0.213709 0.468003
Si Si8 0.750000 0.213713 0.173964
O O1 0.082422 0.496932 0.690267
O O2 0.166196 0.199530 0.683470
O O3 0.090439 0.278964 0.820984
O O4 0.999324 0.202980 0.698730
O O5 0.750000 0.748663 0.820984
O O6 0.666196 0.800476 0.958497
O O7 0.750000 0.507892 0.947640
O O8 0.412086 0.749999 0.570984
O O9 0.332951 0.785282 0.709523
O O10 0.250000 0.007886 0.194329
O O11 0.500677 0.297020 0.443237
O O12 0.667049 0.285276 0.432444
O O13 0.582422 0.996928 0.451703
O O14 0.750000 0.250000 0.570984
#
# Coordination Sequence:
#
# PCOD9381062 Si02
#       8
#     8   4   8   4   8   8   4   4
#     4   9  16  27  41  58  77 100 127 157 188 222
#     4   8  14  24  39  55  74  97 124 155 187 218
#     4   9  15  23  36  55  77 100 124 154 188 223
#     4   8  14  24  39  55  74  97 124 155 187 218
#     4   9  15  23  36  55  77 100 124 154 188 223
#     4   9  16  27  41  58  77 100 127 157 188 222
#     4   8  14  22  32  49  74  99 122 149 188 226
#     4   8  14  22  32  49  74  99 122 149 188 226
#
# _framework density 25.011194
#
# number of rings (size 3 to 8) (size 9 to 14) (size 15 to 20)
#    0.000    3.333    0.000    2.000    0.000    1.333 
#    0.000    0.833    0.000    0.000    0.000   18.667 
#    0.000    5.333    0.000   69.333    0.000    1.333 
#
# Total GULP energy -133728.961516 kJ/mol
# GULP energy per Si atom -5572.040063 kJ/mol
# Density = 2.495427 g / cm^3
# Si number density = 25.011194 Si / 1000 Ang^3
#
#
#
# Elastic Constant Matrix: (Units=GPa)
#
#
# Indices 1 2 3 4 5 6 
#
# 1 392.1577 20.5783 25.1358 0.0000 0.0000 0.0000
# 2 20.5783 109.2988 -17.8286 0.0000 0.0000 0.0000
# 3 25.1358 -17.8286 53.5053 0.0000 0.0000 0.0000
# 4 0.0000 0.0000 0.0000 6.9440 0.0000 0.0000
# 5 0.0000 0.0000 0.0000 0.0000-1686.9011 0.0000
# 6 0.0000 0.0000 0.0000 0.0000 0.0000 -28.9631
#
#
#
# Elastic Compliance Matrix: (Units=1/GPa)
#
#
# Indices 1 2 3 4 5 6 
#
# 1 0.002686 -0.000753 -0.001513 0.000000 0.000000 0.000000
# 2 -0.000753 0.009886 0.003648 0.000000 0.000000 0.000000
# 3 -0.001513 0.003648 0.020616 0.000000 0.000000 0.000000
# 4 0.000000 0.000000 0.000000 0.144010 0.000000 0.000000
# 5 0.000000 0.000000 0.000000 0.000000 -0.000593 0.000000
# 6 0.000000 0.000000 0.000000 0.000000 0.000000 -0.034527
#
#
# Mechanical properties :
#
#
# Convention : Reuss Voigt Hill
#
# Bulk Modulus (GPa) = 27.81427 67.85920 47.83673
# Shear Modulus (GPa) = 33.04724 -306.64564 -136.79920
#
# Velocity S-wave (km/s) = 3.63891 -11.08465 -7.40364
# Velocity P-wave (km/s) = 5.36660 11.68912 7.34286
#
# Compressibility (1/GPa) = 0.03595277
#
# Stress axis : x y z
#
# Youngs Moduli (GPa) = 372.23849 101.15399 48.50634
#
# Poissons Ratio (x) = 0.07612 0.07338
# Poissons Ratio (y) = 0.28013 -0.17693
# Poissons Ratio (z) = 0.56312 -0.36897
#
# Static dielectric constant tensor:
#      x y z
#    x 2.203680 0.000000 0.000000 
#    y 0.000000 1.944950 0.000000 
#    z 0.000000 0.000000 1.939400 
# 
# From -- ./inp_files/16606.got.cif
#   From: 2010.05.17/outbox.cif.g08.bks.cpg/sg46_9_cif.got.tgz:16606.got - 2010.06.03 19:58:25.
