data_PCOD9381736
_publ_section_title
;
Structure prediction by ZEFSAII (Michael W. Deem and Ramdas Pophale) SiO2 
 PCOD9381736
Probable space group: P M M M
;
_chemical_formula_sum "Si O2"
_cell_formula_units_Z 52
_cell_length_a 14.453005
_cell_length_b 18.259435
_cell_length_c 12.830827
_cell_angle_alpha 90.000000
_cell_angle_beta 90.000000
_cell_angle_gamma 90.000000
_cell_volume 3386.102788
_symmetry_space_group_name_H-M "P M M M"
_symmetry_group_IT_number 47
_symmetry_cell_setting 'orthorhombic'
loop_
_space_group_symop_operation_xyz
x,y,z
-x,-y,z
x,-y,-z
-x,y,-z
-x,-y,-z
x,y,-z
-x,y,z
x,-y,z
loop_
_atom_site_type_symbol
_atom_site_label
_atom_site_fract_x
_atom_site_fract_y
_atom_site_fract_z
Si Si1 0.393527 0.150479 0.719760
Si Si2 0.611991 0.918566 0.500000
Si Si3 0.210451 0.088326 0.787896
Si Si4 0.196161 0.649897 0.624700
Si Si5 0.891406 0.500000 0.373949
Si Si6 0.888579 0.807069 0.375928
Si Si7 0.601853 0.306366 0.377398
Si Si8 0.895240 0.911480 0.000000
O O1 0.500000 0.128185 0.742094
O O2 0.363783 0.119906 0.606611
O O3 0.315471 0.118474 0.794007
O O4 0.393249 0.237156 0.699549
O O5 0.500000 0.921025 0.500000
O O6 0.649992 0.000000 0.500000
O O7 0.158259 0.129921 0.693570
O O8 0.210416 0.000000 0.774147
O O9 0.157710 0.108041 0.894415
O O10 0.179883 0.650101 0.500000
O O11 0.150862 0.575925 0.667042
O O12 0.153643 0.728071 0.658431
O O13 0.306364 0.647656 0.641125
O O14 0.876726 0.500000 0.500000
O O15 0.000000 0.500000 0.355732
O O16 0.868542 0.816801 0.500000
O O17 0.000000 0.806672 0.363846
O O18 0.606385 0.281447 0.500000
O O19 0.500000 0.340941 0.365474
O O20 0.000000 0.882982 0.000000
O O21 0.899730 0.000000 0.000000
#
# Coordination Sequence:
#
# PCOD9381736 Si02
#       8
#     8   4   8   8   4   8   8   4
#     4  10  18  29  44  66  95 125 156 190 233 285
#     4   9  16  24  36  58  91 126 155 184 221 276
#     4  11  22  34  51  70  90 122 164 202 240 284
#     4   9  16  27  42  62  89 122 157 191 229 278
#     4   9  16  26  41  59  83 122 165 196 226 273
#     4  10  20  32  46  68  97 123 151 197 252 293
#     4   9  15  25  41  60  88 126 159 185 223 279
#     4   9  20  40  57  65  81 118 167 208 240 283
#
# _framework density 15.356889000000001
#
# number of rings (size 3 to 8) (size 9 to 14) (size 15 to 20)
#    0.000    2.385    2.308    1.385    1.077    4.000 
#    0.000    1.538    0.000    3.692    0.000    0.000 
#    0.000    0.615    0.000    3.077    0.000    5.769 
#
# Total GULP energy -289476.768670 kJ/mol
# GULP energy per Si atom -5566.860936 kJ/mol
# Density = 1.532194 g / cm^3
# Si number density = 15.356889 Si / 1000 Ang^3
#
#
#
# Elastic Constant Matrix: (Units=GPa)
#
#
# Indices 1 2 3 4 5 6 
#
# 1 106.4176 38.9062 42.1528 0.0000 0.0000 0.0000
# 2 38.9062 68.5735 21.3156 0.0000 0.0000 0.0000
# 3 42.1528 21.3156 47.3452 0.0000 0.0000 0.0000
# 4 0.0000 0.0000 0.0000 1.1323 0.0000 0.0000
# 5 0.0000 0.0000 0.0000 0.0000 17.3838 0.0000
# 6 0.0000 0.0000 0.0000 0.0000 0.0000 20.5419
#
#
#
# Elastic Compliance Matrix: (Units=1/GPa)
#
#
# Indices 1 2 3 4 5 6 
#
# 1 0.016089 -0.005436 -0.011877 0.000000 0.000000 0.000000
# 2 -0.005436 0.018793 -0.003621 0.000000 0.000000 0.000000
# 3 -0.011877 -0.003621 0.033326 0.000000 0.000000 0.000000
# 4 0.000000 0.000000 0.000000 0.883133 0.000000 0.000000
# 5 0.000000 0.000000 0.000000 0.000000 0.057525 0.000000
# 6 0.000000 0.000000 0.000000 0.000000 0.000000 0.048681
#
#
# Mechanical properties :
#
#
# Convention : Reuss Voigt Hill
#
# Bulk Modulus (GPa) = 37.96548 47.45394 42.70971
# Shear Modulus (GPa) = 4.51185 15.80906 10.16045
#
# Velocity S-wave (km/s) = 1.71592 3.21198 2.57499
# Velocity P-wave (km/s) = 5.35739 6.68757 6.05909
#
# Compressibility (1/GPa) = 0.02633972
#
# Stress axis : x y z
#
# Youngs Moduli (GPa) = 62.15408 53.21190 30.00671
#
# Poissons Ratio (x) = 0.28929 0.35639
# Poissons Ratio (y) = 0.33790 0.10864
# Poissons Ratio (z) = 0.73820 0.19266
#
# Static dielectric constant tensor:
#      x y z
#    x 1.548150 0.000000 0.000000 
#    y 0.000000 1.523690 0.000000 
#    z 0.000000 0.000000 1.475500 
# 
# From -- ./inp_files/17840.got.cif
#   From: 2010.05.17/outbox.cif.g08.bks.cpg/sg47_9_cif.got.tgz:17840.got - 2010.06.03 20:15:42.
