data_PCOD9381934
_publ_section_title
;
Structure prediction by ZEFSAII (Michael W. Deem and Ramdas Pophale) SiO2 
 PCOD9381934
Probable space group: P M M M
;
_chemical_formula_sum "Si O2"
_cell_formula_units_Z 52
_cell_length_a 16.527486
_cell_length_b 21.052451
_cell_length_c 8.086529
_cell_angle_alpha 90.000000
_cell_angle_beta 90.000000
_cell_angle_gamma 90.000000
_cell_volume 2813.659967
_symmetry_space_group_name_H-M "P M M M"
_symmetry_group_IT_number 47
_symmetry_cell_setting 'orthorhombic'
loop_
_space_group_symop_operation_xyz
x,y,z
-x,-y,z
x,-y,-z
-x,y,-z
-x,-y,-z
x,y,-z
-x,y,z
x,-y,z
loop_
_atom_site_type_symbol
_atom_site_label
_atom_site_fract_x
_atom_site_fract_y
_atom_site_fract_z
Si Si1 0.796603 0.814224 0.695987
Si Si2 0.904866 0.070121 0.199018
Si Si3 0.228481 0.329228 0.301297
Si Si4 0.500000 0.929367 0.798142
Si Si5 0.378535 0.175293 0.192048
Si Si6 0.410432 0.314963 0.694125
Si Si7 0.909320 0.573088 0.800625
O O1 0.781008 0.813105 0.500000
O O2 0.863612 0.866858 0.731209
O O3 0.806637 0.740306 0.748213
O O4 0.715943 0.835154 0.788781
O O5 0.000000 0.071824 0.238029
O O6 0.873699 0.000000 0.254345
O O7 0.896539 0.071903 0.000000
O O8 0.234578 0.329066 0.500000
O O9 0.321926 0.337335 0.237990
O O10 0.164270 0.382491 0.252530
O O11 0.424090 0.886983 0.748565
O O12 0.500000 0.000000 0.732702
O O13 0.500000 0.932936 0.000000
O O14 0.403606 0.238688 0.288114
O O15 0.399294 0.186601 0.000000
O O16 0.411763 0.331725 0.500000
O O17 0.500000 0.333724 0.762934
O O18 0.897824 0.500000 0.745758
O O19 0.000000 0.593710 0.744983
O O20 0.910615 0.572939 0.000000
#
# Coordination Sequence:
#
# PCOD9381934 Si02
#       7
#     8   8   8   4   8   8   8
#     4  10  21  35  50  73 104 134 166 208 259 308
#     4   9  19  36  55  73  94 125 168 214 260 312
#     4   9  19  33  50  78 108 135 172 214 254 302
#     4   9  18  30  43  63  91 121 156 203 254 299
#     4  10  18  30  48  69  92 123 166 209 250 300
#     4   9  17  31  51  72 101 136 166 206 259 307
#     4   9  19  36  56  78 106 140 174 209 255 309
#
# _framework density 18.481265
#
# number of rings (size 3 to 8) (size 9 to 14) (size 15 to 20)
#    0.000    2.692    0.769    2.769    0.000    5.538 
#    0.000    6.154    0.000    3.692    0.000    3.231 
#    0.000    0.000    0.000    0.000    0.000    0.000 
#
# Total GULP energy -289506.759537 kJ/mol
# GULP energy per Si atom -5567.437683 kJ/mol
# Density = 1.843920 g / cm^3
# Si number density = 18.481265 Si / 1000 Ang^3
#
#
#
# Elastic Constant Matrix: (Units=GPa)
#
#
# Indices 1 2 3 4 5 6 
#
# 1 137.4962 85.5556 14.1202 0.0000 0.0000 0.0000
# 2 85.5556 100.2603 8.9699 0.0000 0.0000 0.0000
# 3 14.1202 8.9699 13.5344 0.0000 0.0000 0.0000
# 4 0.0000 0.0000 0.0000 29.4358 0.0000 0.0000
# 5 0.0000 0.0000 0.0000 0.0000 479.5236 0.0000
# 6 0.0000 0.0000 0.0000 0.0000 0.0000 -12.1210
#
#
#
# Elastic Compliance Matrix: (Units=1/GPa)
#
#
# Indices 1 2 3 4 5 6 
#
# 1 0.016339 -0.013200 -0.008298 0.000000 0.000000 0.000000
# 2 -0.013200 0.021267 -0.000323 0.000000 0.000000 0.000000
# 3 -0.008298 -0.000323 0.082757 0.000000 0.000000 0.000000
# 4 0.000000 0.000000 0.000000 0.033972 0.000000 0.000000
# 5 0.000000 0.000000 0.000000 0.000000 0.002085 0.000000
# 6 0.000000 0.000000 0.000000 0.000000 0.000000 -0.082502
#
#
# Mechanical properties :
#
#
# Convention : Reuss Voigt Hill
#
# Bulk Modulus (GPa) = 13.03431 52.06470 32.54950
# Shear Modulus (GPa) = 34.93246 108.87736 71.90491
#
# Velocity S-wave (km/s) = 4.35231 7.68376 6.24431
# Velocity P-wave (km/s) = 5.68549 10.34181 8.34499
#
# Compressibility (1/GPa) = 0.07672062
#
# Stress axis : x y z
#
# Youngs Moduli (GPa) = 61.20492 47.02143 12.08361
#
# Poissons Ratio (x) = 0.62068 0.10026
# Poissons Ratio (y) = 0.80790 0.00391
# Poissons Ratio (z) = 0.50785 0.01520
#
# Static dielectric constant tensor:
#      x y z
#    x 1.672550 0.000000 0.000000 
#    y 0.000000 1.626950 0.000000 
#    z 0.000000 0.000000 1.670670 
# 
# From -- ./inp_files/7063.got.cif
#   From: 2010.05.17/outbox.cif.g08.bks.cpg/sg47_4_cif.got.tgz:7063.got - 2010.06.03 20:15:42.
