data_PCOD9381000
_publ_section_title
;
Structure prediction by ZEFSAII (Michael W. Deem and Ramdas Pophale) SiO2 
 PCOD9381000
Probable space group: I M A 2
;
_chemical_formula_sum "Si O2"
_cell_formula_units_Z 40
_cell_length_a 15.765245
_cell_length_b 14.198883
_cell_length_c 7.972517
_cell_angle_alpha 90.000000
_cell_angle_beta 90.000000
_cell_angle_gamma 90.000000
_cell_volume 1784.638915
_symmetry_space_group_name_H-M "I M A 2"
_symmetry_group_IT_number 46
_symmetry_cell_setting 'orthorhombic'
loop_
_space_group_symop_operation_xyz
x,y,z
-x,-y,z
1/2-x,y,z
1/2+x,-y,z
1/2+x,1/2+y,1/2+z
1/2-x,1/2-y,1/2+z
-x,1/2+y,1/2+z
x,1/2-y,1/2+z
loop_
_atom_site_type_symbol
_atom_site_label
_atom_site_fract_x
_atom_site_fract_y
_atom_site_fract_z
Si Si1 0.350031 0.313241 0.520520
Si Si2 0.250000 0.894741 0.022510
Si Si3 0.600353 0.075899 0.507267
Si Si4 0.750000 0.302211 0.886758
Si Si5 0.913038 0.621177 0.873987
Si Si6 0.094908 0.006317 0.880822
O O1 0.250000 0.322106 0.552599
O O2 0.401132 0.349840 0.681677
O O3 0.371867 0.206747 0.475848
O O4 0.377361 0.384554 0.371968
O O5 0.250000 0.809823 0.889071
O O6 0.166223 0.956206 0.992256
O O7 0.250000 0.845547 0.201884
O O8 0.667682 0.157522 0.480294
O O9 0.510069 0.108421 0.433449
O O10 0.628018 0.980452 0.410958
O O11 0.592692 0.044369 0.700451
O O12 0.000000 0.000000 0.951749
#
# Coordination Sequence:
#
# PCOD9381000 Si02
#       6
#     8   4   8   4   8   8
#     4  12  27  46  76 110 148 193 241 307 365 441
#     4  12  28  50  73 116 139 198 250 298 374 434
#     4  11  26  49  73 108 145 198 241 304 363 438
#     4  12  28  46  81 102 157 188 244 304 356 448
#     4  11  26  46  70 110 147 190 248 290 374 432
#     4  12  26  49  76 104 148 191 245 304 369 429
#
# _framework density 22.413497
#
# number of rings (size 3 to 8) (size 9 to 14) (size 15 to 20)
#    0.000    0.400    3.000    4.800   11.200    0.000 
#    0.000    0.000    0.000    0.000    0.000    0.000 
#    0.000    0.000    0.000    0.000    0.000    0.000 
#
# Total GULP energy -112039.463119 kJ/mol
# GULP energy per Si atom -5601.973156 kJ/mol
# Density = 2.236248 g / cm^3
# Si number density = 22.413497 Si / 1000 Ang^3
#
#
#
# Elastic Constant Matrix: (Units=GPa)
#
#
# Indices 1 2 3 4 5 6 
#
# 1 124.8021 42.2179 42.7669 0.0000 0.0000 0.0000
# 2 42.2179 111.4750 11.4253 0.0000 0.0000 0.0000
# 3 42.7669 11.4253 94.5518 0.0000 0.0000 0.0000
# 4 0.0000 0.0000 0.0000 40.0216 0.0000 0.0000
# 5 0.0000 0.0000 0.0000 0.0000 3.4597 0.0000
# 6 0.0000 0.0000 0.0000 0.0000 0.0000 40.2878
#
#
#
# Elastic Compliance Matrix: (Units=1/GPa)
#
#
# Indices 1 2 3 4 5 6 
#
# 1 0.010754 -0.003619 -0.004427 0.000000 0.000000 0.000000
# 2 -0.003619 0.010301 0.000392 0.000000 0.000000 0.000000
# 3 -0.004427 0.000392 0.012531 0.000000 0.000000 0.000000
# 4 0.000000 0.000000 0.000000 0.024986 0.000000 0.000000
# 5 0.000000 0.000000 0.000000 0.000000 0.289040 0.000000
# 6 0.000000 0.000000 0.000000 0.000000 0.000000 0.024821
#
#
# Mechanical properties :
#
#
# Convention : Reuss Voigt Hill
#
# Bulk Modulus (GPa) = 54.70831 58.18325 56.44578
# Shear Modulus (GPa) = 12.69569 32.38174 22.53872
#
# Velocity S-wave (km/s) = 2.38256 3.80510 3.17454
# Velocity P-wave (km/s) = 5.65954 6.73205 6.21896
#
# Compressibility (1/GPa) = 0.01827876
#
# Stress axis : x y z
#
# Youngs Moduli (GPa) = 92.98967 97.07776 79.80134
#
# Poissons Ratio (x) = 0.35132 0.35326
# Poissons Ratio (y) = 0.33653 -0.03130
# Poissons Ratio (z) = 0.41165 -0.03807
#
# Static dielectric constant tensor:
#      x y z
#    x 1.803710 0.000000 0.000000 
#    y 0.000000 1.795610 0.000000 
#    z 0.000000 0.000000 1.852680 
# 
# From -- ./inp_files/5437.got.cif
#   From: 2010.05.17/outbox.cif.g08.bks.cpg/sg46_3_cif.got.tgz:5437.got - 2010.06.03 19:58:25.
