data_PCOD9381037
_publ_section_title
;
Structure prediction by ZEFSAII (Michael W. Deem and Ramdas Pophale) SiO2 
 PCOD9381037
Probable space group: I M A 2
;
_chemical_formula_sum "Si O2"
_cell_formula_units_Z 32
_cell_length_a 15.501092
_cell_length_b 5.181542
_cell_length_c 17.187272
_cell_angle_alpha 90.000000
_cell_angle_beta 90.000000
_cell_angle_gamma 90.000000
_cell_volume 1380.474112
_symmetry_space_group_name_H-M "I M A 2"
_symmetry_group_IT_number 46
_symmetry_cell_setting 'orthorhombic'
loop_
_space_group_symop_operation_xyz
x,y,z
-x,-y,z
1/2-x,y,z
1/2+x,-y,z
1/2+x,1/2+y,1/2+z
1/2-x,1/2-y,1/2+z
-x,1/2+y,1/2+z
x,1/2-y,1/2+z
loop_
_atom_site_type_symbol
_atom_site_label
_atom_site_fract_x
_atom_site_fract_y
_atom_site_fract_z
Si Si1 0.602796 0.796569 0.904530
Si Si2 0.407924 0.853800 0.679936
Si Si3 0.000000 0.000000 0.288947
Si Si4 0.750000 0.908572 0.775666
Si Si5 0.646072 0.216329 0.502957
O O1 0.524058 0.726075 0.848166
O O2 0.677144 0.842413 0.841859
O O3 0.622361 0.546299 0.957776
O O4 0.602669 0.042856 0.959817
O O5 0.423243 0.600634 0.733788
O O6 0.386903 0.790372 0.591057
O O7 0.500000 0.000000 0.683315
O O8 0.327079 0.007177 0.714392
O O9 0.750000 0.247877 0.501007
#
# Coordination Sequence:
#
# PCOD9381037 Si02
#       5
#     8   8   4   4   8
#     4  12  28  51  84 115 163 212 279 330 413 476
#     4  12  29  53  81 121 169 215 276 335 422 490
#     4  12  30  50  84 120 166 216 276 350 400 496
#     4  12  24  54  84 112 160 214 272 342 398 488
#     4  12  27  52  77 120 163 218 262 340 406 492
#
# _framework density 23.180443
#
# number of rings (size 3 to 8) (size 9 to 14) (size 15 to 20)
#    0.000    0.000    6.250    1.500    5.250    1.000 
#    4.500    0.000    0.000    0.000    0.000    0.000 
#    0.000    0.000    0.000    0.000    0.000    0.000 
#
# Total GULP energy -89105.693004 kJ/mol
# GULP energy per Si atom -5569.105813 kJ/mol
# Density = 2.312768 g / cm^3
# Si number density = 23.180443 Si / 1000 Ang^3
#
#
#
# Elastic Constant Matrix: (Units=GPa)
#
#
# Indices 1 2 3 4 5 6 
#
# 1 114.0557 47.1355 80.4884 0.0000 0.0000 0.0000
# 2 47.1355 159.6325 119.9612 0.0000 0.0000 0.0000
# 3 80.4884 119.9612 262.4021 0.0000 0.0000 0.0000
# 4 0.0000 0.0000 0.0000 -6.0987 0.0000 0.0000
# 5 0.0000 0.0000 0.0000 0.0000 21.6139 0.0000
# 6 0.0000 0.0000 0.0000 0.0000 0.0000 10.3428
#
#
#
# Elastic Compliance Matrix: (Units=1/GPa)
#
#
# Indices 1 2 3 4 5 6 
#
# 1 0.011319 -0.001117 -0.002961 0.000000 0.000000 0.000000
# 2 -0.001117 0.009653 -0.004070 0.000000 0.000000 0.000000
# 3 -0.002961 -0.004070 0.006580 0.000000 0.000000 0.000000
# 4 0.000000 0.000000 0.000000 -0.163969 0.000000 0.000000
# 5 0.000000 0.000000 0.000000 0.000000 0.046266 0.000000
# 6 0.000000 0.000000 0.000000 0.000000 0.000000 0.096686
#
#
# Mechanical properties :
#
#
# Convention : Reuss Voigt Hill
#
# Bulk Modulus (GPa) = 88.84995 114.58450 101.71723
# Shear Modulus (GPa) = 188.08254 24.40529 106.24391
#
# Velocity S-wave (km/s) = 9.01746 3.24827 6.77738
# Velocity P-wave (km/s) = 12.11744 7.97541 10.25767
#
# Compressibility (1/GPa) = 0.01125493
#
# Stress axis : x y z
#
# Youngs Moduli (GPa) = 88.34691 103.59431 151.97103
#
# Poissons Ratio (x) = 0.11569 0.45005
# Poissons Ratio (y) = 0.09866 0.61860
# Poissons Ratio (z) = 0.26163 0.42168
#
# Static dielectric constant tensor:
#      x y z
#    x 2.144680 0.000000 0.000000 
#    y 0.000000 1.982410 0.000000 
#    z 0.000000 0.000000 1.780150 
# 
# From -- ./inp_files/16242.got.cif
#   From: 2010.05.17/outbox.cif.g08.bks.cpg/sg46_9_cif.got.tgz:16242.got - 2010.06.03 19:58:25.
