data_PCOD9381578
_publ_section_title
;
Structure prediction by ZEFSAII (Michael W. Deem and Ramdas Pophale) SiO2 
 PCOD9381578
Probable space group: P M M M
;
_chemical_formula_sum "Si O2"
_cell_formula_units_Z 64
_cell_length_a 8.976630
_cell_length_b 18.814499
_cell_length_c 27.287085
_cell_angle_alpha 90.000000
_cell_angle_beta 90.000000
_cell_angle_gamma 90.000000
_cell_volume 4608.537510
_symmetry_space_group_name_H-M "P M M M"
_symmetry_group_IT_number 47
_symmetry_cell_setting 'orthorhombic'
loop_
_space_group_symop_operation_xyz
x,y,z
-x,-y,z
x,-y,-z
-x,y,-z
-x,-y,-z
x,y,-z
-x,y,z
x,-y,z
loop_
_atom_site_type_symbol
_atom_site_label
_atom_site_fract_x
_atom_site_fract_y
_atom_site_fract_z
Si Si1 0.821591 0.330262 0.643212
Si Si2 0.822071 0.916613 0.246199
Si Si3 0.672180 0.203854 0.695594
Si Si4 0.681303 0.160440 0.847214
Si Si5 0.328659 0.297856 0.204479
Si Si6 0.318845 0.082205 0.054851
Si Si7 0.678855 0.417743 0.557202
Si Si8 0.178874 0.419075 0.740161
O O1 0.752391 0.253603 0.655951
O O2 0.759624 0.364681 0.593839
O O3 0.778308 0.382874 0.688321
O O4 0.000000 0.325505 0.642240
O O5 0.755037 0.868456 0.289700
O O6 0.749541 0.888106 0.195723
O O7 0.000000 0.906497 0.243948
O O8 0.790157 0.000000 0.252264
O O9 0.500000 0.191247 0.682991
O O10 0.675067 0.250383 0.745829
O O11 0.500000 0.157224 0.843229
O O12 0.725105 0.242156 0.836471
O O13 0.728099 0.131119 0.900050
O O14 0.500000 0.316782 0.194664
O O15 0.237607 0.368065 0.216957
O O16 0.500000 0.083078 0.054648
O O17 0.274542 0.000000 0.063189
O O18 0.269979 0.103190 0.000000
O O19 0.713891 0.404817 0.500000
O O20 0.500000 0.411672 0.562807
O O21 0.719343 0.500000 0.568307
O O22 0.233309 0.500000 0.743175
O O23 0.000000 0.419731 0.741624
#
# Coordination Sequence:
#
# PCOD9381578 Si02
#       8
#     8   8   8   8   8   8   8   8
#     4  10  18  28  43  61  82 107 135 168 206 246
#     4  10  19  28  39  58  83 108 135 167 201 236
#     4   9  17  29  43  58  78 105 136 166 197 238
#     4   9  16  26  40  56  76 104 136 165 195 236
#     4   8  15  25  36  53  74  97 126 158 191 228
#     4   8  13  21  35  56  78  99 128 166 200 228
#     4   9  18  31  44  59  82 112 145 179 210 239
#     4   9  17  27  38  54  76 101 128 157 191 233
#
# _framework density 13.887269
#
# number of rings (size 3 to 8) (size 9 to 14) (size 15 to 20)
#    0.000    3.000    0.000    3.375    0.000    6.250 
#    0.000    0.625    0.000    0.375    0.000    1.750 
#    0.000    1.000    0.000   11.500    0.000    3.250 
#
# Total GULP energy -356320.230572 kJ/mol
# GULP energy per Si atom -5567.503603 kJ/mol
# Density = 1.385566 g / cm^3
# Si number density = 13.887269 Si / 1000 Ang^3
#
#
#
# Elastic Constant Matrix: (Units=GPa)
#
#
# Indices 1 2 3 4 5 6 
#
# 1 32.3842 39.8733 28.0263 0.0000 0.0000 0.0000
# 2 39.8733 102.7948 53.9178 0.0000 0.0000 0.0000
# 3 28.0263 53.9178 82.1867 0.0000 0.0000 0.0000
# 4 0.0000 0.0000 0.0000 27.4291 0.0000 0.0000
# 5 0.0000 0.0000 0.0000 0.0000 10.1115 0.0000
# 6 0.0000 0.0000 0.0000 0.0000 0.0000 22.5153
#
#
#
# Elastic Compliance Matrix: (Units=1/GPa)
#
#
# Indices 1 2 3 4 5 6 
#
# 1 0.062581 -0.019944 -0.008257 0.000000 0.000000 0.000000
# 2 -0.019944 0.021188 -0.007099 0.000000 0.000000 0.000000
# 3 -0.008257 -0.007099 0.019640 0.000000 0.000000 0.000000
# 4 0.000000 0.000000 0.000000 0.036458 0.000000 0.000000
# 5 0.000000 0.000000 0.000000 0.000000 0.098898 0.000000
# 6 0.000000 0.000000 0.000000 0.000000 0.000000 0.044414
#
#
# Mechanical properties :
#
#
# Convention : Reuss Voigt Hill
#
# Bulk Modulus (GPa) = 30.47860 51.22226 40.85043
# Shear Modulus (GPa) = 13.70938 18.38107 16.04523
#
# Velocity S-wave (km/s) = 3.14537 3.64207 3.40279
# Velocity P-wave (km/s) = 5.93177 7.39260 6.70211
#
# Compressibility (1/GPa) = 0.03280991
#
# Stress axis : x y z
#
# Youngs Moduli (GPa) = 15.97934 47.19709 50.91606
#
# Poissons Ratio (x) = 0.94129 0.42039
# Poissons Ratio (y) = 0.31869 0.36145
# Poissons Ratio (z) = 0.13193 0.33505
#
# Static dielectric constant tensor:
#      x y z
#    x 1.467030 0.000000 0.000000 
#    y 0.000000 1.455200 0.000000 
#    z 0.000000 0.000000 1.446260 
# 
# From -- ./inp_files/10239.got.cif
#   From: 2010.05.17/outbox.cif.g08.bks.cpg/sg47_6_cif.got.tgz:10239.got - 2010.06.03 20:15:42.
