data_PCOD9381341
_publ_section_title
;
Structure prediction by ZEFSAII (Michael W. Deem and Ramdas Pophale) SiO2 
 PCOD9381341
Probable space group: P M M M
;
_chemical_formula_sum "Si O2"
_cell_formula_units_Z 64
_cell_length_a 14.883355
_cell_length_b 32.461095
_cell_length_c 7.564017
_cell_angle_alpha 90.000000
_cell_angle_beta 90.000000
_cell_angle_gamma 90.000000
_cell_volume 3654.403538
_symmetry_space_group_name_H-M "P M M M"
_symmetry_group_IT_number 47
_symmetry_cell_setting 'orthorhombic'
loop_
_space_group_symop_operation_xyz
x,y,z
-x,-y,z
x,-y,-z
-x,y,-z
-x,-y,-z
x,y,-z
-x,y,z
x,-y,z
loop_
_atom_site_type_symbol
_atom_site_label
_atom_site_fract_x
_atom_site_fract_y
_atom_site_fract_z
Si Si1 0.099638 0.743556 0.707045
Si Si2 0.100211 0.838495 0.789308
Si Si3 0.397065 0.633866 0.787116
Si Si4 0.713413 0.875484 0.711002
Si Si5 0.391523 0.544319 0.789169
Si Si6 0.712599 0.715553 0.288406
Si Si7 0.603493 0.046544 0.284225
Si Si8 0.603653 0.204492 0.283518
O O1 0.093836 0.732796 0.500000
O O2 0.118678 0.792573 0.717362
O O3 0.186087 0.720335 0.782810
O O4 0.000000 0.736749 0.784966
O O5 0.181438 0.868554 0.743547
O O6 0.000000 0.850828 0.728218
O O7 0.097917 0.834678 0.000000
O O8 0.500000 0.640733 0.724287
O O9 0.362699 0.589161 0.720893
O O10 0.334521 0.672190 0.744372
O O11 0.401623 0.630894 0.000000
O O12 0.700743 0.875844 0.500000
O O13 0.669849 0.917715 0.778663
O O14 0.659481 0.835338 0.776953
O O15 0.500000 0.544786 0.770134
O O16 0.359597 0.500000 0.716778
O O17 0.373202 0.543594 0.000000
O O18 0.718376 0.720840 0.500000
O O19 0.651500 0.753502 0.223512
O O20 0.605390 0.046233 0.500000
O O21 0.500000 0.055515 0.234352
O O22 0.625700 0.000000 0.226764
O O23 0.604302 0.204454 0.500000
O O24 0.500000 0.202642 0.228699
#
# Coordination Sequence:
#
# PCOD9381341 Si02
#       8
#     8   8   8   8   8   8   8   8
#     4   9  17  31  49  65  81 105 143 184 215 249
#     4  10  20  32  46  65  88 111 137 176 224 262
#     4   9  17  27  39  58  84 114 146 176 207 245
#     4  10  17  28  47  68  88 114 147 177 206 246
#     4   7  10  19  36  55  74 100 138 180 213 241
#     4  10  18  28  41  59  84 114 142 169 206 251
#     4   8  14  25  44  72  99 117 138 175 219 254
#     4   9  16  25  38  59  85 112 142 170 195 234
#
# _framework density 17.513117999999999
#
# number of rings (size 3 to 8) (size 9 to 14) (size 15 to 20)
#    0.000    3.000    1.250    2.625    0.000    3.500 
#    0.000    0.000    0.000    2.625    0.000    5.250 
#    0.000    0.500    0.000    6.250    0.000    0.250 
#
# Total GULP energy -356601.669958 kJ/mol
# GULP energy per Si atom -5571.901093 kJ/mol
# Density = 1.747326 g / cm^3
# Si number density = 17.513118 Si / 1000 Ang^3
#
#
#
# Elastic Constant Matrix: (Units=GPa)
#
#
# Indices 1 2 3 4 5 6 
#
# 1 133.0335 96.3157 2.1343 0.0000 0.0000 0.0000
# 2 96.3157 154.6201 2.2413 0.0000 0.0000 0.0000
# 3 2.1343 2.2413 38.4220 0.0000 0.0000 0.0000
# 4 0.0000 0.0000 0.0000 10.4357 0.0000 0.0000
# 5 0.0000 0.0000 0.0000 0.0000 6.0302 0.0000
# 6 0.0000 0.0000 0.0000 0.0000 0.0000 10.6508
#
#
#
# Elastic Compliance Matrix: (Units=1/GPa)
#
#
# Indices 1 2 3 4 5 6 
#
# 1 0.013694 -0.008527 -0.000263 0.000000 0.000000 0.000000
# 2 -0.008527 0.011782 -0.000214 0.000000 0.000000 0.000000
# 3 -0.000263 -0.000214 0.026054 0.000000 0.000000 0.000000
# 4 0.000000 0.000000 0.000000 0.095825 0.000000 0.000000
# 5 0.000000 0.000000 0.000000 0.000000 0.165832 0.000000
# 6 0.000000 0.000000 0.000000 0.000000 0.000000 0.093889
#
#
# Mechanical properties :
#
#
# Convention : Reuss Voigt Hill
#
# Bulk Modulus (GPa) = 29.83030 58.60648 44.21839
# Shear Modulus (GPa) = 11.46109 20.44896 15.95502
#
# Velocity S-wave (km/s) = 2.56096 3.42078 3.02161
# Velocity P-wave (km/s) = 5.08082 7.00994 6.12185
#
# Compressibility (1/GPa) = 0.03352296
#
# Stress axis : x y z
#
# Youngs Moduli (GPa) = 73.02249 84.87529 38.38206
#
# Poissons Ratio (x) = 0.72370 0.01011
# Poissons Ratio (y) = 0.62264 0.00820
# Poissons Ratio (z) = 0.01923 0.01813
#
# Static dielectric constant tensor:
#      x y z
#    x 1.609540 0.000000 0.000000 
#    y 0.000000 1.607130 0.000000 
#    z 0.000000 0.000000 1.696570 
# 
# From -- ./inp_files/8343.got.cif
#   From: 2010.05.17/outbox.cif.g08.bks.cpg/sg47_5_cif.got.tgz:8343.got - 2010.06.03 20:15:42.
