data_PCOD9381330
_publ_section_title
;
Structure prediction by ZEFSAII (Michael W. Deem and Ramdas Pophale) SiO2 
 PCOD9381330
Probable space group: P M M M
;
_chemical_formula_sum "Si O2"
_cell_formula_units_Z 40
_cell_length_a 20.519743
_cell_length_b 17.629400
_cell_length_c 7.787029
_cell_angle_alpha 90.000000
_cell_angle_beta 90.000000
_cell_angle_gamma 90.000000
_cell_volume 2816.963637
_symmetry_space_group_name_H-M "P M M M"
_symmetry_group_IT_number 47
_symmetry_cell_setting 'orthorhombic'
loop_
_space_group_symop_operation_xyz
x,y,z
-x,-y,z
x,-y,-z
-x,y,-z
-x,-y,-z
x,y,-z
-x,y,z
x,-y,z
loop_
_atom_site_type_symbol
_atom_site_label
_atom_site_fract_x
_atom_site_fract_y
_atom_site_fract_z
Si Si1 0.347493 0.849240 0.791107
Si Si2 0.421014 0.586253 0.000000
Si Si3 0.788111 0.087107 0.795041
Si Si4 0.425471 0.000000 0.790735
Si Si5 0.929796 0.088432 0.293374
Si Si6 0.576763 0.698435 0.303984
O O1 0.273097 0.863867 0.734144
O O2 0.381169 0.774004 0.721535
O O3 0.387926 0.924000 0.738756
O O4 0.349349 0.844592 0.000000
O O5 0.402732 0.634655 0.832252
O O6 0.396537 0.500000 0.000000
O O7 0.500000 0.582468 0.000000
O O8 0.859947 0.120024 0.760845
O O9 0.784689 0.000000 0.726512
O O10 0.780838 0.081302 0.000000
O O11 0.500000 0.000000 0.732151
O O12 0.425614 0.000000 0.000000
O O13 0.930436 0.088761 0.500000
O O14 0.000000 0.120598 0.234886
O O15 0.928848 0.000000 0.236665
O O16 0.582199 0.671752 0.500000
O O17 0.500000 0.716490 0.271503
#
# Coordination Sequence:
#
# PCOD9381330 Si02
#       6
#     8   4   8   4   8   8
#     4  10  17  28  42  58  83 114 147 182 220 258
#     4   9  18  34  54  71  87 109 134 168 219 269
#     4   9  16  25  37  55  77 102 139 182 218 252
#     4   9  16  24  39  57  72 106 152 184 216 253
#     4   8  14  24  36  49  67  94 130 173 219 261
#     4  10  20  32  47  68  90 112 142 179 217 262
#
# _framework density 14.199686
#
# number of rings (size 3 to 8) (size 9 to 14) (size 15 to 20)
#    0.000    2.800    2.000    1.200    0.000    2.400 
#    0.000    4.500    0.000    1.800    0.000    0.000 
#    0.000    0.000    0.000    0.000    0.000    2.000 
#
# Total GULP energy -222753.501248 kJ/mol
# GULP energy per Si atom -5568.837531 kJ/mol
# Density = 1.416737 g / cm^3
# Si number density = 14.199686 Si / 1000 Ang^3
#
#
#
# Elastic Constant Matrix: (Units=GPa)
#
#
# Indices 1 2 3 4 5 6 
#
# 1 116.8093 42.5602 25.0196 0.0000 0.0000 0.0000
# 2 42.5602 83.3093 29.9038 0.0000 0.0000 0.0000
# 3 25.0196 29.9038 46.5667 0.0000 0.0000 0.0000
# 4 0.0000 0.0000 0.0000 1.6851 0.0000 0.0000
# 5 0.0000 0.0000 0.0000 0.0000 13.0915 0.0000
# 6 0.0000 0.0000 0.0000 0.0000 0.0000 3.1045
#
#
#
# Elastic Compliance Matrix: (Units=1/GPa)
#
#
# Indices 1 2 3 4 5 6 
#
# 1 0.010820 -0.004472 -0.002942 0.000000 0.000000 0.000000
# 2 -0.004472 0.017447 -0.008801 0.000000 0.000000 0.000000
# 3 -0.002942 -0.008801 0.028707 0.000000 0.000000 0.000000
# 4 0.000000 0.000000 0.000000 0.593437 0.000000 0.000000
# 5 0.000000 0.000000 0.000000 0.000000 0.076386 0.000000
# 6 0.000000 0.000000 0.000000 0.000000 0.000000 0.322118
#
#
# Mechanical properties :
#
#
# Convention : Reuss Voigt Hill
#
# Bulk Modulus (GPa) = 40.74244 49.07251 44.90747
# Shear Modulus (GPa) = 4.58914 13.52298 9.05606
#
# Velocity S-wave (km/s) = 1.79969 3.08935 2.52814
# Velocity P-wave (km/s) = 5.75094 6.88181 6.34163
#
# Compressibility (1/GPa) = 0.02454443
#
# Stress axis : x y z
#
# Youngs Moduli (GPa) = 92.41762 57.31561 34.83429
#
# Poissons Ratio (x) = 0.25630 0.10248
# Poissons Ratio (y) = 0.41327 0.30659
# Poissons Ratio (z) = 0.27189 0.50446
#
# Static dielectric constant tensor:
#      x y z
#    x 1.500350 0.000000 0.000000 
#    y 0.000000 1.426710 0.000000 
#    z 0.000000 0.000000 1.519010 
# 
# From -- ./inp_files/10802.got.cif
#   From: 2010.05.17/outbox.cif.g08.bks.cpg/sg47_6_cif.got.tgz:10802.got - 2010.06.03 20:15:42.
