data_PCOD9381850
_publ_section_title
;
Structure prediction by ZEFSAII (Michael W. Deem and Ramdas Pophale) SiO2 
 PCOD9381850
Probable space group: P M M M
;
_chemical_formula_sum "Si O2"
_cell_formula_units_Z 52
_cell_length_a 14.513756
_cell_length_b 26.405474
_cell_length_c 7.496091
_cell_angle_alpha 90.000000
_cell_angle_beta 90.000000
_cell_angle_gamma 90.000000
_cell_volume 2872.821455
_symmetry_space_group_name_H-M "P M M M"
_symmetry_group_IT_number 47
_symmetry_cell_setting 'orthorhombic'
loop_
_space_group_symop_operation_xyz
x,y,z
-x,-y,z
x,-y,-z
-x,y,-z
-x,-y,-z
x,y,-z
-x,y,z
x,-y,z
loop_
_atom_site_type_symbol
_atom_site_label
_atom_site_fract_x
_atom_site_fract_y
_atom_site_fract_z
Si Si1 0.889922 0.639366 0.211139
Si Si2 0.603459 0.099145 0.715648
Si Si3 0.107129 0.156511 0.781897
Si Si4 0.796085 0.055066 0.791327
Si Si5 0.603204 0.784058 0.715121
Si Si6 0.111602 0.442541 0.500000
Si Si7 0.795720 0.258246 0.208847
O O1 0.863230 0.590604 0.327001
O O2 0.836444 0.689243 0.278270
O O3 0.000000 0.647992 0.232479
O O4 0.872642 0.631644 0.000000
O O5 0.604627 0.098465 0.500000
O O6 0.500000 0.084617 0.772175
O O7 0.686837 0.064928 0.779378
O O8 0.619908 0.157585 0.773034
O O9 0.154509 0.104880 0.716119
O O10 0.158418 0.207031 0.716622
O O11 0.000000 0.157970 0.735550
O O12 0.113800 0.156334 0.000000
O O13 0.818812 0.000000 0.713426
O O14 0.821385 0.053325 0.000000
O O15 0.603231 0.784545 0.500000
O O16 0.500000 0.769772 0.773817
O O17 0.686422 0.748836 0.774464
O O18 0.146772 0.500000 0.500000
O O19 0.000000 0.445297 0.500000
O O20 0.820401 0.259066 0.000000
#
# Coordination Sequence:
#
# PCOD9381850 Si02
#       7
#     8   8   8   8   8   4   8
#     4   9  18  31  47  73 108 140 174 217 256 291
#     4   9  18  33  50  66  86 114 148 185 234 297
#     4   9  17  30  47  66  89 118 152 191 239 294
#     4  10  20  32  46  66  88 111 148 196 240 284
#     4   9  18  31  47  68  94 123 153 190 240 296
#     4   9  18  32  50  74 105 145 188 216 244 291
#     4  10  18  29  49  73  96 126 160 197 245 293
#
# _framework density 18.100673
#
# number of rings (size 3 to 8) (size 9 to 14) (size 15 to 20)
#    0.000    2.692    1.538    1.385    1.077    3.692 
#    0.000    6.154    0.000    1.385    0.000    1.077 
#    0.000    1.231    0.000    3.385    0.000    0.154 
#
# Total GULP energy -290072.211139 kJ/mol
# GULP energy per Si atom -5578.311753 kJ/mol
# Density = 1.805947 g / cm^3
# Si number density = 18.100673 Si / 1000 Ang^3
#
#
#
# Elastic Constant Matrix: (Units=GPa)
#
#
# Indices 1 2 3 4 5 6 
#
# 1 74.5569 63.9818 5.7696 0.0000 0.0000 0.0000
# 2 63.9818 165.3464 33.6084 0.0000 0.0000 0.0000
# 3 5.7696 33.6084 58.9067 0.0000 0.0000 0.0000
# 4 0.0000 0.0000 0.0000 5.8423 0.0000 0.0000
# 5 0.0000 0.0000 0.0000 0.0000 31.0414 0.0000
# 6 0.0000 0.0000 0.0000 0.0000 0.0000 18.1007
#
#
#
# Elastic Compliance Matrix: (Units=1/GPa)
#
#
# Indices 1 2 3 4 5 6 
#
# 1 0.020495 -0.008509 0.002848 0.000000 0.000000 0.000000
# 2 -0.008509 0.010374 -0.005085 0.000000 0.000000 0.000000
# 3 0.002848 -0.005085 0.019599 0.000000 0.000000 0.000000
# 4 0.000000 0.000000 0.000000 0.171166 0.000000 0.000000
# 5 0.000000 0.000000 0.000000 0.000000 0.032215 0.000000
# 6 0.000000 0.000000 0.000000 0.000000 0.000000 0.055246
#
#
# Mechanical properties :
#
#
# Convention : Reuss Voigt Hill
#
# Bulk Modulus (GPa) = 34.51500 56.16996 45.34248
# Shear Modulus (GPa) = 14.69520 24.02688 19.36104
#
# Velocity S-wave (km/s) = 2.85241 3.64731 3.27407
# Velocity P-wave (km/s) = 5.47339 6.98831 6.27672
#
# Compressibility (1/GPa) = 0.02897291
#
# Stress axis : x y z
#
# Youngs Moduli (GPa) = 48.79346 96.39198 51.02418
#
# Poissons Ratio (x) = 0.82023 -0.14529
# Poissons Ratio (y) = 0.41520 0.25948
# Poissons Ratio (z) = -0.13894 0.49020
#
# Static dielectric constant tensor:
#      x y z
#    x 1.609280 0.000000 0.000000 
#    y 0.000000 1.615670 0.000000 
#    z 0.000000 0.000000 1.688200 
# 
# From -- ./inp_files/7007.got.cif
#   From: 2010.05.17/outbox.cif.g08.bks.cpg/sg47_4_cif.got.tgz:7007.got - 2010.06.03 20:15:42.
