data_PCOD9381098
_publ_section_title
;
Structure prediction by ZEFSAII (Michael W. Deem and Ramdas Pophale) SiO2 
 PCOD9381098
Probable space group: I M A 2
;
_chemical_formula_sum "Si O2"
_cell_formula_units_Z 32
_cell_length_a 9.000000
_cell_length_b 18.000000
_cell_length_c 21.000000
_cell_angle_alpha 90.000000
_cell_angle_beta 90.000000
_cell_angle_gamma 90.000000
_cell_volume 3402.000000
_symmetry_space_group_name_H-M "I M A 2"
_symmetry_group_IT_number 46
_symmetry_cell_setting 'orthorhombic'
loop_
_space_group_symop_operation_xyz
x,y,z
-x,-y,z
1/2-x,y,z
1/2+x,-y,z
1/2+x,1/2+y,1/2+z
1/2-x,1/2-y,1/2+z
-x,1/2+y,1/2+z
x,1/2-y,1/2+z
loop_
_atom_site_type_symbol
_atom_site_label
_atom_site_fract_x
_atom_site_fract_y
_atom_site_fract_z
Si Si1 0.421774 0.623743 0.579780
Si Si2 0.070974 0.796589 0.717496
Si Si3 0.072359 0.301050 0.948182
Si Si4 0.427968 0.134573 0.210904
Si Si5 0.420306 0.695254 0.077181
Si Si6 0.428899 0.076438 0.348376
Si Si7 0.427995 0.924869 0.818191
Si Si8 0.928670 0.872890 0.947799
O O1 0.250000 0.600237 0.577696
O O2 0.498392 0.603384 0.646479
O O3 0.424933 0.714390 0.579710
O O4 0.508275 0.600717 0.515962
O O5 0.250000 0.782829 0.716820
O O6 0.032195 0.829309 0.647650
O O7 0.036993 0.854269 0.773396
O O8 0.986956 0.718436 0.722791
O O9 0.250000 0.302088 0.948135
O O10 0.019995 0.354229 0.891517
O O11 0.029254 0.214691 0.940663
O O12 0.015582 0.327963 0.016765
O O13 0.250000 0.136067 0.203409
O O14 0.467799 0.090125 0.274626
O O15 0.250000 0.673109 0.066696
O O16 0.250000 0.072410 0.352364
O O17 0.500000 0.000000 0.370989
O O18 0.250000 0.931720 0.822210
O O19 0.497450 0.912632 0.887898
O O20 0.500000 0.000000 0.791332
O O21 0.750000 0.879724 0.946548
#
# Coordination Sequence:
#
# PCOD9381098 Si02
#       8
#     8   8   8   8   8   8   8   8
#     4   9  17  31  52  80 110 136 168 212 261 313
#     4   9  19  35  55  79 106 137 175 216 261 316
#     4   9  18  33  53  78 105 133 169 213 258 306
#     4  10  19  33  55  81 106 134 173 220 267 313
#     4   8  15  29  50  77 105 131 164 209 256 304
#     4  10  22  37  51  72 104 139 175 214 256 305
#     4  11  23  38  54  75 106 142 179 219 264 315
#     4  10  19  34  57  82 107 136 172 215 263 314
#
# _framework density 9.4062319999999993
#
# number of rings (size 3 to 8) (size 9 to 14) (size 15 to 20)
#    0.000    2.500    0.000    3.000    0.000    7.000 
#    0.000    1.250    0.000    4.500    0.000    0.000 
#    0.000    0.000    0.000    0.000    0.000    0.000 
#
# Total GULP energy -178555.857357 kJ/mol
# GULP energy per Si atom -5579.870542 kJ/mol
# Density = 0.938482 g / cm^3
# Si number density = 9.406232 Si / 1000 Ang^3
#
#
#
# Elastic Constant Matrix: (Units=GPa)
#
#
# Indices 1 2 3 4 5 6 
#
# 1 38.2285 14.7496 21.4303 0.0000 0.0000 0.0000
# 2 14.7496 40.2199 14.1152 0.0000 0.0000 0.0000
# 3 21.4303 14.1152 89.7959 0.0000 0.0000 0.0000
# 4 0.0000 0.0000 0.0000 -6.4205 0.0000 0.0000
# 5 0.0000 0.0000 0.0000 0.0000 32.9936 0.0000
# 6 0.0000 0.0000 0.0000 0.0000 0.0000 20.9422
#
#
#
# Elastic Compliance Matrix: (Units=1/GPa)
#
#
# Indices 1 2 3 4 5 6 
#
# 1 0.033664 -0.010082 -0.006449 0.000000 0.000000 0.000000
# 2 -0.010082 0.029334 -0.002205 0.000000 0.000000 0.000000
# 3 -0.006449 -0.002205 0.013022 0.000000 0.000000 0.000000
# 4 0.000000 0.000000 0.000000 -0.155751 0.000000 0.000000
# 5 0.000000 0.000000 0.000000 0.000000 0.030309 0.000000
# 6 0.000000 0.000000 0.000000 0.000000 0.000000 0.047751
#
#
# Mechanical properties :
#
#
# Convention : Reuss Voigt Hill
#
# Bulk Modulus (GPa) = 25.94175 29.87050 27.90613
# Shear Modulus (GPa) = 102.77344 17.36632 60.06988
#
# Velocity S-wave (km/s) = 7.39926 3.04160 5.65687
# Velocity P-wave (km/s) = 9.31764 5.31485 7.58505
#
# Compressibility (1/GPa) = 0.03854789
#
# Stress axis : x y z
#
# Youngs Moduli (GPa) = 29.70550 34.08961 76.79235
#
# Poissons Ratio (x) = 0.34369 0.49525
# Poissons Ratio (y) = 0.29949 0.16933
# Poissons Ratio (z) = 0.19158 0.07517
#
# Static dielectric constant tensor:
#      x y z
#    x 1.633500 0.000000 0.000000 
#    y 0.000000 1.644830 0.000000 
#    z 0.000000 0.000000 1.658070 
# 
# From -- ./inp_files/21347.got.cif
#   From: 2010.05.17/outbox.ucp.g08.bks.cvg/sg46_11_cif.got.tgz:21347.got - 2010.06.11 16:34:52.
