data_PCOD9381781
_publ_section_title
;
Structure prediction by ZEFSAII (Michael W. Deem and Ramdas Pophale) SiO2 
 PCOD9381781
Probable space group: P M M M
;
_chemical_formula_sum "Si O2"
_cell_formula_units_Z 52
_cell_length_a 15.885203
_cell_length_b 23.693022
_cell_length_c 7.684041
_cell_angle_alpha 90.000000
_cell_angle_beta 90.000000
_cell_angle_gamma 90.000000
_cell_volume 2892.030710
_symmetry_space_group_name_H-M "P M M M"
_symmetry_group_IT_number 47
_symmetry_cell_setting 'orthorhombic'
loop_
_space_group_symop_operation_xyz
x,y,z
-x,-y,z
x,-y,-z
-x,y,-z
-x,-y,-z
x,y,-z
-x,y,z
x,-y,z
loop_
_atom_site_type_symbol
_atom_site_label
_atom_site_fract_x
_atom_site_fract_y
_atom_site_fract_z
Si Si1 0.000000 0.064334 0.206889
Si Si2 0.098233 0.568689 0.000000
Si Si3 0.500000 0.065388 0.287159
Si Si4 0.662982 0.135271 0.290209
Si Si5 0.405051 0.619463 0.298266
Si Si6 0.405703 0.747228 0.794196
Si Si7 0.770038 0.567948 0.296257
Si Si8 0.818887 0.064372 0.707020
O O1 0.911498 0.089242 0.263363
O O2 0.000000 0.000000 0.279391
O O3 0.000000 0.061551 0.000000
O O4 0.153377 0.585791 0.169705
O O5 0.096181 0.500000 0.000000
O O6 0.000000 0.587318 0.000000
O O7 0.500000 0.064893 0.500000
O O8 0.582191 0.099573 0.229310
O O9 0.500000 0.000000 0.232089
O O10 0.662707 0.132736 0.500000
O O11 0.654518 0.200644 0.243143
O O12 0.745983 0.104178 0.223369
O O13 0.409463 0.601728 0.500000
O O14 0.500000 0.609615 0.223615
O O15 0.389348 0.686717 0.290050
O O16 0.320917 0.589824 0.228370
O O17 0.500000 0.765234 0.737547
O O18 0.406726 0.737265 0.000000
O O19 0.780950 0.585561 0.500000
O O20 0.767651 0.500000 0.294351
O O21 0.806654 0.059831 0.500000
O O22 0.815339 0.000000 0.778004
#
# Coordination Sequence:
#
# PCOD9381781 Si02
#       8
#     4   4   4   8   8   8   8   8
#     4   9  17  29  45  65  89 117 145 179 228 285
#     4   9  18  32  51  77 109 145 182 220 261 310
#     4   9  16  26  43  67  93 121 152 189 232 281
#     4  10  18  29  47  68  91 121 156 195 236 282
#     4   9  18  32  51  74 101 135 173 211 252 301
#     4  10  20  32  46  66  94 128 167 206 239 280
#     4   9  18  32  51  79 112 143 177 218 263 313
#     4   9  17  29  46  69  92 114 146 188 234 284
#
# _framework density 17.980445
#
# number of rings (size 3 to 8) (size 9 to 14) (size 15 to 20)
#    0.000    2.692    0.769    1.154    1.077    4.615 
#    0.000    3.077    0.000    3.231    2.000    0.000 
#    0.000    0.000    0.000    0.000    0.000    0.000 
#
# Total GULP energy -289663.978681 kJ/mol
# GULP energy per Si atom -5570.461128 kJ/mol
# Density = 1.793952 g / cm^3
# Si number density = 17.980445 Si / 1000 Ang^3
#
#
#
# Elastic Constant Matrix: (Units=GPa)
#
#
# Indices 1 2 3 4 5 6 
#
# 1 161.2546 34.0044 32.4973 0.0000 0.0000 0.0000
# 2 34.0044 25.4015 8.2070 0.0000 0.0000 0.0000
# 3 32.4973 8.2070 56.2959 0.0000 0.0000 0.0000
# 4 0.0000 0.0000 0.0000 1.5532 0.0000 0.0000
# 5 0.0000 0.0000 0.0000 0.0000 8.5976 0.0000
# 6 0.0000 0.0000 0.0000 0.0000 0.0000 7.0612
#
#
#
# Elastic Compliance Matrix: (Units=1/GPa)
#
#
# Indices 1 2 3 4 5 6 
#
# 1 0.009336 -0.011289 -0.003744 0.000000 0.000000 0.000000
# 2 -0.011289 0.054963 -0.001496 0.000000 0.000000 0.000000
# 3 -0.003744 -0.001496 0.020143 0.000000 0.000000 0.000000
# 4 0.000000 0.000000 0.000000 0.643830 0.000000 0.000000
# 5 0.000000 0.000000 0.000000 0.000000 0.116312 0.000000
# 6 0.000000 0.000000 0.000000 0.000000 0.000000 0.141619
#
#
# Mechanical properties :
#
#
# Convention : Reuss Voigt Hill
#
# Bulk Modulus (GPa) = 19.46112 43.59662 31.52887
# Shear Modulus (GPa) = 4.82445 14.65861 9.74153
#
# Velocity S-wave (km/s) = 1.63981 2.85836 2.33015
# Velocity P-wave (km/s) = 3.79899 5.93237 4.98123
#
# Compressibility (1/GPa) = 0.05138450
#
# Stress axis : x y z
#
# Youngs Moduli (GPa) = 107.10814 18.19402 49.64622
#
# Poissons Ratio (x) = 0.20539 0.18586
# Poissons Ratio (y) = 1.20912 0.07428
# Poissons Ratio (z) = 0.40099 0.02722
#
# Static dielectric constant tensor:
#      x y z
#    x 1.641090 0.000000 0.000000 
#    y 0.000000 1.591090 0.000000 
#    z 0.000000 0.000000 1.670110 
# 
# From -- ./inp_files/7154.got.cif
#   From: 2010.05.17/outbox.cif.g08.bks.cpg/sg47_4_cif.got.tgz:7154.got - 2010.06.03 20:15:42.
