data_PCOD9381206
_publ_section_title
;
Structure prediction by ZEFSAII (Michael W. Deem and Ramdas Pophale) SiO2 
 PCOD9381206
Probable space group: P M M M
;
_chemical_formula_sum "Si O2"
_cell_formula_units_Z 64
_cell_length_a 18.870642
_cell_length_b 9.067064
_cell_length_c 27.080157
_cell_angle_alpha 90.000000
_cell_angle_beta 90.000000
_cell_angle_gamma 90.000000
_cell_volume 4633.450574
_symmetry_space_group_name_H-M "P M M M"
_symmetry_group_IT_number 47
_symmetry_cell_setting 'orthorhombic'
loop_
_space_group_symop_operation_xyz
x,y,z
-x,-y,z
x,-y,-z
-x,y,-z
-x,-y,-z
x,y,-z
-x,y,z
x,-y,z
loop_
_atom_site_type_symbol
_atom_site_label
_atom_site_fract_x
_atom_site_fract_y
_atom_site_fract_z
Si Si1 0.664804 0.324478 0.145179
Si Si2 0.081396 0.679309 0.555725
Si Si3 0.166287 0.677560 0.651805
Si Si4 0.582259 0.822631 0.056905
Si Si5 0.417739 0.322770 0.754009
Si Si6 0.705440 0.829997 0.299934
Si Si7 0.210334 0.830636 0.195247
Si Si8 0.917231 0.177580 0.742052
O O1 0.664628 0.500000 0.140728
O O2 0.632912 0.251698 0.096483
O O3 0.614706 0.284453 0.192161
O O4 0.743102 0.267096 0.158799
O O5 0.099939 0.727164 0.500000
O O6 0.081354 0.500000 0.555562
O O7 0.133897 0.724749 0.599191
O O8 0.000000 0.724968 0.566030
O O9 0.168127 0.500000 0.654523
O O10 0.243902 0.742931 0.662640
O O11 0.114720 0.739835 0.694607
O O12 0.500000 0.781867 0.066684
O O13 0.587088 0.000000 0.060821
O O14 0.598170 0.782728 0.000000
O O15 0.500000 0.280746 0.751222
O O16 0.412218 0.500000 0.749029
O O17 0.368779 0.246317 0.713001
O O18 0.748385 0.827684 0.247863
O O19 0.696821 0.000000 0.314514
O O20 0.131369 0.782719 0.210666
O O21 0.209362 0.000000 0.177900
O O22 0.000000 0.209206 0.748248
O O23 0.908522 0.000000 0.734995
#
# Coordination Sequence:
#
# PCOD9381206 Si02
#       8
#     8   8   8   8   8   8   8   8
#     4  10  18  27  41  60  81 105 132 163 198 231
#     4   8  14  24  37  55  79 104 132 167 201 232
#     4  10  17  25  40  59  78 104 137 168 200 236
#     4   9  18  31  44  58  78 105 136 167 196 228
#     4   9  17  28  41  59  83 107 132 164 199 234
#     4   9  17  28  40  55  77 105 135 165 197 234
#     4   8  15  27  40  54  75 105 135 160 190 230
#     4   9  17  28  41  58  81 107 134 165 200 237
#
# _framework density 13.8126
#
# number of rings (size 3 to 8) (size 9 to 14) (size 15 to 20)
#    0.000    3.000    0.000    3.375    0.000    5.500 
#    0.000    0.625    0.000    1.500    0.000    4.375 
#    0.000    1.000    0.000   11.500    0.000    3.250 
#
# Total GULP energy -356344.958464 kJ/mol
# GULP energy per Si atom -5567.889976 kJ/mol
# Density = 1.378116 g / cm^3
# Si number density = 13.812600 Si / 1000 Ang^3
#
#
#
# Elastic Constant Matrix: (Units=GPa)
#
#
# Indices 1 2 3 4 5 6 
#
# 1 109.6331 39.1686 57.3846 0.0000 0.0000 0.0000
# 2 39.1686 35.0066 36.3936 0.0000 0.0000 0.0000
# 3 57.3846 36.3936 86.1244 0.0000 0.0000 0.0000
# 4 0.0000 0.0000 0.0000 12.9523 0.0000 0.0000
# 5 0.0000 0.0000 0.0000 0.0000 26.2501 0.0000
# 6 0.0000 0.0000 0.0000 0.0000 0.0000 18.7366
#
#
#
# Elastic Compliance Matrix: (Units=1/GPa)
#
#
# Indices 1 2 3 4 5 6 
#
# 1 0.016651 -0.012657 -0.005746 0.000000 0.000000 0.000000
# 2 -0.012657 0.060569 -0.017161 0.000000 0.000000 0.000000
# 3 -0.005746 -0.017161 0.022692 0.000000 0.000000 0.000000
# 4 0.000000 0.000000 0.000000 0.077207 0.000000 0.000000
# 5 0.000000 0.000000 0.000000 0.000000 0.038095 0.000000
# 6 0.000000 0.000000 0.000000 0.000000 0.000000 0.053372
#
#
# Mechanical properties :
#
#
# Convention : Reuss Voigt Hill
#
# Bulk Modulus (GPa) = 34.74289 55.18421 44.96355
# Shear Modulus (GPa) = 14.31404 18.10894 16.21149
#
# Velocity S-wave (km/s) = 3.22266 3.62476 3.42961
# Velocity P-wave (km/s) = 6.24940 7.58666 6.95027
#
# Compressibility (1/GPa) = 0.02878287
#
# Stress axis : x y z
#
# Youngs Moduli (GPa) = 60.05705 16.51011 44.06908
#
# Poissons Ratio (x) = 0.20896 0.25322
# Poissons Ratio (y) = 0.76013 0.75629
# Poissons Ratio (z) = 0.34509 0.28334
#
# Static dielectric constant tensor:
#      x y z
#    x 1.457610 0.000000 0.000000 
#    y 0.000000 1.462180 0.000000 
#    z 0.000000 0.000000 1.435660 
# 
# From -- ./inp_files/13490.got.cif
#   From: 2010.05.17/outbox.cif.g08.bks.cpg/sg47_7_cif.got.tgz:13490.got - 2010.06.03 20:15:42.
