data_PCOD9381700
_publ_section_title
;
Structure prediction by ZEFSAII (Michael W. Deem and Ramdas Pophale) SiO2 
 PCOD9381700
Probable space group: P M M M
;
_chemical_formula_sum "Si O2"
_cell_formula_units_Z 56
_cell_length_a 15.350357
_cell_length_b 23.748287
_cell_length_c 7.599512
_cell_angle_alpha 90.000000
_cell_angle_beta 90.000000
_cell_angle_gamma 90.000000
_cell_volume 2770.361697
_symmetry_space_group_name_H-M "P M M M"
_symmetry_group_IT_number 47
_symmetry_cell_setting 'orthorhombic'
loop_
_space_group_symop_operation_xyz
x,y,z
-x,-y,z
x,-y,-z
-x,y,-z
-x,-y,-z
x,y,-z
-x,y,z
x,-y,z
loop_
_atom_site_type_symbol
_atom_site_label
_atom_site_fract_x
_atom_site_fract_y
_atom_site_fract_z
Si Si1 0.276639 0.334424 0.710083
Si Si2 0.598553 0.764436 0.713123
Si Si3 0.781746 0.938670 0.705599
Si Si4 0.402539 0.895010 0.794062
Si Si5 0.099981 0.162146 0.714216
Si Si6 0.097930 0.291023 0.715057
Si Si7 0.597410 0.563993 0.211535
O O1 0.272479 0.327146 0.500000
O O2 0.333368 0.281683 0.778133
O O3 0.177518 0.329935 0.774838
O O4 0.329114 0.391448 0.741475
O O5 0.601703 0.765618 0.500000
O O6 0.500000 0.748680 0.765543
O O7 0.614275 0.828138 0.773526
O O8 0.806154 0.940942 0.500000
O O9 0.678746 0.927251 0.714043
O O10 0.833927 0.885273 0.780489
O O11 0.801594 0.000000 0.783699
O O12 0.500000 0.906044 0.721976
O O13 0.403917 0.908735 0.000000
O O14 0.104874 0.163331 0.500000
O O15 0.118090 0.226419 0.768696
O O16 0.000000 0.148762 0.761087
O O17 0.095455 0.291701 0.500000
O O18 0.000000 0.305272 0.774225
O O19 0.500000 0.580981 0.273793
O O20 0.614040 0.500000 0.273147
O O21 0.594059 0.562256 0.000000
#
# Coordination Sequence:
#
# PCOD9381700 Si02
#       7
#     8   8   8   8   8   8   8
#     4  10  18  28  48  76 101 126 159 198 236 275
#     4   9  17  29  46  70  98 122 147 188 242 292
#     4  10  20  32  48  71  95 119 151 193 240 287
#     4  10  21  35  49  65  88 122 162 199 234 277
#     4   8  14  27  48  72  97 123 150 184 230 284
#     4   8  14  25  43  69  99 127 153 186 233 284
#     4   9  19  35  51  68  96 134 169 199 235 279
#
# _framework density 20.213967
#
# number of rings (size 3 to 8) (size 9 to 14) (size 15 to 20)
#    0.000    2.857    0.000    3.000    0.000    5.714 
#    0.000    5.000    0.000    1.286    0.000    6.000 
#    0.000    0.000    0.000    0.000    0.000    0.000 
#
# Total GULP energy -312417.472022 kJ/mol
# GULP energy per Si atom -5578.883429 kJ/mol
# Density = 2.016796 g / cm^3
# Si number density = 20.213967 Si / 1000 Ang^3
#
#
#
# Elastic Constant Matrix: (Units=GPa)
#
#
# Indices 1 2 3 4 5 6 
#
# 1 143.3862 84.1288 2.5845 0.0000 0.0000 0.0000
# 2 84.1288 72.6422 -4.0207 0.0000 0.0000 0.0000
# 3 2.5845 -4.0207 39.5492 0.0000 0.0000 0.0000
# 4 0.0000 0.0000 0.0000 22.1709 0.0000 0.0000
# 5 0.0000 0.0000 0.0000 0.0000 -54.2180 0.0000
# 6 0.0000 0.0000 0.0000 0.0000 0.0000 14.0065
#
#
#
# Elastic Compliance Matrix: (Units=1/GPa)
#
#
# Indices 1 2 3 4 5 6 
#
# 1 0.022411 -0.026183 -0.004126 0.000000 0.000000 0.000000
# 2 -0.026183 0.044434 0.006228 0.000000 0.000000 0.000000
# 3 -0.004126 0.006228 0.026188 0.000000 0.000000 0.000000
# 4 0.000000 0.000000 0.000000 0.045104 0.000000 0.000000
# 5 0.000000 0.000000 0.000000 0.000000 -0.018444 0.000000
# 6 0.000000 0.000000 0.000000 0.000000 0.000000 0.071396
#
#
# Mechanical properties :
#
#
# Convention : Reuss Voigt Hill
#
# Bulk Modulus (GPa) = 22.28625 46.77363 34.52994
# Shear Modulus (GPa) = 19.66898 7.91756 13.79327
#
# Velocity S-wave (km/s) = 3.12274 1.98126 2.61504
# Velocity P-wave (km/s) = 4.90419 5.33135 5.12223
#
# Compressibility (1/GPa) = 0.04487071
#
# Stress axis : x y z
#
# Youngs Moduli (GPa) = 44.62118 22.50524 38.18568
#
# Poissons Ratio (x) = 0.58926 0.15757
# Poissons Ratio (y) = 1.16832 -0.23783
# Poissons Ratio (z) = 0.18412 -0.14017
#
# Static dielectric constant tensor:
#      x y z
#    x 1.728350 0.000000 0.000000 
#    y 0.000000 1.699420 0.000000 
#    z 0.000000 0.000000 1.773900 
# 
# From -- ./inp_files/7360.got.cif
#   From: 2010.05.17/outbox.cif.g08.bks.cpg/sg47_4_cif.got.tgz:7360.got - 2010.06.03 20:15:42.
