data_PCOD9381871
_publ_section_title
;
Structure prediction by ZEFSAII (Michael W. Deem and Ramdas Pophale) SiO2 
 PCOD9381871
Probable space group: P M M M
;
_chemical_formula_sum "Si O2"
_cell_formula_units_Z 40
_cell_length_a 13.382316
_cell_length_b 8.592472
_cell_length_c 20.014838
_cell_angle_alpha 90.000000
_cell_angle_beta 90.000000
_cell_angle_gamma 90.000000
_cell_volume 2301.449690
_symmetry_space_group_name_H-M "P M M M"
_symmetry_group_IT_number 47
_symmetry_cell_setting 'orthorhombic'
loop_
_space_group_symop_operation_xyz
x,y,z
-x,-y,z
x,-y,-z
-x,y,-z
-x,-y,-z
x,y,-z
-x,y,z
x,-y,z
loop_
_atom_site_type_symbol
_atom_site_label
_atom_site_fract_x
_atom_site_fract_y
_atom_site_fract_z
Si Si1 0.387071 0.810343 0.923156
Si Si2 0.213115 0.813421 0.823709
Si Si3 0.000000 0.678798 0.827796
Si Si4 0.385621 0.187672 0.422550
Si Si5 0.216300 0.312858 0.326068
Si Si6 0.000000 0.679232 0.665267
O O1 0.500000 0.762074 0.904253
O O2 0.300872 0.758075 0.872991
O O3 0.386296 0.000000 0.922415
O O4 0.368996 0.762909 0.000000
O O5 0.229756 0.749356 0.749062
O O6 0.103391 0.759744 0.847650
O O7 0.214735 0.000000 0.821014
O O8 0.000000 0.679462 0.746416
O O9 0.000000 0.500000 0.849463
O O10 0.367096 0.230334 0.500000
O O11 0.500000 0.232542 0.406122
O O12 0.305472 0.261159 0.373484
O O13 0.379899 0.000000 0.417983
O O14 0.210530 0.500000 0.322813
O O15 0.108005 0.252422 0.352765
O O16 0.000000 0.500000 0.641870
#
# Coordination Sequence:
#
# PCOD9381871 Si02
#       6
#     8   8   4   8   8   4
#     4   8  15  29  48  70  97 128 162 203 250 295
#     4  10  18  29  50  77 100 126 164 206 245 290
#     4   9  17  31  48  67  98 134 163 198 246 294
#     4   9  19  36  54  71  96 130 166 207 252 291
#     4  10  19  32  51  74 101 131 162 199 244 297
#     4   7  14  29  46  65  92 126 157 187 230 279
#
# _framework density 17.380348999999999
#
# number of rings (size 3 to 8) (size 9 to 14) (size 15 to 20)
#    0.000    3.000    0.000    3.900    0.000    1.600 
#    0.000    5.500    0.000   10.200    0.000    5.600 
#    0.000    0.000    0.000    0.000    0.000    0.000 
#
# Total GULP energy -222790.778718 kJ/mol
# GULP energy per Si atom -5569.769468 kJ/mol
# Density = 1.734079 g / cm^3
# Si number density = 17.380349 Si / 1000 Ang^3
#
#
#
# Elastic Constant Matrix: (Units=GPa)
#
#
# Indices 1 2 3 4 5 6 
#
# 1 201.5918 41.1903 104.1481 0.0000 0.0000 0.0000
# 2 41.1903 36.2177 26.3644 0.0000 0.0000 0.0000
# 3 104.1481 26.3644 76.5875 0.0000 0.0000 0.0000
# 4 0.0000 0.0000 0.0000 -4.7390 0.0000 0.0000
# 5 0.0000 0.0000 0.0000 0.0000 -28.0113 0.0000
# 6 0.0000 0.0000 0.0000 0.0000 0.0000 20.2494
#
#
#
# Elastic Compliance Matrix: (Units=1/GPa)
#
#
# Indices 1 2 3 4 5 6 
#
# 1 0.016974 -0.003338 -0.021932 0.000000 0.000000 0.000000
# 2 -0.003338 0.037500 -0.008369 0.000000 0.000000 0.000000
# 3 -0.021932 -0.008369 0.045763 0.000000 0.000000 0.000000
# 4 0.000000 0.000000 0.000000 -0.211015 0.000000 0.000000
# 5 0.000000 0.000000 0.000000 0.000000 -0.035700 0.000000
# 6 0.000000 0.000000 0.000000 0.000000 0.000000 0.049384
#
#
# Mechanical properties :
#
#
# Convention : Reuss Voigt Hill
#
# Bulk Modulus (GPa) = 30.34313 73.08919 51.71616
# Shear Modulus (GPa) = -265.54084 7.01277 -129.26404
#
# Velocity S-wave (km/s) = -12.37392 2.01088 -8.63337
# Velocity P-wave (km/s) = 13.66220 6.89461 8.34027
#
# Compressibility (1/GPa) = 0.03295639
#
# Stress axis : x y z
#
# Youngs Moduli (GPa) = 58.91529 26.66677 21.85182
#
# Poissons Ratio (x) = 0.08903 0.47926
# Poissons Ratio (y) = 0.19669 0.18288
# Poissons Ratio (z) = 1.29215 0.22318
#
# Static dielectric constant tensor:
#      x y z
#    x 1.616450 0.000000 0.000000 
#    y 0.000000 1.598530 0.000000 
#    z 0.000000 0.000000 1.560070 
# 
# From -- ./inp_files/30337.got.cif
#   From: 2010.05.17/outbox.cif.g08.bks.cpg/sg47_16_cif.got.tgz:30337.got - 2010.06.03 20:15:42.
