data_PCOD9381726
_publ_section_title
;
Structure prediction by ZEFSAII (Michael W. Deem and Ramdas Pophale) SiO2 
 PCOD9381726
Probable space group: P M M M
;
_chemical_formula_sum "Si O2"
_cell_formula_units_Z 52
_cell_length_a 7.347057
_cell_length_b 29.833089
_cell_length_c 12.341096
_cell_angle_alpha 90.000000
_cell_angle_beta 90.000000
_cell_angle_gamma 90.000000
_cell_volume 2704.988129
_symmetry_space_group_name_H-M "P M M M"
_symmetry_group_IT_number 47
_symmetry_cell_setting 'orthorhombic'
loop_
_space_group_symop_operation_xyz
x,y,z
-x,-y,z
x,-y,-z
-x,y,-z
-x,-y,-z
x,y,-z
-x,y,z
x,-y,z
loop_
_atom_site_type_symbol
_atom_site_label
_atom_site_fract_x
_atom_site_fract_y
_atom_site_fract_z
Si Si1 0.722462 0.866113 0.375632
Si Si2 0.278648 0.089514 0.000000
Si Si3 0.218507 0.305844 0.623892
Si Si4 0.284125 0.218414 0.235254
Si Si5 0.783925 0.596515 0.368973
Si Si6 0.221811 0.500000 0.628161
Si Si7 0.722114 0.805915 0.000000
Si Si8 0.278024 0.050496 0.230602
O O1 0.780843 0.863831 0.500000
O O2 0.500000 0.865635 0.375826
O O3 0.785229 0.823082 0.307139
O O4 0.778760 0.911635 0.315616
O O5 0.220595 0.065310 0.889920
O O6 0.500000 0.088876 0.000000
O O7 0.225844 0.141658 0.000000
O O8 0.283226 0.297586 0.500000
O O9 0.257943 0.264853 0.702490
O O10 0.286822 0.354588 0.664182
O O11 0.000000 0.309460 0.617294
O O12 0.500000 0.211111 0.227537
O O13 0.214916 0.216242 0.112164
O O14 0.763977 0.596313 0.500000
O O15 0.713761 0.548275 0.328213
O O16 0.000000 0.596142 0.346229
O O17 0.266061 0.500000 0.500000
O O18 0.000000 0.500000 0.634367
O O19 0.500000 0.804562 0.000000
O O20 0.500000 0.050579 0.230490
O O21 0.219520 0.000000 0.255463
#
# Coordination Sequence:
#
# PCOD9381726 Si02
#       8
#     8   4   8   8   8   4   4   8
#     4   9  16  24  34  50  73 101 131 160 193 238
#     4   9  13  22  35  49  69  96 129 163 199 239
#     4   9  17  28  41  60  88 116 138 165 203 242
#     4  10  18  29  44  60  78 105 142 176 206 243
#     4   7  10  17  30  50  77 107 135 162 193 230
#     4   7   8  12  26  48  73 102 135 164 188 223
#     4   9  16  27  43  58  75 101 135 176 214 243
#     4   9  15  21  31  48  71  99 128 158 195 241
#
# _framework density 19.223745000000001
#
# number of rings (size 3 to 8) (size 9 to 14) (size 15 to 20)
#    0.000    3.308    1.538    2.538    0.000    2.154 
#    0.000    1.923    0.000    0.000    0.000    0.538 
#    0.000    4.308    0.000   12.308    0.000    7.385 
#
# Total GULP energy -289823.616260 kJ/mol
# GULP energy per Si atom -5573.531082 kJ/mol
# Density = 1.917999 g / cm^3
# Si number density = 19.223745 Si / 1000 Ang^3
#
#
#
# Elastic Constant Matrix: (Units=GPa)
#
#
# Indices 1 2 3 4 5 6 
#
# 1 68.7793 2.5691 8.2228 0.0000 0.0000 0.0000
# 2 2.5691 222.2975 104.5796 0.0000 0.0000 0.0000
# 3 8.2228 104.5796 135.8422 0.0000 0.0000 0.0000
# 4 0.0000 0.0000 0.0000 3.0742 0.0000 0.0000
# 5 0.0000 0.0000 0.0000 0.0000 -3.3601 0.0000
# 6 0.0000 0.0000 0.0000 0.0000 0.0000 5.9767
#
#
#
# Elastic Compliance Matrix: (Units=1/GPa)
#
#
# Indices 1 2 3 4 5 6 
#
# 1 0.014667 0.000389 -0.001187 0.000000 0.000000 0.000000
# 2 0.000389 0.007063 -0.005461 0.000000 0.000000 0.000000
# 3 -0.001187 -0.005461 0.011638 0.000000 0.000000 0.000000
# 4 0.000000 0.000000 0.000000 0.325284 0.000000 0.000000
# 5 0.000000 0.000000 0.000000 0.000000 -0.297608 0.000000
# 6 0.000000 0.000000 0.000000 0.000000 0.000000 0.167316
#
#
# Mechanical properties :
#
#
# Convention : Reuss Voigt Hill
#
# Bulk Modulus (GPa) = 47.96477 73.07356 60.51916
# Shear Modulus (GPa) = 20.17528 21.90800 21.04164
#
# Velocity S-wave (km/s) = 3.24311 3.37951 3.31201
# Velocity P-wave (km/s) = 6.24729 7.30224 6.79527
#
# Compressibility (1/GPa) = 0.02084864
#
# Stress axis : x y z
#
# Youngs Moduli (GPa) = 68.18173 141.57847 85.92717
#
# Poissons Ratio (x) = -0.05509 0.10203
# Poissons Ratio (y) = -0.02653 0.46927
# Poissons Ratio (z) = 0.08096 0.77320
#
# Static dielectric constant tensor:
#      x y z
#    x 1.816700 0.000000 0.000000 
#    y 0.000000 1.699900 0.000000 
#    z 0.000000 0.000000 1.630150 
# 
# From -- ./inp_files/15682.got.cif
#   From: 2010.05.17/outbox.cif.g08.bks.cpg/sg47_8_cif.got.tgz:15682.got - 2010.06.03 20:15:42.
