data_PCOD9381308
_publ_section_title
;
Structure prediction by ZEFSAII (Michael W. Deem and Ramdas Pophale) SiO2 
 PCOD9381308
Probable space group: P M M M
;
_chemical_formula_sum "Si O2"
_cell_formula_units_Z 52
_cell_length_a 7.463573
_cell_length_b 14.609577
_cell_length_c 25.798224
_cell_angle_alpha 90.000000
_cell_angle_beta 90.000000
_cell_angle_gamma 90.000000
_cell_volume 2813.029172
_symmetry_space_group_name_H-M "P M M M"
_symmetry_group_IT_number 47
_symmetry_cell_setting 'orthorhombic'
loop_
_space_group_symop_operation_xyz
x,y,z
-x,-y,z
x,-y,-z
-x,y,-z
-x,-y,-z
x,y,-z
-x,y,z
x,-y,z
loop_
_atom_site_type_symbol
_atom_site_label
_atom_site_fract_x
_atom_site_fract_y
_atom_site_fract_z
Si Si1 0.500000 0.108308 0.561781
Si Si2 0.713659 0.397770 0.793522
Si Si3 0.210947 0.790923 0.841208
Si Si4 0.218145 0.105214 0.739188
Si Si5 0.781555 0.106003 0.058190
Si Si6 0.788025 0.398018 0.327195
Si Si7 0.217304 0.793854 0.367993
O O1 0.500000 0.118754 0.500000
O O2 0.326410 0.156066 0.587199
O O3 0.500000 0.000000 0.574082
O O4 0.500000 0.400410 0.794737
O O5 0.781832 0.500000 0.805743
O O6 0.771602 0.316804 0.831123
O O7 0.766349 0.376937 0.734023
O O8 0.284231 0.842261 0.790292
O O9 0.282947 0.829742 0.895276
O O10 0.000000 0.812291 0.842053
O O11 0.265124 0.156058 0.686119
O O12 0.000000 0.105900 0.740680
O O13 0.276144 0.000000 0.738993
O O14 0.000000 0.108870 0.057217
O O15 0.732738 0.000000 0.068261
O O16 0.721804 0.130646 0.000000
O O17 0.712117 0.500000 0.336332
O O18 0.724754 0.311946 0.360452
O O19 0.000000 0.402960 0.336574
O O20 0.000000 0.798471 0.374477
#
# Coordination Sequence:
#
# PCOD9381308 Si02
#       7
#     4   8   8   8   8   8   8
#     4  11  26  44  61  83 109 145 193 233 267 316
#     4  10  20  31  44  67 101 137 170 209 259 316
#     4  10  17  27  46  70  96 128 164 206 253 306
#     4   9  16  26  43  71 104 134 162 197 251 314
#     4   8  14  25  43  69  98 127 163 207 253 303
#     4   9  17  31  53  82 113 143 176 213 261 324
#     4  10  20  36  58  83 112 145 180 225 277 326
#
# _framework density 18.485409000000001
#
# number of rings (size 3 to 8) (size 9 to 14) (size 15 to 20)
#    0.000    2.538    1.538    1.846    1.077    4.000 
#    0.000    0.769    0.000    3.231    0.000    6.462 
#    0.000    0.000    0.000    0.000    0.000    0.000 
#
# Total GULP energy -290071.908686 kJ/mol
# GULP energy per Si atom -5578.305936 kJ/mol
# Density = 1.844334 g / cm^3
# Si number density = 18.485409 Si / 1000 Ang^3
#
#
#
# Elastic Constant Matrix: (Units=GPa)
#
#
# Indices 1 2 3 4 5 6 
#
# 1 62.5664 19.2054 25.6023 0.0000 0.0000 0.0000
# 2 19.2054 145.5068 90.6993 0.0000 0.0000 0.0000
# 3 25.6023 90.6993 118.2346 0.0000 0.0000 0.0000
# 4 0.0000 0.0000 0.0000 24.5389 0.0000 0.0000
# 5 0.0000 0.0000 0.0000 0.0000 36.8070 0.0000
# 6 0.0000 0.0000 0.0000 0.0000 0.0000 -19.1200
#
#
#
# Elastic Compliance Matrix: (Units=1/GPa)
#
#
# Indices 1 2 3 4 5 6 
#
# 1 0.017538 0.000100 -0.003875 0.000000 0.000000 0.000000
# 2 0.000100 0.013171 -0.010125 0.000000 0.000000 0.000000
# 3 -0.003875 -0.010125 0.017064 0.000000 0.000000 0.000000
# 4 0.000000 0.000000 0.000000 0.040752 0.000000 0.000000
# 5 0.000000 0.000000 0.000000 0.000000 0.027169 0.000000
# 6 0.000000 0.000000 0.000000 0.000000 0.000000 -0.052301
#
#
# Mechanical properties :
#
#
# Convention : Reuss Voigt Hill
#
# Bulk Modulus (GPa) = 50.06620 66.36909 58.21764
# Shear Modulus (GPa) = 51.09993 21.16524 36.13258
#
# Velocity S-wave (km/s) = 5.26340 3.38741 4.42594
# Velocity P-wave (km/s) = 8.00505 7.16107 7.59479
#
# Compressibility (1/GPa) = 0.01997356
#
# Stress axis : x y z
#
# Youngs Moduli (GPa) = 57.02005 75.92689 58.60361
#
# Poissons Ratio (x) = -0.00762 0.22706
# Poissons Ratio (y) = -0.00572 0.59336
# Poissons Ratio (z) = 0.22093 0.76876
#
# Static dielectric constant tensor:
#      x y z
#    x 1.647390 0.000000 0.000000 
#    y 0.000000 1.653630 0.000000 
#    z 0.000000 0.000000 1.607900 
# 
# From -- ./inp_files/32016.got.cif
#   From: 2010.05.17/outbox.cif.g08.bks.cpg/sg47_17_cif.got.tgz:32016.got - 2010.06.03 20:15:42.
