data_PCOD9381056
_publ_section_title
;
Structure prediction by ZEFSAII (Michael W. Deem and Ramdas Pophale) SiO2 
 PCOD9381056
Probable space group: I M A 2
;
_chemical_formula_sum "Si O2"
_cell_formula_units_Z 64
_cell_length_a 7.302129
_cell_length_b 35.354550
_cell_length_c 12.325036
_cell_angle_alpha 90.000000
_cell_angle_beta 90.000000
_cell_angle_gamma 90.000000
_cell_volume 3181.874245
_symmetry_space_group_name_H-M "I M A 2"
_symmetry_group_IT_number 46
_symmetry_cell_setting 'orthorhombic'
loop_
_space_group_symop_operation_xyz
x,y,z
-x,-y,z
1/2-x,y,z
1/2+x,-y,z
1/2+x,1/2+y,1/2+z
1/2-x,1/2-y,1/2+z
-x,1/2+y,1/2+z
x,1/2-y,1/2+z
loop_
_atom_site_type_symbol
_atom_site_label
_atom_site_fract_x
_atom_site_fract_y
_atom_site_fract_z
Si Si1 0.032253 0.041827 0.524480
Si Si2 0.473374 0.180203 0.272115
Si Si3 0.528762 0.830436 0.629160
Si Si4 0.528382 0.616335 0.925911
Si Si5 0.026256 0.374573 0.345030
Si Si6 0.473288 0.183317 0.024505
Si Si7 0.968619 0.543030 0.272627
Si Si8 0.526863 0.766518 0.469482
O O1 0.250000 0.047490 0.533758
O O2 0.960840 0.044212 0.648081
O O3 0.961472 0.074303 0.446256
O O4 0.000000 0.000000 0.482921
O O5 0.250000 0.181468 0.270953
O O6 0.532952 0.140353 0.323514
O O7 0.533637 0.184051 0.149118
O O8 0.530036 0.211737 0.360108
O O9 0.750000 0.828123 0.637431
O O10 0.484154 0.860293 0.534560
O O11 0.467397 0.848359 0.742691
O O12 0.469300 0.790383 0.576814
O O13 0.750000 0.615927 0.918965
O O14 0.250000 0.374931 0.343214
O O15 0.969272 0.352693 0.453688
O O16 0.966989 0.418408 0.331327
O O17 0.250000 0.182922 0.024731
O O18 0.529724 0.223138 0.971970
O O19 0.750000 0.546497 0.268432
O O20 0.000000 0.500000 0.314683
O O21 0.750000 0.767333 0.470352
#
# Coordination Sequence:
#
# PCOD9381056 Si02
#       8
#     8   8   8   8   8   8   8   8
#     4   9  15  23  37  57  77  97 124 158 197 237
#     4   8  14  22  29  41  62  91 127 157 185 221
#     4   8  12  19  30  43  61  89 124 151 178 223
#     4   8  12  21  34  45  62  90 120 152 183 222
#     4   9  15  22  33  49  70  97 128 159 192 234
#     4   9  16  21  28  44  66  95 129 162 189 222
#     4   9  16  26  40  58  80 104 131 165 204 244
#     4   8  14  20  28  41  62  93 127 160 186 217
#
# _framework density 20.113931000000001
#
# number of rings (size 3 to 8) (size 9 to 14) (size 15 to 20)
#    0.000    3.500    1.250    1.500    1.750    0.000 
#    0.000    0.000    0.000    0.750    0.000    0.000 
#    0.000    0.000    0.000    5.625    0.000   10.000 
#
# Total GULP energy -178325.462756 kJ/mol
# GULP energy per Si atom -5572.670711 kJ/mol
# Density = 2.006815 g / cm^3
# Si number density = 20.113931 Si / 1000 Ang^3
#
#
#
# Elastic Constant Matrix: (Units=GPa)
#
#
# Indices 1 2 3 4 5 6 
#
# 1 81.2400 3.3605 3.2789 0.0000 0.0000 0.0000
# 2 3.3605 191.6315 83.6402 -0.0002 -0.0005 0.0000
# 3 3.2789 83.6402 119.6277 -0.0003 -0.0007 0.0000
# 4 0.0000 -0.0002 -0.0003 6.6605 -0.0004 -0.0001
# 5 0.0000 -0.0005 -0.0007 -0.0004 -70.7081 0.0000
# 6 0.0000 0.0000 0.0000 -0.0001 0.0000 1.1604
#
#
#
# Elastic Compliance Matrix: (Units=1/GPa)
#
#
# Indices 1 2 3 4 5 6 
#
# 1 0.012324 -0.000099 -0.000269 0.000000 0.000000 0.000000
# 2 -0.000099 0.007511 -0.005249 0.000000 0.000000 0.000000
# 3 -0.000269 -0.005249 0.012036 0.000000 0.000000 0.000000
# 4 0.000000 0.000000 0.000000 0.150140 -0.000001 0.000007
# 5 0.000000 0.000000 0.000000 -0.000001 -0.014143 0.000000
# 6 0.000000 0.000000 0.000000 0.000007 0.000000 0.861754
#
#
# Mechanical properties :
#
#
# Convention : Reuss Voigt Hill
#
# Bulk Modulus (GPa) = 48.45202 63.67313 56.06258
# Shear Modulus (GPa) = 4.77220 7.57054 6.17137
#
# Velocity S-wave (km/s) = 1.54199 1.94216 1.75353
# Velocity P-wave (km/s) = 5.22603 6.06253 5.65976
#
# Compressibility (1/GPa) = 0.02063898
#
# Stress axis : x y z
#
# Youngs Moduli (GPa) = 81.14153 133.13864 83.08137
#
# Poissons Ratio (x) = 0.01316 0.02232
# Poissons Ratio (y) = 0.00802 0.43607
# Poissons Ratio (z) = 0.02180 0.69881
#
# Static dielectric constant tensor:
#      x y z
#    x 7.413150 0.000000 0.000000 
#    y 0.000000 1.743770 0.000000 
#    z 0.000000 0.000000 1.668640 
# 
# From -- ./inp_files/10577.got.cif
#   From: 2010.05.17/outbox.cif.g08.bks.cpg/sg46_6_cif.got.tgz:10577.got - 2010.06.03 19:58:25.
