data_PCOD9381970
_publ_section_title
;
Structure prediction by ZEFSAII (Michael W. Deem and Ramdas Pophale) SiO2 
 PCOD9381970
Probable space group: P M M M
;
_chemical_formula_sum "Si O2"
_cell_formula_units_Z 48
_cell_length_a 7.357729
_cell_length_b 22.632539
_cell_length_c 12.924734
_cell_angle_alpha 90.000000
_cell_angle_beta 90.000000
_cell_angle_gamma 90.000000
_cell_volume 2152.279549
_symmetry_space_group_name_H-M "P M M M"
_symmetry_group_IT_number 47
_symmetry_cell_setting 'orthorhombic'
loop_
_space_group_symop_operation_xyz
x,y,z
-x,-y,z
x,-y,-z
-x,y,-z
-x,-y,-z
x,y,-z
-x,y,z
x,-y,z
loop_
_atom_site_type_symbol
_atom_site_label
_atom_site_fract_x
_atom_site_fract_y
_atom_site_fract_z
Si Si1 0.778408 0.431628 0.616175
Si Si2 0.282203 0.762245 0.384974
Si Si3 0.210391 0.662871 0.221063
Si Si4 0.221408 0.158325 0.000000
Si Si5 0.787634 0.098779 0.612375
Si Si6 0.223338 0.705647 0.000000
Si Si7 0.777938 0.064388 0.166513
O O1 0.720328 0.413877 0.500000
O O2 0.728060 0.500000 0.632299
O O3 0.711075 0.388404 0.705846
O O4 0.000000 0.429235 0.615839
O O5 0.221812 0.741508 0.500000
O O6 0.500000 0.760808 0.383329
O O7 0.216290 0.721698 0.291656
O O8 0.223825 0.830257 0.375128
O O9 0.000000 0.647033 0.204394
O O10 0.284944 0.675452 0.106891
O O11 0.280622 0.225801 0.000000
O O12 0.280167 0.119873 0.098524
O O13 0.000000 0.159431 0.000000
O O14 0.708572 0.083841 0.500000
O O15 0.712810 0.070680 0.716055
O O16 0.000000 0.082438 0.608946
O O17 0.000000 0.705759 0.000000
O O18 0.000000 0.066118 0.166806
O O19 0.726462 0.000000 0.124949
#
# Coordination Sequence:
#
# PCOD9381970 Si02
#       7
#     8   8   8   4   8   4   8
#     4   8  14  25  43  69  98 126 158 196 235 274
#     4  10  20  32  47  69  96 123 154 197 243 284
#     4  10  18  30  49  71  96 127 162 197 234 279
#     4   9  15  24  37  56  88 121 144 179 232 278
#     4   9  17  29  45  65  90 119 148 181 229 287
#     4   9  18  29  44  70  99 125 158 199 236 272
#     4   9  16  25  40  63  87 112 146 187 228 271
#
# _framework density 22.301935
#
# number of rings (size 3 to 8) (size 9 to 14) (size 15 to 20)
#    0.000    2.833    0.000    2.750    0.000    5.667 
#    0.000    2.500    0.000    3.500    0.000    4.667 
#    0.000    4.000    0.000    0.000    0.000    0.000 
#
# Total GULP energy -268072.487925 kJ/mol
# GULP energy per Si atom -5584.843498 kJ/mol
# Density = 2.225117 g / cm^3
# Si number density = 22.301935 Si / 1000 Ang^3
#
#
#
# Elastic Constant Matrix: (Units=GPa)
#
#
# Indices 1 2 3 4 5 6 
#
# 1 86.5696 -0.0742 8.2982 0.0000 0.0000 0.0000
# 2 -0.0742 114.3272 95.8056 0.0000 0.0000 0.0000
# 3 8.2982 95.8056 217.2795 0.0000 0.0000 0.0000
# 4 0.0000 0.0000 0.0000 74.1471 0.0000 0.0000
# 5 0.0000 0.0000 0.0000 0.0000 -15.7377 0.0000
# 6 0.0000 0.0000 0.0000 0.0000 0.0000 -53.0217
#
#
#
# Elastic Compliance Matrix: (Units=1/GPa)
#
#
# Indices 1 2 3 4 5 6 
#
# 1 0.011620 0.000602 -0.000709 0.000000 0.000000 0.000000
# 2 0.000602 0.013904 -0.006154 0.000000 0.000000 0.000000
# 3 -0.000709 -0.006154 0.007343 0.000000 0.000000 0.000000
# 4 0.000000 0.000000 0.000000 0.013487 0.000000 0.000000
# 5 0.000000 0.000000 0.000000 0.000000 -0.063542 0.000000
# 6 0.000000 0.000000 0.000000 0.000000 0.000000 -0.018860
#
#
# Mechanical properties :
#
#
# Convention : Reuss Voigt Hill
#
# Bulk Modulus (GPa) = 49.15308 69.58172 59.36740
# Shear Modulus (GPa) = -298.60200 22.02065 -138.29068
#
# Velocity S-wave (km/s) = -11.58366 3.14568 -7.88308
# Velocity P-wave (km/s) = 12.52281 6.66793 7.49531
#
# Compressibility (1/GPa) = 0.02034461
#
# Stress axis : x y z
#
# Youngs Moduli (GPa) = 86.05935 71.92177 136.18747
#
# Poissons Ratio (x) = -0.04328 0.09657
# Poissons Ratio (y) = -0.05179 0.83806
# Poissons Ratio (z) = 0.06103 0.44259
#
# Static dielectric constant tensor:
#      x y z
#    x 1.825990 0.000000 0.000000 
#    y 0.000000 1.773390 0.000000 
#    z 0.000000 0.000000 1.824970 
# 
# From -- ./inp_files/16657.got.cif
#   From: 2010.05.17/outbox.cif.g08.bks.cpg/sg47_9_cif.got.tgz:16657.got - 2010.06.03 20:15:42.
