data_PCOD9381147
_publ_section_title
;
Structure prediction by ZEFSAII (Michael W. Deem and Ramdas Pophale) SiO2 
 PCOD9381147
Probable space group: I M A 2
;
_chemical_formula_sum "Si O2"
_cell_formula_units_Z 28
_cell_length_a 15.000000
_cell_length_b 6.000000
_cell_length_c 30.000000
_cell_angle_alpha 90.000000
_cell_angle_beta 90.000000
_cell_angle_gamma 90.000000
_cell_volume 2700.000000
_symmetry_space_group_name_H-M "I M A 2"
_symmetry_group_IT_number 46
_symmetry_cell_setting 'orthorhombic'
loop_
_space_group_symop_operation_xyz
x,y,z
-x,-y,z
1/2-x,y,z
1/2+x,-y,z
1/2+x,1/2+y,1/2+z
1/2-x,1/2-y,1/2+z
-x,1/2+y,1/2+z
x,1/2-y,1/2+z
loop_
_atom_site_type_symbol
_atom_site_label
_atom_site_fract_x
_atom_site_fract_y
_atom_site_fract_z
Si Si1 0.603449 0.487163 0.388990
Si Si2 0.500000 0.500000 0.561554
Si Si3 0.350624 0.197565 0.716446
Si Si4 0.000000 0.500000 0.761812
Si Si5 0.593076 0.877926 0.616005
Si Si6 0.150319 0.673308 0.293431
Si Si7 0.645206 0.513496 0.932360
Si Si8 0.853822 0.344344 0.029748
O O1 0.500000 0.500000 0.380628
O O2 0.646851 0.464657 0.339814
O O3 0.617245 0.237335 0.412587
O O4 0.622014 0.732628 0.413308
O O5 0.564412 0.645750 0.593276
O O6 0.431874 0.657662 0.533794
O O7 0.250000 0.289630 0.723256
O O8 0.431346 0.358177 0.731392
O O9 0.359488 0.143090 0.663745
O O10 0.357912 0.985892 0.749934
O O11 0.066967 0.655924 0.790719
O O12 0.500000 0.000000 0.625718
O O13 0.639858 0.016935 0.576081
O O14 0.250000 0.777957 0.291960
O O15 0.750000 0.507214 0.925931
O O16 0.625677 0.492683 0.985616
O O17 0.750000 0.263894 0.025029
#
# Coordination Sequence:
#
# PCOD9381147 Si02
#       8
#     8   4   8   4   8   8   8   8
#     4  12  27  46  74 107 143 191 242 301 366 435
#     4  10  23  40  68 100 136 180 234 292 353 428
#     4  11  24  42  67  98 136 183 233 289 355 427
#     4  12  23  42  70 102 136 182 230 292 351 428
#     4  10  21  40  65  96 137 181 229 291 354 427
#     4  11  26  46  70 101 139 182 232 291 356 429
#     4  11  26  47  72 105 145 190 242 300 366 435
#     4  10  24  43  68 100 138 184 234 293 359 429
#
# _framework density 10.370369999999999
#
# number of rings (size 3 to 8) (size 9 to 14) (size 15 to 20)
#    0.000    1.143    0.000    5.143    7.000    4.571 
#    0.000    0.000    0.000    0.000    0.000    0.000 
#    0.000    0.000    0.000    0.000    0.000    0.000 
#
# Total GULP energy -156123.505055 kJ/mol
# GULP energy per Si atom -5575.839466 kJ/mol
# Density = 1.034677 g / cm^3
# Si number density = 10.370370 Si / 1000 Ang^3
#
#
#
# Elastic Constant Matrix: (Units=GPa)
#
#
# Indices 1 2 3 4 5 6 
#
# 1 162.4182 50.0504 42.4220 0.0000 0.0000 0.0000
# 2 50.0504 119.2688 58.6853 0.0000 0.0000 0.0000
# 3 42.4220 58.6853 145.8878 0.0000 0.0000 0.0000
# 4 0.0000 0.0000 0.0000 31.9164 0.0000 0.0000
# 5 0.0000 0.0000 0.0000 0.0000 38.0688 0.0000
# 6 0.0000 0.0000 0.0000 0.0000 0.0000 -300.3618
#
#
#
# Elastic Compliance Matrix: (Units=1/GPa)
#
#
# Indices 1 2 3 4 5 6 
#
# 1 0.007209 -0.002486 -0.001096 0.000000 0.000000 0.000000
# 2 -0.002486 0.011311 -0.003827 0.000000 0.000000 0.000000
# 3 -0.001096 -0.003827 0.008713 0.000000 0.000000 0.000000
# 4 0.000000 0.000000 0.000000 0.031332 0.000000 0.000000
# 5 0.000000 0.000000 0.000000 0.000000 0.026268 0.000000
# 6 0.000000 0.000000 0.000000 0.000000 0.000000 -0.003329
#
#
# Mechanical properties :
#
#
# Convention : Reuss Voigt Hill
#
# Bulk Modulus (GPa) = 80.55222 81.09891 80.82557
# Shear Modulus (GPa) = 49.77089 -27.64751 11.06169
#
# Velocity S-wave (km/s) = 4.90395 -3.65499 2.31190
# Velocity P-wave (km/s) = 8.42538 4.62322 6.79563
#
# Compressibility (1/GPa) = 0.01241431
#
# Stress axis : x y z
#
# Youngs Moduli (GPa) = 138.70856 88.41212 114.77286
#
# Poissons Ratio (x) = 0.21978 0.12584
# Poissons Ratio (y) = 0.34481 0.43924
# Poissons Ratio (z) = 0.15208 0.33835
#
# Static dielectric constant tensor:
#      x y z
#    x 1.743490 0.000000 0.000000 
#    y 0.000000 1.816400 0.000000 
#    z 0.000000 0.000000 1.752310 
# 
# From -- ./inp_files/25460.got.cif
#   From: 2010.05.17/outbox.ucp.g08.bks.cvg/sg46_13_cif.got.tgz:25460.got - 2010.06.11 16:34:52.
