data_PCOD9381819
_publ_section_title
;
Structure prediction by ZEFSAII (Michael W. Deem and Ramdas Pophale) SiO2 
 PCOD9381819
Probable space group: P M M M
;
_chemical_formula_sum "Si O2"
_cell_formula_units_Z 52
_cell_length_a 22.697465
_cell_length_b 14.240003
_cell_length_c 7.374943
_cell_angle_alpha 90.000000
_cell_angle_beta 90.000000
_cell_angle_gamma 90.000000
_cell_volume 2383.669853
_symmetry_space_group_name_H-M "P M M M"
_symmetry_group_IT_number 47
_symmetry_cell_setting 'orthorhombic'
loop_
_space_group_symop_operation_xyz
x,y,z
-x,-y,z
x,-y,-z
-x,y,-z
-x,-y,-z
x,y,-z
-x,y,z
x,-y,z
loop_
_atom_site_type_symbol
_atom_site_label
_atom_site_fract_x
_atom_site_fract_y
_atom_site_fract_z
Si Si1 0.000000 0.608898 0.721332
Si Si2 0.339842 0.753263 0.701146
Si Si3 0.758258 0.390988 0.722346
Si Si4 0.119846 0.699966 0.713102
Si Si5 0.565148 0.109760 0.720798
Si Si6 0.067282 0.106444 0.218007
Si Si7 0.568312 0.396463 0.781896
O O1 0.059288 0.657837 0.788558
O O2 0.000000 0.500000 0.768013
O O3 0.000000 0.615660 0.500000
O O4 0.318829 0.782359 0.500000
O O5 0.289190 0.687319 0.783921
O O6 0.375318 0.839900 0.788020
O O7 0.393805 0.681122 0.688728
O O8 0.755384 0.391713 0.500000
O O9 0.748986 0.500000 0.778330
O O10 0.821722 0.350965 0.782071
O O11 0.120274 0.678464 0.500000
O O12 0.112813 0.812191 0.730768
O O13 0.566110 0.117327 0.500000
O O14 0.500000 0.147052 0.779055
O O15 0.566435 0.000000 0.766024
O O16 0.000000 0.128985 0.280590
O O17 0.081139 0.000000 0.278613
O O18 0.065507 0.104795 0.000000
O O19 0.500000 0.391068 0.733824
O O20 0.590613 0.500000 0.734652
O O21 0.572554 0.386131 0.000000
#
# Coordination Sequence:
#
# PCOD9381819 Si02
#       7
#     4   8   8   8   8   8   8
#     4   9  16  26  44  69  92 118 157 201 242 287
#     4  10  18  29  48  71  92 122 163 200 235 283
#     4   9  18  31  46  68 101 132 156 193 245 291
#     4  10  18  30  49  73  96 125 166 205 238 283
#     4   8  14  25  42  66  94 120 149 191 240 283
#     4   9  18  33  52  73  99 129 155 188 246 306
#     4   9  18  31  45  64  93 125 154 191 243 293
#
# _framework density 21.815102
#
# number of rings (size 3 to 8) (size 9 to 14) (size 15 to 20)
#    0.000    2.846    0.769    2.769    0.000    4.000 
#    0.000    3.077    0.000    6.462    0.000    2.154 
#    0.000    0.000    0.000    0.000    0.000    0.000 
#
# Total GULP energy -289967.301807 kJ/mol
# GULP energy per Si atom -5576.294266 kJ/mol
# Density = 2.176545 g / cm^3
# Si number density = 21.815102 Si / 1000 Ang^3
#
#
#
# Elastic Constant Matrix: (Units=GPa)
#
#
# Indices 1 2 3 4 5 6 
#
# 1 129.6547 78.5993 6.5518 0.0000 0.0000 0.0000
# 2 78.5993 122.7140 -3.1987 0.0000 0.0000 0.0000
# 3 6.5518 -3.1987 73.0514 0.0000 0.0000 0.0000
# 4 0.0000 0.0000 0.0000 35.9986 0.0000 0.0000
# 5 0.0000 0.0000 0.0000 0.0000 -8.1807 0.0000
# 6 0.0000 0.0000 0.0000 0.0000 0.0000 57.6605
#
#
#
# Elastic Compliance Matrix: (Units=1/GPa)
#
#
# Indices 1 2 3 4 5 6 
#
# 1 0.012772 -0.008220 -0.001505 0.000000 0.000000 0.000000
# 2 -0.008220 0.013448 0.001326 0.000000 0.000000 0.000000
# 3 -0.001505 0.001326 0.013882 0.000000 0.000000 0.000000
# 4 0.000000 0.000000 0.000000 0.027779 0.000000 0.000000
# 5 0.000000 0.000000 0.000000 0.000000 -0.122239 0.000000
# 6 0.000000 0.000000 0.000000 0.000000 0.000000 0.017343
#
#
# Mechanical properties :
#
#
# Convention : Reuss Voigt Hill
#
# Bulk Modulus (GPa) = 42.91065 54.36944 48.64005
# Shear Modulus (GPa) = -401.65031 33.32686 -184.16173
#
# Velocity S-wave (km/s) = -13.58364 3.91282 -9.19797
# Velocity P-wave (km/s) = 15.04353 6.73724 9.51097
#
# Compressibility (1/GPa) = 0.02330424
#
# Stress axis : x y z
#
# Youngs Moduli (GPa) = 78.29751 74.35847 72.03535
#
# Poissons Ratio (x) = 0.61120 0.10844
# Poissons Ratio (y) = 0.64358 -0.09552
# Poissons Ratio (z) = 0.11787 -0.09860
#
# Static dielectric constant tensor:
#      x y z
#    x 1.797750 0.000000 0.000000 
#    y 0.000000 1.811350 0.000000 
#    z 0.000000 0.000000 1.837900 
# 
# From -- ./inp_files/11059.got.cif
#   From: 2010.05.17/outbox.cif.g08.bks.cpg/sg47_6_cif.got.tgz:11059.got - 2010.06.03 20:15:42.
