data_PCOD9381607
_publ_section_title
;
Structure prediction by ZEFSAII (Michael W. Deem and Ramdas Pophale) SiO2 
 PCOD9381607
Probable space group: P M M M
;
_chemical_formula_sum "Si O2"
_cell_formula_units_Z 52
_cell_length_a 13.030799
_cell_length_b 7.334212
_cell_length_c 25.599921
_cell_angle_alpha 90.000000
_cell_angle_beta 90.000000
_cell_angle_gamma 90.000000
_cell_volume 2446.600895
_symmetry_space_group_name_H-M "P M M M"
_symmetry_group_IT_number 47
_symmetry_cell_setting 'orthorhombic'
loop_
_space_group_symop_operation_xyz
x,y,z
-x,-y,z
x,-y,-z
-x,y,-z
-x,-y,-z
x,y,-z
-x,y,z
x,-y,z
loop_
_atom_site_type_symbol
_atom_site_label
_atom_site_fract_x
_atom_site_fract_y
_atom_site_fract_z
Si Si1 0.111394 0.720060 0.677669
Si Si2 0.500000 0.780310 0.254824
Si Si3 0.121240 0.278082 0.500000
Si Si4 0.377270 0.212367 0.055911
Si Si5 0.328768 0.775829 0.828227
Si Si6 0.891254 0.789388 0.200601
Si Si7 0.727582 0.722428 0.404939
Si Si8 0.500000 0.713464 0.620637
O O1 0.113005 0.500000 0.678074
O O2 0.112729 0.785186 0.736736
O O3 0.211335 0.780307 0.646849
O O4 0.000000 0.773061 0.654050
O O5 0.597024 0.720616 0.219394
O O6 0.500000 0.724994 0.315750
O O7 0.500000 0.000000 0.256119
O O8 0.116189 0.500000 0.500000
O O9 0.193323 0.224302 0.450943
O O10 0.000000 0.219232 0.500000
O O11 0.500000 0.214545 0.053113
O O12 0.355217 0.286572 0.113375
O O13 0.344002 0.000000 0.056827
O O14 0.339357 0.289306 0.000000
O O15 0.214286 0.710367 0.818304
O O16 0.334018 0.000000 0.828001
O O17 0.000000 0.706749 0.184606
O O18 0.891866 0.000000 0.183746
O O19 0.723715 0.500000 0.406392
O O20 0.608956 0.785592 0.402069
O O21 0.500000 0.500000 0.607213
#
# Coordination Sequence:
#
# PCOD9381607 Si02
#       8
#     8   4   4   8   8   8   8   4
#     4   9  16  27  43  61  81 105 136 174 208 236
#     4  10  18  28  44  65  85 110 144 175 202 236
#     4   9  16  27  45  67  87 107 138 178 212 241
#     4   8  12  19  33  54  79 104 131 167 211 248
#     4   9  15  24  38  57  82 108 136 173 208 239
#     4   9  17  27  39  57  82 112 140 164 199 248
#     4   9  17  28  42  62  87 113 137 166 207 249
#     4  10  20  31  42  61  93 121 136 159 202 254
#
# _framework density 21.253976999999999
#
# number of rings (size 3 to 8) (size 9 to 14) (size 15 to 20)
#    0.000    3.000    0.769    1.846    0.000    2.154 
#    0.000    1.538    0.000    0.462    0.000    5.923 
#    0.000    8.000    0.000    3.846    0.000    4.000 
#
# Total GULP energy -289632.580188 kJ/mol
# GULP energy per Si atom -5569.857311 kJ/mol
# Density = 2.120560 g / cm^3
# Si number density = 21.253977 Si / 1000 Ang^3
#
#
#
# Elastic Constant Matrix: (Units=GPa)
#
#
# Indices 1 2 3 4 5 6 
#
# 1 181.1073 9.6297 60.4410 0.0000 0.0000 0.0000
# 2 9.6297 80.5736 -6.9325 0.0000 0.0000 0.0000
# 3 60.4410 -6.9325 87.9273 0.0000 0.0000 0.0000
# 4 0.0000 0.0000 0.0000 -15.4778 0.0000 0.0000
# 5 0.0000 0.0000 0.0000 0.0000 13.5484 0.0000
# 6 0.0000 0.0000 0.0000 0.0000 0.0000 5.7048
#
#
#
# Elastic Compliance Matrix: (Units=1/GPa)
#
#
# Indices 1 2 3 4 5 6 
#
# 1 0.007301 -0.001313 -0.005122 0.000000 0.000000 0.000000
# 2 -0.001313 0.012732 0.001907 0.000000 0.000000 0.000000
# 3 -0.005122 0.001907 0.015044 0.000000 0.000000 0.000000
# 4 0.000000 0.000000 0.000000 -0.064609 0.000000 0.000000
# 5 0.000000 0.000000 0.000000 0.000000 0.073809 0.000000
# 6 0.000000 0.000000 0.000000 0.000000 0.000000 0.175292
#
#
# Mechanical properties :
#
#
# Convention : Reuss Voigt Hill
#
# Bulk Modulus (GPa) = 38.43269 52.87606 45.65438
# Shear Modulus (GPa) = 21.07033 19.85308 20.46171
#
# Velocity S-wave (km/s) = 3.15200 3.05960 3.10614
# Velocity P-wave (km/s) = 5.60077 6.11668 5.86440
#
# Compressibility (1/GPa) = 0.02601951
#
# Stress axis : x y z
#
# Youngs Moduli (GPa) = 136.97094 78.54222 66.47043
#
# Poissons Ratio (x) = 0.10315 0.34047
# Poissons Ratio (y) = 0.17988 -0.12673
# Poissons Ratio (z) = 0.70158 -0.14975
#
# Static dielectric constant tensor:
#      x y z
#    x 1.792210 0.000000 0.000000 
#    y 0.000000 1.947730 0.000000 
#    z 0.000000 0.000000 1.983690 
# 
# From -- ./inp_files/33652.got.cif
#   From: 2010.05.17/outbox.cif.g08.bks.cpg/sg47_17_cif.got.tgz:33652.got - 2010.06.03 20:15:42.
