data_PCOD9381174
_publ_section_title
;
Structure prediction by ZEFSAII (Michael W. Deem and Ramdas Pophale) SiO2 
 PCOD9381174
Probable space group: P M M M
;
_chemical_formula_sum "Si O2"
_cell_formula_units_Z 48
_cell_length_a 7.247711
_cell_length_b 20.347770
_cell_length_c 16.821568
_cell_angle_alpha 90.000000
_cell_angle_beta 90.000000
_cell_angle_gamma 90.000000
_cell_volume 2480.756644
_symmetry_space_group_name_H-M "P M M M"
_symmetry_group_IT_number 47
_symmetry_cell_setting 'orthorhombic'
loop_
_space_group_symop_operation_xyz
x,y,z
-x,-y,z
x,-y,-z
-x,y,-z
-x,-y,-z
x,y,-z
-x,y,z
x,-y,z
loop_
_atom_site_type_symbol
_atom_site_label
_atom_site_fract_x
_atom_site_fract_y
_atom_site_fract_z
Si Si1 0.723573 0.074863 0.591123
Si Si2 0.276052 0.425308 0.092809
Si Si3 0.274830 0.203749 0.671617
Si Si4 0.292422 0.250098 0.500000
Si Si5 0.777092 0.599528 0.500000
Si Si6 0.223003 0.430498 0.674567
Si Si7 0.292700 0.685550 0.787332
O O1 0.779124 0.093814 0.500000
O O2 0.500000 0.074273 0.590285
O O3 0.776824 0.127411 0.658515
O O4 0.784219 0.000000 0.604745
O O5 0.500000 0.425939 0.100577
O O6 0.213676 0.500000 0.113726
O O7 0.210047 0.363071 0.145154
O O8 0.232476 0.415621 0.000000
O O9 0.500000 0.208185 0.674293
O O10 0.212440 0.232238 0.585986
O O11 0.211939 0.248461 0.746146
O O12 0.500000 0.221292 0.500000
O O13 0.297009 0.327655 0.500000
O O14 0.723580 0.568483 0.582799
O O15 0.000000 0.601134 0.500000
O O16 0.281149 0.500000 0.711445
O O17 0.300291 0.366106 0.714854
O O18 0.000000 0.426482 0.679809
O O19 0.500000 0.702617 0.814593
#
# Coordination Sequence:
#
# PCOD9381174 Si02
#       7
#     8   8   8   4   4   8   8
#     4   8  12  18  29  46  71 103 130 148 176 220
#     4   8  14  25  40  57  76  96 119 150 189 234
#     4   9  15  22  34  53  77  99 121 154 191 223
#     4  10  16  25  38  53  76  99 118 154 204 228
#     4  10  19  30  40  49  67 100 138 162 181 218
#     4  10  20  31  40  51  72 101 131 162 190 218
#     4  10  18  27  42  61  77  94 120 156 198 236
#
# _framework density 19.348935000000001
#
# number of rings (size 3 to 8) (size 9 to 14) (size 15 to 20)
#    0.000    2.833    2.500    1.750    0.000    2.000 
#    0.000    0.000    0.000    2.000    0.000    2.333 
#    0.000    4.000    0.000    9.333    0.000    0.000 
#
# Total GULP energy -267380.050084 kJ/mol
# GULP energy per Si atom -5570.417710 kJ/mol
# Density = 1.930490 g / cm^3
# Si number density = 19.348935 Si / 1000 Ang^3
#
#
#
# Elastic Constant Matrix: (Units=GPa)
#
#
# Indices 1 2 3 4 5 6 
#
# 1 82.5347 2.2366 3.6642 0.0000 0.0000 0.0000
# 2 2.2366 152.9961 56.9749 0.0000 0.0000 0.0000
# 3 3.6642 56.9749 112.6778 0.0000 0.0000 0.0000
# 4 0.0000 0.0000 0.0000 34.8125 0.0000 0.0000
# 5 0.0000 0.0000 0.0000 0.0000 3.7724 0.0000
# 6 0.0000 0.0000 0.0000 0.0000 0.0000 -12.9369
#
#
#
# Elastic Compliance Matrix: (Units=1/GPa)
#
#
# Indices 1 2 3 4 5 6 
#
# 1 0.012134 -0.000038 -0.000376 0.000000 0.000000 0.000000
# 2 -0.000038 0.008052 -0.004070 0.000000 0.000000 0.000000
# 3 -0.000376 -0.004070 0.010945 0.000000 0.000000 0.000000
# 4 0.000000 0.000000 0.000000 0.028725 0.000000 0.000000
# 5 0.000000 0.000000 0.000000 0.000000 0.265080 0.000000
# 6 0.000000 0.000000 0.000000 0.000000 0.000000 -0.077298
#
#
# Mechanical properties :
#
#
# Convention : Reuss Voigt Hill
#
# Bulk Modulus (GPa) = 45.11740 52.66222 48.88981
# Shear Modulus (GPa) = 18.93983 24.15181 21.54582
#
# Velocity S-wave (km/s) = 3.13206 3.53685 3.34060
# Velocity P-wave (km/s) = 6.03723 6.62988 6.34048
#
# Compressibility (1/GPa) = 0.02216440
#
# Stress axis : x y z
#
# Youngs Moduli (GPa) = 82.41435 124.18522 91.36343
#
# Poissons Ratio (x) = 0.00466 0.03432
# Poissons Ratio (y) = 0.00309 0.37189
# Poissons Ratio (z) = 0.03096 0.50549
#
# Static dielectric constant tensor:
#      x y z
#    x 1.761130 0.000000 0.000000 
#    y 0.000000 1.702070 0.000000 
#    z 0.000000 0.000000 1.677150 
# 
# From -- ./inp_files/26894.got.cif
#   From: 2010.05.17/outbox.cif.g08.bks.cpg/sg47_14_cif.got.tgz:26894.got - 2010.06.03 20:15:42.
