data_PCOD9381011
_publ_section_title
;
Structure prediction by ZEFSAII (Michael W. Deem and Ramdas Pophale) SiO2 
 PCOD9381011
Probable space group: I M A 2
;
_chemical_formula_sum "Si O2"
_cell_formula_units_Z 40
_cell_length_a 18.737389
_cell_length_b 20.036399
_cell_length_c 4.971615
_cell_angle_alpha 90.000000
_cell_angle_beta 90.000000
_cell_angle_gamma 90.000000
_cell_volume 1866.492436
_symmetry_space_group_name_H-M "I M A 2"
_symmetry_group_IT_number 46
_symmetry_cell_setting 'orthorhombic'
loop_
_space_group_symop_operation_xyz
x,y,z
-x,-y,z
1/2-x,y,z
1/2+x,-y,z
1/2+x,1/2+y,1/2+z
1/2-x,1/2-y,1/2+z
-x,1/2+y,1/2+z
x,1/2-y,1/2+z
loop_
_atom_site_type_symbol
_atom_site_label
_atom_site_fract_x
_atom_site_fract_y
_atom_site_fract_z
Si Si1 0.378294 0.390253 0.856240
Si Si2 0.378506 0.600500 0.144571
Si Si3 0.975029 0.421640 0.631408
Si Si4 0.329794 0.040141 0.849437
Si Si5 0.750000 0.203821 0.678849
Si Si6 0.250000 0.291213 0.756486
O O1 0.456892 0.381045 0.740075
O O2 0.344939 0.447087 0.660678
O O3 0.321972 0.330944 0.828281
O O4 0.381221 0.416636 0.159860
O O5 0.442677 0.608265 0.359149
O O6 0.338763 0.535546 0.262514
O O7 0.320940 0.659428 0.132069
O O8 0.414409 0.583828 0.859758
O O9 0.000000 0.500000 0.597078
O O10 0.250000 0.063016 0.788288
O O11 0.750000 0.266419 0.477650
O O12 0.250000 0.274059 0.442606
#
# Coordination Sequence:
#
# PCOD9381011 Si02
#       6
#     8   8   8   8   4   4
#     4  12  24  40  66  96 135 166 210 273 331 398
#     4  12  24  42  68 102 138 170 217 279 337 408
#     4  12  23  40  67 109 140 163 202 274 367 414
#     4  12  20  37  65 102 129 160 212 276 343 388
#     4  12  28  50  70  94 134 194 246 278 314 390
#     4  12  26  46  62  86 122 178 228 258 294 370
#
# _framework density 21.430572999999999
#
# number of rings (size 3 to 8) (size 9 to 14) (size 15 to 20)
#    0.000    0.000    7.000    4.200    0.000    0.000 
#    0.000    6.000    0.000    0.000    0.000    0.000 
#    0.000    0.000    0.000    0.000    0.000    0.000 
#
# Total GULP energy -111875.442223 kJ/mol
# GULP energy per Si atom -5593.772111 kJ/mol
# Density = 2.138180 g / cm^3
# Si number density = 21.430573 Si / 1000 Ang^3
#
#
#
# Elastic Constant Matrix: (Units=GPa)
#
#
# Indices 1 2 3 4 5 6 
#
# 1 115.5067 30.6896 4.9618 0.0000 0.0000 0.0000
# 2 30.6896 58.3668 -5.7586 0.0000 0.0000 0.0000
# 3 4.9618 -5.7586 68.2033 0.0000 0.0000 0.0000
# 4 0.0000 0.0000 0.0000 26.8916 0.0000 0.0000
# 5 0.0000 0.0000 0.0000 0.0000 35.3706 0.0000
# 6 0.0000 0.0000 0.0000 0.0000 0.0000 14.2621
#
#
#
# Elastic Compliance Matrix: (Units=1/GPa)
#
#
# Indices 1 2 3 4 5 6 
#
# 1 0.010160 -0.005461 -0.001200 0.000000 0.000000 0.000000
# 2 -0.005461 0.020212 0.002104 0.000000 0.000000 0.000000
# 3 -0.001200 0.002104 0.014927 0.000000 0.000000 0.000000
# 4 0.000000 0.000000 0.000000 0.037186 0.000000 0.000000
# 5 0.000000 0.000000 0.000000 0.000000 0.028272 0.000000
# 6 0.000000 0.000000 0.000000 0.000000 0.000000 0.070116
#
#
# Mechanical properties :
#
#
# Convention : Reuss Voigt Hill
#
# Bulk Modulus (GPa) = 27.63592 33.54027 30.58809
# Shear Modulus (GPa) = 24.74656 29.45047 27.09852
#
# Velocity S-wave (km/s) = 3.40182 3.71108 3.55981
# Velocity P-wave (km/s) = 5.32479 5.83502 5.58573
#
# Compressibility (1/GPa) = 0.03618479
#
# Stress axis : x y z
#
# Youngs Moduli (GPa) = 98.42608 49.47609 66.99271
#
# Poissons Ratio (x) = 0.27017 0.08040
# Poissons Ratio (y) = 0.53746 -0.14094
# Poissons Ratio (z) = 0.11813 -0.10409
#
# Static dielectric constant tensor:
#      x y z
#    x 1.815750 0.000000 0.000000 
#    y 0.000000 1.768560 0.000000 
#    z 0.000000 0.000000 1.743340 
# 
# From -- ./inp_files/1602.got.cif
#   From: 2010.05.17/outbox.cif.g08.bks.cpg/sg46_1_cif.got.tgz:1602.got - 2010.06.03 19:58:25.
