data_PCOD9381317
_publ_section_title
;
Structure prediction by ZEFSAII (Michael W. Deem and Ramdas Pophale) SiO2 
 PCOD9381317
Probable space group: P M M M
;
_chemical_formula_sum "Si O2"
_cell_formula_units_Z 64
_cell_length_a 20.358750
_cell_length_b 21.520899
_cell_length_c 7.581854
_cell_angle_alpha 90.000000
_cell_angle_beta 90.000000
_cell_angle_gamma 90.000000
_cell_volume 3321.902916
_symmetry_space_group_name_H-M "P M M M"
_symmetry_group_IT_number 47
_symmetry_cell_setting 'orthorhombic'
loop_
_space_group_symop_operation_xyz
x,y,z
-x,-y,z
x,-y,-z
-x,y,-z
-x,-y,-z
x,y,-z
-x,y,z
x,-y,z
loop_
_atom_site_type_symbol
_atom_site_label
_atom_site_fract_x
_atom_site_fract_y
_atom_site_fract_z
Si Si1 0.571143 0.905282 0.203848
Si Si2 0.154161 0.687950 0.292765
Si Si3 0.924354 0.429735 0.715227
Si Si4 0.712078 0.110004 0.785950
Si Si5 0.924111 0.192069 0.283884
Si Si6 0.429339 0.239410 0.710564
Si Si7 0.144065 0.933066 0.709444
Si Si8 0.712965 0.253053 0.207076
O O1 0.500000 0.923632 0.282394
O O2 0.643263 0.919846 0.278680
O O3 0.572326 0.829794 0.207912
O O4 0.570221 0.925594 0.000000
O O5 0.138409 0.686651 0.500000
O O6 0.125068 0.623620 0.221245
O O7 0.116948 0.748618 0.220209
O O8 0.231319 0.701536 0.277349
O O9 0.922541 0.431247 0.500000
O O10 0.909401 0.500000 0.774647
O O11 0.000000 0.414862 0.763300
O O12 0.778088 0.075414 0.735013
O O13 0.718568 0.181932 0.722145
O O14 0.707863 0.111183 0.000000
O O15 0.921027 0.191579 0.500000
O O16 0.892012 0.127913 0.219961
O O17 0.000000 0.196858 0.234731
O O18 0.428550 0.231283 0.500000
O O19 0.500000 0.267667 0.760399
O O20 0.362208 0.272760 0.761574
O O21 0.131222 0.934038 0.500000
O O22 0.123424 0.000000 0.782523
O O23 0.724157 0.248691 0.000000
#
# Coordination Sequence:
#
# PCOD9381317 Si02
#       8
#     8   8   8   8   8   8   8   8
#     4   8  14  25  41  62  87 114 144 179 222 270
#     4  10  17  27  47  71  94 122 154 190 228 268
#     4   8  14  25  43  70 101 128 156 192 232 274
#     4   9  17  29  45  63  84 113 146 182 224 271
#     4   9  17  29  46  68  89 110 142 185 231 276
#     4   9  16  25  39  62  91 121 153 188 226 270
#     4  10  20  32  46  64  85 111 144 186 234 280
#     4  10  19  29  43  64  92 124 155 190 231 272
#
# _framework density 19.266067
#
# number of rings (size 3 to 8) (size 9 to 14) (size 15 to 20)
#    0.000    2.875    1.250    2.250    0.000    4.750 
#    0.000    1.250    0.000    3.375    0.000    4.375 
#    0.000    0.500    0.000    5.750    0.000    1.750 
#
# Total GULP energy -356767.946741 kJ/mol
# GULP energy per Si atom -5574.499168 kJ/mol
# Density = 1.922222 g / cm^3
# Si number density = 19.266067 Si / 1000 Ang^3
#
#
#
# Elastic Constant Matrix: (Units=GPa)
#
#
# Indices 1 2 3 4 5 6 
#
# 1 130.6700 72.7043 -10.2824 0.0000 0.0000 0.0000
# 2 72.7043 112.5313 7.5138 0.0000 0.0000 0.0000
# 3 -10.2824 7.5138 42.9380 0.0000 0.0000 0.0000
# 4 0.0000 0.0000 0.0000 8.3599 0.0000 0.0000
# 5 0.0000 0.0000 0.0000 0.0000 28.7220 0.0000
# 6 0.0000 0.0000 0.0000 0.0000 0.0000 47.1659
#
#
#
# Elastic Compliance Matrix: (Units=1/GPa)
#
#
# Indices 1 2 3 4 5 6 
#
# 1 0.012772 -0.008556 0.004556 0.000000 0.000000 0.000000
# 2 -0.008556 0.014723 -0.004625 0.000000 0.000000 0.000000
# 3 0.004556 -0.004625 0.025190 0.000000 0.000000 0.000000
# 4 0.000000 0.000000 0.000000 0.119619 0.000000 0.000000
# 5 0.000000 0.000000 0.000000 0.000000 0.034817 0.000000
# 6 0.000000 0.000000 0.000000 0.000000 0.000000 0.021202
#
#
# Mechanical properties :
#
#
# Convention : Reuss Voigt Hill
#
# Bulk Modulus (GPa) = 28.22173 47.33453 37.77813
# Shear Modulus (GPa) = 19.42625 31.26313 25.34469
#
# Velocity S-wave (km/s) = 3.17884 4.03265 3.63093
# Velocity P-wave (km/s) = 5.30600 6.80479 6.10159
#
# Compressibility (1/GPa) = 0.03543369
#
# Stress axis : x y z
#
# Youngs Moduli (GPa) = 78.29776 67.92102 39.69874
#
# Poissons Ratio (x) = 0.58112 -0.18085
# Poissons Ratio (y) = 0.66990 0.18362
# Poissons Ratio (z) = -0.35670 0.31415
#
# Static dielectric constant tensor:
#      x y z
#    x 1.706540 0.000000 0.000000 
#    y 0.000000 1.667790 0.000000 
#    z 0.000000 0.000000 1.730990 
# 
# From -- ./inp_files/11860.got.cif
#   From: 2010.05.17/outbox.cif.g08.bks.cpg/sg47_6_cif.got.tgz:11860.got - 2010.06.03 20:15:42.
