data_PCOD9381185
_publ_section_title
;
Structure prediction by ZEFSAII (Michael W. Deem and Ramdas Pophale) SiO2 
 PCOD9381185
Probable space group: P M M M
;
_chemical_formula_sum "Si O2"
_cell_formula_units_Z 40
_cell_length_a 20.568030
_cell_length_b 7.762649
_cell_length_c 12.176622
_cell_angle_alpha 90.000000
_cell_angle_beta 90.000000
_cell_angle_gamma 90.000000
_cell_volume 1944.148662
_symmetry_space_group_name_H-M "P M M M"
_symmetry_group_IT_number 47
_symmetry_cell_setting 'orthorhombic'
loop_
_space_group_symop_operation_xyz
x,y,z
-x,-y,z
x,-y,-z
-x,y,-z
-x,-y,-z
x,y,-z
-x,y,z
x,-y,z
loop_
_atom_site_type_symbol
_atom_site_label
_atom_site_fract_x
_atom_site_fract_y
_atom_site_fract_z
Si Si1 0.374338 0.203051 0.234410
Si Si2 0.138391 0.210761 0.781534
Si Si3 0.000000 0.789788 0.870797
Si Si4 0.652871 0.691574 0.000000
Si Si5 0.206125 0.195941 0.000000
Si Si6 0.500000 0.293316 0.625307
Si Si7 0.249972 0.789070 0.625464
O O1 0.384310 0.280947 0.113630
O O2 0.435852 0.233798 0.311393
O O3 0.309103 0.268094 0.295570
O O4 0.365601 0.000000 0.217876
O O5 0.180683 0.264612 0.676528
O O6 0.064765 0.264991 0.805972
O O7 0.138063 0.000000 0.777612
O O8 0.179018 0.271229 0.887917
O O9 0.000000 0.000000 0.873760
O O10 0.000000 0.735803 0.000000
O O11 0.716664 0.808391 0.000000
O O12 0.679987 0.500000 0.000000
O O13 0.180634 0.000000 0.000000
O O14 0.500000 0.500000 0.623946
O O15 0.500000 0.229999 0.500000
O O16 0.259056 0.732607 0.500000
O O17 0.251849 0.000000 0.625335
#
# Coordination Sequence:
#
# PCOD9381185 Si02
#       7
#     8   8   4   4   4   4   8
#     4  11  22  39  63  86 111 148 196 236 274 334
#     4   9  15  24  42  70 104 138 181 230 277 327
#     4   9  14  20  35  65 103 141 179 224 279 334
#     4  12  24  37  56  87 121 145 175 229 300 354
#     4  10  16  29  51  75 104 143 186 229 273 332
#     4  11  25  44  63  88 125 159 187 229 282 327
#     4   9  17  29  48  75 105 138 181 232 275 316
#
# _framework density 20.574558
#
# number of rings (size 3 to 8) (size 9 to 14) (size 15 to 20)
#    0.000    2.000    3.000    2.400    0.000    2.000 
#    0.000    2.500    0.000    3.000    0.000    1.400 
#    0.000    0.000    0.000    1.800    0.000    2.000 
#
# Total GULP energy -223240.149915 kJ/mol
# GULP energy per Si atom -5581.003748 kJ/mol
# Density = 2.052773 g / cm^3
# Si number density = 20.574558 Si / 1000 Ang^3
#
#
#
# Elastic Constant Matrix: (Units=GPa)
#
#
# Indices 1 2 3 4 5 6 
#
# 1 130.4031 -2.9758 70.9974 0.0000 0.0000 0.0000
# 2 -2.9758 35.9950 10.1444 0.0000 0.0000 0.0000
# 3 70.9974 10.1444 172.6742 0.0000 0.0000 0.0000
# 4 0.0000 0.0000 0.0000 3.6951 0.0000 0.0000
# 5 0.0000 0.0000 0.0000 0.0000 31.5324 0.0000
# 6 0.0000 0.0000 0.0000 0.0000 0.0000 -53.5183
#
#
#
# Elastic Compliance Matrix: (Units=1/GPa)
#
#
# Indices 1 2 3 4 5 6 
#
# 1 0.010023 0.002024 -0.004240 0.000000 0.000000 0.000000
# 2 0.002024 0.028658 -0.002516 0.000000 0.000000 0.000000
# 3 -0.004240 -0.002516 0.007682 0.000000 0.000000 0.000000
# 4 0.000000 0.000000 0.000000 0.270628 0.000000 0.000000
# 5 0.000000 0.000000 0.000000 0.000000 0.031713 0.000000
# 6 0.000000 0.000000 0.000000 0.000000 0.000000 -0.018685
#
#
# Mechanical properties :
#
#
# Convention : Reuss Voigt Hill
#
# Bulk Modulus (GPa) = 27.10078 55.04490 41.07284
# Shear Modulus (GPa) = 14.21327 13.73560 13.97444
#
# Velocity S-wave (km/s) = 2.63119 2.58660 2.60899
# Velocity P-wave (km/s) = 4.73619 5.97768 5.39278
#
# Compressibility (1/GPa) = 0.03689931
#
# Stress axis : x y z
#
# Youngs Moduli (GPa) = 99.76873 34.89437 130.16764
#
# Poissons Ratio (x) = -0.07061 0.55192
# Poissons Ratio (y) = -0.20189 0.32746
# Poissons Ratio (z) = 0.42302 0.08778
#
# Static dielectric constant tensor:
#      x y z
#    x 1.710340 0.000000 0.000000 
#    y 0.000000 1.790080 0.000000 
#    z 0.000000 0.000000 1.726880 
# 
# From -- ./inp_files/18996.got.cif
#   From: 2010.05.17/outbox.cif.g08.bks.cpg/sg47_10_cif.got.tgz:18996.got - 2010.06.03 20:15:42.
