data_PCOD9381068
_publ_section_title
;
Structure prediction by ZEFSAII (Michael W. Deem and Ramdas Pophale) SiO2 
 PCOD9381068
Probable space group: I M A 2
;
_chemical_formula_sum "Si O2"
_cell_formula_units_Z 24
_cell_length_a 21.262465
_cell_length_b 6.639620
_cell_length_c 7.335660
_cell_angle_alpha 90.000000
_cell_angle_beta 90.000000
_cell_angle_gamma 90.000000
_cell_volume 1035.609511
_symmetry_space_group_name_H-M "I M A 2"
_symmetry_group_IT_number 46
_symmetry_cell_setting 'orthorhombic'
loop_
_space_group_symop_operation_xyz
x,y,z
-x,-y,z
1/2-x,y,z
1/2+x,-y,z
1/2+x,1/2+y,1/2+z
1/2-x,1/2-y,1/2+z
-x,1/2+y,1/2+z
x,1/2-y,1/2+z
loop_
_atom_site_type_symbol
_atom_site_label
_atom_site_fract_x
_atom_site_fract_y
_atom_site_fract_z
Si Si1 0.318814 0.002394 0.268090
Si Si2 0.427141 0.465179 0.503860
Si Si3 0.366141 0.084589 0.639485
O O1 0.250000 0.927680 0.212852
O O2 0.330422 0.967074 0.481723
O O3 0.321161 0.246767 0.233759
O O4 0.378623 0.938981 0.147960
O O5 0.500000 0.500000 0.532688
O O6 0.415835 0.224965 0.529993
O O7 0.402555 0.520403 0.303249
#
# Coordination Sequence:
#
# PCOD9381068 Si02
#       3
#     8   8   8
#     4   9  15  25  42  64  89 112 138 177 221 259
#     4   9  17  29  42  64  92 116 142 173 215 260
#     4   8  17  26  40  66  88 116 138 170 217 257
#
# _framework density 23.174757
#
# number of rings (size 3 to 8) (size 9 to 14) (size 15 to 20)
#    2.000    1.333    0.000    1.000    0.000    2.667 
#    0.000    0.000    0.000    0.000    0.000    2.333 
#    0.000    0.000    0.000    0.000    0.000    0.000 
#
# Total GULP energy -66810.228602 kJ/mol
# GULP energy per Si atom -5567.519050 kJ/mol
# Density = 2.312201 g / cm^3
# Si number density = 23.174757 Si / 1000 Ang^3
#
#
#
# Elastic Constant Matrix: (Units=GPa)
#
#
# Indices 1 2 3 4 5 6 
#
# 1 223.0265 21.4660 91.0639 0.0000 0.0000 0.0000
# 2 21.4660 43.7603 12.0432 0.0000 0.0000 0.0000
# 3 91.0639 12.0432 163.1193 0.0000 0.0000 0.0000
# 4 0.0000 0.0000 0.0000 -0.6151 0.0000 0.0000
# 5 0.0000 0.0000 0.0000 0.0000 27.6470 0.0000
# 6 0.0000 0.0000 0.0000 0.0000 0.0000 11.6424
#
#
#
# Elastic Compliance Matrix: (Units=1/GPa)
#
#
# Indices 1 2 3 4 5 6 
#
# 1 0.005984 -0.002058 -0.003189 0.000000 0.000000 0.000000
# 2 -0.002058 0.024033 -0.000626 0.000000 0.000000 0.000000
# 3 -0.003189 -0.000626 0.007957 0.000000 0.000000 0.000000
# 4 0.000000 0.000000 0.000000 -1.625645 0.000000 0.000000
# 5 0.000000 0.000000 0.000000 0.000000 0.036170 0.000000
# 6 0.000000 0.000000 0.000000 0.000000 0.000000 0.085893
#
#
# Mechanical properties :
#
#
# Convention : Reuss Voigt Hill
#
# Bulk Modulus (GPa) = 38.12439 75.45027 56.78733
# Shear Modulus (GPa) = -3.45992 28.09039 12.31523
#
# Velocity S-wave (km/s) = -1.22320 3.48532 2.30773
# Velocity P-wave (km/s) = 3.80678 6.98744 5.62654
#
# Compressibility (1/GPa) = 0.02622992
#
# Stress axis : x y z
#
# Youngs Moduli (GPa) = 167.11888 41.60886 125.67928
#
# Poissons Ratio (x) = 0.08562 0.40074
# Poissons Ratio (y) = 0.34388 0.07863
# Poissons Ratio (z) = 0.53288 0.02603
#
# Static dielectric constant tensor:
#      x y z
#    x 1.836010 0.000000 0.000000 
#    y 0.000000 2.036850 0.000000 
#    z 0.000000 0.000000 1.875260 
# 
# From -- ./inp_files/3122.got.cif
#   From: 2010.05.17/outbox.cif.g08.bks.cpg/sg46_2_cif.got.tgz:3122.got - 2010.06.03 19:58:25.
