data_PCOD9381131
_publ_section_title
;
Structure prediction by ZEFSAII (Michael W. Deem and Ramdas Pophale) SiO2 
 PCOD9381131
Probable space group: I M A 2
;
_chemical_formula_sum "Si O2"
_cell_formula_units_Z 32
_cell_length_a 9.000000
_cell_length_b 15.000000
_cell_length_c 24.000000
_cell_angle_alpha 90.000000
_cell_angle_beta 90.000000
_cell_angle_gamma 90.000000
_cell_volume 3240.000000
_symmetry_space_group_name_H-M "I M A 2"
_symmetry_group_IT_number 46
_symmetry_cell_setting 'orthorhombic'
loop_
_space_group_symop_operation_xyz
x,y,z
-x,-y,z
1/2-x,y,z
1/2+x,-y,z
1/2+x,1/2+y,1/2+z
1/2-x,1/2-y,1/2+z
-x,1/2+y,1/2+z
x,1/2-y,1/2+z
loop_
_atom_site_type_symbol
_atom_site_label
_atom_site_fract_x
_atom_site_fract_y
_atom_site_fract_z
Si Si1 0.073454 0.647636 0.125000
Si Si2 0.426898 0.092566 0.742294
Si Si3 0.573147 0.235294 0.433128
Si Si4 0.073938 0.410906 0.726786
Si Si5 0.574630 0.594388 0.483814
Si Si6 0.927833 0.589018 0.012098
Si Si7 0.926815 0.737235 0.815665
Si Si8 0.075185 0.166010 0.108718
O O1 0.250000 0.631518 0.123875
O O2 0.004371 0.622198 0.184546
O O3 0.990926 0.598068 0.074591
O O4 0.032755 0.750118 0.112911
O O5 0.250000 0.084888 0.732552
O O6 0.450225 0.164797 0.790603
O O7 0.500000 0.000000 0.758849
O O8 0.750000 0.227124 0.439454
O O9 0.514666 0.332792 0.449055
O O10 0.488709 0.170507 0.475894
O O11 0.520488 0.217141 0.370346
O O12 0.250000 0.419894 0.730261
O O13 0.031392 0.328199 0.765135
O O14 0.038535 0.393907 0.662096
O O15 0.000000 0.500000 0.747691
O O16 0.500000 0.500000 0.474160
O O17 0.750000 0.595914 0.469995
O O18 0.561077 0.618809 0.549435
O O19 0.750000 0.586821 0.012409
O O20 0.000000 0.500000 0.987450
O O21 0.750000 0.726751 0.827635
O O22 0.250000 0.194878 0.114355
#
# Coordination Sequence:
#
# PCOD9381131 Si02
#       8
#     8   8   8   8   8   8   8   8
#     4  12  23  37  63  97 131 167 208 255 314 381
#     4  11  23  42  66  93 128 166 210 260 315 376
#     4  12  26  44  66  94 127 165 215 267 319 380
#     4  10  21  39  63  93 126 164 207 251 307 368
#     4  11  23  40  66  95 130 170 211 259 314 377
#     4  12  25  44  68  95 129 167 211 261 318 381
#     4  10  23  44  66  87 123 171 213 261 317 371
#     4  10  20  38  63  92 128 170 204 250 314 376
#
# _framework density 9.8765429999999999
#
# number of rings (size 3 to 8) (size 9 to 14) (size 15 to 20)
#    0.000    1.000    2.500    4.875    0.000    3.500 
#    0.000    2.500    0.000    0.000    0.000    0.000 
#    0.000    0.000    0.000    0.000    0.000    0.000 
#
# Total GULP energy -178908.214744 kJ/mol
# GULP energy per Si atom -5590.881711 kJ/mol
# Density = 0.985406 g / cm^3
# Si number density = 9.876543 Si / 1000 Ang^3
#
#
#
# Elastic Constant Matrix: (Units=GPa)
#
#
# Indices 1 2 3 4 5 6 
#
# 1 110.2271 19.2010 15.5432 0.0000 0.0000 0.0000
# 2 19.2010 74.7218 -19.9268 0.0000 0.0000 0.0000
# 3 15.5432 -19.9268 40.0388 0.0000 0.0000 0.0000
# 4 0.0000 0.0000 0.0000 -16.2493 0.0000 0.0000
# 5 0.0000 0.0000 0.0000 0.0000 -458.7638 0.0000
# 6 0.0000 0.0000 0.0000 0.0000 0.0000 31.4235
#
#
#
# Elastic Compliance Matrix: (Units=1/GPa)
#
#
# Indices 1 2 3 4 5 6 
#
# 1 0.010753 -0.004470 -0.006399 0.000000 0.000000 0.000000
# 2 -0.004470 0.017289 0.010340 0.000000 0.000000 0.000000
# 3 -0.006399 0.010340 0.032606 0.000000 0.000000 0.000000
# 4 0.000000 0.000000 0.000000 -0.061541 0.000000 0.000000
# 5 0.000000 0.000000 0.000000 0.000000 -0.002180 0.000000
# 6 0.000000 0.000000 0.000000 0.000000 0.000000 0.031823
#
#
# Mechanical properties :
#
#
# Convention : Reuss Voigt Hill
#
# Bulk Modulus (GPa) = 16.78141 28.29141 22.53641
# Shear Modulus (GPa) = 100.66236 -74.70657 12.97789
#
# Velocity S-wave (km/s) = 7.14639 -6.15648 2.56599
# Velocity P-wave (km/s) = 8.75264 6.01521 4.49588
#
# Compressibility (1/GPa) = 0.05958974
#
# Stress axis : x y z
#
# Youngs Moduli (GPa) = 92.99665 57.84071 30.66951
#
# Poissons Ratio (x) = 0.25853 0.19625
# Poissons Ratio (y) = 0.41566 -0.31711
# Poissons Ratio (z) = 0.59507 -0.59805
#
# Static dielectric constant tensor:
#      x y z
#    x 1.654340 0.000000 0.000000 
#    y 0.000000 1.676010 0.000000 
#    z 0.000000 0.000000 1.684520 
# 
# From -- ./inp_files/23211.got.cif
#   From: 2010.05.17/outbox.ucp.g08.bks.cvg/sg46_12_cif.got.tgz:23211.got - 2010.06.11 16:34:52.
