data_PCOD9381612
_publ_section_title
;
Structure prediction by ZEFSAII (Michael W. Deem and Ramdas Pophale) SiO2 
 PCOD9381612
Probable space group: P M M M
;
_chemical_formula_sum "Si O2"
_cell_formula_units_Z 52
_cell_length_a 7.579549
_cell_length_b 15.883664
_cell_length_c 24.253620
_cell_angle_alpha 90.000000
_cell_angle_beta 90.000000
_cell_angle_gamma 90.000000
_cell_volume 2919.917798
_symmetry_space_group_name_H-M "P M M M"
_symmetry_group_IT_number 47
_symmetry_cell_setting 'orthorhombic'
loop_
_space_group_symop_operation_xyz
x,y,z
-x,-y,z
x,-y,-z
-x,y,-z
-x,-y,-z
x,y,-z
-x,y,z
x,-y,z
loop_
_atom_site_type_symbol
_atom_site_label
_atom_site_fract_x
_atom_site_fract_y
_atom_site_fract_z
Si Si1 0.292579 0.765683 0.566243
Si Si2 0.709326 0.000000 0.937330
Si Si3 0.711337 0.593894 0.245535
Si Si4 0.210996 0.336792 0.869041
Si Si5 0.000000 0.901705 0.566997
Si Si6 0.216039 0.500000 0.064034
Si Si7 0.790563 0.181053 0.062790
Si Si8 0.284974 0.596053 0.371147
O O1 0.280811 0.758370 0.500000
O O2 0.500000 0.778962 0.580351
O O3 0.169933 0.844661 0.583112
O O4 0.232779 0.676333 0.592319
O O5 0.764076 0.088457 0.912558
O O6 0.500000 0.000000 0.940712
O O7 0.784353 0.000000 0.000000
O O8 0.500000 0.590285 0.248639
O O9 0.776787 0.500000 0.230323
O O10 0.755030 0.655162 0.195740
O O11 0.771760 0.611793 0.307730
O O12 0.276627 0.418105 0.902533
O O13 0.281867 0.253673 0.898442
O O14 0.000000 0.337233 0.875163
O O15 0.000000 0.905059 0.500000
O O16 0.000000 0.000000 0.585704
O O17 0.000000 0.500000 0.063854
O O18 0.270246 0.500000 0.000000
O O19 0.000000 0.193728 0.057977
O O20 0.717985 0.183781 0.000000
O O21 0.500000 0.594339 0.372789
O O22 0.228777 0.500000 0.386483
#
# Coordination Sequence:
#
# PCOD9381612 Si02
#       8
#     8   4   8   8   4   4   8   8
#     4   9  17  30  50  76 105 137 173 210 251 303
#     4   9  17  29  45  65  87 109 135 175 224 273
#     4   9  17  30  46  63  89 125 160 193 230 272
#     4  10  18  28  44  66  89 114 151 192 224 267
#     4   9  18  32  49  73 107 139 170 212 257 302
#     4   9  16  26  41  61  89 121 146 179 226 272
#     4   9  17  29  45  65  87 112 142 177 224 278
#     4   8  15  29  48  70  97 130 166 200 239 291
#
# _framework density 17.808721999999999
#
# number of rings (size 3 to 8) (size 9 to 14) (size 15 to 20)
#    0.000    3.000    0.769    1.615    0.000    4.000 
#    1.385    3.462    0.000    3.231    2.000    0.000 
#    0.000    0.000    0.000    0.000    0.000    0.000 
#
# Total GULP energy -289582.861780 kJ/mol
# GULP energy per Si atom -5568.901188 kJ/mol
# Density = 1.776819 g / cm^3
# Si number density = 17.808722 Si / 1000 Ang^3
#
#
#
# Elastic Constant Matrix: (Units=GPa)
#
#
# Indices 1 2 3 4 5 6 
#
# 1 57.7118 34.1015 16.6900 0.0000 0.0000 0.0000
# 2 34.1015 174.3298 56.2774 0.0000 0.0000 0.0000
# 3 16.6900 56.2774 48.7369 0.0000 0.0000 0.0000
# 4 0.0000 0.0000 0.0000 5.5679 0.0000 0.0000
# 5 0.0000 0.0000 0.0000 0.0000 13.6623 0.0000
# 6 0.0000 0.0000 0.0000 0.0000 0.0000 3.6812
#
#
#
# Elastic Compliance Matrix: (Units=1/GPa)
#
#
# Indices 1 2 3 4 5 6 
#
# 1 0.020006 -0.002713 -0.003718 0.000000 0.000000 0.000000
# 2 -0.002713 0.009513 -0.010056 0.000000 0.000000 0.000000
# 3 -0.003718 -0.010056 0.033404 0.000000 0.000000 0.000000
# 4 0.000000 0.000000 0.000000 0.179601 0.000000 0.000000
# 5 0.000000 0.000000 0.000000 0.000000 0.073194 0.000000
# 6 0.000000 0.000000 0.000000 0.000000 0.000000 0.271649
#
#
# Mechanical properties :
#
#
# Convention : Reuss Voigt Hill
#
# Bulk Modulus (GPa) = 33.39113 54.99070 44.19091
# Shear Modulus (GPa) = 7.93243 16.16292 12.04768
#
# Velocity S-wave (km/s) = 2.11280 3.01588 2.60379
# Velocity P-wave (km/s) = 4.97418 6.56300 5.82303
#
# Compressibility (1/GPa) = 0.02994808
#
# Stress axis : x y z
#
# Youngs Moduli (GPa) = 49.98521 105.11589 29.93696
#
# Poissons Ratio (x) = 0.28520 0.11131
# Poissons Ratio (y) = 0.13562 0.30105
# Poissons Ratio (z) = 0.18585 1.05705
#
# Static dielectric constant tensor:
#      x y z
#    x 1.673270 0.000000 0.000000 
#    y 0.000000 1.626310 0.000000 
#    z 0.000000 0.000000 1.595810 
# 
# From -- ./inp_files/32047.got.cif
#   From: 2010.05.17/outbox.cif.g08.bks.cpg/sg47_17_cif.got.tgz:32047.got - 2010.06.03 20:15:42.
