data_PCOD9381362
_publ_section_title
;
Structure prediction by ZEFSAII (Michael W. Deem and Ramdas Pophale) SiO2 
 PCOD9381362
Probable space group: P M M M
;
_chemical_formula_sum "Si O2"
_cell_formula_units_Z 64
_cell_length_a 20.410235
_cell_length_b 7.584992
_cell_length_c 21.216804
_cell_angle_alpha 90.000000
_cell_angle_beta 90.000000
_cell_angle_gamma 90.000000
_cell_volume 3284.604599
_symmetry_space_group_name_H-M "P M M M"
_symmetry_group_IT_number 47
_symmetry_cell_setting 'orthorhombic'
loop_
_space_group_symop_operation_xyz
x,y,z
-x,-y,z
x,-y,-z
-x,y,-z
-x,-y,-z
x,y,-z
-x,y,z
x,-y,z
loop_
_atom_site_type_symbol
_atom_site_label
_atom_site_fract_x
_atom_site_fract_y
_atom_site_fract_z
Si Si1 0.164176 0.208772 0.684598
Si Si2 0.252250 0.286935 0.894024
Si Si3 0.072617 0.214836 0.204766
Si Si4 0.892436 0.794089 0.067922
Si Si5 0.925384 0.784704 0.572035
Si Si6 0.570966 0.787616 0.792976
Si Si7 0.396854 0.792403 0.067645
Si Si8 0.713649 0.707097 0.754420
O O1 0.126677 0.280426 0.746415
O O2 0.128874 0.277594 0.621850
O O3 0.241168 0.231152 0.697137
O O4 0.151970 0.000000 0.683967
O O5 0.250206 0.500000 0.895021
O O6 0.186069 0.217895 0.924618
O O7 0.318414 0.227665 0.928004
O O8 0.259499 0.221000 0.821605
O O9 0.081113 0.281729 0.133479
O O10 0.000000 0.255929 0.228300
O O11 0.078075 0.000000 0.201532
O O12 0.911666 0.000000 0.066743
O O13 0.911493 0.717170 0.000000
O O14 0.913600 0.727695 0.500000
O O15 0.000000 0.734348 0.590056
O O16 0.924495 0.000000 0.571371
O O17 0.500000 0.729847 0.768310
O O18 0.578491 0.720176 0.865300
O O19 0.636027 0.740760 0.754527
O O20 0.570892 0.000000 0.796282
O O21 0.413530 0.000000 0.067386
O O22 0.418886 0.718491 0.000000
O O23 0.722639 0.500000 0.757669
#
# Coordination Sequence:
#
# PCOD9381362 Si02
#       8
#     8   8   8   8   8   8   8   8
#     4  10  17  28  50  73  94 124 160 196 230 270
#     4  10  19  30  43  59  81 110 146 189 235 281
#     4   9  17  28  43  64  86 110 147 193 236 278
#     4  10  19  29  42  59  80 107 141 188 244 291
#     4   8  14  25  44  75 111 138 161 194 236 279
#     4   9  18  32  49  68  91 119 151 190 237 289
#     4   9  17  28  43  63  86 111 141 180 230 288
#     4  10  20  32  47  67  92 121 155 196 237 276
#
# _framework density 19.484842
#
# number of rings (size 3 to 8) (size 9 to 14) (size 15 to 20)
#    0.000    2.625    1.250    1.875    0.000    5.250 
#    0.000    2.500    0.000    3.000    0.000    5.250 
#    0.000    0.500    0.000    5.750    0.000    1.625 
#
# Total GULP energy -357006.745965 kJ/mol
# GULP energy per Si atom -5578.230406 kJ/mol
# Density = 1.944049 g / cm^3
# Si number density = 19.484842 Si / 1000 Ang^3
#
#
#
# Elastic Constant Matrix: (Units=GPa)
#
#
# Indices 1 2 3 4 5 6 
#
# 1 117.0143 -6.4002 64.6523 0.0000 0.0000 0.0000
# 2 -6.4002 46.9100 7.6194 0.0000 0.0000 0.0000
# 3 64.6523 7.6194 104.2171 0.0000 0.0000 0.0000
# 4 0.0000 0.0000 0.0000 -1.8297 0.0000 0.0000
# 5 0.0000 0.0000 0.0000 0.0000 1.5807 0.0000
# 6 0.0000 0.0000 0.0000 0.0000 0.0000 243.7175
#
#
#
# Elastic Compliance Matrix: (Units=1/GPa)
#
#
# Indices 1 2 3 4 5 6 
#
# 1 0.013471 0.003234 -0.008593 0.000000 0.000000 0.000000
# 2 0.003234 0.022350 -0.003640 0.000000 0.000000 0.000000
# 3 -0.008593 -0.003640 0.015192 0.000000 0.000000 0.000000
# 4 0.000000 0.000000 0.000000 -0.546551 0.000000 0.000000
# 5 0.000000 0.000000 0.000000 0.000000 0.632651 0.000000
# 6 0.000000 0.000000 0.000000 0.000000 0.000000 0.004103
#
#
# Mechanical properties :
#
#
# Convention : Reuss Voigt Hill
#
# Bulk Modulus (GPa) = 30.29036 44.43160 37.36098
# Shear Modulus (GPa) = 29.37383 62.17837 45.77610
#
# Velocity S-wave (km/s) = 3.88689 5.65512 4.85224
# Velocity P-wave (km/s) = 5.97690 8.09279 7.11395
#
# Compressibility (1/GPa) = 0.03301380
#
# Stress axis : x y z
#
# Youngs Moduli (GPa) = 74.23548 44.74305 65.82284
#
# Poissons Ratio (x) = -0.14468 0.56562
# Poissons Ratio (y) = -0.24005 0.23960
# Poissons Ratio (z) = 0.63791 0.16287
#
# Static dielectric constant tensor:
#      x y z
#    x 1.702740 0.000000 0.000000 
#    y 0.000000 1.721920 0.000000 
#    z 0.000000 0.000000 1.700690 
# 
# From -- ./inp_files/11905.got.cif
#   From: 2010.05.17/outbox.cif.g08.bks.cpg/sg47_6_cif.got.tgz:11905.got - 2010.06.03 20:15:42.
