data_PCOD9381947
_publ_section_title
;
Structure prediction by ZEFSAII (Michael W. Deem and Ramdas Pophale) SiO2 
 PCOD9381947
Probable space group: P M M M
;
_chemical_formula_sum "Si O2"
_cell_formula_units_Z 40
_cell_length_a 11.997747
_cell_length_b 19.685640
_cell_length_c 10.086281
_cell_angle_alpha 90.000000
_cell_angle_beta 90.000000
_cell_angle_gamma 90.000000
_cell_volume 2382.211416
_symmetry_space_group_name_H-M "P M M M"
_symmetry_group_IT_number 47
_symmetry_cell_setting 'orthorhombic'
loop_
_space_group_symop_operation_xyz
x,y,z
-x,-y,z
x,-y,-z
-x,y,-z
-x,-y,-z
x,y,-z
-x,y,z
x,-y,z
loop_
_atom_site_type_symbol
_atom_site_label
_atom_site_fract_x
_atom_site_fract_y
_atom_site_fract_z
Si Si1 0.132512 0.919634 0.655149
Si Si2 0.215714 0.806240 0.841014
Si Si3 0.750015 0.421902 0.650276
Si Si4 0.632026 0.683249 0.844763
Si Si5 0.000000 0.424751 0.260357
Si Si6 0.000000 0.277061 0.845305
O O1 0.152700 0.902947 0.500000
O O2 0.203519 0.873765 0.754683
O O3 0.000000 0.908407 0.680715
O O4 0.153051 0.000000 0.672472
O O5 0.323260 0.759277 0.818210
O O6 0.111761 0.758700 0.794928
O O7 0.207866 0.819762 0.000000
O O8 0.716365 0.405491 0.500000
O O9 0.717065 0.500000 0.679435
O O10 0.696268 0.370216 0.753316
O O11 0.884671 0.420227 0.659448
O O12 0.500000 0.678237 0.825509
O O13 0.658027 0.669363 0.000000
O O14 0.000000 0.500000 0.195247
O O15 0.000000 0.357537 0.172322
O O16 0.000000 0.262901 0.000000
#
# Coordination Sequence:
#
# PCOD9381947 Si02
#       6
#     8   8   8   8   4   4
#     4   9  18  32  50  77 112 142 167 198 243 305
#     4  10  19  33  52  76 106 134 167 213 260 307
#     4  10  21  36  54  77 105 136 172 217 266 316
#     4  10  22  39  56  74 100 137 180 224 266 307
#     4  10  19  33  52  76 108 142 173 208 259 320
#     4  10  18  30  48  77 107 133 172 220 263 310
#
# _framework density 16.791121
#
# number of rings (size 3 to 8) (size 9 to 14) (size 15 to 20)
#    0.000    2.200    3.000    0.900    0.000    3.800 
#    0.000    5.000    0.000    0.600    0.000    4.200 
#    0.000    0.000    0.000    0.000    0.000    0.000 
#
# Total GULP energy -222868.108899 kJ/mol
# GULP energy per Si atom -5571.702722 kJ/mol
# Density = 1.675290 g / cm^3
# Si number density = 16.791121 Si / 1000 Ang^3
#
#
#
# Elastic Constant Matrix: (Units=GPa)
#
#
# Indices 1 2 3 4 5 6 
#
# 1 59.9503 43.7644 50.6513 0.0000 0.0000 0.0000
# 2 43.7644 104.9293 72.1976 0.0000 0.0000 0.0000
# 3 50.6513 72.1976 83.7316 0.0000 0.0000 0.0000
# 4 0.0000 0.0000 0.0000 34.5398 0.0000 0.0000
# 5 0.0000 0.0000 0.0000 0.0000 8.3744 0.0000
# 6 0.0000 0.0000 0.0000 0.0000 0.0000 11.9297
#
#
#
# Elastic Compliance Matrix: (Units=1/GPa)
#
#
# Indices 1 2 3 4 5 6 
#
# 1 0.034118 -0.000072 -0.020577 0.000000 0.000000 0.000000
# 2 -0.000072 0.023432 -0.020161 0.000000 0.000000 0.000000
# 3 -0.020577 -0.020161 0.041774 0.000000 0.000000 0.000000
# 4 0.000000 0.000000 0.000000 0.028952 0.000000 0.000000
# 5 0.000000 0.000000 0.000000 0.000000 0.119411 0.000000
# 6 0.000000 0.000000 0.000000 0.000000 0.000000 0.083825
#
#
# Mechanical properties :
#
#
# Convention : Reuss Voigt Hill
#
# Bulk Modulus (GPa) = 56.48118 64.64864 60.56491
# Shear Modulus (GPa) = 11.93225 16.43530 14.18377
#
# Velocity S-wave (km/s) = 2.66865 3.13199 2.90956
# Velocity P-wave (km/s) = 6.57314 7.18779 6.88733
#
# Compressibility (1/GPa) = 0.01770501
#
# Stress axis : x y z
#
# Youngs Moduli (GPa) = 29.30988 42.67655 23.93844
#
# Poissons Ratio (x) = 0.00308 0.49257
# Poissons Ratio (y) = 0.00212 0.48261
# Poissons Ratio (z) = 0.60310 0.86039
#
# Static dielectric constant tensor:
#      x y z
#    x 1.577930 0.000000 0.000000 
#    y 0.000000 1.559170 0.000000 
#    z 0.000000 0.000000 1.562770 
# 
# From -- ./inp_files/4108.got.cif
#   From: 2010.05.17/outbox.cif.g08.bks.cpg/sg47_3_cif.got.tgz:4108.got - 2010.06.03 20:15:42.
