data_PCOD9381141
_publ_section_title
;
Structure prediction by ZEFSAII (Michael W. Deem and Ramdas Pophale) SiO2 
 PCOD9381141
Probable space group: I M A 2
;
_chemical_formula_sum "Si O2"
_cell_formula_units_Z 30
_cell_length_a 21.000000
_cell_length_b 24.000000
_cell_length_c 6.000000
_cell_angle_alpha 90.000000
_cell_angle_beta 90.000000
_cell_angle_gamma 90.000000
_cell_volume 3024.000000
_symmetry_space_group_name_H-M "I M A 2"
_symmetry_group_IT_number 46
_symmetry_cell_setting 'orthorhombic'
loop_
_space_group_symop_operation_xyz
x,y,z
-x,-y,z
1/2-x,y,z
1/2+x,-y,z
1/2+x,1/2+y,1/2+z
1/2-x,1/2-y,1/2+z
-x,1/2+y,1/2+z
x,1/2-y,1/2+z
loop_
_atom_site_type_symbol
_atom_site_label
_atom_site_fract_x
_atom_site_fract_y
_atom_site_fract_z
Si Si1 0.578457 0.878567 0.218890
Si Si2 0.621129 0.977878 0.515100
Si Si3 0.000000 0.000000 0.813950
Si Si4 0.951557 0.387389 0.516376
Si Si5 0.018723 0.775249 0.812821
Si Si6 0.873389 0.761205 0.341911
Si Si7 0.320925 0.430057 0.414156
Si Si8 0.176078 0.948594 0.154914
O O1 0.587800 0.936510 0.343726
O O2 0.503301 0.865395 0.196983
O O3 0.609351 0.826544 0.343204
O O4 0.622628 0.890319 0.000688
O O5 0.670626 0.940939 0.653537
O O6 0.563771 0.996326 0.671160
O O7 0.655937 0.029432 0.399259
O O8 0.988407 0.055947 0.950675
O O9 0.955271 0.338609 0.333343
O O10 0.879875 0.405997 0.579845
O O11 0.037346 0.752183 0.561206
O O12 0.941437 0.771710 0.826608
O O13 0.844132 0.748310 0.589510
O O14 0.250000 0.409715 0.472595
O O15 0.327048 0.493085 0.515477
O O16 0.250000 0.929317 0.145206
#
# Coordination Sequence:
#
# PCOD9381141 Si02
#       8
#     8   8   4   8   8   8   8   8
#     4  11  22  35  62  86 122 156 210 266 321 374
#     4  11  21  34  58  86 125 163 206 259 319 395
#     4  12  22  32  58  98 126 160 202 276 332 380
#     4  12  21  39  60  92 129 158 215 273 330 387
#     4  10  22  38  61  90 125 168 209 267 329 392
#     4  10  21  37  59  92 120 159 207 264 326 384
#     4  10  21  38  56  83 122 165 207 249 314 400
#     4  10  22  40  56  83 124 172 210 249 321 401
#
# _framework density 9.9206350000000008
#
# number of rings (size 3 to 8) (size 9 to 14) (size 15 to 20)
#    0.000    1.333    5.333    2.000    5.600    1.600 
#    0.000    0.000    0.000    1.600    0.000    0.000 
#    0.000    0.000    0.000    0.000    0.000    0.000 
#
# Total GULP energy -167062.427901 kJ/mol
# GULP energy per Si atom -5568.747597 kJ/mol
# Density = 0.989806 g / cm^3
# Si number density = 9.920635 Si / 1000 Ang^3
#
#
#
# Elastic Constant Matrix: (Units=GPa)
#
#
# Indices 1 2 3 4 5 6 
#
# 1 107.8491 7.1436 12.8608 0.0000 0.0000 0.0000
# 2 7.1436 64.9280 12.7877 0.0000 0.0000 0.0000
# 3 12.8608 12.7877 92.7435 0.0000 0.0000 0.0000
# 4 0.0000 0.0000 0.0000 11.5730 0.0000 0.0000
# 5 0.0000 0.0000 0.0000 0.0000 13.0673 0.0000
# 6 0.0000 0.0000 0.0000 0.0000 0.0000 11.3076
#
#
#
# Elastic Compliance Matrix: (Units=1/GPa)
#
#
# Indices 1 2 3 4 5 6 
#
# 1 0.009469 -0.000805 -0.001202 0.000000 0.000000 0.000000
# 2 -0.000805 0.015900 -0.002081 0.000000 0.000000 0.000000
# 3 -0.001202 -0.002081 0.011236 0.000000 0.000000 0.000000
# 4 0.000000 0.000000 0.000000 0.086408 0.000000 0.000000
# 5 0.000000 0.000000 0.000000 0.000000 0.076527 0.000000
# 6 0.000000 0.000000 0.000000 0.000000 0.000000 0.088436
#
#
# Mechanical properties :
#
#
# Convention : Reuss Voigt Hill
#
# Bulk Modulus (GPa) = 35.17495 36.78943 35.98219
# Shear Modulus (GPa) = 16.35975 22.70481 19.53228
#
# Velocity S-wave (km/s) = 2.87458 3.38645 3.14096
# Velocity P-wave (km/s) = 5.36510 5.82004 5.59719
#
# Compressibility (1/GPa) = 0.02842932
#
# Stress axis : x y z
#
# Youngs Moduli (GPa) = 105.60914 62.89290 88.99958
#
# Poissons Ratio (x) = 0.05063 0.10698
# Poissons Ratio (y) = 0.08502 0.18518
# Poissons Ratio (z) = 0.12695 0.13086
#
# Static dielectric constant tensor:
#      x y z
#    x 1.733740 0.000000 0.000000 
#    y 0.000000 1.733320 0.000000 
#    z 0.000000 0.000000 1.854900 
# 
# From -- ./inp_files/2156.got.cif
#   From: 2010.05.17/outbox.ucp.g08.bks.cvg/sg46_2_cif.got.tgz:2156.got - 2010.06.11 16:34:52.
