data_PCOD9381218
_publ_section_title
;
Structure prediction by ZEFSAII (Michael W. Deem and Ramdas Pophale) SiO2 
 PCOD9381218
Probable space group: P M M M
;
_chemical_formula_sum "Si O2"
_cell_formula_units_Z 64
_cell_length_a 7.427600
_cell_length_b 30.153025
_cell_length_c 14.959404
_cell_angle_alpha 90.000000
_cell_angle_beta 90.000000
_cell_angle_gamma 90.000000
_cell_volume 3350.377060
_symmetry_space_group_name_H-M "P M M M"
_symmetry_group_IT_number 47
_symmetry_cell_setting 'orthorhombic'
loop_
_space_group_symop_operation_xyz
x,y,z
-x,-y,z
x,-y,-z
-x,y,-z
-x,-y,-z
x,y,-z
-x,y,z
x,-y,z
loop_
_atom_site_type_symbol
_atom_site_label
_atom_site_fract_x
_atom_site_fract_y
_atom_site_fract_z
Si Si1 0.219559 0.587104 0.100258
Si Si2 0.218892 0.311800 0.897166
Si Si3 0.779932 0.548421 0.716763
Si Si4 0.287674 0.267716 0.601280
Si Si5 0.215871 0.631509 0.398598
Si Si6 0.779658 0.855025 0.895603
Si Si7 0.783699 0.047659 0.107053
Si Si8 0.788215 0.229108 0.214852
O O1 0.276295 0.637760 0.121263
O O2 0.274940 0.555703 0.180614
O O3 0.000000 0.587019 0.098927
O O4 0.278523 0.575664 0.000000
O O5 0.286215 0.273561 0.831936
O O6 0.000000 0.312917 0.891814
O O7 0.265006 0.301262 0.000000
O O8 0.723297 0.500000 0.683537
O O9 0.717393 0.590938 0.660871
O O10 0.000000 0.549011 0.714578
O O11 0.212533 0.262706 0.500000
O O12 0.500000 0.262731 0.594676
O O13 0.251263 0.318335 0.632335
O O14 0.227300 0.234547 0.678814
O O15 0.284587 0.628307 0.500000
O O16 0.000000 0.627416 0.401030
O O17 0.718845 0.903909 0.863374
O O18 0.717134 0.815262 0.832040
O O19 0.000000 0.855906 0.895297
O O20 0.728422 0.848192 0.000000
O O21 0.000000 0.047242 0.120103
O O22 0.714967 0.000000 0.141755
O O23 0.753801 0.047649 0.000000
O O24 0.000000 0.229002 0.194027
#
# Coordination Sequence:
#
# PCOD9381218 Si02
#       8
#     8   8   8   8   8   8   8   8
#     4   8  13  20  29  44  71 105 133 153 177 215
#     4   8  13  21  35  57  83 109 135 161 192 232
#     4   9  16  24  36  58  85 106 124 152 192 233
#     4  10  21  35  48  61  79 105 136 169 207 252
#     4   9  17  30  48  66  81  99 126 159 195 239
#     4   8  13  20  32  56  89 120 149 178 207 242
#     4   7   9  14  25  43  74 118 157 180 200 232
#     4  10  17  25  42  65  87 110 136 170 210 247
#
# _framework density 19.102326999999999
#
# number of rings (size 3 to 8) (size 9 to 14) (size 15 to 20)
#    0.000    3.375    0.000    3.375    0.000    4.750 
#    0.000    2.500    0.000    1.875    0.000    1.750 
#    0.000    1.000    0.000   13.875    0.000    7.750 
#
# Total GULP energy -356661.837047 kJ/mol
# GULP energy per Si atom -5572.841204 kJ/mol
# Density = 1.905885 g / cm^3
# Si number density = 19.102327 Si / 1000 Ang^3
#
#
#
# Elastic Constant Matrix: (Units=GPa)
#
#
# Indices 1 2 3 4 5 6 
#
# 1 55.5746 -0.8437 -3.6712 0.0000 0.0000 0.0000
# 2 -0.8437 118.0289 71.1379 0.0000 0.0000 0.0000
# 3 -3.6712 71.1379 70.1794 0.0000 0.0000 0.0000
# 4 0.0000 0.0000 0.0000 30.7208 0.0000 0.0000
# 5 0.0000 0.0000 0.0000 0.0000 108.2441 0.0000
# 6 0.0000 0.0000 0.0000 0.0000 0.0000 33.2421
#
#
#
# Elastic Compliance Matrix: (Units=1/GPa)
#
#
# Indices 1 2 3 4 5 6 
#
# 1 0.018115 -0.001135 0.002098 0.000000 0.000000 0.000000
# 2 -0.001135 0.021848 -0.022206 0.000000 0.000000 0.000000
# 3 0.002098 -0.022206 0.036868 0.000000 0.000000 0.000000
# 4 0.000000 0.000000 0.000000 0.032551 0.000000 0.000000
# 5 0.000000 0.000000 0.000000 0.000000 0.009238 0.000000
# 6 0.000000 0.000000 0.000000 0.000000 0.000000 0.030082
#
#
# Mechanical properties :
#
#
# Convention : Reuss Voigt Hill
#
# Bulk Modulus (GPa) = 29.11551 41.89211 35.50381
# Shear Modulus (GPa) = 24.67442 46.25204 35.46323
#
# Velocity S-wave (km/s) = 3.59792 4.92599 4.31337
# Velocity P-wave (km/s) = 5.70394 7.37101 6.59040
#
# Compressibility (1/GPa) = 0.03434595
#
# Stress axis : x y z
#
# Youngs Moduli (GPa) = 55.20219 45.76986 27.12344
#
# Poissons Ratio (x) = 0.05196 -0.05691
# Poissons Ratio (y) = 0.06267 0.60231
# Poissons Ratio (z) = -0.11583 1.01638
#
# Static dielectric constant tensor:
#      x y z
#    x 1.742260 0.000000 0.000000 
#    y 0.000000 1.693200 0.000000 
#    z 0.000000 0.000000 1.626810 
# 
# From -- ./inp_files/22190.got.cif
#   From: 2010.05.17/outbox.cif.g08.bks.cpg/sg47_12_cif.got.tgz:22190.got - 2010.06.03 20:15:42.
