data_PCOD9381919
_publ_section_title
;
Structure prediction by ZEFSAII (Michael W. Deem and Ramdas Pophale) SiO2 
 PCOD9381919
Probable space group: P M M M
;
_chemical_formula_sum "Si O2"
_cell_formula_units_Z 64
_cell_length_a 15.389286
_cell_length_b 25.779512
_cell_length_c 8.559229
_cell_angle_alpha 90.000000
_cell_angle_beta 90.000000
_cell_angle_gamma 90.000000
_cell_volume 3395.688226
_symmetry_space_group_name_H-M "P M M M"
_symmetry_group_IT_number 47
_symmetry_cell_setting 'orthorhombic'
loop_
_space_group_symop_operation_xyz
x,y,z
-x,-y,z
x,-y,-z
-x,y,-z
-x,-y,-z
x,y,-z
-x,y,z
x,-y,z
loop_
_atom_site_type_symbol
_atom_site_label
_atom_site_fract_x
_atom_site_fract_y
_atom_site_fract_z
Si Si1 0.160516 0.162419 0.819507
Si Si2 0.401793 0.689900 0.686896
Si Si3 0.770264 0.354907 0.187087
Si Si4 0.216476 0.056595 0.311894
Si Si5 0.638212 0.196125 0.819280
Si Si6 0.905482 0.268705 0.190823
Si Si7 0.098368 0.560988 0.311896
Si Si8 0.407026 0.912414 0.686392
O O1 0.162825 0.106678 0.739746
O O2 0.258486 0.185474 0.814279
O O3 0.104428 0.209627 0.753176
O O4 0.136492 0.154433 0.000000
O O5 0.397630 0.693078 0.500000
O O6 0.500000 0.674349 0.732081
O O7 0.326015 0.651958 0.745738
O O8 0.383881 0.747302 0.755462
O O9 0.827783 0.305565 0.242836
O O10 0.826219 0.404482 0.238070
O O11 0.764996 0.353051 0.000000
O O12 0.219321 0.056991 0.500000
O O13 0.316397 0.064094 0.253557
O O14 0.184592 0.000000 0.260387
O O15 0.597966 0.148898 0.722126
O O16 0.610863 0.192290 0.000000
O O17 0.000000 0.289626 0.234963
O O18 0.901301 0.267058 0.000000
O O19 0.101635 0.566418 0.500000
O O20 0.109143 0.500000 0.275727
O O21 0.000000 0.576087 0.260944
O O22 0.406870 0.920642 0.500000
O O23 0.500000 0.932213 0.747605
#
# Coordination Sequence:
#
# PCOD9381919 Si02
#       8
#     8   8   8   8   8   8   8   8
#     4   9  17  31  49  70  97 128 163 202 253 316
#     4  11  23  36  51  73 105 148 193 231 271 324
#     4  11  21  35  56  85 118 149 186 232 281 325
#     4   9  18  31  46  64  86 118 161 208 259 311
#     4  10  18  30  47  69  97 130 170 214 262 313
#     4   9  17  31  52  79 110 139 166 205 262 323
#     4   9  19  37  60  87 122 162 198 230 269 321
#     4   9  17  28  42  62  88 119 157 202 256 317
#
# _framework density 18.847429999999999
#
# number of rings (size 3 to 8) (size 9 to 14) (size 15 to 20)
#    0.000    2.375    1.250    2.250    0.000    4.750 
#    0.000    1.875    0.000    2.625    0.000    8.750 
#    0.000    0.000    0.000    0.000    0.000    0.000 
#
# Total GULP energy -356913.869362 kJ/mol
# GULP energy per Si atom -5576.779209 kJ/mol
# Density = 1.880453 g / cm^3
# Si number density = 18.847430 Si / 1000 Ang^3
#
#
#
# Elastic Constant Matrix: (Units=GPa)
#
#
# Indices 1 2 3 4 5 6 
#
# 1 85.5259 45.3126 17.5828 0.0000 0.0000 0.0000
# 2 45.3126 96.1964 18.7433 0.0000 0.0000 0.0000
# 3 17.5828 18.7433 20.1072 0.0000 0.0000 0.0000
# 4 0.0000 0.0000 0.0000 21.6477 0.0000 0.0000
# 5 0.0000 0.0000 0.0000 0.0000 13.0685 0.0000
# 6 0.0000 0.0000 0.0000 0.0000 0.0000 1.9994
#
#
#
# Elastic Compliance Matrix: (Units=1/GPa)
#
#
# Indices 1 2 3 4 5 6 
#
# 1 0.016800 -0.006172 -0.008937 0.000000 0.000000 0.000000
# 2 -0.006172 0.014970 -0.008557 0.000000 0.000000 0.000000
# 3 -0.008937 -0.008557 0.065526 0.000000 0.000000 0.000000
# 4 0.000000 0.000000 0.000000 0.046194 0.000000 0.000000
# 5 0.000000 0.000000 0.000000 0.000000 0.076520 0.000000
# 6 0.000000 0.000000 0.000000 0.000000 0.000000 0.500158
#
#
# Mechanical properties :
#
#
# Convention : Reuss Voigt Hill
#
# Bulk Modulus (GPa) = 20.01519 40.56741 30.29130
# Shear Modulus (GPa) = 6.37629 15.35583 10.86606
#
# Velocity S-wave (km/s) = 1.84132 2.85747 2.40370
# Velocity P-wave (km/s) = 3.89400 5.69716 4.87960
#
# Compressibility (1/GPa) = 0.04996205
#
# Stress axis : x y z
#
# Youngs Moduli (GPa) = 59.52481 66.80004 15.26119
#
# Poissons Ratio (x) = 0.41229 0.13639
# Poissons Ratio (y) = 0.36739 0.13060
# Poissons Ratio (z) = 0.53199 0.57164
#
# Static dielectric constant tensor:
#      x y z
#    x 1.692850 0.000000 0.000000 
#    y 0.000000 1.647700 0.000000 
#    z 0.000000 0.000000 1.651230 
# 
# From -- ./inp_files/7932.got.cif
#   From: 2010.05.17/outbox.cif.g08.bks.cpg/sg47_4_cif.got.tgz:7932.got - 2010.06.03 20:15:42.
