data_PCOD9381659
_publ_section_title
;
Structure prediction by ZEFSAII (Michael W. Deem and Ramdas Pophale) SiO2 
 PCOD9381659
Probable space group: P M M M
;
_chemical_formula_sum "Si O2"
_cell_formula_units_Z 52
_cell_length_a 24.596638
_cell_length_b 7.914270
_cell_length_c 13.976779
_cell_angle_alpha 90.000000
_cell_angle_beta 90.000000
_cell_angle_gamma 90.000000
_cell_volume 2720.781776
_symmetry_space_group_name_H-M "P M M M"
_symmetry_group_IT_number 47
_symmetry_cell_setting 'orthorhombic'
loop_
_space_group_symop_operation_xyz
x,y,z
-x,-y,z
x,-y,-z
-x,y,-z
-x,-y,-z
x,y,-z
-x,y,z
x,-y,z
loop_
_atom_site_type_symbol
_atom_site_label
_atom_site_fract_x
_atom_site_fract_y
_atom_site_fract_z
Si Si1 0.738635 0.797776 0.608303
Si Si2 0.562214 0.793270 0.890772
Si Si3 0.937551 0.793452 0.000000
Si Si4 0.661728 0.805783 0.771880
Si Si5 0.757858 0.696751 0.892062
Si Si6 0.870590 0.199818 0.186461
Si Si7 0.864437 0.698248 0.605970
O O1 0.719378 0.773857 0.500000
O O2 0.694792 0.728200 0.683105
O O3 0.799180 0.723901 0.614382
O O4 0.745035 0.000000 0.625953
O O5 0.500000 0.744595 0.869917
O O6 0.606728 0.730653 0.815303
O O7 0.564152 0.000000 0.890330
O O8 0.575206 0.741153 0.000000
O O9 0.907759 0.738439 0.901901
O O10 0.000000 0.738911 0.000000
O O11 0.936990 0.000000 0.000000
O O12 0.706860 0.800950 0.855101
O O13 0.649455 0.000000 0.745331
O O14 0.742429 0.500000 0.889998
O O15 0.811010 0.722136 0.828268
O O16 0.772771 0.745165 0.000000
O O17 0.889299 0.231402 0.295447
O O18 0.864444 0.000000 0.174655
O O19 0.879641 0.768751 0.500000
O O20 0.875986 0.500000 0.604682
#
# Coordination Sequence:
#
# PCOD9381659 Si02
#       7
#     8   8   4   8   8   8   8
#     4   9  17  28  42  64  95 127 161 201 246 297
#     4   8  14  25  41  62  87 116 156 207 253 295
#     4   9  20  38  59  83 109 139 176 217 256 295
#     4  10  18  28  46  68  90 123 165 205 249 302
#     4  11  22  32  44  68 104 136 160 198 253 306
#     4  11  20  33  55  79 105 137 172 210 252 301
#     4  10  20  33  50  74 106 141 174 210 255 305
#
# _framework density 19.112155000000001
#
# number of rings (size 3 to 8) (size 9 to 14) (size 15 to 20)
#    0.000    2.231    2.308    2.308    0.000    2.462 
#    0.000    0.000    0.000    5.077    0.000    8.615 
#    0.000    0.000    0.000    5.231    0.000    5.692 
#
# Total GULP energy -289879.370203 kJ/mol
# GULP energy per Si atom -5574.603273 kJ/mol
# Density = 1.906866 g / cm^3
# Si number density = 19.112155 Si / 1000 Ang^3
#
#
#
# Elastic Constant Matrix: (Units=GPa)
#
#
# Indices 1 2 3 4 5 6 
#
# 1 57.1090 -2.0138 22.1397 0.0000 0.0000 0.0000
# 2 -2.0138 24.2454 4.0273 0.0000 0.0000 0.0000
# 3 22.1397 4.0273 120.1619 0.0000 0.0000 0.0000
# 4 0.0000 0.0000 0.0000 17.6335 0.0000 0.0000
# 5 0.0000 0.0000 0.0000 0.0000 13.9365 0.0000
# 6 0.0000 0.0000 0.0000 0.0000 0.0000 271.4415
#
#
#
# Elastic Compliance Matrix: (Units=1/GPa)
#
#
# Indices 1 2 3 4 5 6 
#
# 1 0.018970 0.002168 -0.003568 0.000000 0.000000 0.000000
# 2 0.002168 0.041724 -0.001798 0.000000 0.000000 0.000000
# 3 -0.003568 -0.001798 0.009040 0.000000 0.000000 0.000000
# 4 0.000000 0.000000 0.000000 0.056710 0.000000 0.000000
# 5 0.000000 0.000000 0.000000 0.000000 0.071754 0.000000
# 6 0.000000 0.000000 0.000000 0.000000 0.000000 0.003684
#
#
# Mechanical properties :
#
#
# Convention : Reuss Voigt Hill
#
# Bulk Modulus (GPa) = 15.78820 27.75809 21.77314
# Shear Modulus (GPa) = 21.79699 72.42651 47.11175
#
# Velocity S-wave (km/s) = 3.38076 6.16261 4.97028
# Velocity P-wave (km/s) = 4.84955 8.07418 6.65997
#
# Compressibility (1/GPa) = 0.06333845
#
# Stress axis : x y z
#
# Youngs Moduli (GPa) = 52.71482 23.96720 110.62266
#
# Poissons Ratio (x) = -0.05197 0.39469
# Poissons Ratio (y) = -0.11430 0.19889
# Poissons Ratio (z) = 0.18808 0.04309
#
# Static dielectric constant tensor:
#      x y z
#    x 1.634040 0.000000 0.000000 
#    y 0.000000 1.699920 0.000000 
#    z 0.000000 0.000000 1.726080 
# 
# From -- ./inp_files/25452.got.cif
#   From: 2010.05.17/outbox.cif.g08.bks.cpg/sg47_13_cif.got.tgz:25452.got - 2010.06.03 20:15:42.
