data_PCOD9381519
_publ_section_title
;
Structure prediction by ZEFSAII (Michael W. Deem and Ramdas Pophale) SiO2 
 PCOD9381519
Probable space group: P M M M
;
_chemical_formula_sum "Si O2"
_cell_formula_units_Z 36
_cell_length_a 13.037249
_cell_length_b 7.646291
_cell_length_c 23.329202
_cell_angle_alpha 90.000000
_cell_angle_beta 90.000000
_cell_angle_gamma 90.000000
_cell_volume 2325.608821
_symmetry_space_group_name_H-M "P M M M"
_symmetry_group_IT_number 47
_symmetry_cell_setting 'orthorhombic'
loop_
_space_group_symop_operation_xyz
x,y,z
-x,-y,z
x,-y,-z
-x,y,-z
-x,-y,-z
x,y,-z
-x,y,z
x,-y,z
loop_
_atom_site_type_symbol
_atom_site_label
_atom_site_fract_x
_atom_site_fract_y
_atom_site_fract_z
Si Si1 0.875601 0.500000 0.347760
Si Si2 0.233438 0.500000 0.225894
Si Si3 0.270174 0.204930 0.935494
Si Si4 0.124520 0.799532 0.564522
Si Si5 0.878896 0.500000 0.105910
Si Si6 0.381016 0.206571 0.818315
O O1 0.823687 0.500000 0.286113
O O2 0.844481 0.667676 0.385841
O O3 0.000000 0.500000 0.341970
O O4 0.153561 0.500000 0.172866
O O5 0.305749 0.669325 0.217229
O O6 0.175024 0.330992 0.922159
O O7 0.352355 0.237410 0.885254
O O8 0.241392 0.000000 0.931895
O O9 0.308176 0.238500 0.000000
O O10 0.156720 0.746498 0.500000
O O11 0.000000 0.797606 0.563969
O O12 0.156483 0.000000 0.574271
O O13 0.000000 0.500000 0.098683
O O14 0.500000 0.247441 0.808272
O O15 0.364527 0.000000 0.806945
#
# Coordination Sequence:
#
# PCOD9381519 Si02
#       6
#     4   4   8   8   4   8
#     4  10  18  27  42  64  91 126 160 183 207 243
#     4  10  20  32  45  64  90 117 151 189 214 246
#     4   9  18  31  47  69  90 106 136 182 225 270
#     4   8  14  25  41  62  89 120 152 184 217 252
#     4  10  20  33  45  58  85 125 157 179 209 248
#     4   9  18  33  51  67  85 111 139 175 231 285
#
# _framework density 15.479818
#
# number of rings (size 3 to 8) (size 9 to 14) (size 15 to 20)
#    0.000    2.889    0.000    2.000    0.000    4.000 
#    0.000    3.333    0.000    8.000    0.000    0.000 
#    0.000    7.111    0.000   19.556    0.000    0.889 
#
# Total GULP energy -200531.450868 kJ/mol
# GULP energy per Si atom -5570.318080 kJ/mol
# Density = 1.544459 g / cm^3
# Si number density = 15.479818 Si / 1000 Ang^3
#
#
#
# Elastic Constant Matrix: (Units=GPa)
#
#
# Indices 1 2 3 4 5 6 
#
# 1 39.5884 21.3495 17.4956 0.0000 0.0000 0.0000
# 2 21.3495 62.4574 53.8551 0.0000 0.0000 0.0000
# 3 17.4956 53.8551 121.0963 0.0000 0.0000 0.0000
# 4 0.0000 0.0000 0.0000 -2.4565 0.0000 0.0000
# 5 0.0000 0.0000 0.0000 0.0000 14.1014 0.0000
# 6 0.0000 0.0000 0.0000 0.0000 0.0000 11.9165
#
#
#
# Elastic Compliance Matrix: (Units=1/GPa)
#
#
# Indices 1 2 3 4 5 6 
#
# 1 0.030980 -0.010916 0.000379 0.000000 0.000000 0.000000
# 2 -0.010916 0.029816 -0.011683 0.000000 0.000000 0.000000
# 3 0.000379 -0.011683 0.013399 0.000000 0.000000 0.000000
# 4 0.000000 0.000000 0.000000 -0.407083 0.000000 0.000000
# 5 0.000000 0.000000 0.000000 0.000000 0.070915 0.000000
# 6 0.000000 0.000000 0.000000 0.000000 0.000000 0.083917
#
#
# Mechanical properties :
#
#
# Convention : Reuss Voigt Hill
#
# Bulk Modulus (GPa) = 33.60901 45.39362 39.50131
# Shear Modulus (GPa) = -40.42131 13.40840 -13.50645
#
# Velocity S-wave (km/s) = -5.11556 2.94630 -2.95705
# Velocity P-wave (km/s) = 3.62399 6.40018 3.73021
#
# Compressibility (1/GPa) = 0.02975393
#
# Stress axis : x y z
#
# Youngs Moduli (GPa) = 32.27940 33.53855 74.63271
#
# Poissons Ratio (x) = 0.36612 -0.02829
# Poissons Ratio (y) = 0.35238 0.87194
# Poissons Ratio (z) = -0.01224 0.39183
#
# Static dielectric constant tensor:
#      x y z
#    x 1.476010 0.000000 0.000000 
#    y 0.000000 1.540710 0.000000 
#    z 0.000000 0.000000 1.509120 
# 
# From -- ./inp_files/30306.got.cif
#   From: 2010.05.17/outbox.cif.g08.bks.cpg/sg47_16_cif.got.tgz:30306.got - 2010.06.03 20:15:42.
