data_PCOD9381950
_publ_section_title
;
Structure prediction by ZEFSAII (Michael W. Deem and Ramdas Pophale) SiO2 
 PCOD9381950
Probable space group: P M M M
;
_chemical_formula_sum "Si O2"
_cell_formula_units_Z 52
_cell_length_a 7.609124
_cell_length_b 27.167500
_cell_length_c 12.884852
_cell_angle_alpha 90.000000
_cell_angle_beta 90.000000
_cell_angle_gamma 90.000000
_cell_volume 2663.567896
_symmetry_space_group_name_H-M "P M M M"
_symmetry_group_IT_number 47
_symmetry_cell_setting 'orthorhombic'
loop_
_space_group_symop_operation_xyz
x,y,z
-x,-y,z
x,-y,-z
-x,y,-z
-x,-y,-z
x,y,-z
-x,y,z
x,-y,z
loop_
_atom_site_type_symbol
_atom_site_label
_atom_site_fract_x
_atom_site_fract_y
_atom_site_fract_z
Si Si1 0.212824 0.721689 0.884662
Si Si2 0.711608 0.556469 0.115631
Si Si3 0.209203 0.215972 0.500000
Si Si4 0.215719 0.670381 0.500000
Si Si5 0.284404 0.056353 0.500000
Si Si6 0.708391 0.836465 0.886184
Si Si7 0.209281 0.358766 0.275455
Si Si8 0.709906 0.865938 0.332833
O O1 0.270389 0.777844 0.871986
O O2 0.279497 0.686021 0.795003
O O3 0.000000 0.721306 0.882738
O O4 0.268454 0.704927 0.000000
O O5 0.500000 0.556000 0.112572
O O6 0.770504 0.500000 0.130656
O O7 0.762710 0.592103 0.208891
O O8 0.772941 0.572816 0.000000
O O9 0.272924 0.272207 0.500000
O O10 0.261293 0.183683 0.399821
O O11 0.000000 0.218647 0.500000
O O12 0.275182 0.644564 0.606663
O O13 0.000000 0.670038 0.500000
O O14 0.500000 0.056555 0.500000
O O15 0.225339 0.088200 0.400793
O O16 0.227534 0.000000 0.500000
O O17 0.500000 0.846784 0.889609
O O18 0.782906 0.861363 0.782973
O O19 0.782345 0.849117 0.000000
O O20 0.000000 0.351639 0.282285
O O21 0.500000 0.871559 0.324801
#
# Coordination Sequence:
#
# PCOD9381950 Si02
#       8
#     8   8   4   4   4   8   8   8
#     4   9  17  28  43  65  92 120 151 188 224 257
#     4   9  19  36  55  73  92 112 138 180 231 273
#     4  10  18  30  49  68  89 121 157 187 219 262
#     4   9  19  32  45  66  97 128 153 180 215 255
#     4   8  14  26  45  65  83 110 149 190 234 276
#     4   9  17  28  42  62  90 123 153 179 214 264
#     4  10  19  32  49  68  92 121 152 183 216 258
#     4   9  17  29  45  66  91 117 149 190 228 262
#
# _framework density 19.522684999999999
#
# number of rings (size 3 to 8) (size 9 to 14) (size 15 to 20)
#    0.000    2.846    0.000    2.538    0.000    3.692 
#    0.000    4.615    0.000    6.462    0.000    3.231 
#    0.000    0.000    0.000    9.385    0.000   10.154 
#
# Total GULP energy -289997.593836 kJ/mol
# GULP energy per Si atom -5576.876805 kJ/mol
# Density = 1.947825 g / cm^3
# Si number density = 19.522685 Si / 1000 Ang^3
#
#
#
# Elastic Constant Matrix: (Units=GPa)
#
#
# Indices 1 2 3 4 5 6 
#
# 1 39.7940 -2.2957 11.6267 0.0000 0.0000 0.0000
# 2 -2.2957 102.3751 99.5416 0.0000 0.0000 0.0000
# 3 11.6267 99.5416 231.0348 0.0000 0.0000 0.0000
# 4 0.0000 0.0000 0.0000 17.1839 0.0000 0.0000
# 5 0.0000 0.0000 0.0000 0.0000 -57.4144 0.0000
# 6 0.0000 0.0000 0.0000 0.0000 0.0000 17.8718
#
#
#
# Elastic Compliance Matrix: (Units=1/GPa)
#
#
# Indices 1 2 3 4 5 6 
#
# 1 0.026102 0.003205 -0.002695 0.000000 0.000000 0.000000
# 2 0.003205 0.017204 -0.007574 0.000000 0.000000 0.000000
# 3 -0.002695 -0.007574 0.007727 0.000000 0.000000 0.000000
# 4 0.000000 0.000000 0.000000 0.058194 0.000000 0.000000
# 5 0.000000 0.000000 0.000000 0.000000 -0.017417 0.000000
# 6 0.000000 0.000000 0.000000 0.000000 0.000000 0.055954
#
#
# Mechanical properties :
#
#
# Convention : Reuss Voigt Hill
#
# Bulk Modulus (GPa) = 27.09529 65.66100 46.37814
# Shear Modulus (GPa) = 28.70405 13.15035 20.92720
#
# Velocity S-wave (km/s) = 3.83860 2.59818 3.27761
# Velocity P-wave (km/s) = 5.79271 6.53505 6.17505
#
# Compressibility (1/GPa) = 0.03690678
#
# Stress axis : x y z
#
# Youngs Moduli (GPa) = 38.31183 58.12647 129.41554
#
# Poissons Ratio (x) = -0.18631 0.34872
# Poissons Ratio (y) = -0.12280 0.98014
# Poissons Ratio (z) = 0.10323 0.44023
#
# Static dielectric constant tensor:
#      x y z
#    x 1.733010 0.000000 0.000000 
#    y 0.000000 1.647650 0.000000 
#    z 0.000000 0.000000 1.723700 
# 
# From -- ./inp_files/15576.got.cif
#   From: 2010.05.17/outbox.cif.g08.bks.cpg/sg47_8_cif.got.tgz:15576.got - 2010.06.03 20:15:42.
