data_PCOD9381572
_publ_section_title
;
Structure prediction by ZEFSAII (Michael W. Deem and Ramdas Pophale) SiO2 
 PCOD9381572
Probable space group: P M M M
;
_chemical_formula_sum "Si O2"
_cell_formula_units_Z 52
_cell_length_a 8.042427
_cell_length_b 14.128838
_cell_length_c 28.903336
_cell_angle_alpha 90.000000
_cell_angle_beta 90.000000
_cell_angle_gamma 90.000000
_cell_volume 3284.290353
_symmetry_space_group_name_H-M "P M M M"
_symmetry_group_IT_number 47
_symmetry_cell_setting 'orthorhombic'
loop_
_space_group_symop_operation_xyz
x,y,z
-x,-y,z
x,-y,-z
-x,y,-z
-x,-y,-z
x,y,-z
-x,y,z
x,-y,z
loop_
_atom_site_type_symbol
_atom_site_label
_atom_site_fract_x
_atom_site_fract_y
_atom_site_fract_z
Si Si1 0.000000 0.384498 0.053424
Si Si2 0.802707 0.390599 0.213844
Si Si3 0.799892 0.395088 0.598441
Si Si4 0.300479 0.104568 0.355208
Si Si5 0.684268 0.384866 0.113434
Si Si6 0.699720 0.296224 0.691695
Si Si7 0.201507 0.202071 0.448139
O O1 0.165222 0.353406 0.080743
O O2 0.000000 0.500000 0.053972
O O3 0.000000 0.355059 0.000000
O O4 0.751639 0.500000 0.222732
O O5 0.715845 0.357259 0.166710
O O6 0.763540 0.329717 0.258854
O O7 0.000000 0.390716 0.205089
O O8 0.736588 0.500000 0.586938
O O9 0.756000 0.367173 0.651010
O O10 0.741582 0.307806 0.566747
O O11 0.000000 0.397229 0.594603
O O12 0.500000 0.102707 0.350317
O O13 0.239036 0.192029 0.323967
O O14 0.260954 0.132104 0.408105
O O15 0.235217 0.000000 0.344096
O O16 0.500000 0.355445 0.098275
O O17 0.688675 0.500000 0.113292
O O18 0.500000 0.295704 0.692504
O O19 0.256666 0.178948 0.500000
O O20 0.000000 0.201678 0.447535
#
# Coordination Sequence:
#
# PCOD9381572 Si02
#       7
#     4   8   8   8   8   8   8
#     4   9  16  26  38  54  80 114 155 201 240 269
#     4  10  18  28  42  60  86 116 143 176 218 261
#     4   9  17  29  43  59  82 110 135 160 196 245
#     4   9  19  35  50  62  80 106 134 167 207 253
#     4   9  16  26  39  56  80 112 152 194 233 270
#     4  10  19  29  43  63  82 103 136 172 208 254
#     4   9  18  31  46  65  85 103 129 166 204 244
#
# _framework density 15.832948
#
# number of rings (size 3 to 8) (size 9 to 14) (size 15 to 20)
#    0.000    2.692    0.769    1.385    0.000    5.231 
#    0.000    4.615    0.000    0.000    0.000    4.308 
#    0.000    0.000    0.000    0.000    0.000    1.538 
#
# Total GULP energy -289828.335016 kJ/mol
# GULP energy per Si atom -5573.621827 kJ/mol
# Density = 1.579691 g / cm^3
# Si number density = 15.832948 Si / 1000 Ang^3
#
#
#
# Elastic Constant Matrix: (Units=GPa)
#
#
# Indices 1 2 3 4 5 6 
#
# 1 39.1396 5.1575 22.4147 0.0000 0.0000 0.0000
# 2 5.1575 58.6288 14.8808 0.0000 0.0000 0.0000
# 3 22.4147 14.8808 93.3460 0.0000 0.0000 0.0000
# 4 0.0000 0.0000 0.0000 7.7779 0.0000 0.0000
# 5 0.0000 0.0000 0.0000 0.0000 3.6566 0.0000
# 6 0.0000 0.0000 0.0000 0.0000 0.0000 12.2360
#
#
#
# Elastic Compliance Matrix: (Units=1/GPa)
#
#
# Indices 1 2 3 4 5 6 
#
# 1 0.029662 -0.000835 -0.006990 0.000000 0.000000 0.000000
# 2 -0.000835 0.017799 -0.002637 0.000000 0.000000 0.000000
# 3 -0.006990 -0.002637 0.012812 0.000000 0.000000 0.000000
# 4 0.000000 0.000000 0.000000 0.128570 0.000000 0.000000
# 5 0.000000 0.000000 0.000000 0.000000 0.273479 0.000000
# 6 0.000000 0.000000 0.000000 0.000000 0.000000 0.081726
#
#
# Mechanical properties :
#
#
# Convention : Reuss Voigt Hill
#
# Bulk Modulus (GPa) = 25.41314 30.66894 28.04104
# Shear Modulus (GPa) = 8.64918 14.64484 11.64701
#
# Velocity S-wave (km/s) = 2.33979 3.04461 2.71517
# Velocity P-wave (km/s) = 4.83582 5.63666 5.25153
#
# Compressibility (1/GPa) = 0.03934972
#
# Stress axis : x y z
#
# Youngs Moduli (GPa) = 33.71264 56.18219 78.05458
#
# Poissons Ratio (x) = 0.04693 0.54556
# Poissons Ratio (y) = 0.02816 0.20582
# Poissons Ratio (z) = 0.23564 0.14815
#
# Static dielectric constant tensor:
#      x y z
#    x 1.566240 0.000000 0.000000 
#    y 0.000000 1.532140 0.000000 
#    z 0.000000 0.000000 1.510700 
# 
# From -- ./inp_files/31989.got.cif
#   From: 2010.05.17/outbox.cif.g08.bks.cpg/sg47_16_cif.got.tgz:31989.got - 2010.06.03 20:15:42.
