data_PCOD9381945
_publ_section_title
;
Structure prediction by ZEFSAII (Michael W. Deem and Ramdas Pophale) SiO2 
 PCOD9381945
Probable space group: P M M M
;
_chemical_formula_sum "Si O2"
_cell_formula_units_Z 56
_cell_length_a 26.476179
_cell_length_b 14.547704
_cell_length_c 8.779926
_cell_angle_alpha 90.000000
_cell_angle_beta 90.000000
_cell_angle_gamma 90.000000
_cell_volume 3381.743159
_symmetry_space_group_name_H-M "P M M M"
_symmetry_group_IT_number 47
_symmetry_cell_setting 'orthorhombic'
loop_
_space_group_symop_operation_xyz
x,y,z
-x,-y,z
x,-y,-z
-x,y,-z
-x,-y,-z
x,y,-z
-x,y,z
x,-y,z
loop_
_atom_site_type_symbol
_atom_site_label
_atom_site_fract_x
_atom_site_fract_y
_atom_site_fract_z
Si Si1 0.798527 0.211388 0.816242
Si Si2 0.595986 0.213165 0.182956
Si Si3 0.365831 0.394705 0.682032
Si Si4 0.302961 0.105183 0.185233
Si Si5 0.500000 0.107758 0.317170
Si Si6 0.254211 0.395565 0.182645
Si Si7 0.000000 0.111474 0.824848
Si Si8 0.106395 0.892864 0.682065
O O1 0.749332 0.152497 0.768277
O O2 0.785284 0.316540 0.774864
O O3 0.848455 0.169005 0.744633
O O4 0.802708 0.205809 0.000000
O O5 0.599884 0.317421 0.241204
O O6 0.648027 0.162819 0.231855
O O7 0.549131 0.158344 0.251589
O O8 0.593304 0.211656 0.000000
O O9 0.367893 0.385924 0.500000
O O10 0.379300 0.500000 0.723095
O O11 0.308191 0.380083 0.738177
O O12 0.305971 0.000000 0.237379
O O13 0.302998 0.104879 0.000000
O O14 0.500000 0.113473 0.500000
O O15 0.500000 0.000000 0.273623
O O16 0.237846 0.500000 0.216068
O O17 0.262597 0.387928 0.000000
O O18 0.948060 0.138966 0.743884
O O19 0.000000 0.000000 0.821263
O O20 0.000000 0.141190 0.000000
O O21 0.105767 0.891071 0.500000
O O22 0.114115 0.000000 0.730397
#
# Coordination Sequence:
#
# PCOD9381945 Si02
#       8
#     8   8   8   8   4   8   4   8
#     4  10  18  30  48  73 103 136 171 209 254 304
#     4  11  21  37  59  81 104 137 179 220 259 305
#     4  10  20  34  54  80 109 139 169 209 265 322
#     4   9  17  29  47  73 103 132 166 208 252 297
#     4  11  25  43  60  81 110 141 173 214 262 311
#     4   9  17  31  51  75 103 135 174 217 258 305
#     4   9  17  31  51  71  92 129 178 219 255 300
#     4  10  20  32  46  69 103 139 173 213 257 300
#
# _framework density 16.559507
#
# number of rings (size 3 to 8) (size 9 to 14) (size 15 to 20)
#    0.000    2.143    1.429    2.571    0.000    4.857 
#    0.000    0.357    0.000    4.714    0.000    0.500 
#    0.000    4.000    0.000    0.000    0.000    0.000 
#
# Total GULP energy -312474.482972 kJ/mol
# GULP energy per Si atom -5579.901482 kJ/mol
# Density = 1.652182 g / cm^3
# Si number density = 16.559507 Si / 1000 Ang^3
#
#
#
# Elastic Constant Matrix: (Units=GPa)
#
#
# Indices 1 2 3 4 5 6 
#
# 1 139.6564 81.4753 45.4051 0.0000 0.0000 0.0000
# 2 81.4753 137.6009 47.5375 0.0000 0.0000 0.0000
# 3 45.4051 47.5375 42.1635 0.0000 0.0000 0.0000
# 4 0.0000 0.0000 0.0000 20.1997 0.0000 0.0000
# 5 0.0000 0.0000 0.0000 0.0000 7.5709 0.0000
# 6 0.0000 0.0000 0.0000 0.0000 0.0000 21.0609
#
#
#
# Elastic Compliance Matrix: (Units=1/GPa)
#
#
# Indices 1 2 3 4 5 6 
#
# 1 0.012524 -0.004515 -0.008397 0.000000 0.000000 0.000000
# 2 -0.004515 0.013532 -0.010394 0.000000 0.000000 0.000000
# 3 -0.008397 -0.010394 0.044479 0.000000 0.000000 0.000000
# 4 0.000000 0.000000 0.000000 0.049506 0.000000 0.000000
# 5 0.000000 0.000000 0.000000 0.000000 0.132085 0.000000
# 6 0.000000 0.000000 0.000000 0.000000 0.000000 0.047481
#
#
# Mechanical properties :
#
#
# Convention : Reuss Voigt Hill
#
# Bulk Modulus (GPa) = 41.80150 74.25074 58.02612
# Shear Modulus (GPa) = 14.11656 19.43315 16.77485
#
# Velocity S-wave (km/s) = 2.92288 3.42941 3.18623
# Velocity P-wave (km/s) = 6.05715 7.78570 6.97518
#
# Compressibility (1/GPa) = 0.02392259
#
# Stress axis : x y z
#
# Youngs Moduli (GPa) = 79.84354 73.90032 22.48255
#
# Poissons Ratio (x) = 0.33366 0.18879
# Poissons Ratio (y) = 0.36049 0.23369
# Poissons Ratio (z) = 0.67044 0.76814
#
# Static dielectric constant tensor:
#      x y z
#    x 1.525500 0.000000 0.000000 
#    y 0.000000 1.566830 0.000000 
#    z 0.000000 0.000000 1.556560 
# 
# From -- ./inp_files/11360.got.cif
#   From: 2010.05.17/outbox.cif.g08.bks.cpg/sg47_6_cif.got.tgz:11360.got - 2010.06.03 20:15:42.
