data_PCOD9381005
_publ_section_title
;
Structure prediction by ZEFSAII (Michael W. Deem and Ramdas Pophale) SiO2 
 PCOD9381005
Probable space group: I M A 2
;
_chemical_formula_sum "Si O2"
_cell_formula_units_Z 20
_cell_length_a 11.161511
_cell_length_b 5.010868
_cell_length_c 12.589125
_cell_angle_alpha 90.000000
_cell_angle_beta 90.000000
_cell_angle_gamma 90.000000
_cell_volume 704.095388
_symmetry_space_group_name_H-M "I M A 2"
_symmetry_group_IT_number 46
_symmetry_cell_setting 'orthorhombic'
loop_
_space_group_symop_operation_xyz
x,y,z
-x,-y,z
1/2-x,y,z
1/2+x,-y,z
1/2+x,1/2+y,1/2+z
1/2-x,1/2-y,1/2+z
-x,1/2+y,1/2+z
x,1/2-y,1/2+z
loop_
_atom_site_type_symbol
_atom_site_label
_atom_site_fract_x
_atom_site_fract_y
_atom_site_fract_z
Si Si1 0.885269 0.200067 0.936630
Si Si2 0.000000 0.000000 0.630986
Si Si3 0.123221 0.422647 0.731842
O O1 0.750000 0.075952 0.936669
O O2 0.882011 0.423375 0.842736
O O3 0.000000 0.000000 0.926859
O O4 0.911601 0.361784 0.044322
O O5 0.099898 0.110493 0.715998
O O6 0.250000 0.484382 0.682905
O O7 0.000000 0.500000 0.673748
#
# Coordination Sequence:
#
# PCOD9381005 Si02
#       3
#     8   4   8
#     4  11  27  53  83 118 163 217 273 337 409 489
#     4  12  26  50  86 120 160 216 274 342 408 492
#     4  11  27  50  79 118 162 212 270 335 406 485
#
# _framework density 28.405241
#
# number of rings (size 3 to 8) (size 9 to 14) (size 15 to 20)
#    0.000    0.800    2.000    2.400    2.800   11.200 
#    3.600    0.000    0.000    0.000    0.000    0.000 
#    0.000    0.000    0.000    0.000    0.000    0.000 
#
# Total GULP energy -55677.047039 kJ/mol
# GULP energy per Si atom -5567.704704 kJ/mol
# Density = 2.834059 g / cm^3
# Si number density = 28.405241 Si / 1000 Ang^3
#
#
#
# Elastic Constant Matrix: (Units=GPa)
#
#
# Indices 1 2 3 4 5 6 
#
# 1 343.5229 64.6673 46.4114 0.0000 0.0000 0.0000
# 2 64.6673 72.5596 91.7309 0.0000 0.0000 0.0000
# 3 46.4114 91.7309 186.1764 0.0000 0.0000 0.0000
# 4 0.0000 0.0000 0.0000 61.5561 0.0000 0.0000
# 5 0.0000 0.0000 0.0000 0.0000 33.7692 0.0000
# 6 0.0000 0.0000 0.0000 0.0000 0.0000 60.6880
#
#
#
# Elastic Compliance Matrix: (Units=1/GPa)
#
#
# Indices 1 2 3 4 5 6 
#
# 1 0.003730 -0.005698 0.001878 0.000000 0.000000 0.000000
# 2 -0.005698 0.045250 -0.020875 0.000000 0.000000 0.000000
# 3 0.001878 -0.020875 0.015188 0.000000 0.000000 0.000000
# 4 0.000000 0.000000 0.000000 0.016245 0.000000 0.000000
# 5 0.000000 0.000000 0.000000 0.000000 0.029613 0.000000
# 6 0.000000 0.000000 0.000000 0.000000 0.000000 0.016478
#
#
# Mechanical properties :
#
#
# Convention : Reuss Voigt Hill
#
# Bulk Modulus (GPa) = 67.66688 111.98646 89.82667
# Shear Modulus (GPa) = 27.65170 57.83261 42.74216
#
# Velocity S-wave (km/s) = 3.12344 4.51708 3.88329
# Velocity P-wave (km/s) = 6.07301 8.16796 7.19712
#
# Compressibility (1/GPa) = 0.01477828
#
# Stress axis : x y z
#
# Youngs Moduli (GPa) = 268.09893 22.09936 65.83973
#
# Poissons Ratio (x) = 0.12592 -0.12362
# Poissons Ratio (y) = 1.52762 1.37439
# Poissons Ratio (z) = -0.50338 0.46132
#
# Static dielectric constant tensor:
#      x y z
#    x 2.157970 0.000000 0.000000 
#    y 0.000000 -0.857930 0.000000 
#    z 0.000000 0.000000 2.090310 
# 
# From -- ./inp_files/14797.got.cif
#   From: 2010.05.17/outbox.cif.g08.bks.cpg/sg46_8_cif.got.tgz:14797.got - 2010.06.03 19:58:25.
