data_PCOD9381080
_publ_section_title
;
Structure prediction by ZEFSAII (Michael W. Deem and Ramdas Pophale) SiO2 
 PCOD9381080
Probable space group: I M A 2
;
_chemical_formula_sum "Si O2"
_cell_formula_units_Z 32
_cell_length_a 9.000000
_cell_length_b 30.000000
_cell_length_c 12.000000
_cell_angle_alpha 90.000000
_cell_angle_beta 90.000000
_cell_angle_gamma 90.000000
_cell_volume 3240.000000
_symmetry_space_group_name_H-M "I M A 2"
_symmetry_group_IT_number 46
_symmetry_cell_setting 'orthorhombic'
loop_
_space_group_symop_operation_xyz
x,y,z
-x,-y,z
1/2-x,y,z
1/2+x,-y,z
1/2+x,1/2+y,1/2+z
1/2-x,1/2-y,1/2+z
-x,1/2+y,1/2+z
x,1/2-y,1/2+z
loop_
_atom_site_type_symbol
_atom_site_label
_atom_site_fract_x
_atom_site_fract_y
_atom_site_fract_z
Si Si1 0.083463 0.863140 0.416760
Si Si2 0.428468 0.547907 0.468779
Si Si3 0.074871 0.188619 0.245351
Si Si4 0.423763 0.218407 0.840183
Si Si5 0.428915 0.652381 0.520480
Si Si6 0.416325 0.160716 0.629991
Si Si7 0.418565 0.538768 0.007415
Si Si8 0.077820 0.435298 0.234136
O O1 0.250000 0.849761 0.382102
O O2 0.082615 0.915314 0.442464
O O3 0.962614 0.852480 0.324863
O O4 0.036470 0.840854 0.533488
O O5 0.500000 0.500000 0.509817
O O6 0.250000 0.544205 0.478036
O O7 0.470185 0.598622 0.514824
O O8 0.480761 0.551710 0.340035
O O9 0.250000 0.194680 0.224191
O O10 0.023415 0.230736 0.322424
O O11 0.992003 0.177096 0.130502
O O12 0.250000 0.218617 0.876381
O O13 0.509564 0.183235 0.918563
O O14 0.429288 0.201451 0.712896
O O15 0.250000 0.653534 0.518913
O O16 0.250000 0.159690 0.579678
O O17 0.428077 0.117554 0.709676
O O18 0.500000 0.500000 0.941225
O O19 0.250000 0.526836 0.034804
O O20 0.511637 0.545725 0.120172
O O21 0.250000 0.447931 0.251832
#
# Coordination Sequence:
#
# PCOD9381080 Si02
#       8
#     8   8   8   8   8   8   8   8
#     4  10  22  39  59  86 122 158 200 252 303 357
#     4  11  23  38  59  88 123 164 209 257 312 374
#     4  11  25  43  66  91 122 165 210 255 306 372
#     4  10  22  41  65  93 123 160 204 248 302 368
#     4  11  25  44  66  94 129 164 208 265 318 373
#     4   9  18  34  58  87 120 158 198 242 294 358
#     4  10  20  34  54  82 117 157 201 252 306 363
#     4  10  18  31  54  83 119 160 197 243 300 361
#
# _framework density 9.8765429999999999
#
# number of rings (size 3 to 8) (size 9 to 14) (size 15 to 20)
#    0.000    1.750    1.250    2.625    1.750    5.000 
#    0.000    0.625    0.000    0.000    0.000    0.000 
#    0.000    0.000    0.000    0.000    0.000    0.000 
#
# Total GULP energy -178363.894077 kJ/mol
# GULP energy per Si atom -5573.871690 kJ/mol
# Density = 0.985406 g / cm^3
# Si number density = 9.876543 Si / 1000 Ang^3
#
#
#
# Elastic Constant Matrix: (Units=GPa)
#
#
# Indices 1 2 3 4 5 6 
#
# 1 72.5805 45.0893 20.9077 0.0001 0.0001 0.0000
# 2 45.0893 93.7490 27.4629 0.0005 0.0001 -0.0001
# 3 20.9077 27.4629 53.1358 0.0018 0.0030 -0.0001
# 4 0.0001 0.0005 0.0018 -8.5293 0.0022 -0.0001
# 5 0.0001 0.0001 0.0030 0.0022 8.8482 -0.0002
# 6 0.0000 -0.0001 -0.0001 -0.0001 -0.0002 27.7141
#
#
#
# Elastic Compliance Matrix: (Units=1/GPa)
#
#
# Indices 1 2 3 4 5 6 
#
# 1 0.020169 -0.008692 -0.003444 -0.000001 0.000001 0.000000
# 2 -0.008692 0.016316 -0.005013 0.000000 0.000002 0.000000
# 3 -0.003444 -0.005013 0.022766 0.000005 -0.000008 0.000000
# 4 -0.000001 0.000000 0.000005 -0.117243 0.000030 -0.000001
# 5 0.000001 0.000002 -0.000008 0.000030 0.113017 0.000001
# 6 0.000000 0.000000 0.000000 -0.000001 0.000001 0.036083
#
#
# Mechanical properties :
#
#
# Convention : Reuss Voigt Hill
#
# Bulk Modulus (GPa) = 40.07379 45.15392 42.61386
# Shear Modulus (GPa) = 37.39102 14.00697 25.69900
#
# Velocity S-wave (km/s) = 4.35549 2.66579 3.61087
# Velocity P-wave (km/s) = 6.75464 5.69070 6.24536
#
# Compressibility (1/GPa) = 0.02495397
#
# Stress axis : x y z
#
# Youngs Moduli (GPa) = 49.57981 61.29115 43.92607
#
# Poissons Ratio (x) = 0.53273 0.15128
# Poissons Ratio (y) = 0.43094 0.22018
# Poissons Ratio (z) = 0.17075 0.30723
#
# Static dielectric constant tensor:
#      x y z
#    x 1.694780 0.000000 0.000000 
#    y 0.000000 1.798520 0.000000 
#    z 0.000000 0.000000 1.677390 
# 
# From -- ./inp_files/9662.got.cif
#   From: 2010.05.17/outbox.ucp.g08.bks.cvg/sg46_5_cif.got.tgz:9662.got - 2010.06.11 16:34:52.
