data_PCOD9381652
_publ_section_title
;
Structure prediction by ZEFSAII (Michael W. Deem and Ramdas Pophale) SiO2 
 PCOD9381652
Probable space group: P M M M
;
_chemical_formula_sum "Si O2"
_cell_formula_units_Z 64
_cell_length_a 7.850766
_cell_length_b 14.401062
_cell_length_c 29.161975
_cell_angle_alpha 90.000000
_cell_angle_beta 90.000000
_cell_angle_gamma 90.000000
_cell_volume 3297.034461
_symmetry_space_group_name_H-M "P M M M"
_symmetry_group_IT_number 47
_symmetry_cell_setting 'orthorhombic'
loop_
_space_group_symop_operation_xyz
x,y,z
-x,-y,z
x,-y,-z
-x,y,-z
-x,-y,-z
x,y,-z
-x,y,z
x,-y,z
loop_
_atom_site_type_symbol
_atom_site_label
_atom_site_fract_x
_atom_site_fract_y
_atom_site_fract_z
Si Si1 0.207888 0.604147 0.053663
Si Si2 0.802062 0.608298 0.697159
Si Si3 0.311441 0.250216 0.626833
Si Si4 0.705804 0.892949 0.699180
Si Si5 0.205609 0.106930 0.801640
Si Si6 0.192833 0.748386 0.874249
Si Si7 0.699358 0.391277 0.198364
Si Si8 0.796018 0.396633 0.447666
O O1 0.263653 0.500000 0.068916
O O2 0.272156 0.691931 0.083086
O O3 0.000000 0.604656 0.057291
O O4 0.250210 0.613057 0.000000
O O5 0.775880 0.500000 0.687338
O O6 0.686774 0.671390 0.665995
O O7 0.760775 0.623267 0.750057
O O8 0.000000 0.630220 0.687547
O O9 0.500000 0.218836 0.613679
O O10 0.227288 0.165949 0.655726
O O11 0.241820 0.308064 0.583880
O O12 0.500000 0.890972 0.696771
O O13 0.750430 0.856981 0.750418
O O14 0.763611 0.000000 0.697036
O O15 0.270868 0.166584 0.844993
O O16 0.000000 0.108471 0.804306
O O17 0.264304 0.000000 0.803960
O O18 0.190845 0.668496 0.835894
O O19 0.000000 0.775876 0.887582
O O20 0.500000 0.366063 0.194196
O O21 0.716577 0.500000 0.188249
O O22 0.734301 0.384590 0.500000
O O23 0.735516 0.500000 0.431404
O O24 0.000000 0.402602 0.448953
#
# Coordination Sequence:
#
# PCOD9381652 Si02
#       8
#     8   8   8   8   8   8   8   8
#     4   8  14  25  42  65  90 115 150 196 236 273
#     4  10  20  32  45  63  92 129 161 186 220 275
#     4  11  21  31  49  75  98 122 156 200 244 281
#     4   9  19  35  51  68  94 127 160 193 232 282
#     4   9  18  31  46  67  94 121 152 193 238 280
#     4  10  18  28  46  67  87 117 155 192 231 279
#     4  10  20  31  42  61  92 123 149 184 229 274
#     4   9  19  36  55  74  99 132 166 197 232 279
#
# _framework density 19.411384000000002
#
# number of rings (size 3 to 8) (size 9 to 14) (size 15 to 20)
#    0.000    2.500    0.000    3.375    0.000    7.500 
#    0.000    0.625    0.000    1.125    0.000    7.000 
#    0.000    0.000    0.000    4.250    0.000    4.625 
#
# Total GULP energy -356581.345888 kJ/mol
# GULP energy per Si atom -5571.583530 kJ/mol
# Density = 1.936720 g / cm^3
# Si number density = 19.411384 Si / 1000 Ang^3
#
#
#
# Elastic Constant Matrix: (Units=GPa)
#
#
# Indices 1 2 3 4 5 6 
#
# 1 18.4595 12.7144 -2.6486 0.0000 0.0000 0.0000
# 2 12.7144 95.3941 60.4243 0.0000 0.0000 0.0000
# 3 -2.6486 60.4243 94.7120 0.0000 0.0000 0.0000
# 4 0.0000 0.0000 0.0000 37.9758 0.0000 0.0000
# 5 0.0000 0.0000 0.0000 0.0000 29.3384 0.0000
# 6 0.0000 0.0000 0.0000 0.0000 0.0000 12.7159
#
#
#
# Elastic Compliance Matrix: (Units=1/GPa)
#
#
# Indices 1 2 3 4 5 6 
#
# 1 0.067863 -0.017196 0.012869 0.000000 0.000000 0.000000
# 2 -0.017196 0.021949 -0.014484 0.000000 0.000000 0.000000
# 3 0.012869 -0.014484 0.020159 0.000000 0.000000 0.000000
# 4 0.000000 0.000000 0.000000 0.026333 0.000000 0.000000
# 5 0.000000 0.000000 0.000000 0.000000 0.034085 0.000000
# 6 0.000000 0.000000 0.000000 0.000000 0.000000 0.078641
#
#
# Mechanical properties :
#
#
# Convention : Reuss Voigt Hill
#
# Bulk Modulus (GPa) = 13.82210 38.83842 26.33026
# Shear Modulus (GPa) = 16.08911 25.21107 20.65009
#
# Velocity S-wave (km/s) = 2.88210 3.60777 3.26515
# Velocity P-wave (km/s) = 4.26748 6.11605 5.27340
#
# Compressibility (1/GPa) = 0.07234790
#
# Stress axis : x y z
#
# Youngs Moduli (GPa) = 14.73553 45.55972 49.60636
#
# Poissons Ratio (x) = 0.78345 -0.63836
# Poissons Ratio (y) = 0.25339 0.71850
# Poissons Ratio (z) = -0.18963 0.65989
#
# Static dielectric constant tensor:
#      x y z
#    x 1.753060 0.000000 0.000000 
#    y 0.000000 1.709340 0.000000 
#    z 0.000000 0.000000 1.696430 
# 
# From -- ./inp_files/34476.got.cif
#   From: 2010.05.17/outbox.cif.g08.bks.cpg/sg47_18_cif.got.tgz:34476.got - 2010.06.03 20:15:42.
