data_PCOD9381418
_publ_section_title
;
Structure prediction by ZEFSAII (Michael W. Deem and Ramdas Pophale) SiO2 
 PCOD9381418
Probable space group: P M M M
;
_chemical_formula_sum "Si O2"
_cell_formula_units_Z 52
_cell_length_a 7.565061
_cell_length_b 17.106889
_cell_length_c 18.367185
_cell_angle_alpha 90.000000
_cell_angle_beta 90.000000
_cell_angle_gamma 90.000000
_cell_volume 2376.982980
_symmetry_space_group_name_H-M "P M M M"
_symmetry_group_IT_number 47
_symmetry_cell_setting 'orthorhombic'
loop_
_space_group_symop_operation_xyz
x,y,z
-x,-y,z
x,-y,-z
-x,y,-z
-x,-y,-z
x,y,-z
-x,y,z
x,-y,z
loop_
_atom_site_type_symbol
_atom_site_label
_atom_site_fract_x
_atom_site_fract_y
_atom_site_fract_z
Si Si1 0.706102 0.500000 0.413847
Si Si2 0.282086 0.831164 0.655487
Si Si3 0.791079 0.588501 0.782659
Si Si4 0.702414 0.662745 0.360453
Si Si5 0.286783 0.313412 0.082407
Si Si6 0.288956 0.167809 0.823750
Si Si7 0.700562 0.000000 0.360111
Si Si8 0.794661 0.000000 0.806862
O O1 0.500000 0.500000 0.387839
O O2 0.705389 0.500000 0.500000
O O3 0.786720 0.582222 0.388455
O O4 0.500000 0.832081 0.654605
O O5 0.224061 0.748343 0.622065
O O6 0.224335 0.827994 0.740191
O O7 0.222309 0.914311 0.622420
O O8 0.727294 0.500000 0.769671
O O9 0.702965 0.649078 0.726777
O O10 0.759243 0.615057 0.864884
O O11 0.000000 0.590743 0.768758
O O12 0.500000 0.663410 0.387552
O O13 0.500000 0.308968 0.079416
O O14 0.220538 0.235566 0.123881
O O15 0.221499 0.319973 0.000000
O O16 0.500000 0.176524 0.820306
O O17 0.248827 0.079659 0.848202
O O18 0.500000 0.000000 0.388424
O O19 0.695092 0.000000 0.271148
O O20 0.000000 0.000000 0.787976
#
# Coordination Sequence:
#
# PCOD9381418 Si02
#       8
#     4   8   8   8   8   8   4   4
#     4   9  18  30  49  81 114 137 164 213 263 294
#     4   8  13  23  44  69  89 121 161 204 250 294
#     4  11  23  36  51  73 102 131 163 203 256 312
#     4  10  17  30  53  76  99 132 175 211 245 298
#     4  10  21  37  56  74  92 122 170 220 261 306
#     4   9  16  30  48  66  92 121 159 207 258 303
#     4   8  14  26  40  61  96 124 156 208 257 292
#     4  10  18  26  41  67  94 124 163 198 247 308
#
# _framework density 21.876474000000002
#
# number of rings (size 3 to 8) (size 9 to 14) (size 15 to 20)
#    0.000    2.538    2.308    2.077    0.000    2.154 
#    0.000    1.923    0.000    3.231    0.000    0.538 
#    0.000    4.308    0.000    0.000    0.000   10.308 
#
# Total GULP energy -289959.083438 kJ/mol
# GULP energy per Si atom -5576.136220 kJ/mol
# Density = 2.182668 g / cm^3
# Si number density = 21.876474 Si / 1000 Ang^3
#
#
#
# Elastic Constant Matrix: (Units=GPa)
#
#
# Indices 1 2 3 4 5 6 
#
# 1 58.9340 0.4961 -3.0963 0.0000 0.0000 0.0000
# 2 0.4961 215.8263 17.2747 0.0000 0.0000 0.0000
# 3 -3.0963 17.2747 12.2105 0.0000 0.0000 0.0000
# 4 0.0000 0.0000 0.0000 4.9050 0.0000 0.0000
# 5 0.0000 0.0000 0.0000 0.0000 -7.0137 0.0000
# 6 0.0000 0.0000 0.0000 0.0000 0.0000 -32.3559
#
#
#
# Elastic Compliance Matrix: (Units=1/GPa)
#
#
# Indices 1 2 3 4 5 6 
#
# 1 0.017234 -0.000439 0.004991 0.000000 0.000000 0.000000
# 2 -0.000439 0.005236 -0.007519 0.000000 0.000000 0.000000
# 3 0.004991 -0.007519 0.093800 0.000000 0.000000 0.000000
# 4 0.000000 0.000000 0.000000 0.203874 0.000000 0.000000
# 5 0.000000 0.000000 0.000000 0.000000 -0.142578 0.000000
# 6 0.000000 0.000000 0.000000 0.000000 0.000000 -0.030906
#
#
# Mechanical properties :
#
#
# Convention : Reuss Voigt Hill
#
# Bulk Modulus (GPa) = 9.06321 35.14663 22.10492
# Shear Modulus (GPa) = 26.40310 11.26018 18.83164
#
# Velocity S-wave (km/s) = 3.47784 2.27120 2.93715
# Velocity P-wave (km/s) = 4.50323 4.79360 4.65068
#
# Compressibility (1/GPa) = 0.11033619
#
# Stress axis : x y z
#
# Youngs Moduli (GPa) = 58.02457 190.97832 10.66101
#
# Poissons Ratio (x) = 0.08386 -0.05321
# Poissons Ratio (y) = 0.02548 0.08016
# Poissons Ratio (z) = -0.28962 1.43600
#
# Static dielectric constant tensor:
#      x y z
#    x 1.813390 0.000000 0.000000 
#    y 0.000000 1.863390 0.000000 
#    z 0.000000 0.000000 1.773110 
# 
# From -- ./inp_files/26833.got.cif
#   From: 2010.05.17/outbox.cif.g08.bks.cpg/sg47_14_cif.got.tgz:26833.got - 2010.06.03 20:15:42.
