data_PCOD9381089
_publ_section_title
;
Structure prediction by ZEFSAII (Michael W. Deem and Ramdas Pophale) SiO2 
 PCOD9381089
Probable space group: I M A 2
;
_chemical_formula_sum "Si O2"
_cell_formula_units_Z 28
_cell_length_a 9.000000
_cell_length_b 21.000000
_cell_length_c 15.000000
_cell_angle_alpha 90.000000
_cell_angle_beta 90.000000
_cell_angle_gamma 90.000000
_cell_volume 2835.000000
_symmetry_space_group_name_H-M "I M A 2"
_symmetry_group_IT_number 46
_symmetry_cell_setting 'orthorhombic'
loop_
_space_group_symop_operation_xyz
x,y,z
-x,-y,z
1/2-x,y,z
1/2+x,-y,z
1/2+x,1/2+y,1/2+z
1/2-x,1/2-y,1/2+z
-x,1/2+y,1/2+z
x,1/2-y,1/2+z
loop_
_atom_site_type_symbol
_atom_site_label
_atom_site_fract_x
_atom_site_fract_y
_atom_site_fract_z
Si Si1 0.573273 0.837363 0.350690
Si Si2 0.070480 0.935770 0.646755
Si Si3 0.429670 0.314112 0.052601
Si Si4 0.428000 0.070625 0.007392
Si Si5 0.570751 0.931254 0.205401
Si Si6 0.580766 0.384973 0.333249
Si Si7 0.578602 0.244811 0.717133
O O1 0.750000 0.842535 0.360182
O O2 0.520294 0.816971 0.449008
O O3 0.518227 0.900067 0.298487
O O4 0.529596 0.787299 0.275518
O O5 0.250000 0.930479 0.636139
O O6 0.037931 0.932084 0.752843
O O7 0.984574 0.879886 0.596362
O O8 0.000000 0.000000 0.610839
O O9 0.250000 0.306706 0.057455
O O10 0.511841 0.264890 0.118507
O O11 0.250000 0.064919 0.003514
O O12 0.482909 0.110701 0.921891
O O13 0.500000 0.000000 0.999246
O O14 0.466819 0.097642 0.106742
O O15 0.750000 0.933331 0.208448
O O16 0.500000 0.000000 0.201268
O O17 0.750000 0.398354 0.361268
O O18 0.580619 0.319727 0.276463
O O19 0.750000 0.267220 0.712390
#
# Coordination Sequence:
#
# PCOD9381089 Si02
#       7
#     8   8   8   8   8   8   8
#     4  10  22  40  61  84 110 143 183 226 275 329
#     4  10  20  34  53  79 112 149 188 231 280 333
#     4  10  21  38  59  82 111 146 184 230 280 331
#     4  10  19  31  51  77 107 143 180 221 269 320
#     4   9  20  38  56  79 110 141 178 222 268 321
#     4   9  19  34  51  75 108 143 181 224 268 319
#     4  10  22  39  58  82 112 145 183 228 275 329
#
# _framework density 9.8765429999999999
#
# number of rings (size 3 to 8) (size 9 to 14) (size 15 to 20)
#    0.000    2.286    0.000    3.000    0.000    8.571 
#    0.000    5.714    0.000    0.000    0.000    0.000 
#    0.000    0.000    0.000    0.000    0.000    0.000 
#
# Total GULP energy -155881.101055 kJ/mol
# GULP energy per Si atom -5567.182181 kJ/mol
# Density = 0.985406 g / cm^3
# Si number density = 9.876543 Si / 1000 Ang^3
#
#
#
# Elastic Constant Matrix: (Units=GPa)
#
#
# Indices 1 2 3 4 5 6 
#
# 1 -15.6208 -27.9715 17.1908 0.0000 0.0000 0.0000
# 2 -27.9715 15.0945 0.4078 0.0000 0.0000 0.0000
# 3 17.1908 0.4078 159.1869 0.0000 0.0000 0.0000
# 4 0.0000 0.0000 0.0000 9.1685 0.0000 0.0000
# 5 0.0000 0.0000 0.0000 0.0000 26.8475 0.0000
# 6 0.0000 0.0000 0.0000 0.0000 0.0000 19.0301
#
#
#
# Elastic Compliance Matrix: (Units=1/GPa)
#
#
# Indices 1 2 3 4 5 6 
#
# 1 -0.014393 -0.026716 0.001623 0.000000 0.000000 0.000000
# 2 -0.026716 0.016666 0.002842 0.000000 0.000000 0.000000
# 3 0.001623 0.002842 0.006099 0.000000 0.000000 0.000000
# 4 0.000000 0.000000 0.000000 0.109070 0.000000 0.000000
# 5 0.000000 0.000000 0.000000 0.000000 0.037247 0.000000
# 6 0.000000 0.000000 0.000000 0.000000 0.000000 0.052548
#
#
# Mechanical properties :
#
#
# Convention : Reuss Voigt Hill
#
# Bulk Modulus (GPa) = -27.67915 15.32387 -6.17764
# Shear Modulus (GPa) = 20.85976 22.27811 21.56893
#
# Velocity S-wave (km/s) = 3.25318 3.36196 3.30802
# Velocity P-wave (km/s) = 0.26060 4.77964 3.38473
#
# Compressibility (1/GPa) = -0.03612828
#
# Stress axis : x y z
#
# Youngs Moduli (GPa) = -69.47790 60.00145 163.95056
#
# Poissons Ratio (x) = 1.60297 -0.26605
# Poissons Ratio (y) = -1.85614 -0.46601
# Poissons Ratio (z) = 0.11275 -0.17055
#
# Static dielectric constant tensor:
#      x y z
#    x 1.671010 0.000000 0.000000 
#    y 0.000000 1.906620 0.000000 
#    z 0.000000 0.000000 1.692480 
# 
# From -- ./inp_files/14147.got.cif
#   From: 2010.05.17/outbox.ucp.g08.bks.cvg/sg46_8_cif.got.tgz:14147.got - 2010.06.11 16:34:52.
