data_PCOD9381684
_publ_section_title
;
Structure prediction by ZEFSAII (Michael W. Deem and Ramdas Pophale) SiO2 
 PCOD9381684
Probable space group: P M M M
;
_chemical_formula_sum "Si O2"
_cell_formula_units_Z 64
_cell_length_a 29.120007
_cell_length_b 14.823832
_cell_length_c 8.785122
_cell_angle_alpha 90.000000
_cell_angle_beta 90.000000
_cell_angle_gamma 90.000000
_cell_volume 3792.274419
_symmetry_space_group_name_H-M "P M M M"
_symmetry_group_IT_number 47
_symmetry_cell_setting 'orthorhombic'
loop_
_space_group_symop_operation_xyz
x,y,z
-x,-y,z
x,-y,-z
-x,y,-z
-x,-y,-z
x,y,-z
-x,y,z
x,-y,z
loop_
_atom_site_type_symbol
_atom_site_label
_atom_site_fract_x
_atom_site_fract_y
_atom_site_fract_z
Si Si1 0.780529 0.392278 0.320727
Si Si2 0.552474 0.102833 0.685427
Si Si3 0.721635 0.895062 0.317656
Si Si4 0.680923 0.604566 0.818116
Si Si5 0.364498 0.228434 0.315833
Si Si6 0.134820 0.282946 0.182222
Si Si7 0.179186 0.102252 0.183418
Si Si8 0.947052 0.396435 0.316524
O O1 0.780397 0.371011 0.500000
O O2 0.787665 0.500000 0.303219
O O3 0.730702 0.370959 0.251454
O O4 0.821407 0.339613 0.239974
O O5 0.553040 0.102966 0.500000
O O6 0.500000 0.121587 0.732602
O O7 0.589843 0.175713 0.734941
O O8 0.564365 0.000000 0.731683
O O9 0.726897 0.887526 0.500000
O O10 0.679594 0.832084 0.271260
O O11 0.770048 0.872211 0.241300
O O12 0.711305 0.000000 0.282692
O O13 0.671836 0.500000 0.777348
O O14 0.643680 0.673389 0.753015
O O15 0.683356 0.611295 0.000000
O O16 0.365061 0.234153 0.500000
O O17 0.143755 0.179529 0.231309
O O18 0.089150 0.327767 0.247743
O O19 0.133354 0.286157 0.000000
O O20 0.169345 0.000000 0.236704
O O21 0.180167 0.101053 0.000000
O O22 0.944379 0.393037 0.500000
O O23 0.936024 0.500000 0.271225
O O24 0.000000 0.378419 0.273279
#
# Coordination Sequence:
#
# PCOD9381684 Si02
#       8
#     8   8   8   8   8   8   8   8
#     4  10  20  33  49  70  98 130 160 191 232 283
#     4   8  14  26  46  73 102 127 152 188 236 287
#     4   9  17  28  43  67  97 124 152 188 229 274
#     4  10  21  35  48  64  91 126 162 200 239 278
#     4  10  18  28  47  72  95 122 157 195 235 282
#     4  11  21  31  49  75  99 126 161 199 237 278
#     4   9  19  34  47  62  91 129 163 193 227 270
#     4   9  19  36  55  74  98 127 156 189 235 289
#
# _framework density 16.876417
#
# number of rings (size 3 to 8) (size 9 to 14) (size 15 to 20)
#    0.000    2.500    0.000    3.375    0.000    8.500 
#    0.000    0.625    0.000    2.250    0.000    6.125 
#    0.000    0.000    0.000    0.000    0.000    0.000 
#
# Total GULP energy -357062.351439 kJ/mol
# GULP energy per Si atom -5579.099241 kJ/mol
# Density = 1.683801 g / cm^3
# Si number density = 16.876417 Si / 1000 Ang^3
#
#
#
# Elastic Constant Matrix: (Units=GPa)
#
#
# Indices 1 2 3 4 5 6 
#
# 1 114.1006 94.1945 28.9363 0.0000 0.0000 0.0000
# 2 94.1945 109.1520 32.4693 0.0000 0.0000 0.0000
# 3 28.9363 32.4693 17.9711 0.0000 0.0000 0.0000
# 4 0.0000 0.0000 0.0000 21.5163 0.0000 0.0000
# 5 0.0000 0.0000 0.0000 0.0000 -140.3245 0.0000
# 6 0.0000 0.0000 0.0000 0.0000 0.0000 33.4326
#
#
#
# Elastic Compliance Matrix: (Units=1/GPa)
#
#
# Indices 1 2 3 4 5 6 
#
# 1 0.030569 -0.025378 -0.003370 0.000000 0.000000 0.000000
# 2 -0.025378 0.040875 -0.032988 0.000000 0.000000 0.000000
# 3 -0.003370 -0.032988 0.120673 0.000000 0.000000 0.000000
# 4 0.000000 0.000000 0.000000 0.046476 0.000000 0.000000
# 5 0.000000 0.000000 0.000000 0.000000 -0.007126 0.000000
# 6 0.000000 0.000000 0.000000 0.000000 0.000000 0.029911
#
#
# Mechanical properties :
#
#
# Convention : Reuss Voigt Hill
#
# Bulk Modulus (GPa) = 14.56778 61.38045 37.97411
# Shear Modulus (GPa) = 12.26302 -11.36687 0.44808
#
# Velocity S-wave (km/s) = 2.69854 -2.59807 0.51583
# Velocity P-wave (km/s) = 4.28489 5.23923 4.78591
#
# Compressibility (1/GPa) = 0.06864466
#
# Stress axis : x y z
#
# Youngs Moduli (GPa) = 32.71291 24.46511 8.28689
#
# Poissons Ratio (x) = 0.62087 0.02793
# Poissons Ratio (y) = 0.83017 0.27337
# Poissons Ratio (z) = 0.11024 0.80706
#
# Static dielectric constant tensor:
#      x y z
#    x 1.544770 0.000000 0.000000 
#    y 0.000000 1.591200 0.000000 
#    z 0.000000 0.000000 1.567840 
# 
# From -- ./inp_files/12749.got.cif
#   From: 2010.05.17/outbox.cif.g08.bks.cpg/sg47_7_cif.got.tgz:12749.got - 2010.06.03 20:15:42.
