data_PCOD9381800
_publ_section_title
;
Structure prediction by ZEFSAII (Michael W. Deem and Ramdas Pophale) SiO2 
 PCOD9381800
Probable space group: P M M M
;
_chemical_formula_sum "Si O2"
_cell_formula_units_Z 64
_cell_length_a 25.329463
_cell_length_b 15.143311
_cell_length_c 7.854184
_cell_angle_alpha 90.000000
_cell_angle_beta 90.000000
_cell_angle_gamma 90.000000
_cell_volume 3012.644560
_symmetry_space_group_name_H-M "P M M M"
_symmetry_group_IT_number 47
_symmetry_cell_setting 'orthorhombic'
loop_
_space_group_symop_operation_xyz
x,y,z
-x,-y,z
x,-y,-z
-x,y,-z
-x,-y,-z
x,y,-z
-x,y,z
x,-y,z
loop_
_atom_site_type_symbol
_atom_site_label
_atom_site_fract_x
_atom_site_fract_y
_atom_site_fract_z
Si Si1 0.440102 0.400999 0.296158
Si Si2 0.057259 0.135819 0.699858
Si Si3 0.943427 0.657826 0.206858
Si Si4 0.830992 0.636077 0.803185
Si Si5 0.712692 0.098993 0.793618
Si Si6 0.170586 0.160946 0.704210
Si Si7 0.353754 0.740579 0.190405
Si Si8 0.719085 0.596425 0.694663
O O1 0.442077 0.406605 0.500000
O O2 0.500000 0.384730 0.234315
O O3 0.424092 0.500000 0.234676
O O4 0.400757 0.320875 0.257904
O O5 0.056017 0.112743 0.500000
O O6 0.057046 0.242512 0.720659
O O7 0.116332 0.112043 0.762905
O O8 0.000000 0.106310 0.773244
O O9 0.889414 0.611516 0.259212
O O10 0.000000 0.617404 0.251826
O O11 0.941018 0.665121 0.000000
O O12 0.828428 0.742575 0.789453
O O13 0.781940 0.600102 0.700625
O O14 0.824802 0.609631 0.000000
O O15 0.773108 0.116857 0.738805
O O16 0.671067 0.171707 0.726079
O O17 0.697853 0.000000 0.743902
O O18 0.712756 0.105304 0.000000
O O19 0.165830 0.173248 0.500000
O O20 0.304166 0.673847 0.193702
O O21 0.369397 0.765028 0.000000
O O22 0.700951 0.609657 0.500000
O O23 0.701499 0.500000 0.751992
#
# Coordination Sequence:
#
# PCOD9381800 Si02
#       8
#     8   8   8   8   8   8   8   8
#     4   9  19  37  61  90 126 165 196 222 261 314
#     4   8  14  24  39  63  94 125 160 207 266 333
#     4   8  14  24  39  61  88 119 159 207 259 317
#     4  10  18  29  47  70  98 132 170 215 268 325
#     4  10  22  39  56  76 107 147 188 234 288 336
#     4  10  18  29  49  74 100 133 175 223 277 338
#     4  11  22  36  58  86 114 147 187 232 276 321
#     4  11  23  36  51  74 107 145 180 219 271 328
#
# _framework density 21.243793
#
# number of rings (size 3 to 8) (size 9 to 14) (size 15 to 20)
#    0.000    2.375    1.250    2.250    0.000    4.750 
#    0.000    0.625    0.000    1.125    0.000    7.875 
#    0.000    0.000    0.000    0.000    0.000    0.000 
#
# Total GULP energy -356809.135006 kJ/mol
# GULP energy per Si atom -5575.142734 kJ/mol
# Density = 2.119544 g / cm^3
# Si number density = 21.243793 Si / 1000 Ang^3
#
#
#
# Elastic Constant Matrix: (Units=GPa)
#
#
# Indices 1 2 3 4 5 6 
#
# 1 166.7569 64.1832 9.5375 0.0000 0.0000 0.0000
# 2 64.1832 114.1517 9.7914 0.0000 0.0000 0.0000
# 3 9.5375 9.7914 32.5040 0.0000 0.0000 0.0000
# 4 0.0000 0.0000 0.0000 4.5002 0.0000 0.0000
# 5 0.0000 0.0000 0.0000 0.0000 44.7435 0.0000
# 6 0.0000 0.0000 0.0000 0.0000 0.0000 20.0159
#
#
#
# Elastic Compliance Matrix: (Units=1/GPa)
#
#
# Indices 1 2 3 4 5 6 
#
# 1 0.007683 -0.004236 -0.000978 0.000000 0.000000 0.000000
# 2 -0.004236 0.011328 -0.002169 0.000000 0.000000 0.000000
# 3 -0.000978 -0.002169 0.031706 0.000000 0.000000 0.000000
# 4 0.000000 0.000000 0.000000 0.222211 0.000000 0.000000
# 5 0.000000 0.000000 0.000000 0.000000 0.022350 0.000000
# 6 0.000000 0.000000 0.000000 0.000000 0.000000 0.049960
#
#
# Mechanical properties :
#
#
# Convention : Reuss Voigt Hill
#
# Bulk Modulus (GPa) = 27.81679 53.38187 40.59933
# Shear Modulus (GPa) = 13.44125 29.17863 21.30994
#
# Velocity S-wave (km/s) = 2.51811 3.71011 3.17063
# Velocity P-wave (km/s) = 4.64511 6.59818 5.70583
#
# Compressibility (1/GPa) = 0.03594951
#
# Stress axis : x y z
#
# Youngs Moduli (GPa) = 130.15568 88.27608 31.53973
#
# Poissons Ratio (x) = 0.37394 0.03086
# Poissons Ratio (y) = 0.55134 0.06842
# Poissons Ratio (z) = 0.12734 0.19151
#
# Static dielectric constant tensor:
#      x y z
#    x 1.817740 0.000000 0.000000 
#    y 0.000000 1.767980 0.000000 
#    z 0.000000 0.000000 1.786320 
# 
# From -- ./inp_files/12781.got.cif
#   From: 2010.05.17/outbox.cif.g08.bks.cpg/sg47_7_cif.got.tgz:12781.got - 2010.06.03 20:15:42.
