data_PCOD9381295
_publ_section_title
;
Structure prediction by ZEFSAII (Michael W. Deem and Ramdas Pophale) SiO2 
 PCOD9381295
Probable space group: P M M M
;
_chemical_formula_sum "Si O2"
_cell_formula_units_Z 52
_cell_length_a 7.337251
_cell_length_b 14.162841
_cell_length_c 24.370047
_cell_angle_alpha 90.000000
_cell_angle_beta 90.000000
_cell_angle_gamma 90.000000
_cell_volume 2532.445585
_symmetry_space_group_name_H-M "P M M M"
_symmetry_group_IT_number 47
_symmetry_cell_setting 'orthorhombic'
loop_
_space_group_symop_operation_xyz
x,y,z
-x,-y,z
x,-y,-z
-x,y,-z
-x,-y,-z
x,y,-z
-x,y,z
x,-y,z
loop_
_atom_site_type_symbol
_atom_site_label
_atom_site_fract_x
_atom_site_fract_y
_atom_site_fract_z
Si Si1 0.206893 0.195171 0.386497
Si Si2 0.219249 0.000000 0.564664
Si Si3 0.213324 0.217764 0.833201
Si Si4 0.222314 0.108684 0.062016
Si Si5 0.718170 0.893024 0.274784
Si Si6 0.777352 0.394773 0.638440
Si Si7 0.221815 0.604800 0.765984
O O1 0.203533 0.175143 0.321205
O O2 0.285631 0.300347 0.392883
O O3 0.000000 0.199267 0.408145
O O4 0.290469 0.098965 0.410831
O O5 0.248621 0.000000 0.500000
O O6 0.000000 0.000000 0.575664
O O7 0.288230 0.177176 0.889931
O O8 0.228921 0.139096 0.785806
O O9 0.289487 0.312140 0.805090
O O10 0.000000 0.236218 0.843047
O O11 0.000000 0.109126 0.063105
O O12 0.276883 0.000000 0.072471
O O13 0.276882 0.134137 0.000000
O O14 0.500000 0.889233 0.279007
O O15 0.778287 0.000000 0.285751
O O16 0.723310 0.500000 0.619343
O O17 0.721538 0.385915 0.702406
O O18 0.000000 0.392530 0.637582
O O19 0.272824 0.500000 0.784857
O O20 0.000000 0.609411 0.764953
#
# Coordination Sequence:
#
# PCOD9381295 Si02
#       7
#     8   4   8   8   8   8   8
#     4  10  17  29  50  68  87 120 156 184 212 264
#     4   9  18  30  47  73  97 117 150 197 230 245
#     4  10  17  27  46  65  82 113 155 182 210 270
#     4   8  14  24  38  59  84 107 138 186 228 252
#     4  11  22  31  40  62  97 122 137 176 233 271
#     4   8  13  22  39  65  91 114 145 183 220 259
#     4   8  13  21  36  61  89 110 136 179 222 259
#
# _framework density 20.533511000000001
#
# number of rings (size 3 to 8) (size 9 to 14) (size 15 to 20)
#    0.000    2.846    2.308    2.308    0.000    1.538 
#    0.000    0.000    0.000    4.154    0.000    8.615 
#    0.000    0.000    0.000    2.769    0.000    3.231 
#
# Total GULP energy -290023.711466 kJ/mol
# GULP energy per Si atom -5577.379067 kJ/mol
# Density = 2.048678 g / cm^3
# Si number density = 20.533511 Si / 1000 Ang^3
#
#
#
# Elastic Constant Matrix: (Units=GPa)
#
#
# Indices 1 2 3 4 5 6 
#
# 1 79.2648 6.9986 0.1315 0.0000 0.0000 0.0000
# 2 6.9986 193.5661 41.1618 0.0000 0.0000 0.0000
# 3 0.1315 41.1618 50.0482 0.0000 0.0000 0.0000
# 4 0.0000 0.0000 0.0000 13.8131 0.0000 0.0000
# 5 0.0000 0.0000 0.0000 0.0000 -41.5618 0.0000
# 6 0.0000 0.0000 0.0000 0.0000 0.0000 -23.4302
#
#
#
# Elastic Compliance Matrix: (Units=1/GPa)
#
#
# Indices 1 2 3 4 5 6 
#
# 1 0.012663 -0.000546 0.000416 0.000000 0.000000 0.000000
# 2 -0.000546 0.006285 -0.005167 0.000000 0.000000 0.000000
# 3 0.000416 -0.005167 0.024230 0.000000 0.000000 0.000000
# 4 0.000000 0.000000 0.000000 0.072395 0.000000 0.000000
# 5 0.000000 0.000000 0.000000 0.000000 -0.024061 0.000000
# 6 0.000000 0.000000 0.000000 0.000000 0.000000 -0.042680
#
#
# Mechanical properties :
#
#
# Convention : Reuss Voigt Hill
#
# Bulk Modulus (GPa) = 30.69137 46.60698 38.64918
# Shear Modulus (GPa) = 71.13506 8.07002 39.60254
#
# Velocity S-wave (km/s) = 5.89225 1.98462 4.39644
# Velocity P-wave (km/s) = 7.82757 5.29140 6.68093
#
# Compressibility (1/GPa) = 0.03258244
#
# Stress axis : x y z
#
# Youngs Moduli (GPa) = 78.96716 159.11392 41.27183
#
# Poissons Ratio (x) = 0.08693 -0.01717
# Poissons Ratio (y) = 0.04314 0.21327
# Poissons Ratio (z) = -0.03286 0.82221
#
# Static dielectric constant tensor:
#      x y z
#    x 1.779180 0.000000 0.000000 
#    y 0.000000 1.767890 0.000000 
#    z 0.000000 0.000000 1.686600 
# 
# From -- ./inp_files/31987.got.cif
#   From: 2010.05.17/outbox.cif.g08.bks.cpg/sg47_16_cif.got.tgz:31987.got - 2010.06.03 20:15:42.
