data_PCOD9381595
_publ_section_title
;
Structure prediction by ZEFSAII (Michael W. Deem and Ramdas Pophale) SiO2 
 PCOD9381595
Probable space group: P M M M
;
_chemical_formula_sum "Si O2"
_cell_formula_units_Z 64
_cell_length_a 24.255824
_cell_length_b 7.669243
_cell_length_c 20.035468
_cell_angle_alpha 90.000000
_cell_angle_beta 90.000000
_cell_angle_gamma 90.000000
_cell_volume 3727.074061
_symmetry_space_group_name_H-M "P M M M"
_symmetry_group_IT_number 47
_symmetry_cell_setting 'orthorhombic'
loop_
_space_group_symop_operation_xyz
x,y,z
-x,-y,z
x,-y,-z
-x,y,-z
-x,-y,-z
x,y,-z
-x,y,z
x,-y,z
loop_
_atom_site_type_symbol
_atom_site_label
_atom_site_fract_x
_atom_site_fract_y
_atom_site_fract_z
Si Si1 0.667210 0.294355 0.660155
Si Si2 0.562638 0.210001 0.424751
Si Si3 0.734067 0.204107 0.783076
Si Si4 0.937425 0.714009 0.209671
Si Si5 0.751594 0.205982 0.073098
Si Si6 0.227889 0.713932 0.575908
Si Si7 0.840100 0.702891 0.301781
Si Si8 0.880728 0.288858 0.926302
O O1 0.675135 0.500000 0.666248
O O2 0.607532 0.261352 0.629579
O O3 0.683012 0.221084 0.732541
O O4 0.713628 0.230228 0.607658
O O5 0.577946 0.270404 0.500000
O O6 0.500000 0.269523 0.411085
O O7 0.561596 0.000000 0.426523
O O8 0.726021 0.275072 0.857909
O O9 0.787139 0.288139 0.747253
O O10 0.747657 0.000000 0.788905
O O11 0.936199 0.500000 0.209813
O O12 0.892947 0.777163 0.263906
O O13 0.916726 0.769227 0.136325
O O14 0.000000 0.767738 0.222415
O O15 0.817584 0.228104 0.080831
O O16 0.739128 0.000000 0.070097
O O17 0.736886 0.281192 0.000000
O O18 0.221463 0.771383 0.500000
O O19 0.227458 0.500000 0.575861
O O20 0.181255 0.775825 0.627802
O O21 0.852466 0.500000 0.313823
O O22 0.879798 0.500000 0.925273
O O23 0.900463 0.234056 0.000000
#
# Coordination Sequence:
#
# PCOD9381595 Si02
#       8
#     8   8   8   8   8   8   8   8
#     4  10  19  29  44  66  92 120 152 188 220 256
#     4   9  18  32  48  67  96 133 166 193 220 250
#     4  10  18  28  44  63  85 112 141 177 221 265
#     4   9  16  25  38  56  78 103 133 171 212 256
#     4   9  17  28  42  60  83 111 139 169 212 266
#     4   8  14  24  39  59  80 103 132 169 211 251
#     4   9  16  27  42  58  78 103 134 171 214 264
#     4   9  16  25  39  57  76 101 134 170 205 249
#
# _framework density 17.171647
#
# number of rings (size 3 to 8) (size 9 to 14) (size 15 to 20)
#    0.000    2.875    1.250    2.250    0.000    1.750 
#    0.000    1.875    0.000    5.250    0.000    4.375 
#    0.000    0.500    0.000   10.250    0.000    6.625 
#
# Total GULP energy -356589.548373 kJ/mol
# GULP energy per Si atom -5571.711693 kJ/mol
# Density = 1.713256 g / cm^3
# Si number density = 17.171647 Si / 1000 Ang^3
#
#
#
# Elastic Constant Matrix: (Units=GPa)
#
#
# Indices 1 2 3 4 5 6 
#
# 1 82.8123 -3.4906 69.4658 0.0000 0.0000 0.0000
# 2 -3.4906 29.7489 3.5777 0.0000 0.0000 0.0000
# 3 69.4658 3.5777 170.7446 0.0000 0.0000 0.0000
# 4 0.0000 0.0000 0.0000 6.7485 0.0000 0.0000
# 5 0.0000 0.0000 0.0000 0.0000 25.6013 0.0000
# 6 0.0000 0.0000 0.0000 0.0000 0.0000 18.9902
#
#
#
# Elastic Compliance Matrix: (Units=1/GPa)
#
#
# Indices 1 2 3 4 5 6 
#
# 1 0.018613 0.003102 -0.007637 0.000000 0.000000 0.000000
# 2 0.003102 0.034217 -0.001979 0.000000 0.000000 0.000000
# 3 -0.007637 -0.001979 0.009005 0.000000 0.000000 0.000000
# 4 0.000000 0.000000 0.000000 0.148181 0.000000 0.000000
# 5 0.000000 0.000000 0.000000 0.000000 0.039061 0.000000
# 6 0.000000 0.000000 0.000000 0.000000 0.000000 0.052659
#
#
# Mechanical properties :
#
#
# Convention : Reuss Voigt Hill
#
# Bulk Modulus (GPa) = 20.48900 46.93460 33.71180
# Shear Modulus (GPa) = 15.10425 24.51818 19.81122
#
# Velocity S-wave (km/s) = 2.96903 3.78276 3.40033
# Velocity P-wave (km/s) = 4.86942 6.81696 5.92378
#
# Compressibility (1/GPa) = 0.04880667
#
# Stress axis : x y z
#
# Youngs Moduli (GPa) = 53.72644 29.22543 111.04457
#
# Poissons Ratio (x) = -0.09067 0.84810
# Poissons Ratio (y) = -0.16668 0.21977
# Poissons Ratio (z) = 0.41033 0.05784
#
# Static dielectric constant tensor:
#      x y z
#    x 1.553900 0.000000 0.000000 
#    y 0.000000 1.652780 0.000000 
#    z 0.000000 0.000000 1.623490 
# 
# From -- ./inp_files/31505.got.cif
#   From: 2010.05.17/outbox.cif.g08.bks.cpg/sg47_16_cif.got.tgz:31505.got - 2010.06.03 20:15:42.
