data_PCOD9381424
_publ_section_title
;
Structure prediction by ZEFSAII (Michael W. Deem and Ramdas Pophale) SiO2 
 PCOD9381424
Probable space group: P M M M
;
_chemical_formula_sum "Si O2"
_cell_formula_units_Z 37
_cell_length_a 7.340312
_cell_length_b 15.782463
_cell_length_c 14.889115
_cell_angle_alpha 90.000000
_cell_angle_beta 90.000000
_cell_angle_gamma 90.000000
_cell_volume 1724.877210
_symmetry_space_group_name_H-M "P M M M"
_symmetry_group_IT_number 47
_symmetry_cell_setting 'orthorhombic'
loop_
_space_group_symop_operation_xyz
x,y,z
-x,-y,z
x,-y,-z
-x,y,-z
-x,-y,-z
x,y,-z
-x,y,z
x,-y,z
loop_
_atom_site_type_symbol
_atom_site_label
_atom_site_fract_x
_atom_site_fract_y
_atom_site_fract_z
Si Si1 0.222365 0.663277 0.000000
Si Si2 0.712354 0.177527 0.500000
Si Si3 0.500000 0.500000 0.000000
Si Si4 0.782668 0.095188 0.693767
Si Si5 0.206501 0.371380 0.500000
Si Si6 0.777544 0.408957 0.695636
Si Si7 0.778781 0.749342 0.187285
O O1 0.266598 0.720885 0.086960
O O2 0.339123 0.576561 0.000000
O O3 0.000000 0.646412 0.000000
O O4 0.500000 0.195323 0.500000
O O5 0.754707 0.127915 0.591766
O O6 0.802337 0.269630 0.500000
O O7 0.714301 0.163790 0.766328
O O8 0.000000 0.091102 0.705891
O O9 0.710204 0.000000 0.703717
O O10 0.287621 0.401069 0.406499
O O11 0.000000 0.404013 0.500000
O O12 0.724491 0.500000 0.734692
O O13 0.716523 0.328401 0.750639
O O14 0.000000 0.406086 0.694698
O O15 0.000000 0.752050 0.190962
#
# Coordination Sequence:
#
# PCOD9381424 Si02
#       7
#     4   4   1   8   4   8   8
#     4  10  23  43  66  94 133 164 204 266 309 365
#     4  12  23  34  51  81 120 158 196 244 310 365
#     4  12  26  44  68 102 122 166 222 244 324 382
#     4  10  20  37  62  88 114 152 205 255 302 367
#     4  10  17  31  51  73 106 145 190 239 281 339
#     4   9  16  26  49  81 107 140 190 236 284 350
#     4   9  18  35  59  87 119 156 196 248 313 362
#
# _framework density 21.450800000000001
#
# number of rings (size 3 to 8) (size 9 to 14) (size 15 to 20)
#    0.000    2.162    2.162    1.784    1.514    3.027 
#    1.946    0.541    0.000    4.541    0.000    0.757 
#    0.000    0.000    0.000    0.000    0.000    0.216 
#
# Total GULP energy -206334.756847 kJ/mol
# GULP energy per Si atom -5576.615050 kJ/mol
# Density = 2.140198 g / cm^3
# Si number density = 21.450800 Si / 1000 Ang^3
#
#
#
# Elastic Constant Matrix: (Units=GPa)
#
#
# Indices 1 2 3 4 5 6 
#
# 1 104.2738 23.8012 11.0161 0.0000 0.0000 0.0000
# 2 23.8012 232.3650 103.4974 0.0000 0.0000 0.0000
# 3 11.0161 103.4974 156.1912 0.0000 0.0000 0.0000
# 4 0.0000 0.0000 0.0000 20.2178 0.0000 0.0000
# 5 0.0000 0.0000 0.0000 0.0000 -83.4849 0.0000
# 6 0.0000 0.0000 0.0000 0.0000 0.0000 -21.0376
#
#
#
# Elastic Compliance Matrix: (Units=1/GPa)
#
#
# Indices 1 2 3 4 5 6 
#
# 1 0.009820 -0.000989 -0.000037 0.000000 0.000000 0.000000
# 2 -0.000989 0.006205 -0.004042 0.000000 0.000000 0.000000
# 3 -0.000037 -0.004042 0.009083 0.000000 0.000000 0.000000
# 4 0.000000 0.000000 0.000000 0.049461 0.000000 0.000000
# 5 0.000000 0.000000 0.000000 0.000000 -0.011978 0.000000
# 6 0.000000 0.000000 0.000000 0.000000 0.000000 -0.047534
#
#
# Mechanical properties :
#
#
# Convention : Reuss Voigt Hill
#
# Bulk Modulus (GPa) = 66.79252 85.49548 76.14400
# Shear Modulus (GPa) = 165.64391 6.77341 86.20866
#
# Velocity S-wave (km/s) = 8.79705 1.77890 6.34636
# Velocity P-wave (km/s) = 11.59263 6.64548 9.44859
#
# Compressibility (1/GPa) = 0.01497174
#
# Stress axis : x y z
#
# Youngs Moduli (GPa) = 101.83424 161.15321 110.09083
#
# Poissons Ratio (x) = 0.15944 0.00407
# Poissons Ratio (y) = 0.10075 0.44499
# Poissons Ratio (z) = 0.00377 0.65139
#
# Static dielectric constant tensor:
#      x y z
#    x 1.835570 0.000000 0.000000 
#    y 0.000000 1.787160 0.000000 
#    z 0.000000 0.000000 1.784560 
# 
# From -- ./inp_files/20632.got.cif
#   From: 2010.05.17/outbox.cif.g08.bks.cpg/sg47_11_cif.got.tgz:20632.got - 2010.06.03 20:15:42.
