data_PCOD9381125
_publ_section_title
;
Structure prediction by ZEFSAII (Michael W. Deem and Ramdas Pophale) SiO2 
 PCOD9381125
Probable space group: I M A 2
;
_chemical_formula_sum "Si O2"
_cell_formula_units_Z 28
_cell_length_a 21.000000
_cell_length_b 9.000000
_cell_length_c 15.000000
_cell_angle_alpha 90.000000
_cell_angle_beta 90.000000
_cell_angle_gamma 90.000000
_cell_volume 2835.000000
_symmetry_space_group_name_H-M "I M A 2"
_symmetry_group_IT_number 46
_symmetry_cell_setting 'orthorhombic'
loop_
_space_group_symop_operation_xyz
x,y,z
-x,-y,z
1/2-x,y,z
1/2+x,-y,z
1/2+x,1/2+y,1/2+z
1/2-x,1/2-y,1/2+z
-x,1/2+y,1/2+z
x,1/2-y,1/2+z
loop_
_atom_site_type_symbol
_atom_site_label
_atom_site_fract_x
_atom_site_fract_y
_atom_site_fract_z
Si Si1 0.060374 0.588215 0.389240
Si Si2 0.599327 0.946376 0.251649
Si Si3 0.482141 0.746885 0.714801
Si Si4 0.091481 0.820743 0.545661
Si Si5 0.680740 0.594858 0.425670
Si Si6 0.818496 0.073768 0.111776
Si Si7 0.326829 0.056428 0.439533
O O1 0.041359 0.646181 0.292577
O O2 0.074030 0.724241 0.457296
O O3 0.120319 0.478446 0.378611
O O4 0.000000 0.500000 0.428551
O O5 0.553994 0.804671 0.237626
O O6 0.636609 0.963886 0.344659
O O7 0.557189 0.093312 0.230889
O O8 0.650917 0.951398 0.174393
O O9 0.467273 0.817148 0.616962
O O10 0.141900 0.722753 0.600563
O O11 0.129435 0.965666 0.510347
O O12 0.750000 0.584427 0.378897
O O13 0.684794 0.497814 0.514823
O O14 0.671069 0.765942 0.452054
O O15 0.750000 0.112875 0.147913
O O16 0.250000 0.013950 0.438986
#
# Coordination Sequence:
#
# PCOD9381125 Si02
#       7
#     8   8   8   8   8   8   8
#     4  11  22  41  63  89 122 170 215 257 323 395
#     4  10  20  37  61  90 126 163 210 262 318 391
#     4  10  22  40  58  92 129 162 211 265 315 392
#     4  10  22  38  64  92 121 162 210 270 324 380
#     4   9  21  39  61  88 124 164 208 265 325 390
#     4   9  18  36  60  86 116 161 209 253 316 389
#     4  11  21  40  64  93 127 163 213 272 334 391
#
# _framework density 9.8765429999999999
#
# number of rings (size 3 to 8) (size 9 to 14) (size 15 to 20)
#    0.000    2.000    1.429    1.714    6.000    0.571 
#    5.143    1.429    0.000    0.000    0.000    0.000 
#    0.000    0.000    0.000    0.000    0.000    0.000 
#
# Total GULP energy -155903.791954 kJ/mol
# GULP energy per Si atom -5567.992570 kJ/mol
# Density = 0.985406 g / cm^3
# Si number density = 9.876543 Si / 1000 Ang^3
#
#
#
# Elastic Constant Matrix: (Units=GPa)
#
#
# Indices 1 2 3 4 5 6 
#
# 1 77.0296 28.0484 38.0731 0.0000 0.0000 0.0000
# 2 28.0484 64.5874 20.6182 0.0000 0.0000 0.0000
# 3 38.0731 20.6182 70.8480 0.0000 0.0000 0.0000
# 4 0.0000 0.0000 0.0000 17.0809 0.0000 0.0000
# 5 0.0000 0.0000 0.0000 0.0000 18.0249 0.0000
# 6 0.0000 0.0000 0.0000 0.0000 0.0000 17.1093
#
#
#
# Elastic Compliance Matrix: (Units=1/GPa)
#
#
# Indices 1 2 3 4 5 6 
#
# 1 0.019359 -0.005607 -0.008772 0.000000 0.000000 0.000000
# 2 -0.005607 0.018693 -0.002427 0.000000 0.000000 0.000000
# 3 -0.008772 -0.002427 0.019535 0.000000 0.000000 0.000000
# 4 0.000000 0.000000 0.000000 0.058545 0.000000 0.000000
# 5 0.000000 0.000000 0.000000 0.000000 0.055479 0.000000
# 6 0.000000 0.000000 0.000000 0.000000 0.000000 0.058448
#
#
# Mechanical properties :
#
#
# Convention : Reuss Voigt Hill
#
# Bulk Modulus (GPa) = 41.70900 42.88272 42.29586
# Shear Modulus (GPa) = 18.40530 18.82470 18.61500
#
# Velocity S-wave (km/s) = 3.05580 3.09042 3.07316
# Velocity P-wave (km/s) = 5.79755 5.87288 5.83534
#
# Compressibility (1/GPa) = 0.02397564
#
# Stress axis : x y z
#
# Youngs Moduli (GPa) = 51.65490 53.49732 51.19054
#
# Poissons Ratio (x) = 0.29996 0.44903
# Poissons Ratio (y) = 0.28963 0.12423
# Poissons Ratio (z) = 0.45311 0.12983
#
# Static dielectric constant tensor:
#      x y z
#    x 1.807530 0.000000 0.000000 
#    y 0.000000 1.688390 0.000000 
#    z 0.000000 0.000000 1.685420 
# 
# From -- ./inp_files/17101.got.cif
#   From: 2010.05.17/outbox.ucp.g08.bks.cvg/sg46_9_cif.got.tgz:17101.got - 2010.06.11 16:34:52.
