data_PCOD9381589
_publ_section_title
;
Structure prediction by ZEFSAII (Michael W. Deem and Ramdas Pophale) SiO2 
 PCOD9381589
Probable space group: P M M M
;
_chemical_formula_sum "Si O2"
_cell_formula_units_Z 44
_cell_length_a 19.360371
_cell_length_b 13.451179
_cell_length_c 10.513173
_cell_angle_alpha 90.000000
_cell_angle_beta 90.000000
_cell_angle_gamma 90.000000
_cell_volume 2737.838576
_symmetry_space_group_name_H-M "P M M M"
_symmetry_group_IT_number 47
_symmetry_cell_setting 'orthorhombic'
loop_
_space_group_symop_operation_xyz
x,y,z
-x,-y,z
x,-y,-z
-x,y,-z
-x,-y,-z
x,y,-z
-x,y,z
x,-y,z
loop_
_atom_site_type_symbol
_atom_site_label
_atom_site_fract_x
_atom_site_fract_y
_atom_site_fract_z
Si Si1 0.581810 0.194347 0.857686
Si Si2 0.423117 0.619936 0.500000
Si Si3 0.351481 0.614601 0.235028
Si Si4 0.923215 0.615437 0.345932
Si Si5 0.778461 0.698064 0.348940
Si Si6 0.316783 0.114196 0.645680
O O1 0.500000 0.197792 0.830523
O O2 0.613779 0.305698 0.856351
O O3 0.624565 0.137191 0.749513
O O4 0.591050 0.152211 0.000000
O O5 0.427541 0.500000 0.500000
O O6 0.500000 0.661887 0.500000
O O7 0.383601 0.644652 0.372153
O O8 0.367191 0.500000 0.206307
O O9 0.270466 0.630456 0.260472
O O10 0.925621 0.616631 0.500000
O O11 0.911023 0.500000 0.309325
O O12 0.857840 0.682648 0.310890
O O13 0.000000 0.644985 0.300770
O O14 0.772211 0.669697 0.500000
O O15 0.745888 0.807893 0.336520
O O16 0.342373 0.128527 0.500000
O O17 0.294424 0.000000 0.657783
#
# Coordination Sequence:
#
# PCOD9381589 Si02
#       6
#     8   4   8   8   8   8
#     4  10  22  36  48  66  92 122 154 188 232 285
#     4   9  16  24  36  58  84 112 150 191 226 260
#     4  10  18  28  43  64  90 122 157 191 227 268
#     4   8  13  20  33  58  93 130 160 182 210 258
#     4   9  15  25  42  63  90 121 154 192 231 273
#     4   9  19  35  53  71  88 111 149 197 245 285
#
# _framework density 16.071071
#
# number of rings (size 3 to 8) (size 9 to 14) (size 15 to 20)
#    0.000    2.818    0.909    1.636    1.273    3.273 
#    0.000    2.727    0.000    0.545    0.000    3.818 
#    0.000   11.636    0.000   46.545    0.000   19.273 
#
# Total GULP energy -244949.627643 kJ/mol
# GULP energy per Si atom -5567.036992 kJ/mol
# Density = 1.603449 g / cm^3
# Si number density = 16.071071 Si / 1000 Ang^3
#
#
#
# Elastic Constant Matrix: (Units=GPa)
#
#
# Indices 1 2 3 4 5 6 
#
# 1 136.3847 28.2830 36.4700 0.0000 0.0000 0.0000
# 2 28.2830 61.1180 19.9505 0.0000 0.0000 0.0000
# 3 36.4700 19.9505 53.3588 0.0000 0.0000 0.0000
# 4 0.0000 0.0000 0.0000 6.1465 0.0000 0.0000
# 5 0.0000 0.0000 0.0000 0.0000 -2.3248 0.0000
# 6 0.0000 0.0000 0.0000 0.0000 0.0000 12.2187
#
#
#
# Elastic Compliance Matrix: (Units=1/GPa)
#
#
# Indices 1 2 3 4 5 6 
#
# 1 0.009306 -0.002540 -0.005411 0.000000 0.000000 0.000000
# 2 -0.002540 0.019330 -0.005491 0.000000 0.000000 0.000000
# 3 -0.005411 -0.005491 0.024492 0.000000 0.000000 0.000000
# 4 0.000000 0.000000 0.000000 0.162694 0.000000 0.000000
# 5 0.000000 0.000000 0.000000 0.000000 -0.430139 0.000000
# 6 0.000000 0.000000 0.000000 0.000000 0.000000 0.081842
#
#
# Mechanical properties :
#
#
# Convention : Reuss Voigt Hill
#
# Bulk Modulus (GPa) = 38.10398 46.69651 42.40025
# Shear Modulus (GPa) = -51.62958 14.28528 -18.67215
#
# Velocity S-wave (km/s) = -5.67411 2.98465 -3.41229
# Velocity P-wave (km/s) = 4.37793 6.40288 3.30383
#
# Compressibility (1/GPa) = 0.02624398
#
# Stress axis : x y z
#
# Youngs Moduli (GPa) = 107.45972 51.73387 40.82929
#
# Poissons Ratio (x) = 0.13141 0.22091
# Poissons Ratio (y) = 0.27297 0.22420
# Poissons Ratio (z) = 0.58143 0.28407
#
# Static dielectric constant tensor:
#      x y z
#    x 1.553380 0.000000 0.000000 
#    y 0.000000 1.553370 0.000000 
#    z 0.000000 0.000000 1.551080 
# 
# From -- ./inp_files/18502.got.cif
#   From: 2010.05.17/outbox.cif.g08.bks.cpg/sg47_10_cif.got.tgz:18502.got - 2010.06.03 20:15:42.
