data_PCOD9381666
_publ_section_title
;
Structure prediction by ZEFSAII (Michael W. Deem and Ramdas Pophale) SiO2 
 PCOD9381666
Probable space group: P M M M
;
_chemical_formula_sum "Si O2"
_cell_formula_units_Z 52
_cell_length_a 14.926448
_cell_length_b 7.517583
_cell_length_c 23.525186
_cell_angle_alpha 90.000000
_cell_angle_beta 90.000000
_cell_angle_gamma 90.000000
_cell_volume 2639.780217
_symmetry_space_group_name_H-M "P M M M"
_symmetry_group_IT_number 47
_symmetry_cell_setting 'orthorhombic'
loop_
_space_group_symop_operation_xyz
x,y,z
-x,-y,z
x,-y,-z
-x,y,-z
-x,-y,-z
x,y,-z
-x,y,z
x,-y,z
loop_
_atom_site_type_symbol
_atom_site_label
_atom_site_fract_x
_atom_site_fract_y
_atom_site_fract_z
Si Si1 0.277064 0.709416 0.166597
Si Si2 0.098743 0.790890 0.359368
Si Si3 0.602883 0.215598 0.275767
Si Si4 0.710060 0.211568 0.386302
Si Si5 0.100239 0.715732 0.226153
Si Si6 0.601976 0.717296 0.934924
Si Si7 0.398575 0.711733 0.500000
O O1 0.263037 0.500000 0.155849
O O2 0.344121 0.728182 0.219717
O O3 0.181160 0.782061 0.186989
O O4 0.326449 0.782642 0.110941
O O5 0.188514 0.715747 0.387779
O O6 0.112947 0.775324 0.291352
O O7 0.000000 0.713711 0.372016
O O8 0.093841 0.000000 0.373682
O O9 0.500000 0.275969 0.275380
O O10 0.655074 0.280178 0.331882
O O11 0.602036 0.000000 0.276841
O O12 0.655141 0.236646 0.443671
O O13 0.718862 0.000000 0.377109
O O14 0.102983 0.500000 0.227047
O O15 0.000000 0.769794 0.208345
O O16 0.500000 0.771438 0.920228
O O17 0.602332 0.500000 0.933723
O O18 0.620234 0.770171 0.000000
O O19 0.404606 0.500000 0.500000
O O20 0.500000 0.784519 0.500000
#
# Coordination Sequence:
#
# PCOD9381666 Si02
#       7
#     8   8   8   8   8   8   4
#     4  10  18  28  46  70  94 123 162 202 240 286
#     4   9  17  31  53  78 100 124 158 197 233 278
#     4  10  20  32  47  71 101 127 153 193 244 292
#     4  10  20  36  56  75  98 130 163 195 238 292
#     4   9  17  28  43  67  99 129 154 189 243 296
#     4   8  14  25  41  62  89 122 162 205 243 281
#     4  11  25  41  56  75  98 128 169 209 238 275
#
# _framework density 19.698609999999999
#
# number of rings (size 3 to 8) (size 9 to 14) (size 15 to 20)
#    0.000    2.538    1.538    1.615    0.000    3.385 
#    0.000    0.385    0.000    3.231    0.000    5.385 
#    0.000    0.000    0.000    5.231    0.000    5.692 
#
# Total GULP energy -290158.928833 kJ/mol
# GULP energy per Si atom -5579.979401 kJ/mol
# Density = 1.965378 g / cm^3
# Si number density = 19.698610 Si / 1000 Ang^3
#
#
#
# Elastic Constant Matrix: (Units=GPa)
#
#
# Indices 1 2 3 4 5 6 
#
# 1 205.9890 0.4030 80.0363 0.0000 0.0000 0.0000
# 2 0.4030 49.4598 -13.2296 0.0000 0.0000 0.0000
# 3 80.0363 -13.2296 94.1779 0.0000 0.0000 0.0000
# 4 0.0000 0.0000 0.0000 18.4547 0.0000 0.0000
# 5 0.0000 0.0000 0.0000 0.0000 35.2950 0.0000
# 6 0.0000 0.0000 0.0000 0.0000 0.0000 9.1239
#
#
#
# Elastic Compliance Matrix: (Units=1/GPa)
#
#
# Indices 1 2 3 4 5 6 
#
# 1 0.007401 -0.001811 -0.006544 0.000000 0.000000 0.000000
# 2 -0.001811 0.021451 0.004552 0.000000 0.000000 0.000000
# 3 -0.006544 0.004552 0.016819 0.000000 0.000000 0.000000
# 4 0.000000 0.000000 0.000000 0.054187 0.000000 0.000000
# 5 0.000000 0.000000 0.000000 0.000000 0.028333 0.000000
# 6 0.000000 0.000000 0.000000 0.000000 0.000000 0.109602
#
#
# Mechanical properties :
#
#
# Convention : Reuss Voigt Hill
#
# Bulk Modulus (GPa) = 26.27044 53.78290 40.02667
# Shear Modulus (GPa) = 19.37346 31.40253 25.38799
#
# Velocity S-wave (km/s) = 3.13947 3.99701 3.59391
# Velocity P-wave (km/s) = 5.14848 6.97593 6.13068
#
# Compressibility (1/GPa) = 0.03806560
#
# Stress axis : x y z
#
# Youngs Moduli (GPa) = 135.12149 46.61832 59.45704
#
# Poissons Ratio (x) = 0.08441 0.38908
# Poissons Ratio (y) = 0.24466 -0.27065
# Poissons Ratio (z) = 0.88421 -0.21221
#
# Static dielectric constant tensor:
#      x y z
#    x 1.727100 0.000000 0.000000 
#    y 0.000000 1.760570 0.000000 
#    z 0.000000 0.000000 1.653400 
# 
# From -- ./inp_files/10946.got.cif
#   From: 2010.05.17/outbox.cif.g08.bks.cpg/sg47_6_cif.got.tgz:10946.got - 2010.06.03 20:15:42.
