data_PCOD9381845
_publ_section_title
;
Structure prediction by ZEFSAII (Michael W. Deem and Ramdas Pophale) SiO2 
 PCOD9381845
Probable space group: P M M M
;
_chemical_formula_sum "Si O2"
_cell_formula_units_Z 56
_cell_length_a 19.708496
_cell_length_b 8.695989
_cell_length_c 19.150738
_cell_angle_alpha 90.000000
_cell_angle_beta 90.000000
_cell_angle_gamma 90.000000
_cell_volume 3282.146636
_symmetry_space_group_name_H-M "P M M M"
_symmetry_group_IT_number 47
_symmetry_cell_setting 'orthorhombic'
loop_
_space_group_symop_operation_xyz
x,y,z
-x,-y,z
x,-y,-z
-x,y,-z
-x,-y,-z
x,y,-z
-x,y,z
x,-y,z
loop_
_atom_site_type_symbol
_atom_site_label
_atom_site_fract_x
_atom_site_fract_y
_atom_site_fract_z
Si Si1 0.650199 0.185498 0.578748
Si Si2 0.289661 0.685923 0.211264
Si Si3 0.205673 0.314200 0.920894
Si Si4 0.076938 0.816328 0.157067
Si Si5 0.923983 0.316097 0.686208
Si Si6 0.213306 0.183569 0.654815
Si Si7 0.576297 0.314480 0.287355
O O1 0.634715 0.235006 0.500000
O O2 0.727748 0.225447 0.599835
O O3 0.601892 0.256185 0.637478
O O4 0.644751 0.000000 0.582190
O O5 0.285893 0.500000 0.215507
O O6 0.262359 0.733462 0.135662
O O7 0.241078 0.753773 0.271123
O O8 0.365985 0.733466 0.231870
O O9 0.203523 0.500000 0.920607
O O10 0.134075 0.253037 0.892436
O O11 0.218502 0.262581 0.000000
O O12 0.083659 0.747983 0.234962
O O13 0.000000 0.782091 0.133063
O O14 0.084826 0.000000 0.161129
O O15 0.919944 0.500000 0.688795
O O16 0.860980 0.251815 0.642638
O O17 0.000000 0.272364 0.662104
O O18 0.208727 0.000000 0.658026
O O19 0.500000 0.260731 0.272488
O O20 0.575899 0.500000 0.288463
#
# Coordination Sequence:
#
# PCOD9381845 Si02
#       7
#     8   8   8   8   8   8   8
#     4   9  19  34  50  72 103 134 160 189 230 281
#     4   9  17  31  49  67  92 125 159 196 238 285
#     4  10  20  32  47  67  92 126 165 203 244 290
#     4  10  20  32  46  66  93 124 159 201 246 288
#     4  10  19  30  46  68  94 124 158 198 244 289
#     4  10  18  29  49  72  93 121 160 202 238 277
#     4   9  18  32  51  75 100 127 160 197 236 278
#
# _framework density 17.062004000000002
#
# number of rings (size 3 to 8) (size 9 to 14) (size 15 to 20)
#    0.000    2.429    1.429    1.286    0.000    3.714 
#    0.000    2.857    0.000    0.857    0.000    6.000 
#    0.000    0.000    0.000    8.429    0.000    8.857 
#
# Total GULP energy -312240.309888 kJ/mol
# GULP energy per Si atom -5575.719819 kJ/mol
# Density = 1.702317 g / cm^3
# Si number density = 17.062004 Si / 1000 Ang^3
#
#
#
# Elastic Constant Matrix: (Units=GPa)
#
#
# Indices 1 2 3 4 5 6 
#
# 1 141.1701 23.2836 35.0658 0.0000 0.0000 0.0000
# 2 23.2836 11.8270 10.3891 0.0000 0.0000 0.0000
# 3 35.0658 10.3891 47.2559 0.0000 0.0000 0.0000
# 4 0.0000 0.0000 0.0000 -148.8721 0.0000 0.0000
# 5 0.0000 0.0000 0.0000 0.0000 15.5612 0.0000
# 6 0.0000 0.0000 0.0000 0.0000 0.0000 21.0682
#
#
#
# Elastic Compliance Matrix: (Units=1/GPa)
#
#
# Indices 1 2 3 4 5 6 
#
# 1 0.011144 -0.018188 -0.004271 0.000000 0.000000 0.000000
# 2 -0.018188 0.134472 -0.016067 0.000000 0.000000 0.000000
# 3 -0.004271 -0.016067 0.027863 0.000000 0.000000 0.000000
# 4 0.000000 0.000000 0.000000 -0.006717 0.000000 0.000000
# 5 0.000000 0.000000 0.000000 0.000000 0.064262 0.000000
# 6 0.000000 0.000000 0.000000 0.000000 0.000000 0.047465
#
#
# Mechanical properties :
#
#
# Convention : Reuss Voigt Hill
#
# Bulk Modulus (GPa) = 10.37049 37.52555 23.94802
# Shear Modulus (GPa) = 12.89710 -13.68091 -0.39191
#
# Velocity S-wave (km/s) = 2.75234 -2.83474 -0.47979
# Velocity P-wave (km/s) = 4.02390 3.36557 3.70937
#
# Compressibility (1/GPa) = 0.09642750
#
# Stress axis : x y z
#
# Youngs Moduli (GPa) = 89.73168 7.43648 35.88996
#
# Poissons Ratio (x) = 0.13525 0.15329
# Poissons Ratio (y) = 1.63203 0.57665
# Poissons Ratio (z) = 0.38324 0.11948
#
# Static dielectric constant tensor:
#      x y z
#    x 1.600930 0.000000 0.000000 
#    y 0.000000 1.574770 0.000000 
#    z 0.000000 0.000000 1.556980 
# 
# From -- ./inp_files/9831.got.cif
#   From: 2010.05.17/outbox.cif.g08.bks.cpg/sg47_5_cif.got.tgz:9831.got - 2010.06.03 20:15:42.
