data_PCOD9381135
_publ_section_title
;
Structure prediction by ZEFSAII (Michael W. Deem and Ramdas Pophale) SiO2 
 PCOD9381135
Probable space group: I M A 2
;
_chemical_formula_sum "Si O2"
_cell_formula_units_Z 32
_cell_length_a 24.000000
_cell_length_b 9.000000
_cell_length_c 15.000000
_cell_angle_alpha 90.000000
_cell_angle_beta 90.000000
_cell_angle_gamma 90.000000
_cell_volume 3240.000000
_symmetry_space_group_name_H-M "I M A 2"
_symmetry_group_IT_number 46
_symmetry_cell_setting 'orthorhombic'
loop_
_space_group_symop_operation_xyz
x,y,z
-x,-y,z
1/2-x,y,z
1/2+x,-y,z
1/2+x,1/2+y,1/2+z
1/2-x,1/2-y,1/2+z
-x,1/2+y,1/2+z
x,1/2-y,1/2+z
loop_
_atom_site_type_symbol
_atom_site_label
_atom_site_fract_x
_atom_site_fract_y
_atom_site_fract_z
Si Si1 0.891738 0.842924 0.930980
Si Si2 0.498974 0.673694 0.974677
Si Si3 0.988687 0.826036 0.688446
Si Si4 0.370692 0.085382 0.732068
Si Si5 0.316182 0.848371 0.393699
Si Si6 0.893090 0.269243 0.724274
Si Si7 0.184275 0.382766 0.037265
Si Si8 0.613401 0.160472 0.012354
O O1 0.952370 0.762527 0.923442
O O2 0.860506 0.872512 0.836168
O O3 0.902045 0.994963 0.984148
O O4 0.852834 0.744544 0.993821
O O5 0.500000 0.500000 0.950419
O O6 0.436647 0.738658 0.971499
O O7 0.510478 0.685951 0.081215
O O8 0.924724 0.810539 0.714625
O O9 0.038609 0.726460 0.729467
O O10 0.000000 0.000000 0.711081
O O11 0.333127 0.100239 0.641998
O O12 0.381482 0.907579 0.732579
O O13 0.250000 0.849625 0.369550
O O14 0.355796 0.845693 0.303584
O O15 0.332723 0.706709 0.454530
O O16 0.325928 0.979612 0.467604
O O17 0.880619 0.316379 0.620057
O O18 0.250000 0.352679 0.034751
#
# Coordination Sequence:
#
# PCOD9381135 Si02
#       8
#     8   8   8   8   8   8   8   8
#     4  12  25  40  68 106 135 174 233 283 345 413
#     4  10  20  40  68  97 141 183 219 272 341 416
#     4   8  17  34  62  94 128 170 215 265 336 408
#     4  11  21  41  68  99 132 177 226 282 354 419
#     4  11  24  43  68  97 131 182 240 280 339 421
#     4  10  21  40  68 100 136 174 222 289 347 410
#     4  11  26  48  69  92 138 189 233 282 343 414
#     4  11  23  40  67 103 136 173 226 293 341 405
#
# _framework density 9.8765429999999999
#
# number of rings (size 3 to 8) (size 9 to 14) (size 15 to 20)
#    0.000    1.500    3.750    1.875    1.750    4.000 
#    0.000    1.250    0.000    0.000    0.000    0.000 
#    0.000    0.000    0.000    0.000    0.000    0.000 
#
# Total GULP energy -178324.622861 kJ/mol
# GULP energy per Si atom -5572.644464 kJ/mol
# Density = 0.985406 g / cm^3
# Si number density = 9.876543 Si / 1000 Ang^3
#
#
#
# Elastic Constant Matrix: (Units=GPa)
#
#
# Indices 1 2 3 4 5 6 
#
# 1 99.3324 25.8155 42.5301 0.0000 0.0000 0.0000
# 2 25.8155 77.6501 25.3739 0.0000 0.0000 0.0000
# 3 42.5301 25.3739 129.0766 0.0000 0.0000 0.0000
# 4 0.0000 0.0000 0.0000 31.3373 0.0000 0.0000
# 5 0.0000 0.0000 0.0000 0.0000 39.0032 0.0000
# 6 0.0000 0.0000 0.0000 0.0000 0.0000 20.3005
#
#
#
# Elastic Compliance Matrix: (Units=1/GPa)
#
#
# Indices 1 2 3 4 5 6 
#
# 1 0.012327 -0.002961 -0.003479 0.000000 0.000000 0.000000
# 2 -0.002961 0.014474 -0.001870 0.000000 0.000000 0.000000
# 3 -0.003479 -0.001870 0.009261 0.000000 0.000000 0.000000
# 4 0.000000 0.000000 0.000000 0.031911 0.000000 0.000000
# 5 0.000000 0.000000 0.000000 0.000000 0.025639 0.000000
# 6 0.000000 0.000000 0.000000 0.000000 0.000000 0.049260
#
#
# Mechanical properties :
#
#
# Convention : Reuss Voigt Hill
#
# Bulk Modulus (GPa) = 51.43688 54.83311 53.13499
# Shear Modulus (GPa) = 30.12561 32.28418 31.20490
#
# Velocity S-wave (km/s) = 3.90950 4.04714 3.97892
# Velocity P-wave (km/s) = 6.81729 7.04689 6.93304
#
# Compressibility (1/GPa) = 0.01944131
#
# Stress axis : x y z
#
# Youngs Moduli (GPa) = 81.12590 69.09103 107.97602
#
# Poissons Ratio (x) = 0.20458 0.37570
# Poissons Ratio (y) = 0.24022 0.20187
# Poissons Ratio (z) = 0.28227 0.12917
#
# Static dielectric constant tensor:
#      x y z
#    x 1.729260 0.000000 0.000000 
#    y 0.000000 1.727170 0.000000 
#    z 0.000000 0.000000 1.714490 
# 
# From -- ./inp_files/17401.got.cif
#   From: 2010.05.17/outbox.ucp.g08.bks.cvg/sg46_9_cif.got.tgz:17401.got - 2010.06.11 16:34:52.
