data_PCOD9381145
_publ_section_title
;
Structure prediction by ZEFSAII (Michael W. Deem and Ramdas Pophale) SiO2 
 PCOD9381145
Probable space group: I M A 2
;
_chemical_formula_sum "Si O2"
_cell_formula_units_Z 32
_cell_length_a 18.000000
_cell_length_b 15.000000
_cell_length_c 12.000000
_cell_angle_alpha 90.000000
_cell_angle_beta 90.000000
_cell_angle_gamma 90.000000
_cell_volume 3240.000000
_symmetry_space_group_name_H-M "I M A 2"
_symmetry_group_IT_number 46
_symmetry_cell_setting 'orthorhombic'
loop_
_space_group_symop_operation_xyz
x,y,z
-x,-y,z
1/2-x,y,z
1/2+x,-y,z
1/2+x,1/2+y,1/2+z
1/2-x,1/2-y,1/2+z
-x,1/2+y,1/2+z
x,1/2-y,1/2+z
loop_
_atom_site_type_symbol
_atom_site_label
_atom_site_fract_x
_atom_site_fract_y
_atom_site_fract_z
Si Si1 0.838238 0.577590 0.187910
Si Si2 0.969895 0.595726 0.756146
Si Si3 0.563891 0.846136 0.493238
Si Si4 0.162760 0.633917 0.533926
Si Si5 0.334366 0.436612 0.611363
Si Si6 0.572053 0.431964 0.318003
Si Si7 0.337264 0.314184 0.403920
Si Si8 0.943888 0.262644 0.154719
O O1 0.750000 0.573863 0.165747
O O2 0.887193 0.597139 0.079779
O O3 0.867082 0.490040 0.251161
O O4 0.852579 0.655944 0.278080
O O5 0.889679 0.604680 0.699720
O O6 0.000000 0.500000 0.717417
O O7 0.018789 0.677757 0.714386
O O8 0.963919 0.597727 0.888725
O O9 0.614630 0.767836 0.443385
O O10 0.496297 0.799323 0.556795
O O11 0.250000 0.646001 0.500710
O O12 0.161143 0.543657 0.608176
O O13 0.108098 0.606614 0.431704
O O14 0.130345 0.719885 0.599021
O O15 0.250000 0.410689 0.636499
O O16 0.352118 0.396584 0.488785
O O17 0.500000 0.500000 0.331864
O O18 0.558269 0.344670 0.241698
O O19 0.250000 0.293805 0.412857
#
# Coordination Sequence:
#
# PCOD9381145 Si02
#       8
#     8   8   8   8   8   8   8   8
#     4  11  24  44  70  99 137 184 230 287 359 422
#     4  12  26  43  68  97 135 179 220 283 343 414
#     4  12  25  41  64 101 141 178 228 279 347 420
#     4  11  25  45  72 102 138 181 239 296 351 422
#     4  10  21  41  68  99 130 170 222 277 340 410
#     4  12  26  44  72 106 139 185 242 302 351 423
#     4  10  21  39  67 101 133 168 223 285 343 412
#     4  12  26  45  70 103 134 184 234 286 352 412
#
# _framework density 9.8765429999999999
#
# number of rings (size 3 to 8) (size 9 to 14) (size 15 to 20)
#    0.000    0.750    5.000    2.250    5.250    2.000 
#    0.000    0.000    0.000    0.000    0.000    0.000 
#    0.000    0.000    0.000    0.000    0.000    0.000 
#
# Total GULP energy -178847.496805 kJ/mol
# GULP energy per Si atom -5588.984275 kJ/mol
# Density = 0.985406 g / cm^3
# Si number density = 9.876543 Si / 1000 Ang^3
#
#
#
# Elastic Constant Matrix: (Units=GPa)
#
#
# Indices 1 2 3 4 5 6 
#
# 1 79.8832 35.1681 56.2312 0.0000 0.0000 0.0000
# 2 35.1681 84.4290 16.6965 0.0000 0.0000 0.0000
# 3 56.2312 16.6965 79.4448 0.0000 0.0000 0.0000
# 4 0.0000 0.0000 0.0000 26.3326 0.0000 0.0000
# 5 0.0000 0.0000 0.0000 0.0000 28.1933 0.0000
# 6 0.0000 0.0000 0.0000 0.0000 0.0000 31.3606
#
#
#
# Elastic Compliance Matrix: (Units=1/GPa)
#
#
# Indices 1 2 3 4 5 6 
#
# 1 0.029990 -0.008654 -0.019408 0.000000 0.000000 0.000000
# 2 -0.008654 0.014855 0.003003 0.000000 0.000000 0.000000
# 3 -0.019408 0.003003 0.025693 0.000000 0.000000 0.000000
# 4 0.000000 0.000000 0.000000 0.037976 0.000000 0.000000
# 5 0.000000 0.000000 0.000000 0.000000 0.035469 0.000000
# 6 0.000000 0.000000 0.000000 0.000000 0.000000 0.031887
#
#
# Mechanical properties :
#
#
# Convention : Reuss Voigt Hill
#
# Bulk Modulus (GPa) = 48.97011 51.10539 50.03775
# Shear Modulus (GPa) = 21.47815 26.22137 23.84976
#
# Velocity S-wave (km/s) = 3.30105 3.64738 3.47853
# Velocity P-wave (km/s) = 6.27488 6.60803 6.44361
#
# Compressibility (1/GPa) = 0.02042062
#
# Stress axis : x y z
#
# Youngs Moduli (GPa) = 33.34473 67.31719 38.92077
#
# Poissons Ratio (x) = 0.58255 0.75538
# Poissons Ratio (y) = 0.28856 -0.11689
# Poissons Ratio (z) = 0.64716 -0.20217
#
# Static dielectric constant tensor:
#      x y z
#    x 1.708250 0.000000 0.000000 
#    y 0.000000 1.693360 0.000000 
#    z 0.000000 0.000000 1.697110 
# 
# From -- ./inp_files/11959.got.cif
#   From: 2010.05.17/outbox.ucp.g08.bks.cvg/sg46_6_cif.got.tgz:11959.got - 2010.06.11 16:34:52.
