data_PCOD9381952
_publ_section_title
;
Structure prediction by ZEFSAII (Michael W. Deem and Ramdas Pophale) SiO2 
 PCOD9381952
Probable space group: P M M M
;
_chemical_formula_sum "Si O2"
_cell_formula_units_Z 40
_cell_length_a 7.302250
_cell_length_b 23.557890
_cell_length_c 11.150415
_cell_angle_alpha 90.000000
_cell_angle_beta 90.000000
_cell_angle_gamma 90.000000
_cell_volume 1918.156856
_symmetry_space_group_name_H-M "P M M M"
_symmetry_group_IT_number 47
_symmetry_cell_setting 'orthorhombic'
loop_
_space_group_symop_operation_xyz
x,y,z
-x,-y,z
x,-y,-z
-x,y,-z
-x,-y,-z
x,y,-z
-x,y,z
x,-y,z
loop_
_atom_site_type_symbol
_atom_site_label
_atom_site_fract_x
_atom_site_fract_y
_atom_site_fract_z
Si Si1 0.721147 0.769905 0.638509
Si Si2 0.289565 0.884930 0.745558
Si Si3 0.779907 0.066161 0.000000
Si Si4 0.723470 0.640884 0.638068
Si Si5 0.287780 0.000000 0.358466
Si Si6 0.722647 0.433913 0.134638
O O1 0.763535 0.782729 0.500000
O O2 0.500000 0.766772 0.650062
O O3 0.787737 0.823105 0.715925
O O4 0.783238 0.705787 0.663224
O O5 0.500000 0.882527 0.700723
O O6 0.285543 0.900394 0.884143
O O7 0.204667 0.940940 0.685478
O O8 0.000000 0.065342 0.000000
O O9 0.719535 0.000000 0.000000
O O10 0.778154 0.626148 0.500000
O O11 0.500000 0.639664 0.636987
O O12 0.783004 0.601270 0.748507
O O13 0.500000 0.000000 0.313111
O O14 0.289953 0.000000 0.500000
O O15 0.500000 0.431922 0.134925
O O16 0.774843 0.500000 0.146205
O O17 0.779148 0.414341 0.000000
#
# Coordination Sequence:
#
# PCOD9381952 Si02
#       6
#     8   8   4   8   4   8
#     4   8  14  25  41  62  86 107 130 172 227 269
#     4  10  18  30  49  69  88 111 144 179 213 261
#     4  11  23  37  49  61  87 121 146 177 222 260
#     4   8  13  21  32  48  72 100 131 172 220 262
#     4   9  16  25  43  70  90 105 132 175 220 257
#     4   8  13  20  28  39  61  98 142 182 215 248
#
# _framework density 20.853349999999999
#
# number of rings (size 3 to 8) (size 9 to 14) (size 15 to 20)
#    0.000    3.200    1.000    2.700    0.000    3.200 
#    1.800    2.000    0.000    3.000    0.000    0.000 
#    0.000    0.000    0.000    0.000    0.000    2.000 
#
# Total GULP energy -222944.082864 kJ/mol
# GULP energy per Si atom -5573.602072 kJ/mol
# Density = 2.080589 g / cm^3
# Si number density = 20.853350 Si / 1000 Ang^3
#
#
#
# Elastic Constant Matrix: (Units=GPa)
#
#
# Indices 1 2 3 4 5 6 
#
# 1 86.0613 4.8431 -1.6595 0.0000 0.0000 0.0000
# 2 4.8431 156.7934 125.4054 0.0000 0.0000 0.0000
# 3 -1.6595 125.4054 164.9128 0.0000 0.0000 0.0000
# 4 0.0000 0.0000 0.0000 37.6251 0.0000 0.0000
# 5 0.0000 0.0000 0.0000 0.0000 234.6798 0.0000
# 6 0.0000 0.0000 0.0000 0.0000 0.0000 -15.1128
#
#
#
# Elastic Compliance Matrix: (Units=1/GPa)
#
#
# Indices 1 2 3 4 5 6 
#
# 1 0.011704 -0.001163 0.001002 0.000000 0.000000 0.000000
# 2 -0.001163 0.016394 -0.012478 0.000000 0.000000 0.000000
# 3 0.001002 -0.012478 0.015563 0.000000 0.000000 0.000000
# 4 0.000000 0.000000 0.000000 0.026578 0.000000 0.000000
# 5 0.000000 0.000000 0.000000 0.000000 0.004261 0.000000
# 6 0.000000 0.000000 0.000000 0.000000 0.000000 -0.066169
#
#
# Mechanical properties :
#
#
# Convention : Reuss Voigt Hill
#
# Bulk Modulus (GPa) = 54.39834 73.88283 64.14058
# Shear Modulus (GPa) = 125.82597 70.05032 97.93814
#
# Velocity S-wave (km/s) = 7.77621 5.80214 6.86055
# Velocity P-wave (km/s) = 10.33290 8.96622 9.67372
#
# Compressibility (1/GPa) = 0.01838292
#
# Stress axis : x y z
#
# Youngs Moduli (GPa) = 85.43790 60.99766 64.25564
#
# Poissons Ratio (x) = 0.07095 -0.06440
# Poissons Ratio (y) = 0.09938 0.80180
# Poissons Ratio (z) = -0.08563 0.76115
#
# Static dielectric constant tensor:
#      x y z
#    x 1.812490 0.000000 0.000000 
#    y 0.000000 1.741870 0.000000 
#    z 0.000000 0.000000 1.641410 
# 
# From -- ./inp_files/15114.got.cif
#   From: 2010.05.17/outbox.cif.g08.bks.cpg/sg47_8_cif.got.tgz:15114.got - 2010.06.03 20:15:42.
