data_PCOD9381708
_publ_section_title
;
Structure prediction by ZEFSAII (Michael W. Deem and Ramdas Pophale) SiO2 
 PCOD9381708
Probable space group: P M M M
;
_chemical_formula_sum "Si O2"
_cell_formula_units_Z 48
_cell_length_a 17.620631
_cell_length_b 7.652821
_cell_length_c 16.267370
_cell_angle_alpha 90.000000
_cell_angle_beta 90.000000
_cell_angle_gamma 90.000000
_cell_volume 2193.614745
_symmetry_space_group_name_H-M "P M M M"
_symmetry_group_IT_number 47
_symmetry_cell_setting 'orthorhombic'
loop_
_space_group_symop_operation_xyz
x,y,z
-x,-y,z
x,-y,-z
-x,y,-z
-x,-y,-z
x,y,-z
-x,y,z
x,-y,z
loop_
_atom_site_type_symbol
_atom_site_label
_atom_site_fract_x
_atom_site_fract_y
_atom_site_fract_z
Si Si1 0.671558 0.707540 0.088781
Si Si2 0.678409 0.294916 0.589766
Si Si3 0.000000 0.198921 0.867868
Si Si4 0.163293 0.788029 0.147150
Si Si5 0.836358 0.208059 0.662243
Si Si6 0.412023 0.714213 0.251967
Si Si7 0.000000 0.297024 0.680261
O O1 0.656875 0.500000 0.087335
O O2 0.761428 0.733222 0.100654
O O3 0.628826 0.777447 0.168946
O O4 0.648233 0.780118 0.000000
O O5 0.662075 0.218007 0.500000
O O6 0.659003 0.500000 0.586167
O O7 0.767607 0.281231 0.609619
O O8 0.632620 0.222065 0.667458
O O9 0.917655 0.276810 0.887873
O O10 0.000000 0.195196 0.767413
O O11 0.000000 0.000000 0.898932
O O12 0.170782 0.730369 0.242594
O O13 0.159698 0.000000 0.147181
O O14 0.921552 0.254771 0.635255
O O15 0.828992 0.000000 0.662165
O O16 0.500000 0.762500 0.253957
O O17 0.408095 0.500000 0.251642
O O18 0.000000 0.500000 0.702023
#
# Coordination Sequence:
#
# PCOD9381708 Si02
#       7
#     8   8   4   8   8   8   4
#     4  10  20  33  52  79 109 141 180 223 267 320
#     4  10  20  34  55  83 111 140 178 223 271 326
#     4   8  16  30  47  74 107 142 188 229 267 320
#     4   9  17  31  52  75 103 141 182 224 267 317
#     4  10  19  33  53  77 109 148 188 226 270 322
#     4   9  18  34  56  81 110 141 173 218 275 329
#     4  10  18  28  49  80 111 145 186 231 275 315
#
# _framework density 21.881692999999999
#
# number of rings (size 3 to 8) (size 9 to 14) (size 15 to 20)
#    0.000    2.500    1.667    2.250    0.000    4.000 
#    0.000    4.167    0.000    7.000    0.000    2.333 
#    0.000    0.000    0.000    0.000    0.000    0.000 
#
# Total GULP energy -267934.629445 kJ/mol
# GULP energy per Si atom -5581.971447 kJ/mol
# Density = 2.183189 g / cm^3
# Si number density = 21.881693 Si / 1000 Ang^3
#
#
#
# Elastic Constant Matrix: (Units=GPa)
#
#
# Indices 1 2 3 4 5 6 
#
# 1 148.2728 -11.7534 91.8581 0.0000 0.0000 0.0000
# 2 -11.7534 49.2027 9.7345 0.0000 0.0000 0.0000
# 3 91.8581 9.7345 166.8271 0.0000 0.0000 0.0000
# 4 0.0000 0.0000 0.0000 -3.6675 0.0000 0.0000
# 5 0.0000 0.0000 0.0000 0.0000 -11.4811 0.0000
# 6 0.0000 0.0000 0.0000 0.0000 0.0000 35.0310
#
#
#
# Elastic Compliance Matrix: (Units=1/GPa)
#
#
# Indices 1 2 3 4 5 6 
#
# 1 0.010908 0.003838 -0.006230 0.000000 0.000000 0.000000
# 2 0.003838 0.021912 -0.003392 0.000000 0.000000 0.000000
# 3 -0.006230 -0.003392 0.009623 0.000000 0.000000 0.000000
# 4 0.000000 0.000000 0.000000 -0.272662 0.000000 0.000000
# 5 0.000000 0.000000 0.000000 0.000000 -0.087100 0.000000
# 6 0.000000 0.000000 0.000000 0.000000 0.000000 0.028546
#
#
# Mechanical properties :
#
#
# Convention : Reuss Voigt Hill
#
# Bulk Modulus (GPa) = 32.38849 60.44234 46.41541
# Shear Modulus (GPa) = -18.73268 22.27404 1.77068
#
# Velocity S-wave (km/s) = -2.92907 3.19396 0.90054
# Velocity P-wave (km/s) = 1.84241 6.42528 4.72645
#
# Compressibility (1/GPa) = 0.03087517
#
# Stress axis : x y z
#
# Youngs Moduli (GPa) = 91.67224 45.63691 103.92086
#
# Poissons Ratio (x) = -0.17517 0.64746
# Poissons Ratio (y) = -0.35188 0.35251
# Poissons Ratio (z) = 0.57115 0.15480
#
# Static dielectric constant tensor:
#      x y z
#    x 1.781100 0.000000 0.000000 
#    y 0.000000 1.811350 0.000000 
#    z 0.000000 0.000000 1.817770 
# 
# From -- ./inp_files/24473.got.cif
#   From: 2010.05.17/outbox.cif.g08.bks.cpg/sg47_13_cif.got.tgz:24473.got - 2010.06.03 20:15:42.
