data_PCOD9381532
_publ_section_title
;
Structure prediction by ZEFSAII (Michael W. Deem and Ramdas Pophale) SiO2 
 PCOD9381532
Probable space group: P M M M
;
_chemical_formula_sum "Si O2"
_cell_formula_units_Z 52
_cell_length_a 18.416765
_cell_length_b 18.661443
_cell_length_c 8.796855
_cell_angle_alpha 90.000000
_cell_angle_beta 90.000000
_cell_angle_gamma 90.000000
_cell_volume 3023.333126
_symmetry_space_group_name_H-M "P M M M"
_symmetry_group_IT_number 47
_symmetry_cell_setting 'orthorhombic'
loop_
_space_group_symop_operation_xyz
x,y,z
-x,-y,z
x,-y,-z
-x,y,-z
-x,-y,-z
x,y,-z
-x,y,z
x,-y,z
loop_
_atom_site_type_symbol
_atom_site_label
_atom_site_fract_x
_atom_site_fract_y
_atom_site_fract_z
Si Si1 0.121044 0.815034 0.683964
Si Si2 0.420236 0.733969 0.816964
Si Si3 0.774353 0.384974 0.325694
Si Si4 0.276217 0.781630 0.673772
Si Si5 0.625719 0.576665 0.182530
Si Si6 0.917849 0.659432 0.818080
Si Si7 0.000000 0.084782 0.818857
O O1 0.118824 0.810688 0.500000
O O2 0.205537 0.824053 0.731208
O O3 0.092368 0.739650 0.751302
O O4 0.069744 0.877207 0.744887
O O5 0.500000 0.758923 0.767430
O O6 0.351674 0.779692 0.762119
O O7 0.409266 0.651205 0.762926
O O8 0.418799 0.732636 0.000000
O O9 0.774033 0.409620 0.500000
O O10 0.752734 0.300574 0.325908
O O11 0.710039 0.420249 0.230320
O O12 0.853991 0.388364 0.253377
O O13 0.290478 0.802396 0.500000
O O14 0.595250 0.500000 0.236473
O O15 0.619828 0.577580 0.000000
O O16 0.000000 0.635435 0.783921
O O17 0.908834 0.662452 0.000000
O O18 0.000000 0.000000 0.792296
O O19 0.000000 0.098067 0.000000
#
# Coordination Sequence:
#
# PCOD9381532 Si02
#       7
#     8   8   8   8   8   8   4
#     4  10  19  31  48  68  93 125 163 198 227 266
#     4   9  17  28  43  66  93 119 149 187 232 281
#     4   9  17  28  42  60  82 108 142 185 229 274
#     4   8  16  29  44  64  87 116 151 188 231 274
#     4   9  17  29  44  60  81 113 149 184 226 278
#     4  10  18  27  43  66  89 111 141 183 231 278
#     4  11  23  35  47  69 103 139 170 197 226 261
#
# _framework density 17.199560000000002
#
# number of rings (size 3 to 8) (size 9 to 14) (size 15 to 20)
#    0.000    2.692    0.769    2.538    0.000    6.769 
#    0.000    1.538    0.000    0.462    0.000    7.538 
#    0.000    0.615    0.000    6.769    0.000    4.923 
#
# Total GULP energy -289674.491913 kJ/mol
# GULP energy per Si atom -5570.663306 kJ/mol
# Density = 1.716041 g / cm^3
# Si number density = 17.199560 Si / 1000 Ang^3
#
#
#
# Elastic Constant Matrix: (Units=GPa)
#
#
# Indices 1 2 3 4 5 6 
#
# 1 149.3198 19.3419 27.2351 0.0000 0.0000 0.0000
# 2 19.3419 29.9653 3.3569 0.0000 0.0000 0.0000
# 3 27.2351 3.3569 21.2295 0.0000 0.0000 0.0000
# 4 0.0000 0.0000 0.0000 5.7417 0.0000 0.0000
# 5 0.0000 0.0000 0.0000 0.0000 17.3715 0.0000
# 6 0.0000 0.0000 0.0000 0.0000 0.0000 -4.5309
#
#
#
# Elastic Compliance Matrix: (Units=1/GPa)
#
#
# Indices 1 2 3 4 5 6 
#
# 1 0.009372 -0.004787 -0.011266 0.000000 0.000000 0.000000
# 2 -0.004787 0.036419 0.000383 0.000000 0.000000 0.000000
# 3 -0.011266 0.000383 0.061497 0.000000 0.000000 0.000000
# 4 0.000000 0.000000 0.000000 0.174163 0.000000 0.000000
# 5 0.000000 0.000000 0.000000 0.000000 0.057566 0.000000
# 6 0.000000 0.000000 0.000000 0.000000 0.000000 -0.220707
#
#
# Mechanical properties :
#
#
# Convention : Reuss Voigt Hill
#
# Bulk Modulus (GPa) = 13.16707 33.37582 23.27144
# Shear Modulus (GPa) = 28.57662 13.75517 21.16589
#
# Velocity S-wave (km/s) = 4.08054 2.83103 3.51181
# Velocity P-wave (km/s) = 5.46563 5.48940 5.47753
#
# Compressibility (1/GPa) = 0.07594705
#
# Stress axis : x y z
#
# Youngs Moduli (GPa) = 106.69982 27.45803 16.26089
#
# Poissons Ratio (x) = 0.13145 0.18320
# Poissons Ratio (y) = 0.51081 -0.00623
# Poissons Ratio (z) = 1.20212 -0.01052
#
# Static dielectric constant tensor:
#      x y z
#    x 1.614540 0.000000 0.000000 
#    y 0.000000 1.587180 0.000000 
#    z 0.000000 0.000000 1.585570 
# 
# From -- ./inp_files/9543.got.cif
#   From: 2010.05.17/outbox.cif.g08.bks.cpg/sg47_5_cif.got.tgz:9543.got - 2010.06.03 20:15:42.
