data_PCOD9381767
_publ_section_title
;
Structure prediction by ZEFSAII (Michael W. Deem and Ramdas Pophale) SiO2 
 PCOD9381767
Probable space group: P M M M
;
_chemical_formula_sum "Si O2"
_cell_formula_units_Z 36
_cell_length_a 19.636328
_cell_length_b 11.259458
_cell_length_c 7.336670
_cell_angle_alpha 90.000000
_cell_angle_beta 90.000000
_cell_angle_gamma 90.000000
_cell_volume 1622.096728
_symmetry_space_group_name_H-M "P M M M"
_symmetry_group_IT_number 47
_symmetry_cell_setting 'orthorhombic'
loop_
_space_group_symop_operation_xyz
x,y,z
-x,-y,z
x,-y,-z
-x,y,-z
-x,-y,-z
x,y,-z
-x,y,z
x,-y,z
loop_
_atom_site_type_symbol
_atom_site_label
_atom_site_fract_x
_atom_site_fract_y
_atom_site_fract_z
Si Si1 0.076250 0.000000 0.223173
Si Si2 0.182390 0.188619 0.790011
Si Si3 0.073342 0.637231 0.281250
Si Si4 0.420502 0.633016 0.778473
Si Si5 0.334308 0.863377 0.777204
O O1 0.121404 0.890251 0.286778
O O2 0.000000 0.000000 0.290081
O O3 0.072785 0.000000 0.000000
O O4 0.145952 0.314670 0.783880
O O5 0.257120 0.166514 0.714787
O O6 0.189737 0.152105 0.000000
O O7 0.073561 0.645919 0.500000
O O8 0.070230 0.500000 0.231223
O O9 0.000000 0.692392 0.217694
O O10 0.500000 0.642049 0.727918
O O11 0.396049 0.500000 0.721332
O O12 0.380756 0.751670 0.718309
O O13 0.417312 0.632871 0.000000
O O14 0.351699 0.000000 0.723118
O O15 0.336570 0.862962 0.000000
#
# Coordination Sequence:
#
# PCOD9381767 Si02
#       5
#     4   8   8   8   8
#     4   9  16  26  41  61  86 116 146 181 229 275
#     4  10  18  29  46  68  92 119 152 192 235 280
#     4   9  19  35  50  64  88 121 154 193 240 284
#     4   8  14  24  37  55  83 120 159 195 230 273
#     4   9  16  26  40  60  90 123 153 190 237 283
#
# _framework density 22.193496
#
# number of rings (size 3 to 8) (size 9 to 14) (size 15 to 20)
#    0.000    3.000    1.111    2.000    0.000    3.111 
#    0.000    6.111    0.000    2.000    0.000    0.000 
#    0.000    0.889    0.000    6.889    0.000    8.000 
#
# Total GULP energy -200516.665062 kJ/mol
# GULP energy per Si atom -5569.907363 kJ/mol
# Density = 2.214298 g / cm^3
# Si number density = 22.193496 Si / 1000 Ang^3
#
#
#
# Elastic Constant Matrix: (Units=GPa)
#
#
# Indices 1 2 3 4 5 6 
#
# 1 140.0109 106.8214 5.7204 0.0000 0.0000 0.0000
# 2 106.8214 180.8237 2.2293 0.0000 0.0000 0.0000
# 3 5.7204 2.2293 82.1666 0.0000 0.0000 0.0000
# 4 0.0000 0.0000 0.0000 10.1234 0.0000 0.0000
# 5 0.0000 0.0000 0.0000 0.0000 -6.6455 0.0000
# 6 0.0000 0.0000 0.0000 0.0000 0.0000 -335.4132
#
#
#
# Elastic Compliance Matrix: (Units=1/GPa)
#
#
# Indices 1 2 3 4 5 6 
#
# 1 0.013043 -0.007696 -0.000699 0.000000 0.000000 0.000000
# 2 -0.007696 0.010074 0.000263 0.000000 0.000000 0.000000
# 3 -0.000699 0.000263 0.012212 0.000000 0.000000 0.000000
# 4 0.000000 0.000000 0.000000 0.098781 0.000000 0.000000
# 5 0.000000 0.000000 0.000000 0.000000 -0.150479 0.000000
# 6 0.000000 0.000000 0.000000 0.000000 0.000000 -0.002981
#
#
# Mechanical properties :
#
#
# Convention : Reuss Voigt Hill
#
# Bulk Modulus (GPa) = 52.45987 70.28259 61.37123
# Shear Modulus (GPa) = 1529.25871 -47.17169 741.04351
#
# Velocity S-wave (km/s) = 26.27838 -4.61529 18.29279
# Velocity P-wave (km/s) = 30.73152 1.82638 21.76881
#
# Compressibility (1/GPa) = 0.01906219
#
# Stress axis : x y z
#
# Youngs Moduli (GPa) = 76.67027 99.26866 81.88702
#
# Poissons Ratio (x) = 0.76401 0.05726
# Poissons Ratio (y) = 0.59009 -0.02150
# Poissons Ratio (z) = 0.05361 -0.02606
#
# Static dielectric constant tensor:
#      x y z
#    x 1.788320 0.000000 0.000000 
#    y 0.000000 2.056150 0.000000 
#    z 0.000000 0.000000 1.864660 
# 
# From -- ./inp_files/3708.got.cif
#   From: 2010.05.17/outbox.cif.g08.bks.cpg/sg47_2_cif.got.tgz:3708.got - 2010.06.03 20:15:42.
