data_PCOD9381150
_publ_section_title
;
Structure prediction by ZEFSAII (Michael W. Deem and Ramdas Pophale) SiO2 
 PCOD9381150
Probable space group: I M A 2
;
_chemical_formula_sum "Si O2"
_cell_formula_units_Z 32
_cell_length_a 18.000000
_cell_length_b 12.000000
_cell_length_c 15.000000
_cell_angle_alpha 90.000000
_cell_angle_beta 90.000000
_cell_angle_gamma 90.000000
_cell_volume 3240.000000
_symmetry_space_group_name_H-M "I M A 2"
_symmetry_group_IT_number 46
_symmetry_cell_setting 'orthorhombic'
loop_
_space_group_symop_operation_xyz
x,y,z
-x,-y,z
1/2-x,y,z
1/2+x,-y,z
1/2+x,1/2+y,1/2+z
1/2-x,1/2-y,1/2+z
-x,1/2+y,1/2+z
x,1/2-y,1/2+z
loop_
_atom_site_type_symbol
_atom_site_label
_atom_site_fract_x
_atom_site_fract_y
_atom_site_fract_z
Si Si1 0.127459 0.817084 0.051470
Si Si2 0.538668 0.744529 0.602280
Si Si3 0.333280 0.585589 0.115569
Si Si4 0.833597 0.561227 0.619717
Si Si5 0.667855 0.996182 0.326308
Si Si6 0.458539 0.894431 0.747533
Si Si7 0.580963 0.553304 0.981433
Si Si8 0.165480 0.759147 0.851333
O O1 0.161594 0.720100 0.114223
O O2 0.038736 0.800505 0.060756
O O3 0.149769 0.942183 0.074440
O O4 0.158238 0.784595 0.955418
O O5 0.599455 0.647845 0.608309
O O6 0.512199 0.810211 0.692391
O O7 0.575142 0.836198 0.538361
O O8 0.250000 0.550769 0.138382
O O9 0.401181 0.548914 0.177618
O O10 0.358689 0.532497 0.022091
O O11 0.750000 0.599582 0.592775
O O12 0.832174 0.536511 0.724342
O O13 0.750000 0.972070 0.363187
O O14 0.655032 0.128542 0.332694
O O15 0.606133 0.930274 0.380733
O O16 0.402567 0.825647 0.808489
O O17 0.500000 0.000000 0.790680
O O18 0.500000 0.500000 0.985337
O O19 0.250000 0.789525 0.821890
#
# Coordination Sequence:
#
# PCOD9381150 Si02
#       8
#     8   8   8   8   8   8   8   8
#     4  11  22  40  63  91 124 160 211 266 316 380
#     4  11  23  41  63  90 124 171 209 253 326 386
#     4  11  19  35  63  88 115 158 201 258 316 360
#     4  11  25  43  62  90 131 171 214 261 314 384
#     4  10  22  40  63  94 124 159 212 264 311 370
#     4  11  22  40  57  87 127 160 208 260 306 385
#     4  12  20  38  64  95 125 154 205 263 308 377
#     4  11  22  38  63  95 123 159 212 268 321 370
#
# _framework density 9.8765429999999999
#
# number of rings (size 3 to 8) (size 9 to 14) (size 15 to 20)
#    0.000    1.000    5.000    3.750    0.000    6.000 
#    0.000    0.000    0.000    1.500    0.000    0.000 
#    0.000    0.000    0.000    0.000    0.000    0.000 
#
# Total GULP energy -178562.552405 kJ/mol
# GULP energy per Si atom -5580.079763 kJ/mol
# Density = 0.985406 g / cm^3
# Si number density = 9.876543 Si / 1000 Ang^3
#
#
#
# Elastic Constant Matrix: (Units=GPa)
#
#
# Indices 1 2 3 4 5 6 
#
# 1 118.7615 64.3009 17.6338 0.0000 0.0000 0.0000
# 2 64.3009 75.8898 22.5510 0.0000 0.0000 0.0000
# 3 17.6338 22.5510 36.4710 0.0000 0.0000 0.0000
# 4 0.0000 0.0000 0.0000 20.1110 0.0000 0.0000
# 5 0.0000 0.0000 0.0000 0.0000 31.2060 0.0000
# 6 0.0000 0.0000 0.0000 0.0000 0.0000 17.5189
#
#
#
# Elastic Compliance Matrix: (Units=1/GPa)
#
#
# Indices 1 2 3 4 5 6 
#
# 1 0.015575 -0.013425 0.000771 0.000000 0.000000 0.000000
# 2 -0.013425 0.027716 -0.010646 0.000000 0.000000 0.000000
# 3 0.000771 -0.010646 0.033629 0.000000 0.000000 0.000000
# 4 0.000000 0.000000 0.000000 0.049724 0.000000 0.000000
# 5 0.000000 0.000000 0.000000 0.000000 0.032045 0.000000
# 6 0.000000 0.000000 0.000000 0.000000 0.000000 0.057081
#
#
# Mechanical properties :
#
#
# Convention : Reuss Voigt Hill
#
# Bulk Modulus (GPa) = 32.98345 48.89929 40.94137
# Shear Modulus (GPa) = 18.35014 22.20963 20.27989
#
# Velocity S-wave (km/s) = 3.05122 3.35679 3.20764
# Velocity P-wave (km/s) = 5.39883 6.31134 5.87284
#
# Compressibility (1/GPa) = 0.03031823
#
# Stress axis : x y z
#
# Youngs Moduli (GPa) = 64.20688 36.08050 29.73607
#
# Poissons Ratio (x) = 0.48439 -0.02292
# Poissons Ratio (y) = 0.86200 0.31658
# Poissons Ratio (z) = -0.04950 0.38412
#
# Static dielectric constant tensor:
#      x y z
#    x 1.732790 0.000000 0.000000 
#    y 0.000000 1.673560 0.000000 
#    z 0.000000 0.000000 1.791130 
# 
# From -- ./inp_files/16759.got.cif
#   From: 2010.05.17/outbox.ucp.g08.bks.cvg/sg46_9_cif.got.tgz:16759.got - 2010.06.11 16:34:52.
