data_PCOD9381393
_publ_section_title
;
Structure prediction by ZEFSAII (Michael W. Deem and Ramdas Pophale) SiO2 
 PCOD9381393
Probable space group: P M M M
;
_chemical_formula_sum "Si O2"
_cell_formula_units_Z 52
_cell_length_a 8.109660
_cell_length_b 16.932161
_cell_length_c 19.402510
_cell_angle_alpha 90.000000
_cell_angle_beta 90.000000
_cell_angle_gamma 90.000000
_cell_volume 2664.237593
_symmetry_space_group_name_H-M "P M M M"
_symmetry_group_IT_number 47
_symmetry_cell_setting 'orthorhombic'
loop_
_space_group_symop_operation_xyz
x,y,z
-x,-y,z
x,-y,-z
-x,y,-z
-x,-y,-z
x,y,-z
-x,y,z
x,-y,z
loop_
_atom_site_type_symbol
_atom_site_label
_atom_site_fract_x
_atom_site_fract_y
_atom_site_fract_z
Si Si1 0.195904 0.500000 0.664042
Si Si2 0.798776 0.000000 0.579680
Si Si3 0.304338 0.331293 0.171565
Si Si4 0.798480 0.910667 0.798188
Si Si5 0.198935 0.160234 0.343344
Si Si6 0.196924 0.188555 0.922601
Si Si7 0.304089 0.669703 0.330277
Si Si8 0.802042 0.500000 0.176627
O O1 0.249843 0.413937 0.636642
O O2 0.258176 0.500000 0.743499
O O3 0.000000 0.500000 0.664514
O O4 0.744926 0.917680 0.614960
O O5 0.751749 0.000000 0.500000
O O6 0.000000 0.000000 0.584202
O O7 0.500000 0.319053 0.173788
O O8 0.228206 0.267803 0.120459
O O9 0.237867 0.326604 0.250700
O O10 0.264063 0.419169 0.145740
O O11 0.744751 0.855100 0.735466
O O12 0.739873 0.880063 0.871958
O O13 0.000000 0.909380 0.798141
O O14 0.747864 0.000000 0.784077
O O15 0.253681 0.247695 0.365269
O O16 0.000000 0.159815 0.344847
O O17 0.000000 0.178199 0.927894
O O18 0.265059 0.189826 0.000000
O O19 0.500000 0.667310 0.326341
O O20 0.000000 0.500000 0.176094
#
# Coordination Sequence:
#
# PCOD9381393 Si02
#       8
#     4   4   8   8   8   8   8   4
#     4   9  17  29  47  74 105 136 171 212 262 314
#     4   9  18  32  53  85 118 144 177 220 259 296
#     4  10  19  31  47  67  94 127 162 204 255 307
#     4   9  16  28  48  72  95 122 163 209 252 299
#     4  10  17  29  52  77 103 140 178 213 254 303
#     4  10  20  32  47  67  92 123 162 211 260 305
#     4  10  19  30  47  74 106 137 172 217 263 307
#     4   9  17  29  48  70  93 122 158 205 254 305
#
# _framework density 19.517779000000001
#
# number of rings (size 3 to 8) (size 9 to 14) (size 15 to 20)
#    0.000    2.385    2.308    1.385    0.000    3.692 
#    0.000    2.308    0.000    4.615    0.000    1.615 
#    0.000    4.308    0.000    0.000    0.000    0.000 
#
# Total GULP energy -289790.991288 kJ/mol
# GULP energy per Si atom -5572.903679 kJ/mol
# Density = 1.947336 g / cm^3
# Si number density = 19.517779 Si / 1000 Ang^3
#
#
#
# Elastic Constant Matrix: (Units=GPa)
#
#
# Indices 1 2 3 4 5 6 
#
# 1 18.5745 8.2492 7.8051 0.0000 0.0000 0.0000
# 2 8.2492 172.3421 30.2405 0.0000 0.0000 0.0000
# 3 7.8051 30.2405 41.7117 0.0000 0.0000 0.0000
# 4 0.0000 0.0000 0.0000 -15.0885 0.0000 0.0000
# 5 0.0000 0.0000 0.0000 0.0000 5.5581 0.0000
# 6 0.0000 0.0000 0.0000 0.0000 0.0000 -65.5114
#
#
#
# Elastic Compliance Matrix: (Units=1/GPa)
#
#
# Indices 1 2 3 4 5 6 
#
# 1 0.058585 -0.001009 -0.010231 0.000000 0.000000 0.000000
# 2 -0.001009 0.006666 -0.004644 0.000000 0.000000 0.000000
# 3 -0.010231 -0.004644 0.029255 0.000000 0.000000 0.000000
# 4 0.000000 0.000000 0.000000 -0.066275 0.000000 0.000000
# 5 0.000000 0.000000 0.000000 0.000000 0.179917 0.000000
# 6 0.000000 0.000000 0.000000 0.000000 0.000000 -0.015265
#
#
# Mechanical properties :
#
#
# Convention : Reuss Voigt Hill
#
# Bulk Modulus (GPa) = 15.93926 36.13533 26.03729
# Shear Modulus (GPa) = 20.36148 -2.58614 8.88767
#
# Velocity S-wave (km/s) = 3.23341 -1.15234 2.13624
# Velocity P-wave (km/s) = 4.70363 4.09679 4.41066
#
# Compressibility (1/GPa) = 0.06273818
#
# Stress axis : x y z
#
# Youngs Moduli (GPa) = 17.06935 150.02587 34.18212
#
# Poissons Ratio (x) = 0.15137 0.34971
# Poissons Ratio (y) = 0.01722 0.15873
# Poissons Ratio (z) = 0.17463 0.69666
#
# Static dielectric constant tensor:
#      x y z
#    x 1.684540 0.000000 0.000000 
#    y 0.000000 1.725990 0.000000 
#    z 0.000000 0.000000 1.683250 
# 
# From -- ./inp_files/29651.got.cif
#   From: 2010.05.17/outbox.cif.g08.bks.cpg/sg47_15_cif.got.tgz:29651.got - 2010.06.03 20:15:42.
