data_PCOD9381092
_publ_section_title
;
Structure prediction by ZEFSAII (Michael W. Deem and Ramdas Pophale) SiO2 
 PCOD9381092
Probable space group: I M A 2
;
_chemical_formula_sum "Si O2"
_cell_formula_units_Z 32
_cell_length_a 9.000000
_cell_length_b 24.000000
_cell_length_c 15.000000
_cell_angle_alpha 90.000000
_cell_angle_beta 90.000000
_cell_angle_gamma 90.000000
_cell_volume 3240.000000
_symmetry_space_group_name_H-M "I M A 2"
_symmetry_group_IT_number 46
_symmetry_cell_setting 'orthorhombic'
loop_
_space_group_symop_operation_xyz
x,y,z
-x,-y,z
1/2-x,y,z
1/2+x,-y,z
1/2+x,1/2+y,1/2+z
1/2-x,1/2-y,1/2+z
-x,1/2+y,1/2+z
x,1/2-y,1/2+z
loop_
_atom_site_type_symbol
_atom_site_label
_atom_site_fract_x
_atom_site_fract_y
_atom_site_fract_z
Si Si1 0.922807 0.232630 0.817210
Si Si2 0.428054 0.345092 0.826662
Si Si3 0.574901 0.388788 0.329817
Si Si4 0.069780 0.117926 0.508013
Si Si5 0.074147 0.944000 0.007972
Si Si6 0.574521 0.649149 0.622639
Si Si7 0.925691 0.944120 0.674975
Si Si8 0.574205 0.776482 0.627440
O O1 0.750000 0.248331 0.820312
O O2 0.942885 0.173845 0.865540
O O3 0.022422 0.282768 0.850984
O O4 0.973275 0.221732 0.715326
O O5 0.250000 0.346965 0.824607
O O6 0.476858 0.355704 0.725830
O O7 0.483808 0.383723 0.906776
O O8 0.750000 0.395633 0.307401
O O9 0.530826 0.431853 0.405782
O O10 0.475514 0.397178 0.243482
O O11 0.250000 0.114928 0.505907
O O12 0.017678 0.071190 0.576508
O O13 0.034355 0.176600 0.556006
O O14 0.250000 0.948622 0.011012
O O15 0.018850 0.892202 0.064132
O O16 0.000000 0.000000 0.041381
O O17 0.750000 0.635198 0.618254
O O18 0.559453 0.713323 0.593692
O O19 0.750000 0.949163 0.673941
O O20 0.000000 0.000000 0.707554
O O21 0.750000 0.784116 0.651685
#
# Coordination Sequence:
#
# PCOD9381092 Si02
#       8
#     8   8   8   8   8   8   8   8
#     4  10  19  32  51  81 118 149 181 223 276 329
#     4   9  19  36  58  82 114 151 189 230 271 330
#     4  10  22  38  55  81 115 149 185 226 277 336
#     4   9  18  34  57  84 112 148 190 229 269 323
#     4  11  24  41  59  79 108 145 190 237 283 335
#     4   9  19  35  57  84 112 143 184 233 281 329
#     4  11  22  37  59  83 113 150 190 231 277 330
#     4   9  17  33  55  82 112 146 187 221 266 331
#
# _framework density 9.8765429999999999
#
# number of rings (size 3 to 8) (size 9 to 14) (size 15 to 20)
#    0.000    2.250    1.250    2.250    1.750    4.500 
#    0.000    2.500    0.000    1.500    0.000    0.000 
#    0.000    0.000    0.000    0.000    0.000    0.000 
#
# Total GULP energy -178359.166218 kJ/mol
# GULP energy per Si atom -5573.723944 kJ/mol
# Density = 0.985406 g / cm^3
# Si number density = 9.876543 Si / 1000 Ang^3
#
#
#
# Elastic Constant Matrix: (Units=GPa)
#
#
# Indices 1 2 3 4 5 6 
#
# 1 -1.2587 15.2006 16.8048 0.0000 0.0000 0.0000
# 2 15.2006 45.5268 22.3010 0.0000 0.0000 0.0000
# 3 16.8048 22.3010 48.7363 0.0000 0.0000 0.0000
# 4 0.0000 0.0000 0.0000 14.8610 0.0000 0.0000
# 5 0.0000 0.0000 0.0000 0.0000 13.3732 0.0000
# 6 0.0000 0.0000 0.0000 0.0000 0.0000 21.2780
#
#
#
# Elastic Compliance Matrix: (Units=1/GPa)
#
#
# Indices 1 2 3 4 5 6 
#
# 1 -0.115602 0.024582 0.028613 0.000000 0.000000 0.000000
# 2 0.024582 0.023084 -0.019039 0.000000 0.000000 0.000000
# 3 0.028613 -0.019039 0.019364 0.000000 0.000000 0.000000
# 4 0.000000 0.000000 0.000000 0.067290 0.000000 0.000000
# 5 0.000000 0.000000 0.000000 0.000000 0.074776 0.000000
# 6 0.000000 0.000000 0.000000 0.000000 0.000000 0.046997
#
#
# Mechanical properties :
#
#
# Convention : Reuss Voigt Hill
#
# Bulk Modulus (GPa) = -206.50080 22.40193 -92.04943
# Shear Modulus (GPa) = 108.73429 12.48232 60.60830
#
# Velocity S-wave (km/s) = 7.42740 2.51652 5.54523
# Velocity P-wave (km/s) = 5.58686 4.45078 2.38784
#
# Compressibility (1/GPa) = -0.00484260
#
# Stress axis : x y z
#
# Youngs Moduli (GPa) = -8.65036 43.32074 51.64096
#
# Poissons Ratio (x) = -1.06490 -1.47758
# Poissons Ratio (y) = 0.21264 0.98318
# Poissons Ratio (z) = 0.24751 0.82478
#
# Static dielectric constant tensor:
#      x y z
#    x 1.651920 0.000000 0.000000 
#    y 0.000000 1.725630 0.000000 
#    z 0.000000 0.000000 1.728390 
# 
# From -- ./inp_files/14442.got.cif
#   From: 2010.05.17/outbox.ucp.g08.bks.cvg/sg46_8_cif.got.tgz:14442.got - 2010.06.11 16:34:52.
