data_PCOD9381881
_publ_section_title
;
Structure prediction by ZEFSAII (Michael W. Deem and Ramdas Pophale) SiO2 
 PCOD9381881
Probable space group: P M M M
;
_chemical_formula_sum "Si O2"
_cell_formula_units_Z 44
_cell_length_a 17.679604
_cell_length_b 8.508891
_cell_length_c 15.828488
_cell_angle_alpha 90.000000
_cell_angle_beta 90.000000
_cell_angle_gamma 90.000000
_cell_volume 2381.139968
_symmetry_space_group_name_H-M "P M M M"
_symmetry_group_IT_number 47
_symmetry_cell_setting 'orthorhombic'
loop_
_space_group_symop_operation_xyz
x,y,z
-x,-y,z
x,-y,-z
-x,y,-z
-x,-y,-z
x,y,-z
-x,y,z
x,-y,z
loop_
_atom_site_type_symbol
_atom_site_label
_atom_site_fract_x
_atom_site_fract_y
_atom_site_fract_z
Si Si1 0.293407 0.688821 0.766389
Si Si2 0.114834 0.687133 0.407483
Si Si3 0.000000 0.688390 0.097820
Si Si4 0.714055 0.187542 0.408246
Si Si5 0.414668 0.308470 0.096625
Si Si6 0.878116 0.813233 0.772607
O O1 0.289456 0.500000 0.765795
O O2 0.323919 0.748078 0.675887
O O3 0.349733 0.743226 0.839765
O O4 0.208365 0.753096 0.778009
O O5 0.085612 0.740856 0.500000
O O6 0.104055 0.500000 0.402924
O O7 0.204035 0.729005 0.409373
O O8 0.089161 0.760256 0.318953
O O9 0.927826 0.746594 0.151073
O O10 0.000000 0.500000 0.097599
O O11 0.000000 0.742373 0.000000
O O12 0.677899 0.217661 0.500000
O O13 0.725930 0.000000 0.400418
O O14 0.500000 0.259584 0.120405
O O15 0.414183 0.500000 0.097375
O O16 0.400590 0.259454 0.000000
O O17 0.878684 0.000000 0.775294
#
# Coordination Sequence:
#
# PCOD9381881 Si02
#       6
#     8   8   4   8   8   8
#     4  10  18  29  51  80 105 133 172 213 252 298
#     4   9  16  28  49  76 105 136 171 211 252 296
#     4  11  25  45  64  77  96 131 175 222 266 305
#     4   9  16  26  42  66  98 135 171 207 251 301
#     4   8  15  29  49  74 103 132 164 207 258 306
#     4  11  22  36  55  79 109 140 171 210 256 310
#
# _framework density 18.478545
#
# number of rings (size 3 to 8) (size 9 to 14) (size 15 to 20)
#    0.000    2.455    0.000    6.273    0.000    3.636 
#    0.000    2.273    0.000    7.091    0.000    8.909 
#    0.000    0.000    0.000    0.000    0.000    0.000 
#
# Total GULP energy -245271.208508 kJ/mol
# GULP energy per Si atom -5574.345648 kJ/mol
# Density = 1.843649 g / cm^3
# Si number density = 18.478545 Si / 1000 Ang^3
#
#
#
# Elastic Constant Matrix: (Units=GPa)
#
#
# Indices 1 2 3 4 5 6 
#
# 1 86.5889 22.3630 84.1746 0.0000 0.0000 0.0000
# 2 22.3630 67.4419 46.1026 0.0000 0.0000 0.0000
# 3 84.1746 46.1026 196.6657 0.0000 0.0000 0.0000
# 4 0.0000 0.0000 0.0000 6.1875 0.0000 0.0000
# 5 0.0000 0.0000 0.0000 0.0000 -76.0799 0.0000
# 6 0.0000 0.0000 0.0000 0.0000 0.0000 122.7962
#
#
#
# Elastic Compliance Matrix: (Units=1/GPa)
#
#
# Indices 1 2 3 4 5 6 
#
# 1 0.019826 -0.000921 -0.008270 0.000000 0.000000 0.000000
# 2 -0.000921 0.017700 -0.003755 0.000000 0.000000 0.000000
# 3 -0.008270 -0.003755 0.009505 0.000000 0.000000 0.000000
# 4 0.000000 0.000000 0.000000 0.161617 0.000000 0.000000
# 5 0.000000 0.000000 0.000000 0.000000 -0.013144 0.000000
# 6 0.000000 0.000000 0.000000 0.000000 0.000000 0.008144
#
#
# Mechanical properties :
#
#
# Convention : Reuss Voigt Hill
#
# Bulk Modulus (GPa) = 47.30634 72.88632 60.09633
# Shear Modulus (GPa) = 21.13411 23.78452 22.45931
#
# Velocity S-wave (km/s) = 3.38555 3.59157 3.49008
# Velocity P-wave (km/s) = 6.39835 7.53183 6.98811
#
# Compressibility (1/GPa) = 0.02113881
#
# Stress axis : x y z
#
# Youngs Moduli (GPa) = 50.43923 56.49764 105.21265
#
# Poissons Ratio (x) = 0.05203 0.87008
# Poissons Ratio (y) = 0.04645 0.39508
# Poissons Ratio (z) = 0.41712 0.21215
#
# Static dielectric constant tensor:
#      x y z
#    x 1.636250 0.000000 0.000000 
#    y 0.000000 1.623560 0.000000 
#    z 0.000000 0.000000 1.705900 
# 
# From -- ./inp_files/24313.got.cif
#   From: 2010.05.17/outbox.cif.g08.bks.cpg/sg47_13_cif.got.tgz:24313.got - 2010.06.03 20:15:42.
