data_PCOD9381620
_publ_section_title
;
Structure prediction by ZEFSAII (Michael W. Deem and Ramdas Pophale) SiO2 
 PCOD9381620
Probable space group: P M M M
;
_chemical_formula_sum "Si O2"
_cell_formula_units_Z 64
_cell_length_a 29.689145
_cell_length_b 9.177451
_cell_length_c 14.674984
_cell_angle_alpha 90.000000
_cell_angle_beta 90.000000
_cell_angle_gamma 90.000000
_cell_volume 3998.502774
_symmetry_space_group_name_H-M "P M M M"
_symmetry_group_IT_number 47
_symmetry_cell_setting 'orthorhombic'
loop_
_space_group_symop_operation_xyz
x,y,z
-x,-y,z
x,-y,-z
-x,y,-z
-x,-y,-z
x,y,-z
-x,y,z
x,-y,z
loop_
_atom_site_type_symbol
_atom_site_label
_atom_site_fract_x
_atom_site_fract_y
_atom_site_fract_z
Si Si1 0.450033 0.175556 0.287168
Si Si2 0.732085 0.677402 0.396280
Si Si3 0.949958 0.669249 0.110451
Si Si4 0.858594 0.826064 0.107764
Si Si5 0.312743 0.330072 0.891641
Si Si6 0.594081 0.824919 0.103154
Si Si7 0.778059 0.675821 0.215303
Si Si8 0.369478 0.669567 0.609636
O O1 0.500000 0.223771 0.315824
O O2 0.441007 0.215201 0.181499
O O3 0.409540 0.242150 0.344945
O O4 0.448377 0.000000 0.294018
O O5 0.741043 0.725661 0.500000
O O6 0.730670 0.500000 0.397722
O O7 0.768089 0.718867 0.319878
O O8 0.681271 0.722410 0.368220
O O9 0.943306 0.500000 0.136706
O O10 0.907486 0.765867 0.137396
O O11 0.000000 0.715973 0.141517
O O12 0.950936 0.672705 0.000000
O O13 0.819858 0.752592 0.167591
O O14 0.857120 0.000000 0.115363
O O15 0.852251 0.788468 0.000000
O O16 0.321687 0.500000 0.870631
O O17 0.357195 0.238596 0.870372
O O18 0.267783 0.286987 0.838957
O O19 0.304632 0.317213 0.000000
O O20 0.596837 0.000000 0.101351
O O21 0.583425 0.775043 0.000000
O O22 0.783693 0.500000 0.210526
O O23 0.372923 0.675654 0.500000
O O24 0.372849 0.500000 0.637327
#
# Coordination Sequence:
#
# PCOD9381620 Si02
#       8
#     8   8   8   8   8   8   8   8
#     4  10  21  34  47  66  91 116 141 172 213 258
#     4   8  15  29  49  71  90 109 140 182 223 262
#     4   8  14  26  44  63  84 116 159 201 234 264
#     4  10  20  30  40  60  93 129 160 191 226 261
#     4   9  17  28  43  64  87 112 145 182 218 258
#     4   9  18  32  48  64  83 111 147 182 213 249
#     4  10  18  28  45  65  87 118 150 180 218 264
#     4   9  18  34  55  74  90 110 138 173 214 263
#
# _framework density 16.005990000000001
#
# number of rings (size 3 to 8) (size 9 to 14) (size 15 to 20)
#    0.000    2.875    0.000    2.625    0.000    4.500 
#    0.000    5.625    0.000    1.125    0.000    2.625 
#    0.000    0.500    0.000    5.750    0.000    1.875 
#
# Total GULP energy -356610.328633 kJ/mol
# GULP energy per Si atom -5572.036385 kJ/mol
# Density = 1.596956 g / cm^3
# Si number density = 16.005990 Si / 1000 Ang^3
#
#
#
# Elastic Constant Matrix: (Units=GPa)
#
#
# Indices 1 2 3 4 5 6 
#
# 1 107.8270 36.3184 58.1663 0.0000 0.0000 0.0000
# 2 36.3184 20.9490 25.9703 0.0000 0.0000 0.0000
# 3 58.1663 25.9703 55.5206 0.0000 0.0000 0.0000
# 4 0.0000 0.0000 0.0000 16.2060 0.0000 0.0000
# 5 0.0000 0.0000 0.0000 0.0000 18.0290 0.0000
# 6 0.0000 0.0000 0.0000 0.0000 0.0000 49.8830
#
#
#
# Elastic Compliance Matrix: (Units=1/GPa)
#
#
# Indices 1 2 3 4 5 6 
#
# 1 0.026696 -0.027635 -0.015042 0.000000 0.000000 0.000000
# 2 -0.027635 0.142228 -0.037576 0.000000 0.000000 0.000000
# 3 -0.015042 -0.037576 0.051347 0.000000 0.000000 0.000000
# 4 0.000000 0.000000 0.000000 0.061705 0.000000 0.000000
# 5 0.000000 0.000000 0.000000 0.000000 0.055466 0.000000
# 6 0.000000 0.000000 0.000000 0.000000 0.000000 0.020047
#
#
# Mechanical properties :
#
#
# Convention : Reuss Voigt Hill
#
# Bulk Modulus (GPa) = 16.73247 47.24516 31.98882
# Shear Modulus (GPa) = 9.29510 21.07973 15.18741
#
# Velocity S-wave (km/s) = 2.41244 3.63297 3.08370
# Velocity P-wave (km/s) = 4.27041 6.86871 5.71908
#
# Compressibility (1/GPa) = 0.05976403
#
# Stress axis : x y z
#
# Youngs Moduli (GPa) = 37.45811 7.03098 19.47533
#
# Poissons Ratio (x) = 0.19430 0.29295
# Poissons Ratio (y) = 1.03515 0.73181
# Poissons Ratio (z) = 0.56345 0.26420
#
# Static dielectric constant tensor:
#      x y z
#    x 1.523410 0.000000 0.000000 
#    y 0.000000 1.532290 0.000000 
#    z 0.000000 0.000000 1.553820 
# 
# From -- ./inp_files/22191.got.cif
#   From: 2010.05.17/outbox.cif.g08.bks.cpg/sg47_12_cif.got.tgz:22191.got - 2010.06.03 20:15:42.
