data_PCOD9381279
_publ_section_title
;
Structure prediction by ZEFSAII (Michael W. Deem and Ramdas Pophale) SiO2 
 PCOD9381279
Probable space group: P M M M
;
_chemical_formula_sum "Si O2"
_cell_formula_units_Z 64
_cell_length_a 7.635231
_cell_length_b 24.577377
_cell_length_c 19.938851
_cell_angle_alpha 90.000000
_cell_angle_beta 90.000000
_cell_angle_gamma 90.000000
_cell_volume 3741.604164
_symmetry_space_group_name_H-M "P M M M"
_symmetry_group_IT_number 47
_symmetry_cell_setting 'orthorhombic'
loop_
_space_group_symop_operation_xyz
x,y,z
-x,-y,z
x,-y,-z
-x,y,-z
-x,-y,-z
x,y,-z
-x,y,z
x,-y,z
loop_
_atom_site_type_symbol
_atom_site_label
_atom_site_fract_x
_atom_site_fract_y
_atom_site_fract_z
Si Si1 0.296973 0.340798 0.299510
Si Si2 0.710515 0.833208 0.653949
Si Si3 0.713823 0.061382 0.422578
Si Si4 0.285132 0.274950 0.576347
Si Si5 0.792752 0.560262 0.207071
Si Si6 0.786374 0.381898 0.926003
Si Si7 0.791763 0.767413 0.218431
Si Si8 0.786799 0.254419 0.073651
O O1 0.500000 0.351663 0.310340
O O2 0.222835 0.320249 0.370649
O O3 0.225805 0.394233 0.264056
O O4 0.280302 0.288410 0.250666
O O5 0.500000 0.834187 0.649439
O O6 0.775406 0.890815 0.626298
O O7 0.770022 0.783511 0.606231
O O8 0.754169 0.815704 0.729602
O O9 0.763456 0.072623 0.500000
O O10 0.500000 0.061288 0.421286
O O11 0.770447 0.000000 0.405433
O O12 0.229341 0.282485 0.500000
O O13 0.500000 0.275142 0.577203
O O14 0.723189 0.500000 0.222801
O O15 0.719933 0.584227 0.137180
O O16 0.000000 0.555050 0.196382
O O17 0.739382 0.318247 0.919478
O O18 0.000000 0.383200 0.925132
O O19 0.731071 0.401062 0.000000
O O20 0.727861 0.774346 0.142116
O O21 0.000000 0.759799 0.215897
O O22 0.000000 0.251902 0.072209
O O23 0.725793 0.235493 0.000000
#
# Coordination Sequence:
#
# PCOD9381279 Si02
#       8
#     8   8   8   8   8   8   8   8
#     4  10  19  30  45  63  83 105 131 166 209 252
#     4   9  16  25  40  64  91 114 139 175 212 244
#     4   8  13  22  39  63  89 120 158 191 211 232
#     4   8  14  25  42  62  80 101 131 167 204 239
#     4  10  19  30  45  63  82 106 135 166 201 245
#     4   8  13  23  40  61  81 101 132 171 201 229
#     4  10  17  27  44  62  84 111 138 170 207 250
#     4   8  13  22  39  60  79 103 136 171 203 238
#
# _framework density 17.104963000000001
#
# number of rings (size 3 to 8) (size 9 to 14) (size 15 to 20)
#    0.000    3.125    1.250    3.000    0.000    2.000 
#    0.000    1.250    0.000   16.125    0.000    4.375 
#    0.000    0.500    0.000    6.250    0.000    0.000 
#
# Total GULP energy -356495.243905 kJ/mol
# GULP energy per Si atom -5570.238186 kJ/mol
# Density = 1.706603 g / cm^3
# Si number density = 17.104963 Si / 1000 Ang^3
#
#
#
# Elastic Constant Matrix: (Units=GPa)
#
#
# Indices 1 2 3 4 5 6 
#
# 1 28.0315 -0.5621 1.2198 0.0000 0.0000 0.0000
# 2 -0.5621 101.3392 84.2162 0.0000 0.0000 0.0000
# 3 1.2198 84.2162 175.3943 0.0000 0.0000 0.0000
# 4 0.0000 0.0000 0.0000 20.8416 0.0000 0.0000
# 5 0.0000 0.0000 0.0000 0.0000 14.8323 0.0000
# 6 0.0000 0.0000 0.0000 0.0000 0.0000 13.1552
#
#
#
# Elastic Compliance Matrix: (Units=1/GPa)
#
#
# Indices 1 2 3 4 5 6 
#
# 1 0.035712 0.000673 -0.000572 0.000000 0.000000 0.000000
# 2 0.000673 0.016432 -0.007895 0.000000 0.000000 0.000000
# 3 -0.000572 -0.007895 0.009496 0.000000 0.000000 0.000000
# 4 0.000000 0.000000 0.000000 0.047981 0.000000 0.000000
# 5 0.000000 0.000000 0.000000 0.000000 0.067420 0.000000
# 6 0.000000 0.000000 0.000000 0.000000 0.000000 0.076015
#
#
# Mechanical properties :
#
#
# Convention : Reuss Voigt Hill
#
# Bulk Modulus (GPa) = 21.71341 52.72366 37.21854
# Shear Modulus (GPa) = 17.60590 24.42523 21.01557
#
# Velocity S-wave (km/s) = 3.21173 3.78294 3.50898
# Velocity P-wave (km/s) = 5.14542 7.06904 6.18250
#
# Compressibility (1/GPa) = 0.04605449
#
# Stress axis : x y z
#
# Youngs Moduli (GPa) = 28.00141 60.85548 105.30638
#
# Poissons Ratio (x) = -0.04096 0.06019
# Poissons Ratio (y) = -0.01885 0.83137
# Poissons Ratio (z) = 0.01600 0.48044
#
# Static dielectric constant tensor:
#      x y z
#    x 1.658340 0.000000 0.000000 
#    y 0.000000 1.567710 0.000000 
#    z 0.000000 0.000000 1.609760 
# 
# From -- ./inp_files/30210.got.cif
#   From: 2010.05.17/outbox.cif.g08.bks.cpg/sg47_16_cif.got.tgz:30210.got - 2010.06.03 20:15:42.
