data_PCOD9381536
_publ_section_title
;
Structure prediction by ZEFSAII (Michael W. Deem and Ramdas Pophale) SiO2 
 PCOD9381536
Probable space group: P M M M
;
_chemical_formula_sum "Si O2"
_cell_formula_units_Z 64
_cell_length_a 7.843610
_cell_length_b 24.675699
_cell_length_c 19.716899
_cell_angle_alpha 90.000000
_cell_angle_beta 90.000000
_cell_angle_gamma 90.000000
_cell_volume 3816.137964
_symmetry_space_group_name_H-M "P M M M"
_symmetry_group_IT_number 47
_symmetry_cell_setting 'orthorhombic'
loop_
_space_group_symop_operation_xyz
x,y,z
-x,-y,z
x,-y,-z
-x,y,-z
-x,-y,-z
x,y,-z
-x,y,z
x,-y,z
loop_
_atom_site_type_symbol
_atom_site_label
_atom_site_fract_x
_atom_site_fract_y
_atom_site_fract_z
Si Si1 0.709226 0.164856 0.792433
Si Si2 0.799559 0.332108 0.849202
Si Si3 0.296940 0.060179 0.713836
Si Si4 0.206135 0.116395 0.576078
Si Si5 0.298287 0.725609 0.718591
Si Si6 0.207939 0.439307 0.078676
Si Si7 0.701951 0.777348 0.924280
Si Si8 0.794666 0.758509 0.424525
O O1 0.500000 0.164295 0.791724
O O2 0.770488 0.108286 0.761764
O O3 0.763948 0.215452 0.745310
O O4 0.767673 0.180334 0.868074
O O5 0.774283 0.318872 0.769976
O O6 0.732184 0.389951 0.874602
O O7 0.722887 0.282170 0.891659
O O8 0.000000 0.330958 0.863697
O O9 0.500000 0.057783 0.725339
O O10 0.269724 0.079241 0.636594
O O11 0.226018 0.000000 0.724961
O O12 0.258526 0.099759 0.500000
O O13 0.262943 0.178964 0.586146
O O14 0.000000 0.116183 0.577857
O O15 0.500000 0.724608 0.728362
O O16 0.260009 0.722840 0.639166
O O17 0.265541 0.500000 0.097520
O O18 0.000000 0.440134 0.080974
O O19 0.254795 0.429381 0.000000
O O20 0.500000 0.787174 0.929231
O O21 0.775300 0.780158 0.000000
O O22 0.737096 0.741707 0.500000
O O23 0.000000 0.759540 0.425249
#
# Coordination Sequence:
#
# PCOD9381536 Si02
#       8
#     8   8   8   8   8   8   8   8
#     4   8  15  28  42  58  79 105 136 170 214 260
#     4  10  18  27  43  67  93 118 148 187 220 250
#     4  10  19  30  44  60  79 106 143 183 214 250
#     4   9  18  31  45  61  83 109 136 170 212 257
#     4  10  18  29  45  63  87 118 148 178 216 263
#     4   8  14  25  41  62  90 124 158 188 217 250
#     4   9  17  29  45  63  85 112 140 176 222 269
#     4   9  17  29  45  65  88 113 142 178 219 261
#
# _framework density 16.770883000000001
#
# number of rings (size 3 to 8) (size 9 to 14) (size 15 to 20)
#    0.000    2.875    1.250    3.000    0.000    1.750 
#    0.000    2.500    0.000    1.875    0.000    7.000 
#    0.000    0.500    0.000   10.125    0.000    7.125 
#
# Total GULP energy -356611.303192 kJ/mol
# GULP energy per Si atom -5572.051612 kJ/mol
# Density = 1.673271 g / cm^3
# Si number density = 16.770883 Si / 1000 Ang^3
#
#
#
# Elastic Constant Matrix: (Units=GPa)
#
#
# Indices 1 2 3 4 5 6 
#
# 1 15.9357 1.2080 -2.6684 0.0000 0.0000 0.0000
# 2 1.2080 117.2510 72.2842 0.0000 0.0000 0.0000
# 3 -2.6684 72.2842 126.5952 0.0000 0.0000 0.0000
# 4 0.0000 0.0000 0.0000 24.4131 0.0000 0.0000
# 5 0.0000 0.0000 0.0000 0.0000 14.9468 0.0000
# 6 0.0000 0.0000 0.0000 0.0000 0.0000 8.6430
#
#
#
# Elastic Compliance Matrix: (Units=1/GPa)
#
#
# Indices 1 2 3 4 5 6 
#
# 1 0.063366 -0.002278 0.002636 0.000000 0.000000 0.000000
# 2 -0.002278 0.013244 -0.007610 0.000000 0.000000 0.000000
# 3 0.002636 -0.007610 0.012300 0.000000 0.000000 0.000000
# 4 0.000000 0.000000 0.000000 0.040962 0.000000 0.000000
# 5 0.000000 0.000000 0.000000 0.000000 0.066904 0.000000
# 6 0.000000 0.000000 0.000000 0.000000 0.000000 0.115700
#
#
# Mechanical properties :
#
#
# Convention : Reuss Voigt Hill
#
# Bulk Modulus (GPa) = 13.43969 44.60329 29.02149
# Shear Modulus (GPa) = 14.21337 22.19778 18.20557
#
# Velocity S-wave (km/s) = 2.91435 3.64206 3.29834
# Velocity P-wave (km/s) = 4.39951 6.65880 5.64337
#
# Compressibility (1/GPa) = 0.07440648
#
# Stress axis : x y z
#
# Youngs Moduli (GPa) = 15.78126 75.50776 81.30098
#
# Poissons Ratio (x) = 0.17202 -0.21435
# Poissons Ratio (y) = 0.03595 0.61870
# Poissons Ratio (z) = -0.04161 0.57461
#
# Static dielectric constant tensor:
#      x y z
#    x 1.622780 0.000000 0.000000 
#    y 0.000000 1.561500 0.000000 
#    z 0.000000 0.000000 1.587460 
# 
# From -- ./inp_files/30151.got.cif
#   From: 2010.05.17/outbox.cif.g08.bks.cpg/sg47_16_cif.got.tgz:30151.got - 2010.06.03 20:15:42.
