data_PCOD9381727
_publ_section_title
;
Structure prediction by ZEFSAII (Michael W. Deem and Ramdas Pophale) SiO2 
 PCOD9381727
Probable space group: P M M M
;
_chemical_formula_sum "Si O2"
_cell_formula_units_Z 64
_cell_length_a 7.397941
_cell_length_b 20.981191
_cell_length_c 20.657005
_cell_angle_alpha 90.000000
_cell_angle_beta 90.000000
_cell_angle_gamma 90.000000
_cell_volume 3206.331010
_symmetry_space_group_name_H-M "P M M M"
_symmetry_group_IT_number 47
_symmetry_cell_setting 'orthorhombic'
loop_
_space_group_symop_operation_xyz
x,y,z
-x,-y,z
x,-y,-z
-x,y,-z
-x,-y,-z
x,y,-z
-x,y,z
x,-y,z
loop_
_atom_site_type_symbol
_atom_site_label
_atom_site_fract_x
_atom_site_fract_y
_atom_site_fract_z
Si Si1 0.288705 0.898907 0.748163
Si Si2 0.220193 0.207028 0.428458
Si Si3 0.793322 0.931367 0.394944
Si Si4 0.781687 0.755670 0.789365
Si Si5 0.779227 0.316915 0.331156
Si Si6 0.788854 0.211321 0.069783
Si Si7 0.779736 0.573455 0.573126
Si Si8 0.281025 0.931076 0.891607
O O1 0.500000 0.914293 0.743121
O O2 0.202377 0.924239 0.682901
O O3 0.265732 0.822888 0.755504
O O4 0.222782 0.926508 0.816426
O O5 0.266602 0.230104 0.500000
O O6 0.287881 0.135006 0.418973
O O7 0.278439 0.256512 0.374393
O O8 0.000000 0.204579 0.424086
O O9 0.000000 0.932447 0.418683
O O10 0.711402 0.000000 0.411649
O O11 0.722095 0.698678 0.742233
O O12 0.712822 0.760286 0.863183
O O13 0.000000 0.754033 0.792417
O O14 0.719523 0.379509 0.369939
O O15 0.000000 0.318216 0.330751
O O16 0.779528 0.134378 0.075990
O O17 0.000000 0.228684 0.068735
O O18 0.709899 0.229589 0.000000
O O19 0.725087 0.593138 0.500000
O O20 0.725416 0.500000 0.582742
O O21 0.000000 0.574755 0.573171
O O22 0.500000 0.929270 0.892976
O O23 0.224641 0.000000 0.918190
#
# Coordination Sequence:
#
# PCOD9381727 Si02
#       8
#     8   8   8   8   8   8   8   8
#     4  10  18  29  44  60  79 102 131 169 213 255
#     4   9  16  25  38  57  78  99 129 169 207 242
#     4  10  19  29  41  57  77 101 132 172 216 255
#     4   9  16  28  45  62  81 103 134 171 203 239
#     4   9  14  22  39  59  80 108 140 169 198 236
#     4   9  18  30  42  57  78 102 127 162 208 250
#     4   8  13  20  31  54  91 125 143 160 197 246
#     4   9  18  30  42  57  76  99 129 163 201 251
#
# _framework density 19.960508999999998
#
# number of rings (size 3 to 8) (size 9 to 14) (size 15 to 20)
#    0.000    2.875    1.250    1.500    0.000    3.750 
#    0.000    2.500    0.000    0.375    0.000    0.875 
#    0.000    1.000    0.000    8.375    0.000    1.250 
#
# Total GULP energy -357063.164366 kJ/mol
# GULP energy per Si atom -5579.111943 kJ/mol
# Density = 1.991508 g / cm^3
# Si number density = 19.960509 Si / 1000 Ang^3
#
#
#
# Elastic Constant Matrix: (Units=GPa)
#
#
# Indices 1 2 3 4 5 6 
#
# 1 69.5884 0.2527 3.3530 0.0000 0.0000 0.0000
# 2 0.2527 96.8885 62.9056 0.0000 0.0000 0.0000
# 3 3.3530 62.9056 147.3123 0.0000 0.0000 0.0000
# 4 0.0000 0.0000 0.0000 102.0304 0.0000 0.0000
# 5 0.0000 0.0000 0.0000 0.0000 -44.5130 0.0000
# 6 0.0000 0.0000 0.0000 0.0000 0.0000 11.9345
#
#
#
# Elastic Compliance Matrix: (Units=1/GPa)
#
#
# Indices 1 2 3 4 5 6 
#
# 1 0.014390 0.000242 -0.000431 0.000000 0.000000 0.000000
# 2 0.000242 0.014284 -0.006105 0.000000 0.000000 0.000000
# 3 -0.000431 -0.006105 0.009405 0.000000 0.000000 0.000000
# 4 0.000000 0.000000 0.000000 0.009801 0.000000 0.000000
# 5 0.000000 0.000000 0.000000 0.000000 -0.022465 0.000000
# 6 0.000000 0.000000 0.000000 0.000000 0.000000 0.083790
#
#
# Mechanical properties :
#
#
# Convention : Reuss Voigt Hill
#
# Bulk Modulus (GPa) = 39.22838 49.64576 44.43707
# Shear Modulus (GPa) = 38.37566 30.37558 34.37562
#
# Velocity S-wave (km/s) = 4.38948 3.90524 4.15442
# Velocity P-wave (km/s) = 6.73689 6.72759 6.73224
#
# Compressibility (1/GPa) = 0.02549175
#
# Stress axis : x y z
#
# Youngs Moduli (GPa) = 69.49224 70.00640 106.32416
#
# Poissons Ratio (x) = -0.01696 0.04583
# Poissons Ratio (y) = -0.01684 0.64914
# Poissons Ratio (z) = 0.02995 0.42741
#
# Static dielectric constant tensor:
#      x y z
#    x 1.778800 0.000000 0.000000 
#    y 0.000000 1.683580 0.000000 
#    z 0.000000 0.000000 1.737220 
# 
# From -- ./inp_files/11869.got.cif
#   From: 2010.05.17/outbox.cif.g08.bks.cpg/sg47_6_cif.got.tgz:11869.got - 2010.06.03 20:15:42.
