data_PCOD9381540
_publ_section_title
;
Structure prediction by ZEFSAII (Michael W. Deem and Ramdas Pophale) SiO2 
 PCOD9381540
Probable space group: P M M M
;
_chemical_formula_sum "Si O2"
_cell_formula_units_Z 64
_cell_length_a 20.662096
_cell_length_b 7.669496
_cell_length_c 20.737016
_cell_angle_alpha 90.000000
_cell_angle_beta 90.000000
_cell_angle_gamma 90.000000
_cell_volume 3286.150603
_symmetry_space_group_name_H-M "P M M M"
_symmetry_group_IT_number 47
_symmetry_cell_setting 'orthorhombic'
loop_
_space_group_symop_operation_xyz
x,y,z
-x,-y,z
x,-y,-z
-x,y,-z
-x,-y,-z
x,y,-z
-x,y,z
x,-y,z
loop_
_atom_site_type_symbol
_atom_site_label
_atom_site_fract_x
_atom_site_fract_y
_atom_site_fract_z
Si Si1 0.252665 0.203304 0.205623
Si Si2 0.400184 0.298743 0.789283
Si Si3 0.397034 0.710692 0.929940
Si Si4 0.570755 0.288561 0.647594
Si Si5 0.700767 0.795152 0.573457
Si Si6 0.815286 0.699798 0.665941
Si Si7 0.074594 0.713108 0.427229
Si Si8 0.243408 0.791713 0.931575
O O1 0.321812 0.295101 0.215317
O O2 0.207547 0.217468 0.267432
O O3 0.221042 0.269508 0.138818
O O4 0.269473 0.000000 0.196770
O O5 0.421552 0.500000 0.790190
O O6 0.419722 0.224052 0.859536
O O7 0.423666 0.222935 0.721569
O O8 0.404299 0.500000 0.929173
O O9 0.320509 0.754196 0.930716
O O10 0.422786 0.771734 0.000000
O O11 0.500000 0.240468 0.621863
O O12 0.574847 0.500000 0.649571
O O13 0.630537 0.226201 0.605354
O O14 0.701308 0.730455 0.500000
O O15 0.754239 0.705642 0.617769
O O16 0.716672 0.000000 0.573244
O O17 0.830806 0.500000 0.681189
O O18 0.875721 0.776615 0.626672
O O19 0.093304 0.767546 0.500000
O O20 0.076921 0.500000 0.427025
O O21 0.000000 0.763073 0.416238
O O22 0.233459 0.000000 0.933580
O O23 0.218453 0.719508 0.000000
#
# Coordination Sequence:
#
# PCOD9381540 Si02
#       8
#     8   8   8   8   8   8   8   8
#     4  10  18  27  43  67  96 127 158 195 237 279
#     4   9  16  28  45  64  88 119 155 193 234 281
#     4   8  13  21  36  59  85 113 146 184 226 272
#     4  10  21  36  53  71  91 120 159 202 245 291
#     4  11  24  39  54  73  96 121 152 195 245 292
#     4  11  20  31  51  77 103 130 159 192 232 279
#     4   8  15  29  49  73  99 127 161 197 229 267
#     4   8  14  24  37  56  85 121 158 192 228 272
#
# _framework density 19.475674000000001
#
# number of rings (size 3 to 8) (size 9 to 14) (size 15 to 20)
#    0.000    2.625    1.250    1.875    0.000    2.500 
#    0.000    1.250    0.000    1.875    0.000    7.000 
#    0.000    0.500    0.000   27.625    0.000   10.750 
#
# Total GULP energy -356729.593415 kJ/mol
# GULP energy per Si atom -5573.899897 kJ/mol
# Density = 1.943135 g / cm^3
# Si number density = 19.475674 Si / 1000 Ang^3
#
#
#
# Elastic Constant Matrix: (Units=GPa)
#
#
# Indices 1 2 3 4 5 6 
#
# 1 64.2560 -4.3781 46.9308 0.0000 0.0000 0.0000
# 2 -4.3781 40.7890 -0.5223 0.0000 0.0000 0.0000
# 3 46.9308 -0.5223 162.0752 0.0000 0.0000 0.0000
# 4 0.0000 0.0000 0.0000 9.4572 0.0000 0.0000
# 5 0.0000 0.0000 0.0000 0.0000 59.2113 0.0000
# 6 0.0000 0.0000 0.0000 0.0000 0.0000 -41.5965
#
#
#
# Elastic Compliance Matrix: (Units=1/GPa)
#
#
# Indices 1 2 3 4 5 6 
#
# 1 0.019909 0.002063 -0.005758 0.000000 0.000000 0.000000
# 2 0.002063 0.024731 -0.000518 0.000000 0.000000 0.000000
# 3 -0.005758 -0.000518 0.007836 0.000000 0.000000 0.000000
# 4 0.000000 0.000000 0.000000 0.105739 0.000000 0.000000
# 5 0.000000 0.000000 0.000000 0.000000 0.016889 0.000000
# 6 0.000000 0.000000 0.000000 0.000000 0.000000 -0.024040
#
#
# Mechanical properties :
#
#
# Convention : Reuss Voigt Hill
#
# Bulk Modulus (GPa) = 22.70129 39.02013 30.86071
# Shear Modulus (GPa) = 28.70720 20.42040 24.56380
#
# Velocity S-wave (km/s) = 3.84344 3.24158 3.55527
# Velocity P-wave (km/s) = 5.60157 5.83860 5.72131
#
# Compressibility (1/GPa) = 0.04405036
#
# Stress axis : x y z
#
# Youngs Moduli (GPa) = 50.22860 40.43472 127.62148
#
# Poissons Ratio (x) = -0.08343 0.73487
# Poissons Ratio (y) = -0.10363 0.06607
# Poissons Ratio (z) = 0.28923 0.02093
#
# Static dielectric constant tensor:
#      x y z
#    x 1.643140 0.000000 0.000000 
#    y 0.000000 1.787920 0.000000 
#    z 0.000000 0.000000 1.749230 
# 
# From -- ./inp_files/31503.got.cif
#   From: 2010.05.17/outbox.cif.g08.bks.cpg/sg47_16_cif.got.tgz:31503.got - 2010.06.03 20:15:42.
