data_PCOD9381442
_publ_section_title
;
Structure prediction by ZEFSAII (Michael W. Deem and Ramdas Pophale) SiO2 
 PCOD9381442
Probable space group: P M M M
;
_chemical_formula_sum "Si O2"
_cell_formula_units_Z 40
_cell_length_a 16.180245
_cell_length_b 9.373629
_cell_length_c 15.269168
_cell_angle_alpha 90.000000
_cell_angle_beta 90.000000
_cell_angle_gamma 90.000000
_cell_volume 2315.838275
_symmetry_space_group_name_H-M "P M M M"
_symmetry_group_IT_number 47
_symmetry_cell_setting 'orthorhombic'
loop_
_space_group_symop_operation_xyz
x,y,z
-x,-y,z
x,-y,-z
-x,y,-z
-x,-y,-z
x,y,-z
-x,y,z
x,-y,z
loop_
_atom_site_type_symbol
_atom_site_label
_atom_site_fract_x
_atom_site_fract_y
_atom_site_fract_z
Si Si1 0.315866 0.826513 0.401276
Si Si2 0.355063 0.156820 0.904934
Si Si3 0.211313 0.165002 0.763863
Si Si4 0.098806 0.330551 0.100036
Si Si5 0.500000 0.666289 0.844904
Si Si6 0.500000 0.827737 0.661317
O O1 0.294285 0.782902 0.500000
O O2 0.249549 0.778616 0.327924
O O3 0.412008 0.786554 0.382450
O O4 0.314786 0.000000 0.396993
O O5 0.290504 0.163915 0.827525
O O6 0.420003 0.281950 0.896462
O O7 0.396499 0.000000 0.898999
O O8 0.313879 0.163592 0.000000
O O9 0.144289 0.251744 0.820053
O O10 0.183980 0.000000 0.751849
O O11 0.116337 0.500000 0.105164
O O12 0.000000 0.311490 0.107306
O O13 0.121858 0.283932 0.000000
O O14 0.500000 0.500000 0.827711
O O15 0.500000 0.756214 0.755760
O O16 0.500000 0.000000 0.667356
#
# Coordination Sequence:
#
# PCOD9381442 Si02
#       6
#     8   8   8   8   4   4
#     4   9  17  30  53  81 103 129 171 219 261 303
#     4  10  20  34  50  68  95 133 172 209 254 305
#     4  10  19  32  53  80 106 129 163 212 260 305
#     4   9  19  36  56  78 106 139 171 203 245 301
#     4  12  23  32  45  67  98 134 174 214 252 297
#     4  10  17  33  55  71  96 135 178 218 260 301
#
# _framework density 17.272364
#
# number of rings (size 3 to 8) (size 9 to 14) (size 15 to 20)
#    0.000    2.200    2.000    2.700    0.000    5.200 
#    0.000    1.000    0.000    3.600    0.000    4.200 
#    0.000    0.000    0.000    0.000    0.000    0.000 
#
# Total GULP energy -222778.747220 kJ/mol
# GULP energy per Si atom -5569.468681 kJ/mol
# Density = 1.723305 g / cm^3
# Si number density = 17.272364 Si / 1000 Ang^3
#
#
#
# Elastic Constant Matrix: (Units=GPa)
#
#
# Indices 1 2 3 4 5 6 
#
# 1 68.2683 31.2744 49.2216 0.0000 0.0000 0.0000
# 2 31.2744 30.7878 27.0630 0.0000 0.0000 0.0000
# 3 49.2216 27.0630 158.8619 0.0000 0.0000 0.0000
# 4 0.0000 0.0000 0.0000 13.4890 0.0000 0.0000
# 5 0.0000 0.0000 0.0000 0.0000 13.3426 0.0000
# 6 0.0000 0.0000 0.0000 0.0000 0.0000 43.7537
#
#
#
# Elastic Compliance Matrix: (Units=1/GPa)
#
#
# Indices 1 2 3 4 5 6 
#
# 1 0.030300 -0.026494 -0.004875 0.000000 0.000000 0.000000
# 2 -0.026494 0.061367 -0.002245 0.000000 0.000000 0.000000
# 3 -0.004875 -0.002245 0.008188 0.000000 0.000000 0.000000
# 4 0.000000 0.000000 0.000000 0.074134 0.000000 0.000000
# 5 0.000000 0.000000 0.000000 0.000000 0.074948 0.000000
# 6 0.000000 0.000000 0.000000 0.000000 0.000000 0.022855
#
#
# Mechanical properties :
#
#
# Convention : Reuss Voigt Hill
#
# Bulk Modulus (GPa) = 30.64995 52.55954 41.60475
# Shear Modulus (GPa) = 14.29001 24.14099 19.21550
#
# Velocity S-wave (km/s) = 2.87946 3.74259 3.33903
# Velocity P-wave (km/s) = 5.37017 7.01227 6.24542
#
# Compressibility (1/GPa) = 0.03262648
#
# Stress axis : x y z
#
# Youngs Moduli (GPa) = 33.00348 16.29552 122.13501
#
# Poissons Ratio (x) = 0.43173 0.59537
# Poissons Ratio (y) = 0.87439 0.27423
# Poissons Ratio (z) = 0.16088 0.03659
#
# Static dielectric constant tensor:
#      x y z
#    x 1.590890 0.000000 0.000000 
#    y 0.000000 1.591990 0.000000 
#    z 0.000000 0.000000 1.605540 
# 
# From -- ./inp_files/5788.got.cif
#   From: 2010.05.17/outbox.cif.g08.bks.cpg/sg47_3_cif.got.tgz:5788.got - 2010.06.03 20:15:42.
