data_PCOD9381143
_publ_section_title
;
Structure prediction by ZEFSAII (Michael W. Deem and Ramdas Pophale) SiO2 
 PCOD9381143
Probable space group: I M A 2
;
_chemical_formula_sum "Si O2"
_cell_formula_units_Z 32
_cell_length_a 9.000000
_cell_length_b 15.000000
_cell_length_c 24.000000
_cell_angle_alpha 90.000000
_cell_angle_beta 90.000000
_cell_angle_gamma 90.000000
_cell_volume 3240.000000
_symmetry_space_group_name_H-M "I M A 2"
_symmetry_group_IT_number 46
_symmetry_cell_setting 'orthorhombic'
loop_
_space_group_symop_operation_xyz
x,y,z
-x,-y,z
1/2-x,y,z
1/2+x,-y,z
1/2+x,1/2+y,1/2+z
1/2-x,1/2-y,1/2+z
-x,1/2+y,1/2+z
x,1/2-y,1/2+z
loop_
_atom_site_type_symbol
_atom_site_label
_atom_site_fract_x
_atom_site_fract_y
_atom_site_fract_z
Si Si1 0.427488 0.594703 0.733220
Si Si2 0.428387 0.911919 0.757732
Si Si3 0.072182 0.143820 0.873044
Si Si4 0.930095 0.262213 0.168166
Si Si5 0.576755 0.085448 0.988019
Si Si6 0.925064 0.275822 0.042966
Si Si7 0.572155 0.335957 0.858134
Si Si8 0.426467 0.086436 0.463395
O O1 0.500000 0.500000 0.726145
O O2 0.250000 0.587316 0.728150
O O3 0.483174 0.665962 0.688276
O O4 0.456074 0.631332 0.795560
O O5 0.250000 0.917288 0.763001
O O6 0.501402 0.899745 0.818147
O O7 0.466948 0.830629 0.717164
O O8 0.500000 0.000000 0.732348
O O9 0.250000 0.137709 0.872248
O O10 0.006784 0.103880 0.929804
O O11 0.014942 0.245009 0.869443
O O12 0.750000 0.258708 0.165917
O O13 0.976408 0.288736 0.106382
O O14 0.750000 0.068644 0.976410
O O15 0.500000 0.000000 0.014850
O O16 0.566531 0.172390 0.026282
O O17 0.750000 0.302267 0.036930
O O18 0.026173 0.329941 0.000526
O O19 0.750000 0.322874 0.865007
O O20 0.508622 0.402122 0.904262
O O21 0.250000 0.079127 0.457103
O O22 0.500000 0.000000 0.491082
#
# Coordination Sequence:
#
# PCOD9381143 Si02
#       8
#     8   8   8   8   8   8   8   8
#     4  10  21  38  61  90 123 159 198 243 296 356
#     4  11  22  40  63  89 123 159 201 250 304 364
#     4  12  23  37  61  92 125 158 200 247 304 369
#     4   9  20  41  64  86 118 162 205 250 305 360
#     4  11  23  39  62  90 124 162 204 250 305 363
#     4  10  22  42  66  88 118 162 209 256 307 360
#     4  11  21  38  63  91 125 162 199 244 306 364
#     4  12  25  41  63  92 126 162 204 251 304 365
#
# _framework density 9.8765429999999999
#
# number of rings (size 3 to 8) (size 9 to 14) (size 15 to 20)
#    0.000    1.250    2.500    4.125    0.000    3.500 
#    0.000    3.125    0.000    0.000    0.000    0.000 
#    0.000    0.000    0.000    0.000    0.000    0.000 
#
# Total GULP energy -178796.976572 kJ/mol
# GULP energy per Si atom -5587.405518 kJ/mol
# Density = 0.985406 g / cm^3
# Si number density = 9.876543 Si / 1000 Ang^3
#
#
#
# Elastic Constant Matrix: (Units=GPa)
#
#
# Indices 1 2 3 4 5 6 
#
# 1 80.1291 18.4427 12.6511 0.0000 0.0000 0.0000
# 2 18.4427 79.7942 -12.8382 0.0000 0.0000 0.0000
# 3 12.6511 -12.8382 50.6185 0.0000 0.0000 0.0000
# 4 0.0000 0.0000 0.0000 -34.4732 0.0000 0.0000
# 5 0.0000 0.0000 0.0000 0.0000 -17.6633 0.0000
# 6 0.0000 0.0000 0.0000 0.0000 0.0000 32.7611
#
#
#
# Elastic Compliance Matrix: (Units=1/GPa)
#
#
# Indices 1 2 3 4 5 6 
#
# 1 0.014116 -0.003993 -0.004541 0.000000 0.000000 0.000000
# 2 -0.003993 0.014195 0.004598 0.000000 0.000000 0.000000
# 3 -0.004541 0.004598 0.022057 0.000000 0.000000 0.000000
# 4 0.000000 0.000000 0.000000 -0.029008 0.000000 0.000000
# 5 0.000000 0.000000 0.000000 0.000000 -0.056615 0.000000
# 6 0.000000 0.000000 0.000000 0.000000 0.000000 0.030524
#
#
# Mechanical properties :
#
#
# Convention : Reuss Voigt Hill
#
# Bulk Modulus (GPa) = 23.53149 27.45033 25.49091
# Shear Modulus (GPa) = 288.92526 8.94401 148.93464
#
# Velocity S-wave (km/s) = 12.10727 2.13020 8.69263
# Velocity P-wave (km/s) = 14.40092 4.46959 10.66217
#
# Compressibility (1/GPa) = 0.04249625
#
# Stress axis : x y z
#
# Youngs Moduli (GPa) = 70.84245 70.44747 45.33768
#
# Poissons Ratio (x) = 0.28131 0.20587
# Poissons Ratio (y) = 0.28288 -0.20847
# Poissons Ratio (z) = 0.32168 -0.32393
#
# Static dielectric constant tensor:
#      x y z
#    x 1.667890 0.000000 0.000000 
#    y 0.000000 1.897130 0.000000 
#    z 0.000000 0.000000 1.699460 
# 
# From -- ./inp_files/23134.got.cif
#   From: 2010.05.17/outbox.ucp.g08.bks.cvg/sg46_12_cif.got.tgz:23134.got - 2010.06.11 16:34:52.
