data_PCOD9381961
_publ_section_title
;
Structure prediction by ZEFSAII (Michael W. Deem and Ramdas Pophale) SiO2 
 PCOD9381961
Probable space group: P M M M
;
_chemical_formula_sum "Si O2"
_cell_formula_units_Z 52
_cell_length_a 20.247415
_cell_length_b 7.540556
_cell_length_c 15.945821
_cell_angle_alpha 90.000000
_cell_angle_beta 90.000000
_cell_angle_gamma 90.000000
_cell_volume 2434.556392
_symmetry_space_group_name_H-M "P M M M"
_symmetry_group_IT_number 47
_symmetry_cell_setting 'orthorhombic'
loop_
_space_group_symop_operation_xyz
x,y,z
-x,-y,z
x,-y,-z
-x,y,-z
-x,-y,-z
x,y,-z
-x,y,z
x,-y,z
loop_
_atom_site_type_symbol
_atom_site_label
_atom_site_fract_x
_atom_site_fract_y
_atom_site_fract_z
Si Si1 0.075178 0.795951 0.867972
Si Si2 0.000000 0.284516 0.591039
Si Si3 0.313783 0.206948 0.769979
Si Si4 0.576187 0.713925 0.905868
Si Si5 0.869875 0.715451 0.687203
Si Si6 0.214447 0.217785 0.910355
Si Si7 0.263671 0.290272 0.596400
O O1 0.106492 0.791975 0.775356
O O2 0.138898 0.716807 0.913404
O O3 0.000000 0.721245 0.870838
O O4 0.069034 0.000000 0.895590
O O5 0.932145 0.234287 0.632065
O O6 0.000000 0.500000 0.590591
O O7 0.000000 0.211834 0.500000
O O8 0.377427 0.230153 0.829259
O O9 0.254289 0.282867 0.828612
O O10 0.315900 0.271117 0.673473
O O11 0.300767 0.000000 0.762049
O O12 0.500000 0.768424 0.893073
O O13 0.577711 0.500000 0.907582
O O14 0.596006 0.775991 0.000000
O O15 0.866059 0.500000 0.695948
O O16 0.803468 0.778249 0.641141
O O17 0.213523 0.000000 0.906359
O O18 0.246357 0.265430 0.000000
O O19 0.275389 0.222801 0.500000
O O20 0.254190 0.500000 0.586676
#
# Coordination Sequence:
#
# PCOD9381961 Si02
#       7
#     8   4   8   8   8   8   8
#     4  10  19  31  48  68  95 132 175 223 274 327
#     4   9  16  26  43  67  90 117 160 214 273 333
#     4  11  21  34  56  84 116 150 182 225 277 326
#     4   9  19  37  61  90 124 158 188 219 260 314
#     4  10  18  30  49  70  93 125 168 221 278 332
#     4   9  18  32  49  72 102 136 177 222 268 320
#     4  10  21  36  54  77 105 140 185 232 277 331
#
# _framework density 21.359127999999998
#
# number of rings (size 3 to 8) (size 9 to 14) (size 15 to 20)
#    0.000    2.231    2.308    1.846    0.000    3.692 
#    0.000    2.308    0.000    3.692    0.000    4.308 
#    0.000    0.000    0.000    0.000    0.000    0.000 
#
# Total GULP energy -289611.277855 kJ/mol
# GULP energy per Si atom -5569.447651 kJ/mol
# Density = 2.131051 g / cm^3
# Si number density = 21.359128 Si / 1000 Ang^3
#
#
#
# Elastic Constant Matrix: (Units=GPa)
#
#
# Indices 1 2 3 4 5 6 
#
# 1 114.5159 0.3150 60.7359 0.0000 0.0000 0.0000
# 2 0.3150 57.2641 6.7993 0.0000 0.0000 0.0000
# 3 60.7359 6.7993 191.9765 0.0000 0.0000 0.0000
# 4 0.0000 0.0000 0.0000 -0.9721 0.0000 0.0000
# 5 0.0000 0.0000 0.0000 0.0000 36.9401 0.0000
# 6 0.0000 0.0000 0.0000 0.0000 0.0000 11.0264
#
#
#
# Elastic Compliance Matrix: (Units=1/GPa)
#
#
# Indices 1 2 3 4 5 6 
#
# 1 0.010500 0.000338 -0.003334 0.000000 0.000000 0.000000
# 2 0.000338 0.017548 -0.000728 0.000000 0.000000 0.000000
# 3 -0.003334 -0.000728 0.006289 0.000000 0.000000 0.000000
# 4 0.000000 0.000000 0.000000 -1.028745 0.000000 0.000000
# 5 0.000000 0.000000 0.000000 0.000000 0.027071 0.000000
# 6 0.000000 0.000000 0.000000 0.000000 0.000000 0.090692
#
#
# Mechanical properties :
#
#
# Convention : Reuss Voigt Hill
#
# Bulk Modulus (GPa) = 37.19072 55.49519 46.34296
# Shear Modulus (GPa) = -5.81237 29.12599 11.65681
#
# Velocity S-wave (km/s) = -1.65141 3.69674 2.33867
# Velocity P-wave (km/s) = 3.71668 6.65279 5.38857
#
# Compressibility (1/GPa) = 0.02688843
#
# Stress axis : x y z
#
# Youngs Moduli (GPa) = 95.24172 56.98793 158.99587
#
# Poissons Ratio (x) = -0.01927 0.53005
# Poissons Ratio (y) = -0.03220 0.11582
# Poissons Ratio (z) = 0.31751 0.04151
#
# Static dielectric constant tensor:
#      x y z
#    x 1.763120 0.000000 0.000000 
#    y 0.000000 1.811510 0.000000 
#    z 0.000000 0.000000 1.911550 
# 
# From -- ./inp_files/10981.got.cif
#   From: 2010.05.17/outbox.cif.g08.bks.cpg/sg47_6_cif.got.tgz:10981.got - 2010.06.03 20:15:42.
