data_PCOD9381465
_publ_section_title
;
Structure prediction by ZEFSAII (Michael W. Deem and Ramdas Pophale) SiO2 
 PCOD9381465
Probable space group: P M M M
;
_chemical_formula_sum "Si O2"
_cell_formula_units_Z 52
_cell_length_a 7.739546
_cell_length_b 27.698260
_cell_length_c 14.168917
_cell_angle_alpha 90.000000
_cell_angle_beta 90.000000
_cell_angle_gamma 90.000000
_cell_volume 3037.418471
_symmetry_space_group_name_H-M "P M M M"
_symmetry_group_IT_number 47
_symmetry_cell_setting 'orthorhombic'
loop_
_space_group_symop_operation_xyz
x,y,z
-x,-y,z
x,-y,-z
-x,y,-z
-x,-y,-z
x,y,-z
-x,y,z
x,-y,z
loop_
_atom_site_type_symbol
_atom_site_label
_atom_site_fract_x
_atom_site_fract_y
_atom_site_fract_z
Si Si1 0.211328 0.342978 0.610279
Si Si2 0.204570 0.244297 0.701383
Si Si3 0.703862 0.855358 0.395005
Si Si4 0.709002 0.197559 0.105369
Si Si5 0.794903 0.000000 0.106725
Si Si6 0.792420 0.551938 0.386487
Si Si7 0.707395 0.899802 0.795287
O O1 0.259012 0.337666 0.500000
O O2 0.270604 0.296230 0.667454
O O3 0.271792 0.395641 0.646371
O O4 0.000000 0.343941 0.613005
O O5 0.279900 0.199608 0.641892
O O6 0.237148 0.233299 0.811150
O O7 0.000000 0.243192 0.684237
O O8 0.778822 0.860715 0.500000
O O9 0.500000 0.866020 0.401688
O O10 0.775442 0.888515 0.310155
O O11 0.500000 0.197137 0.103858
O O12 0.768151 0.144006 0.137576
O O13 0.770263 0.208944 0.000000
O O14 0.745907 0.951722 0.162480
O O15 0.000000 0.000000 0.099029
O O16 0.721195 0.000000 0.000000
O O17 0.767462 0.552418 0.500000
O O18 0.724116 0.500000 0.351400
O O19 0.000000 0.551353 0.371373
O O20 0.500000 0.895303 0.790916
#
# Coordination Sequence:
#
# PCOD9381465 Si02
#       7
#     8   8   8   8   4   8   8
#     4   8  13  20  30  49  80 113 141 169 202 242
#     4  10  18  26  40  64  91 115 139 170 211 258
#     4   9  18  33  50  66  87 116 149 180 205 236
#     4   9  18  33  50  65  83 109 141 175 209 247
#     4  11  23  35  48  69  94 114 133 165 210 255
#     4   7   9  14  25  41  65 102 143 174 199 232
#     4   9  18  33  52  70  85 107 140 172 203 241
#
# _framework density 17.119802
#
# number of rings (size 3 to 8) (size 9 to 14) (size 15 to 20)
#    0.000    3.154    0.000    3.923    0.000    4.923 
#    0.000    0.385    0.000    2.308    0.000    0.000 
#    0.000    3.077    0.000   25.077    0.000   15.692 
#
# Total GULP energy -289552.002956 kJ/mol
# GULP energy per Si atom -5568.307749 kJ/mol
# Density = 1.708084 g / cm^3
# Si number density = 17.119802 Si / 1000 Ang^3
#
#
#
# Elastic Constant Matrix: (Units=GPa)
#
#
# Indices 1 2 3 4 5 6 
#
# 1 21.9104 -4.7213 1.3008 0.0000 0.0000 0.0000
# 2 -4.7213 162.7963 73.7271 0.0000 0.0000 0.0000
# 3 1.3008 73.7271 115.3628 0.0000 0.0000 0.0000
# 4 0.0000 0.0000 0.0000 16.6878 0.0000 0.0000
# 5 0.0000 0.0000 0.0000 0.0000 11.8216 0.0000
# 6 0.0000 0.0000 0.0000 0.0000 0.0000 18.1892
#
#
#
# Elastic Compliance Matrix: (Units=1/GPa)
#
#
# Indices 1 2 3 4 5 6 
#
# 1 0.046234 0.002219 -0.001940 0.000000 0.000000 0.000000
# 2 0.002219 0.008751 -0.005618 0.000000 0.000000 0.000000
# 3 -0.001940 -0.005618 0.012280 0.000000 0.000000 0.000000
# 4 0.000000 0.000000 0.000000 0.059924 0.000000 0.000000
# 5 0.000000 0.000000 0.000000 0.000000 0.084591 0.000000
# 6 0.000000 0.000000 0.000000 0.000000 0.000000 0.054978
#
#
# Mechanical properties :
#
#
# Convention : Reuss Voigt Hill
#
# Bulk Modulus (GPa) = 17.67126 48.96475 33.31800
# Shear Modulus (GPa) = 16.87493 24.65723 20.76608
#
# Velocity S-wave (km/s) = 3.14299 3.79921 3.48657
# Velocity P-wave (km/s) = 4.84930 6.92161 5.97597
#
# Compressibility (1/GPa) = 0.05658905
#
# Stress axis : x y z
#
# Youngs Moduli (GPa) = 21.62922 114.26993 81.43008
#
# Poissons Ratio (x) = -0.25359 0.15794
# Poissons Ratio (y) = -0.04800 0.45746
# Poissons Ratio (z) = 0.04195 0.64195
#
# Static dielectric constant tensor:
#      x y z
#    x 1.639930 0.000000 0.000000 
#    y 0.000000 1.608240 0.000000 
#    z 0.000000 0.000000 1.582890 
# 
# From -- ./inp_files/21742.got.cif
#   From: 2010.05.17/outbox.cif.g08.bks.cpg/sg47_11_cif.got.tgz:21742.got - 2010.06.03 20:15:42.
