data_PCOD9381195
_publ_section_title
;
Structure prediction by ZEFSAII (Michael W. Deem and Ramdas Pophale) SiO2 
 PCOD9381195
Probable space group: P M M M
;
_chemical_formula_sum "Si O2"
_cell_formula_units_Z 64
_cell_length_a 30.188467
_cell_length_b 7.398928
_cell_length_c 15.143046
_cell_angle_alpha 90.000000
_cell_angle_beta 90.000000
_cell_angle_gamma 90.000000
_cell_volume 3382.385489
_symmetry_space_group_name_H-M "P M M M"
_symmetry_group_IT_number 47
_symmetry_cell_setting 'orthorhombic'
loop_
_space_group_symop_operation_xyz
x,y,z
-x,-y,z
x,-y,-z
-x,y,-z
-x,-y,-z
x,y,-z
-x,y,z
x,-y,z
loop_
_atom_site_type_symbol
_atom_site_label
_atom_site_fract_x
_atom_site_fract_y
_atom_site_fract_z
Si Si1 0.870477 0.716127 0.599590
Si Si2 0.048600 0.784614 0.729683
Si Si3 0.547541 0.717437 0.105385
Si Si4 0.277822 0.707769 0.229945
Si Si5 0.198430 0.781738 0.898864
Si Si6 0.097090 0.779474 0.099478
Si Si7 0.228797 0.720915 0.602105
Si Si8 0.645246 0.721483 0.897303
O O1 0.878649 0.782623 0.500000
O O2 0.867213 0.500000 0.595593
O O3 0.911365 0.755783 0.662299
O O4 0.821365 0.779360 0.627334
O O5 0.064232 0.715199 0.825048
O O6 0.000000 0.715531 0.703183
O O7 0.044985 0.000000 0.737988
O O8 0.500000 0.785027 0.140709
O O9 0.547248 0.500000 0.116663
O O10 0.596144 0.779492 0.134217
O O11 0.547276 0.750982 0.000000
O O12 0.290748 0.500000 0.246557
O O13 0.233785 0.710335 0.169880
O O14 0.263485 0.785884 0.324581
O O15 0.316801 0.785966 0.169170
O O16 0.147832 0.726252 0.880003
O O17 0.199912 0.000000 0.895539
O O18 0.208943 0.728022 0.000000
O O19 0.096791 0.000000 0.099349
O O20 0.086331 0.722109 0.000000
O O21 0.236697 0.772827 0.500000
O O22 0.229414 0.500000 0.604323
O O23 0.645932 0.500000 0.898912
O O24 0.652326 0.776332 0.000000
#
# Coordination Sequence:
#
# PCOD9381195 Si02
#       8
#     8   8   8   8   8   8   8   8
#     4   9  18  33  50  63  77 102 132 156 183 227
#     4  10  20  31  45  67  88 102 121 155 195 226
#     4   7   9  14  24  37  59  96 132 155 182 221
#     4  10  17  24  39  60  80 102 126 158 200 234
#     4   9  17  28  41  57  79 107 133 154 180 220
#     4   8  15  29  46  61  79 105 134 158 180 214
#     4   8  15  28  44  61  79  99 127 161 192 226
#     4   8  13  19  27  46  76 101 123 156 193 226
#
# _framework density 18.921557
#
# number of rings (size 3 to 8) (size 9 to 14) (size 15 to 20)
#    0.000    3.375    0.000    3.750    0.000    1.750 
#    0.000    2.500    0.000    2.250    0.000    0.875 
#    0.000    1.000    0.000   11.625    0.000    4.000 
#
# Total GULP energy -356686.512676 kJ/mol
# GULP energy per Si atom -5573.226761 kJ/mol
# Density = 1.887849 g / cm^3
# Si number density = 18.921557 Si / 1000 Ang^3
#
#
#
# Elastic Constant Matrix: (Units=GPa)
#
#
# Indices 1 2 3 4 5 6 
#
# 1 137.6088 8.0917 94.4100 0.0000 0.0000 0.0000
# 2 8.0917 60.9828 3.1587 0.0000 0.0000 0.0000
# 3 94.4100 3.1587 97.3121 0.0000 0.0000 0.0000
# 4 0.0000 0.0000 0.0000 3.3218 0.0000 0.0000
# 5 0.0000 0.0000 0.0000 0.0000 32.5655 0.0000
# 6 0.0000 0.0000 0.0000 0.0000 0.0000 18.7159
#
#
#
# Elastic Compliance Matrix: (Units=1/GPa)
#
#
# Indices 1 2 3 4 5 6 
#
# 1 0.021930 -0.001811 -0.021217 0.000000 0.000000 0.000000
# 2 -0.001811 0.016575 0.001219 0.000000 0.000000 0.000000
# 3 -0.021217 0.001219 0.030821 0.000000 0.000000 0.000000
# 4 0.000000 0.000000 0.000000 0.301041 0.000000 0.000000
# 5 0.000000 0.000000 0.000000 0.000000 0.030707 0.000000
# 6 0.000000 0.000000 0.000000 0.000000 0.000000 0.053431
#
#
# Mechanical properties :
#
#
# Convention : Reuss Voigt Hill
#
# Bulk Modulus (GPa) = 38.89858 56.35826 47.62842
# Shear Modulus (GPa) = 9.86790 23.60352 16.73571
#
# Velocity S-wave (km/s) = 2.28615 3.53574 2.97724
# Velocity P-wave (km/s) = 5.25082 6.82045 6.08644
#
# Compressibility (1/GPa) = 0.02570788
#
# Stress axis : x y z
#
# Youngs Moduli (GPa) = 45.59916 60.33097 32.44506
#
# Poissons Ratio (x) = 0.10925 0.68840
# Poissons Ratio (y) = 0.08258 -0.03955
# Poissons Ratio (z) = 0.96750 -0.07354
#
# Static dielectric constant tensor:
#      x y z
#    x 1.689840 0.000000 0.000000 
#    y 0.000000 1.790600 0.000000 
#    z 0.000000 0.000000 1.645710 
# 
# From -- ./inp_files/25903.got.cif
#   From: 2010.05.17/outbox.cif.g08.bks.cpg/sg47_13_cif.got.tgz:25903.got - 2010.06.03 20:15:42.
