data_PCOD9381516
_publ_section_title
;
Structure prediction by ZEFSAII (Michael W. Deem and Ramdas Pophale) SiO2 
 PCOD9381516
Probable space group: P M M M
;
_chemical_formula_sum "Si O2"
_cell_formula_units_Z 56
_cell_length_a 18.838040
_cell_length_b 9.274620
_cell_length_c 21.508383
_cell_angle_alpha 90.000000
_cell_angle_beta 90.000000
_cell_angle_gamma 90.000000
_cell_volume 3757.851386
_symmetry_space_group_name_H-M "P M M M"
_symmetry_group_IT_number 47
_symmetry_cell_setting 'orthorhombic'
loop_
_space_group_symop_operation_xyz
x,y,z
-x,-y,z
x,-y,-z
-x,y,-z
-x,-y,-z
x,y,-z
-x,y,z
x,-y,z
loop_
_atom_site_type_symbol
_atom_site_label
_atom_site_fract_x
_atom_site_fract_y
_atom_site_fract_z
Si Si1 0.582598 0.673206 0.680236
Si Si2 0.164412 0.828741 0.181391
Si Si3 0.712266 0.335306 0.241887
Si Si4 0.083348 0.327470 0.928166
Si Si5 0.205089 0.334535 0.625492
Si Si6 0.665980 0.829107 0.428745
Si Si7 0.083059 0.827975 0.689624
O O1 0.500000 0.704088 0.690000
O O2 0.591130 0.500000 0.670996
O O3 0.633198 0.711401 0.738547
O O4 0.612899 0.754561 0.619958
O O5 0.241733 0.765299 0.197601
O O6 0.130811 0.754662 0.121376
O O7 0.114477 0.797012 0.241559
O O8 0.167251 0.000000 0.174115
O O9 0.711360 0.500000 0.218590
O O10 0.753703 0.336039 0.308080
O O11 0.091416 0.500000 0.920826
O O12 0.000000 0.293676 0.917914
O O13 0.100059 0.291766 0.000000
O O14 0.197388 0.500000 0.604976
O O15 0.257024 0.243390 0.581684
O O16 0.130678 0.258410 0.640375
O O17 0.643316 0.807785 0.500000
O O18 0.670460 0.000000 0.416278
O O19 0.000000 0.791917 0.686903
O O20 0.091290 0.000000 0.679605
#
# Coordination Sequence:
#
# PCOD9381516 Si02
#       7
#     8   8   8   8   8   8   8
#     4   9  18  32  49  69  92 116 142 174 212 252
#     4  10  18  27  42  64  88 114 147 183 214 249
#     4   8  15  28  44  62  85 113 142 172 210 254
#     4   9  18  31  44  59  84 120 157 189 222 258
#     4   9  17  29  45  63  82 107 141 180 219 256
#     4  10  20  32  46  64  86 114 146 175 207 254
#     4   9  17  28  42  62  88 114 139 173 220 268
#
# _framework density 14.902132
#
# number of rings (size 3 to 8) (size 9 to 14) (size 15 to 20)
#    0.000    2.857    0.000    3.000    0.000    7.143 
#    0.000    2.143    0.000    0.429    0.000    3.000 
#    0.000    0.571    0.000    6.571    0.000    1.857 
#
# Total GULP energy -311977.940862 kJ/mol
# GULP energy per Si atom -5571.034658 kJ/mol
# Density = 1.486821 g / cm^3
# Si number density = 14.902132 Si / 1000 Ang^3
#
#
#
# Elastic Constant Matrix: (Units=GPa)
#
#
# Indices 1 2 3 4 5 6 
#
# 1 126.9103 51.3930 41.9086 0.0000 0.0000 0.0000
# 2 51.3930 50.5163 33.9290 0.0000 0.0000 0.0000
# 3 41.9086 33.9290 47.7329 0.0000 0.0000 0.0000
# 4 0.0000 0.0000 0.0000 22.2093 0.0000 0.0000
# 5 0.0000 0.0000 0.0000 0.0000 17.9358 0.0000
# 6 0.0000 0.0000 0.0000 0.0000 0.0000 19.7659
#
#
#
# Elastic Compliance Matrix: (Units=1/GPa)
#
#
# Indices 1 2 3 4 5 6 
#
# 1 0.013805 -0.011298 -0.004090 0.000000 0.000000 0.000000
# 2 -0.011298 0.047125 -0.023578 0.000000 0.000000 0.000000
# 3 -0.004090 -0.023578 0.041301 0.000000 0.000000 0.000000
# 4 0.000000 0.000000 0.000000 0.045026 0.000000 0.000000
# 5 0.000000 0.000000 0.000000 0.000000 0.055754 0.000000
# 6 0.000000 0.000000 0.000000 0.000000 0.000000 0.050592
#
#
# Mechanical properties :
#
#
# Convention : Reuss Voigt Hill
#
# Bulk Modulus (GPa) = 41.15348 53.29119 47.22234
# Shear Modulus (GPa) = 14.72166 18.51081 16.61624
#
# Velocity S-wave (km/s) = 3.14648 3.52825 3.34282
# Velocity P-wave (km/s) = 6.39345 7.24130 6.83055
#
# Compressibility (1/GPa) = 0.02429928
#
# Stress axis : x y z
#
# Youngs Moduli (GPa) = 72.43565 21.22002 24.21275
#
# Poissons Ratio (x) = 0.23974 0.09904
# Poissons Ratio (y) = 0.81835 0.57089
# Poissons Ratio (z) = 0.29629 0.50032
#
# Static dielectric constant tensor:
#      x y z
#    x 1.497000 0.000000 0.000000 
#    y 0.000000 1.498600 0.000000 
#    z 0.000000 0.000000 1.471780 
# 
# From -- ./inp_files/9793.got.cif
#   From: 2010.05.17/outbox.cif.g08.bks.cpg/sg47_5_cif.got.tgz:9793.got - 2010.06.03 20:15:42.
