data_PCOD9381146
_publ_section_title
;
Structure prediction by ZEFSAII (Michael W. Deem and Ramdas Pophale) SiO2 
 PCOD9381146
Probable space group: I M A 2
;
_chemical_formula_sum "Si O2"
_cell_formula_units_Z 32
_cell_length_a 18.000000
_cell_length_b 15.000000
_cell_length_c 12.000000
_cell_angle_alpha 90.000000
_cell_angle_beta 90.000000
_cell_angle_gamma 90.000000
_cell_volume 3240.000000
_symmetry_space_group_name_H-M "I M A 2"
_symmetry_group_IT_number 46
_symmetry_cell_setting 'orthorhombic'
loop_
_space_group_symop_operation_xyz
x,y,z
-x,-y,z
1/2-x,y,z
1/2+x,-y,z
1/2+x,1/2+y,1/2+z
1/2-x,1/2-y,1/2+z
-x,1/2+y,1/2+z
x,1/2-y,1/2+z
loop_
_atom_site_type_symbol
_atom_site_label
_atom_site_fract_x
_atom_site_fract_y
_atom_site_fract_z
Si Si1 0.605948 0.659698 0.647150
Si Si2 0.430738 0.675989 0.646668
Si Si3 0.615889 0.855254 0.619122
Si Si4 0.090677 0.991165 0.003982
Si Si5 0.442143 0.627458 0.111153
Si Si6 0.663099 0.591312 0.874691
Si Si7 0.664558 0.491804 0.263005
Si Si8 0.432040 0.933004 0.358205
O O1 0.518800 0.672101 0.624688
O O2 0.640689 0.752996 0.613198
O O3 0.624103 0.572343 0.576463
O O4 0.623345 0.645894 0.776913
O O5 0.395305 0.599569 0.571519
O O6 0.406692 0.774841 0.619267
O O7 0.425666 0.649174 0.775477
O O8 0.528298 0.866548 0.649646
O O9 0.628617 0.892095 0.495536
O O10 0.661113 0.909780 0.710100
O O11 0.129301 0.990256 0.884994
O O12 0.000000 0.000000 0.993697
O O13 0.391021 0.563493 0.183860
O O14 0.445082 0.595619 0.984081
O O15 0.750000 0.608906 0.875420
O O16 0.642920 0.489388 0.848811
O O17 0.750000 0.460438 0.261847
O O18 0.500000 0.000000 0.323030
#
# Coordination Sequence:
#
# PCOD9381146 Si02
#       8
#     8   8   8   8   8   8   8   8
#     4  10  22  40  65  95 125 160 211 263 313 372
#     4  10  21  39  70  98 119 157 217 267 311 360
#     4  11  23  41  64  96 123 166 217 260 309 379
#     4  10  21  42  66  92 123 163 207 259 310 377
#     4  11  23  39  70  97 120 162 217 269 311 370
#     4  12  24  39  63  94 128 167 209 260 323 382
#     4  12  26  43  60  89 132 171 202 257 326 381
#     4  12  19  41  68  91 126 167 211 266 309 367
#
# _framework density 9.8765429999999999
#
# number of rings (size 3 to 8) (size 9 to 14) (size 15 to 20)
#    0.000    1.000    5.000    1.875    3.500    1.500 
#    0.000    1.250    0.000    0.000    0.000    0.000 
#    0.000    0.000    0.000    0.000    0.000    0.000 
#
# Total GULP energy -178595.522365 kJ/mol
# GULP energy per Si atom -5581.110074 kJ/mol
# Density = 0.985406 g / cm^3
# Si number density = 9.876543 Si / 1000 Ang^3
#
#
#
# Elastic Constant Matrix: (Units=GPa)
#
#
# Indices 1 2 3 4 5 6 
#
# 1 48.4979 18.8962 13.0805 0.0000 0.0000 0.0000
# 2 18.8962 105.2392 19.5184 0.0000 0.0000 0.0000
# 3 13.0805 19.5184 82.2947 0.0000 0.0000 0.0000
# 4 0.0000 0.0000 0.0000 3.7024 0.0000 0.0000
# 5 0.0000 0.0000 0.0000 0.0000 -14.3236 0.0000
# 6 0.0000 0.0000 0.0000 0.0000 0.0000 1.8265
#
#
#
# Elastic Compliance Matrix: (Units=1/GPa)
#
#
# Indices 1 2 3 4 5 6 
#
# 1 0.022759 -0.003573 -0.002770 0.000000 0.000000 0.000000
# 2 -0.003573 0.010500 -0.001923 0.000000 0.000000 0.000000
# 3 -0.002770 -0.001923 0.013048 0.000000 0.000000 0.000000
# 4 0.000000 0.000000 0.000000 0.270092 0.000000 0.000000
# 5 0.000000 0.000000 0.000000 0.000000 -0.069815 0.000000
# 6 0.000000 0.000000 0.000000 0.000000 0.000000 0.547503
#
#
# Mechanical properties :
#
#
# Convention : Reuss Voigt Hill
#
# Bulk Modulus (GPa) = 33.58408 37.66910 35.62659
# Shear Modulus (GPa) = 6.09353 10.54353 8.31853
#
# Velocity S-wave (km/s) = 1.75828 2.31284 2.05436
# Velocity P-wave (km/s) = 4.60010 5.12286 4.86850
#
# Compressibility (1/GPa) = 0.02977601
#
# Stress axis : x y z
#
# Youngs Moduli (GPa) = 43.93954 95.23616 76.64175
#
# Poissons Ratio (x) = 0.34025 0.21230
# Poissons Ratio (y) = 0.15698 0.14735
# Poissons Ratio (z) = 0.12171 0.18310
#
# Static dielectric constant tensor:
#      x y z
#    x 1.691540 0.000000 0.000000 
#    y 0.000000 1.740880 0.000000 
#    z 0.000000 0.000000 1.663960 
# 
# From -- ./inp_files/11942.got.cif
#   From: 2010.05.17/outbox.ucp.g08.bks.cvg/sg46_6_cif.got.tgz:11942.got - 2010.06.11 16:34:52.
