data_PCOD9381306
_publ_section_title
;
Structure prediction by ZEFSAII (Michael W. Deem and Ramdas Pophale) SiO2 
 PCOD9381306
Probable space group: P M M M
;
_chemical_formula_sum "Si O2"
_cell_formula_units_Z 64
_cell_length_a 14.769103
_cell_length_b 32.224861
_cell_length_c 8.574177
_cell_angle_alpha 90.000000
_cell_angle_beta 90.000000
_cell_angle_gamma 90.000000
_cell_volume 4080.727705
_symmetry_space_group_name_H-M "P M M M"
_symmetry_group_IT_number 47
_symmetry_cell_setting 'orthorhombic'
loop_
_space_group_symop_operation_xyz
x,y,z
-x,-y,z
x,-y,-z
-x,y,-z
-x,-y,-z
x,y,-z
-x,y,z
x,-y,z
loop_
_atom_site_type_symbol
_atom_site_label
_atom_site_fract_x
_atom_site_fract_y
_atom_site_fract_z
Si Si1 0.897681 0.256940 0.188085
Si Si2 0.390808 0.454739 0.684746
Si Si3 0.102091 0.160438 0.812005
Si Si4 0.283973 0.126077 0.311611
Si Si5 0.395517 0.207407 0.690279
Si Si6 0.395494 0.046766 0.690124
Si Si7 0.395021 0.633151 0.814148
Si Si8 0.285785 0.289087 0.313553
O O1 0.883593 0.208669 0.235224
O O2 0.816718 0.283907 0.255599
O O3 0.000000 0.268779 0.235620
O O4 0.894231 0.258279 0.000000
O O5 0.372503 0.451933 0.500000
O O6 0.500000 0.455476 0.703416
O O7 0.357305 0.500000 0.741033
O O8 0.360515 0.412575 0.766256
O O9 0.182025 0.132955 0.744252
O O10 0.000000 0.148607 0.764094
O O11 0.105534 0.159277 0.000000
O O12 0.285063 0.125966 0.500000
O O13 0.343291 0.165852 0.259664
O O14 0.330265 0.083511 0.256514
O O15 0.395675 0.207424 0.500000
O O16 0.500000 0.207727 0.740959
O O17 0.342292 0.248572 0.741796
O O18 0.394086 0.046945 0.500000
O O19 0.500000 0.054757 0.735284
O O20 0.370880 0.000000 0.739979
O O21 0.500000 0.637443 0.758839
O O22 0.334572 0.669626 0.745144
O O23 0.395439 0.636211 0.000000
O O24 0.286713 0.288794 0.500000
#
# Coordination Sequence:
#
# PCOD9381306 Si02
#       8
#     8   8   8   8   8   8   8   8
#     4   9  18  33  50  65  85 115 149 187 231 276
#     4   8  14  26  44  64  86 115 154 199 242 279
#     4   9  18  32  48  65  88 117 145 178 225 276
#     4  10  17  27  46  70  90 111 147 190 223 258
#     4   9  17  27  39  60  89 118 146 178 217 259
#     4   8  14  25  43  68  95 120 145 177 221 270
#     4  10  20  31  43  62  91 128 165 196 228 271
#     4  11  20  30  45  65  91 122 153 188 228 272
#
# _framework density 15.683477
#
# number of rings (size 3 to 8) (size 9 to 14) (size 15 to 20)
#    0.000    2.750    1.250    3.000    0.000    3.500 
#    0.000    2.500    0.000    3.000    0.000    3.500 
#    0.000    0.500    0.000    5.250    0.000    2.500 
#
# Total GULP energy -356619.345019 kJ/mol
# GULP energy per Si atom -5572.177266 kJ/mol
# Density = 1.564778 g / cm^3
# Si number density = 15.683477 Si / 1000 Ang^3
#
#
#
# Elastic Constant Matrix: (Units=GPa)
#
#
# Indices 1 2 3 4 5 6 
#
# 1 117.7082 84.2776 20.9269 0.0000 0.0000 0.0000
# 2 84.2776 139.2118 28.4854 0.0000 0.0000 0.0000
# 3 20.9269 28.4854 11.0964 0.0000 0.0000 0.0000
# 4 0.0000 0.0000 0.0000 12.3399 0.0000 0.0000
# 5 0.0000 0.0000 0.0000 0.0000 17.8720 0.0000
# 6 0.0000 0.0000 0.0000 0.0000 0.0000 9.1447
#
#
#
# Elastic Compliance Matrix: (Units=1/GPa)
#
#
# Indices 1 2 3 4 5 6 
#
# 1 0.015597 -0.007212 -0.010902 0.000000 0.000000 0.000000
# 2 -0.007212 0.018466 -0.033803 0.000000 0.000000 0.000000
# 3 -0.010902 -0.033803 0.197457 0.000000 0.000000 0.000000
# 4 0.000000 0.000000 0.000000 0.081038 0.000000 0.000000
# 5 0.000000 0.000000 0.000000 0.000000 0.055954 0.000000
# 6 0.000000 0.000000 0.000000 0.000000 0.000000 0.109353
#
#
# Mechanical properties :
#
#
# Convention : Reuss Voigt Hill
#
# Bulk Modulus (GPa) = 7.83174 59.48847 33.66010
# Shear Modulus (GPa) = 8.00947 16.82641 12.41794
#
# Velocity S-wave (km/s) = 2.26231 3.27903 2.81692
# Velocity P-wave (km/s) = 3.43926 7.23527 5.66470
#
# Compressibility (1/GPa) = 0.12768562
#
# Stress axis : x y z
#
# Youngs Moduli (GPa) = 64.11358 54.15376 5.06439
#
# Poissons Ratio (x) = 0.39054 0.05521
# Poissons Ratio (y) = 0.46236 0.17119
# Poissons Ratio (z) = 0.69900 1.83057
#
# Static dielectric constant tensor:
#      x y z
#    x 1.508950 0.000000 0.000000 
#    y 0.000000 1.477620 0.000000 
#    z 0.000000 0.000000 1.533060 
# 
# From -- ./inp_files/8218.got.cif
#   From: 2010.05.17/outbox.cif.g08.bks.cpg/sg47_5_cif.got.tgz:8218.got - 2010.06.03 20:15:42.
