data_PCOD9381716
_publ_section_title
;
Structure prediction by ZEFSAII (Michael W. Deem and Ramdas Pophale) SiO2 
 PCOD9381716
Probable space group: P M M M
;
_chemical_formula_sum "Si O2"
_cell_formula_units_Z 52
_cell_length_a 8.269513
_cell_length_b 28.128454
_cell_length_c 17.669421
_cell_angle_alpha 90.000000
_cell_angle_beta 90.000000
_cell_angle_gamma 90.000000
_cell_volume 4110.059565
_symmetry_space_group_name_H-M "P M M M"
_symmetry_group_IT_number 47
_symmetry_cell_setting 'orthorhombic'
loop_
_space_group_symop_operation_xyz
x,y,z
-x,-y,z
x,-y,-z
-x,y,-z
-x,-y,-z
x,y,-z
-x,y,z
x,-y,z
loop_
_atom_site_type_symbol
_atom_site_label
_atom_site_fract_x
_atom_site_fract_y
_atom_site_fract_z
Si Si1 0.320524 0.387786 0.592221
Si Si2 0.692762 0.945071 0.000000
Si Si3 0.000000 0.555085 0.407817
Si Si4 0.802641 0.000000 0.413175
Si Si5 0.195704 0.093399 0.320918
Si Si6 0.194722 0.055224 0.838682
Si Si7 0.813920 0.287782 0.408298
Si Si8 0.306903 0.184607 0.587256
O O1 0.319180 0.388736 0.500000
O O2 0.500000 0.403971 0.616042
O O3 0.165123 0.418539 0.616610
O O4 0.291057 0.333029 0.615812
O O5 0.751696 0.924981 0.920008
O O6 0.500000 0.945471 0.000000
O O7 0.753623 0.000000 0.000000
O O8 0.000000 0.500000 0.385323
O O9 0.000000 0.556755 0.500000
O O10 0.751349 0.047486 0.369558
O O11 0.748890 0.000000 0.500000
O O12 0.000000 0.000000 0.412863
O O13 0.249439 0.084578 0.234529
O O14 0.254657 0.141220 0.360276
O O15 0.000000 0.093932 0.321426
O O16 0.000000 0.053913 0.837412
O O17 0.251163 0.000000 0.831567
O O18 0.805500 0.287122 0.500000
O O19 0.758318 0.235479 0.384619
O O20 0.000000 0.296124 0.387221
O O21 0.249115 0.176963 0.500000
O O22 0.500000 0.187299 0.585095
#
# Coordination Sequence:
#
# PCOD9381716 Si02
#       8
#     8   4   4   4   8   8   8   8
#     4   9  15  23  35  49  65  86 112 143 180 220
#     4   9  17  27  41  61  79  93 111 131 161 205
#     4   9  16  24  32  46  68  90 114 141 173 220
#     4   9  16  26  41  56  69  88 118 149 173 209
#     4  10  18  29  43  58  72  91 118 146 179 217
#     4   9  16  28  44  60  76  92 113 140 170 208
#     4   9  15  25  40  53  64  82 112 149 185 220
#     4  10  20  30  38  52  73  94 118 150 186 222
#
# _framework density 12.651885
#
# number of rings (size 3 to 8) (size 9 to 14) (size 15 to 20)
#    0.000    2.692    1.538    1.615    0.000    5.231 
#    0.000    1.923    0.000    1.385    0.000    0.000 
#    0.000    0.000    0.000    0.000    0.000    0.000 
#
# Total GULP energy -289544.413186 kJ/mol
# GULP energy per Si atom -5568.161792 kJ/mol
# Density = 1.262309 g / cm^3
# Si number density = 12.651885 Si / 1000 Ang^3
#
#
#
# Elastic Constant Matrix: (Units=GPa)
#
#
# Indices 1 2 3 4 5 6 
#
# 1 53.0355 34.4546 14.7940 0.0000 0.0000 0.0000
# 2 34.4546 80.8030 24.5771 0.0000 0.0000 0.0000
# 3 14.7940 24.5771 61.4402 0.0000 0.0000 0.0000
# 4 0.0000 0.0000 0.0000 0.9826 0.0000 0.0000
# 5 0.0000 0.0000 0.0000 0.0000 7.9904 0.0000
# 6 0.0000 0.0000 0.0000 0.0000 0.0000 7.1201
#
#
#
# Elastic Compliance Matrix: (Units=1/GPa)
#
#
# Indices 1 2 3 4 5 6 
#
# 1 0.026316 -0.010581 -0.002104 0.000000 0.000000 0.000000
# 2 -0.010581 0.018345 -0.004790 0.000000 0.000000 0.000000
# 3 -0.002104 -0.004790 0.018699 0.000000 0.000000 0.000000
# 4 0.000000 0.000000 0.000000 1.017747 0.000000 0.000000
# 5 0.000000 0.000000 0.000000 0.000000 0.125151 0.000000
# 6 0.000000 0.000000 0.000000 0.000000 0.000000 0.140448
#
#
# Mechanical properties :
#
#
# Convention : Reuss Voigt Hill
#
# Bulk Modulus (GPa) = 35.20058 38.10332 36.65195
# Shear Modulus (GPa) = 3.59421 11.31547 7.45484
#
# Velocity S-wave (km/s) = 1.68731 2.99385 2.43003
# Velocity P-wave (km/s) = 5.62839 6.49099 6.07502
#
# Compressibility (1/GPa) = 0.02840862
#
# Stress axis : x y z
#
# Youngs Moduli (GPa) = 37.99903 54.51144 53.47941
#
# Poissons Ratio (x) = 0.57681 0.11252
# Poissons Ratio (y) = 0.40209 0.25618
# Poissons Ratio (z) = 0.07995 0.26113
#
# Static dielectric constant tensor:
#      x y z
#    x 1.445610 0.000000 0.000000 
#    y 0.000000 1.408490 0.000000 
#    z 0.000000 0.000000 1.394530 
# 
# From -- ./inp_files/22034.got.cif
#   From: 2010.05.17/outbox.cif.g08.bks.cpg/sg47_12_cif.got.tgz:22034.got - 2010.06.03 20:15:42.
