data_PCOD9381156
_publ_section_title
;
Structure prediction by ZEFSAII (Michael W. Deem and Ramdas Pophale) SiO2 
 PCOD9381156
Probable space group: I M A 2
;
_chemical_formula_sum "Si O2"
_cell_formula_units_Z 24
_cell_length_a 18.000000
_cell_length_b 15.000000
_cell_length_c 9.000000
_cell_angle_alpha 90.000000
_cell_angle_beta 90.000000
_cell_angle_gamma 90.000000
_cell_volume 2430.000000
_symmetry_space_group_name_H-M "I M A 2"
_symmetry_group_IT_number 46
_symmetry_cell_setting 'orthorhombic'
loop_
_space_group_symop_operation_xyz
x,y,z
-x,-y,z
1/2-x,y,z
1/2+x,-y,z
1/2+x,1/2+y,1/2+z
1/2-x,1/2-y,1/2+z
-x,1/2+y,1/2+z
x,1/2-y,1/2+z
loop_
_atom_site_type_symbol
_atom_site_label
_atom_site_fract_x
_atom_site_fract_y
_atom_site_fract_z
Si Si1 0.537433 0.909192 0.793920
Si Si2 0.568505 0.243759 0.225229
Si Si3 0.838601 0.342740 0.987525
Si Si4 0.666675 0.954099 0.583599
Si Si5 0.166204 0.304952 0.848322
Si Si6 0.076205 0.175132 0.058033
O O1 0.476350 0.830938 0.784631
O O2 0.608387 0.902481 0.687072
O O3 0.500000 0.000000 0.747071
O O4 0.566888 0.913647 0.962036
O O5 0.607049 0.183734 0.351351
O O6 0.502994 0.196296 0.132215
O O7 0.634091 0.277896 0.118716
O O8 0.750000 0.333526 0.955281
O O9 0.851480 0.443738 0.044959
O O10 0.750000 0.951657 0.649111
O O11 0.667986 0.898662 0.432355
O O12 0.250000 0.266758 0.852432
O O13 0.137876 0.321509 0.683671
O O14 0.105867 0.244994 0.934390
#
# Coordination Sequence:
#
# PCOD9381156 Si02
#       6
#     8   8   8   8   8   8
#     4  12  24  40  65  94 125 166 218 270 322 385
#     4  12  22  42  66  94 126 165 215 265 323 389
#     4  11  24  43  68  94 127 172 217 268 322 384
#     4  10  23  42  65  94 130 173 216 262 325 389
#     4  11  22  39  62  92 129 170 212 257 315 384
#     4  12  23  39  63  94 126 167 213 264 319 383
#
# _framework density 9.8765429999999999
#
# number of rings (size 3 to 8) (size 9 to 14) (size 15 to 20)
#    0.000    0.667    6.667    1.000    0.000    4.000 
#    0.000    0.000    0.000    0.000    0.000    0.000 
#    0.000    0.000    0.000    0.000    0.000    0.000 
#
# Total GULP energy -133887.565165 kJ/mol
# GULP energy per Si atom -5578.648549 kJ/mol
# Density = 0.985406 g / cm^3
# Si number density = 9.876543 Si / 1000 Ang^3
#
#
#
# Elastic Constant Matrix: (Units=GPa)
#
#
# Indices 1 2 3 4 5 6 
#
# 1 122.7645 28.7163 43.6613 0.0000 0.0000 0.0000
# 2 28.7163 28.4483 9.2634 0.0000 0.0000 0.0000
# 3 43.6613 9.2634 96.3204 0.0000 0.0000 0.0000
# 4 0.0000 0.0000 0.0000 24.1692 0.0000 0.0000
# 5 0.0000 0.0000 0.0000 0.0000 38.2861 0.0000
# 6 0.0000 0.0000 0.0000 0.0000 0.0000 22.5862
#
#
#
# Elastic Compliance Matrix: (Units=1/GPa)
#
#
# Indices 1 2 3 4 5 6 
#
# 1 0.012321 -0.010962 -0.004531 0.000000 0.000000 0.000000
# 2 -0.010962 0.046041 0.000541 0.000000 0.000000 0.000000
# 3 -0.004531 0.000541 0.012384 0.000000 0.000000 0.000000
# 4 0.000000 0.000000 0.000000 0.041375 0.000000 0.000000
# 5 0.000000 0.000000 0.000000 0.000000 0.026119 0.000000
# 6 0.000000 0.000000 0.000000 0.000000 0.000000 0.044275
#
#
# Mechanical properties :
#
#
# Convention : Reuss Voigt Hill
#
# Bulk Modulus (GPa) = 24.48451 45.64611 35.06531
# Shear Modulus (GPa) = 22.12077 28.06778 25.09427
#
# Velocity S-wave (km/s) = 3.35007 3.77361 3.56813
# Velocity P-wave (km/s) = 5.23318 6.49195 5.89625
#
# Compressibility (1/GPa) = 0.04084214
#
# Stress axis : x y z
#
# Youngs Moduli (GPa) = 81.16060 21.72000 80.75070
#
# Poissons Ratio (x) = 0.23809 0.36587
# Poissons Ratio (y) = 0.88968 -0.04370
# Poissons Ratio (z) = 0.36773 -0.01175
#
# Static dielectric constant tensor:
#      x y z
#    x 1.703150 0.000000 0.000000 
#    y 0.000000 1.721900 0.000000 
#    z 0.000000 0.000000 1.716230 
# 
# From -- ./inp_files/6588.got.cif
#   From: 2010.05.17/outbox.ucp.g08.bks.cvg/sg46_4_cif.got.tgz:6588.got - 2010.06.11 16:34:52.
