data_PCOD9381704
_publ_section_title
;
Structure prediction by ZEFSAII (Michael W. Deem and Ramdas Pophale) SiO2 
 PCOD9381704
Probable space group: P M M M
;
_chemical_formula_sum "Si O2"
_cell_formula_units_Z 52
_cell_length_a 7.406449
_cell_length_b 21.830166
_cell_length_c 15.087740
_cell_angle_alpha 90.000000
_cell_angle_beta 90.000000
_cell_angle_gamma 90.000000
_cell_volume 2439.446322
_symmetry_space_group_name_H-M "P M M M"
_symmetry_group_IT_number 47
_symmetry_cell_setting 'orthorhombic'
loop_
_space_group_symop_operation_xyz
x,y,z
-x,-y,z
x,-y,-z
-x,y,-z
-x,-y,-z
x,y,-z
-x,y,z
x,-y,z
loop_
_atom_site_type_symbol
_atom_site_label
_atom_site_fract_x
_atom_site_fract_y
_atom_site_fract_z
Si Si1 0.721168 0.069024 0.805562
Si Si2 0.217302 0.735003 0.404302
Si Si3 0.783003 0.591284 0.402776
Si Si4 0.299918 0.926542 0.000000
Si Si5 0.720960 0.309477 0.896147
Si Si6 0.289172 0.566143 0.799793
Si Si7 0.705924 0.199467 0.225675
O O1 0.500000 0.064608 0.805619
O O2 0.783657 0.085454 0.905573
O O3 0.778582 0.130866 0.756728
O O4 0.782594 0.000000 0.781651
O O5 0.275610 0.759704 0.500000
O O6 0.261408 0.663263 0.401568
O O7 0.294333 0.767027 0.319196
O O8 0.000000 0.739374 0.399726
O O9 0.720260 0.568217 0.500000
O O10 0.720756 0.567868 0.307446
O O11 0.000000 0.583977 0.402702
O O12 0.500000 0.897897 0.000000
O O13 0.319557 0.000000 0.000000
O O14 0.500000 0.308839 0.891840
O O15 0.782621 0.371099 0.843878
O O16 0.785026 0.247952 0.845039
O O17 0.770570 0.310533 0.000000
O O18 0.500000 0.565430 0.824026
O O19 0.211392 0.500000 0.828268
O O20 0.500000 0.189875 0.195055
#
# Coordination Sequence:
#
# PCOD9381704 Si02
#       7
#     8   8   8   4   8   8   8
#     4   8  14  23  37  63  98 129 155 187 232 283
#     4   9  18  33  52  72  95 124 156 193 240 290
#     4   9  18  33  52  72  95 124 155 190 239 295
#     4   7  10  18  32  54  89 127 154 178 217 272
#     4   9  18  31  46  69  99 127 160 199 234 271
#     4  10  20  33  49  70  97 128 161 197 236 275
#     4  10  18  28  49  76  98 123 157 199 239 274
#
# _framework density 21.316312
#
# number of rings (size 3 to 8) (size 9 to 14) (size 15 to 20)
#    0.000    3.000    1.538    1.846    1.077    1.538 
#    0.000    4.615    0.000    2.769    0.000    4.308 
#    0.000    1.846    0.000    0.000    0.000    0.000 
#
# Total GULP energy -289555.471996 kJ/mol
# GULP energy per Si atom -5568.374461 kJ/mol
# Density = 2.126780 g / cm^3
# Si number density = 21.316312 Si / 1000 Ang^3
#
#
#
# Elastic Constant Matrix: (Units=GPa)
#
#
# Indices 1 2 3 4 5 6 
#
# 1 62.8361 11.2514 -2.8441 0.0000 0.0000 0.0000
# 2 11.2514 181.7320 68.2927 0.0000 0.0000 0.0000
# 3 -2.8441 68.2927 106.5728 0.0000 0.0000 0.0000
# 4 0.0000 0.0000 0.0000 -0.9868 0.0000 0.0000
# 5 0.0000 0.0000 0.0000 0.0000 32.9778 0.0000
# 6 0.0000 0.0000 0.0000 0.0000 0.0000 9.8819
#
#
#
# Elastic Compliance Matrix: (Units=1/GPa)
#
#
# Indices 1 2 3 4 5 6 
#
# 1 0.016255 -0.001540 0.001421 0.000000 0.000000 0.000000
# 2 -0.001540 0.007394 -0.004779 0.000000 0.000000 0.000000
# 3 0.001421 -0.004779 0.012484 0.000000 0.000000 0.000000
# 4 0.000000 0.000000 0.000000 -1.013414 0.000000 0.000000
# 5 0.000000 0.000000 0.000000 0.000000 0.030323 0.000000
# 6 0.000000 0.000000 0.000000 0.000000 0.000000 0.101195
#
#
# Mechanical properties :
#
#
# Convention : Reuss Voigt Hill
#
# Bulk Modulus (GPa) = 37.97250 56.06011 47.01630
# Shear Modulus (GPa) = -6.04458 26.67066 10.31304
#
# Velocity S-wave (km/s) = -1.68577 3.54105 2.20195
# Velocity P-wave (km/s) = 3.75012 6.56315 5.34501
#
# Compressibility (1/GPa) = 0.02633485
#
# Stress axis : x y z
#
# Youngs Moduli (GPa) = 61.52135 135.24597 80.10431
#
# Poissons Ratio (x) = 0.20832 -0.11381
# Poissons Ratio (y) = 0.09476 0.38283
# Poissons Ratio (z) = -0.08741 0.64637
#
# Static dielectric constant tensor:
#      x y z
#    x 1.881120 0.000000 0.000000 
#    y 0.000000 1.805300 0.000000 
#    z 0.000000 0.000000 1.812650 
# 
# From -- ./inp_files/21446.got.cif
#   From: 2010.05.17/outbox.cif.g08.bks.cpg/sg47_11_cif.got.tgz:21446.got - 2010.06.03 20:15:42.
