data_PCOD9381496
_publ_section_title
;
Structure prediction by ZEFSAII (Michael W. Deem and Ramdas Pophale) SiO2 
 PCOD9381496
Probable space group: P M M M
;
_chemical_formula_sum "Si O2"
_cell_formula_units_Z 64
_cell_length_a 7.607002
_cell_length_b 19.776523
_cell_length_c 24.673488
_cell_angle_alpha 90.000000
_cell_angle_beta 90.000000
_cell_angle_gamma 90.000000
_cell_volume 3711.880769
_symmetry_space_group_name_H-M "P M M M"
_symmetry_group_IT_number 47
_symmetry_cell_setting 'orthorhombic'
loop_
_space_group_symop_operation_xyz
x,y,z
-x,-y,z
x,-y,-z
-x,y,-z
-x,-y,-z
x,y,-z
-x,y,z
x,-y,z
loop_
_atom_site_type_symbol
_atom_site_label
_atom_site_fract_x
_atom_site_fract_y
_atom_site_fract_z
Si Si1 0.199229 0.285936 0.277703
Si Si2 0.714560 0.575637 0.891869
Si Si3 0.706343 0.788692 0.831636
Si Si4 0.215854 0.845573 0.667356
Si Si5 0.785603 0.078139 0.439201
Si Si6 0.787482 0.923511 0.224047
Si Si7 0.285107 0.283334 0.059877
Si Si8 0.291389 0.573935 0.767761
O O1 0.206648 0.251041 0.218295
O O2 0.281383 0.229425 0.317037
O O3 0.263567 0.361866 0.270105
O O4 0.000000 0.292462 0.295506
O O5 0.500000 0.575941 0.892473
O O6 0.769203 0.500000 0.908831
O O7 0.769828 0.639611 0.927061
O O8 0.773241 0.586310 0.829395
O O9 0.500000 0.771334 0.827994
O O10 0.729198 0.867913 0.819643
O O11 0.771007 0.763351 0.889860
O O12 0.273716 0.874742 0.609873
O O13 0.267034 0.894868 0.716979
O O14 0.000000 0.844585 0.667520
O O15 0.729654 0.097632 0.500000
O O16 0.000000 0.079050 0.438880
O O17 0.734072 0.000000 0.429814
O O18 0.000000 0.924006 0.223672
O O19 0.725929 0.000000 0.215377
O O20 0.500000 0.282225 0.059604
O O21 0.226190 0.262821 0.000000
O O22 0.500000 0.568523 0.773357
O O23 0.224449 0.500000 0.749746
#
# Coordination Sequence:
#
# PCOD9381496 Si02
#       8
#     8   8   8   8   8   8   8   8
#     4  10  18  27  41  60  84 113 142 168 201 245
#     4   8  13  22  37  57  79 101 126 157 193 232
#     4  10  18  29  44  61  83 106 132 168 206 245
#     4   8  14  23  35  55  83 112 138 166 199 237
#     4   8  12  18  31  52  79 112 145 171 196 231
#     4   9  17  29  45  63  83 107 133 165 206 250
#     4   9  16  25  39  59  80 102 130 166 205 242
#     4   9  16  27  43  61  82 108 137 170 209 247
#
# _framework density 17.241933
#
# number of rings (size 3 to 8) (size 9 to 14) (size 15 to 20)
#    0.000    3.125    1.250    3.000    0.000    2.250 
#    0.000    1.250    0.000    1.875    0.000    2.625 
#    0.000   15.000    0.000   46.375    0.000   37.250 
#
# Total GULP energy -356513.615598 kJ/mol
# GULP energy per Si atom -5570.525244 kJ/mol
# Density = 1.720269 g / cm^3
# Si number density = 17.241933 Si / 1000 Ang^3
#
#
#
# Elastic Constant Matrix: (Units=GPa)
#
#
# Indices 1 2 3 4 5 6 
#
# 1 29.9858 -3.5720 -1.7962 0.0000 0.0000 0.0000
# 2 -3.5720 121.4384 70.6903 0.0000 0.0000 0.0000
# 3 -1.7962 70.6903 121.1539 0.0000 0.0000 0.0000
# 4 0.0000 0.0000 0.0000 26.8001 0.0000 0.0000
# 5 0.0000 0.0000 0.0000 0.0000 7.6926 0.0000
# 6 0.0000 0.0000 0.0000 0.0000 0.0000 15.9827
#
#
#
# Elastic Compliance Matrix: (Units=1/GPa)
#
#
# Indices 1 2 3 4 5 6 
#
# 1 0.033467 0.001053 -0.000118 0.000000 0.000000 0.000000
# 2 0.001053 0.012503 -0.007280 0.000000 0.000000 0.000000
# 3 -0.000118 -0.007280 0.012500 0.000000 0.000000 0.000000
# 4 0.000000 0.000000 0.000000 0.037313 0.000000 0.000000
# 5 0.000000 0.000000 0.000000 0.000000 0.129994 0.000000
# 6 0.000000 0.000000 0.000000 0.000000 0.000000 0.062568
#
#
# Mechanical properties :
#
#
# Convention : Reuss Voigt Hill
#
# Bulk Modulus (GPa) = 21.84320 44.80250 33.32285
# Shear Modulus (GPa) = 15.80800 23.91214 19.86007
#
# Velocity S-wave (km/s) = 3.03121 3.72810 3.39757
# Velocity P-wave (km/s) = 4.99471 6.67627 5.89575
#
# Compressibility (1/GPa) = 0.04578083
#
# Stress axis : x y z
#
# Youngs Moduli (GPa) = 29.87977 79.97965 80.00179
#
# Poissons Ratio (x) = -0.08425 0.00948
# Poissons Ratio (y) = -0.03147 0.58239
# Poissons Ratio (z) = 0.00354 0.58223
#
# Static dielectric constant tensor:
#      x y z
#    x 1.681160 0.000000 0.000000 
#    y 0.000000 1.612820 0.000000 
#    z 0.000000 0.000000 1.569970 
# 
# From -- ./inp_files/32250.got.cif
#   From: 2010.05.17/outbox.cif.g08.bks.cpg/sg47_17_cif.got.tgz:32250.got - 2010.06.03 20:15:42.
