data_PCOD9381248
_publ_section_title
;
Structure prediction by ZEFSAII (Michael W. Deem and Ramdas Pophale) SiO2 
 PCOD9381248
Probable space group: P M M M
;
_chemical_formula_sum "Si O2"
_cell_formula_units_Z 64
_cell_length_a 20.485931
_cell_length_b 21.517558
_cell_length_c 7.397341
_cell_angle_alpha 90.000000
_cell_angle_beta 90.000000
_cell_angle_gamma 90.000000
_cell_volume 3260.801236
_symmetry_space_group_name_H-M "P M M M"
_symmetry_group_IT_number 47
_symmetry_cell_setting 'orthorhombic'
loop_
_space_group_symop_operation_xyz
x,y,z
-x,-y,z
x,-y,-z
-x,y,-z
-x,-y,-z
x,y,-z
-x,y,z
x,-y,z
loop_
_atom_site_type_symbol
_atom_site_label
_atom_site_fract_x
_atom_site_fract_y
_atom_site_fract_z
Si Si1 0.153263 0.811681 0.285950
Si Si2 0.430297 0.749657 0.216014
Si Si3 0.570825 0.599524 0.215496
Si Si4 0.075508 0.691241 0.278792
Si Si5 0.075094 0.070332 0.279663
Si Si6 0.143895 0.433377 0.712128
Si Si7 0.713031 0.608937 0.781147
Si Si8 0.710780 0.247313 0.782715
O O1 0.140906 0.813047 0.500000
O O2 0.114115 0.751924 0.214541
O O3 0.124285 0.876356 0.215677
O O4 0.229396 0.796977 0.262455
O O5 0.500000 0.771940 0.289348
O O6 0.428880 0.674626 0.237539
O O7 0.360750 0.773267 0.284398
O O8 0.431429 0.760529 0.000000
O O9 0.500000 0.577385 0.286406
O O10 0.643072 0.581729 0.282347
O O11 0.569943 0.586427 0.000000
O O12 0.078394 0.691420 0.500000
O O13 0.110118 0.628326 0.213658
O O14 0.000000 0.693310 0.227973
O O15 0.076460 0.069270 0.500000
O O16 0.000000 0.084985 0.229223
O O17 0.090187 0.000000 0.220231
O O18 0.127320 0.434504 0.500000
O O19 0.124062 0.500000 0.790094
O O20 0.221857 0.426181 0.727077
O O21 0.721254 0.681138 0.721043
O O22 0.710172 0.609155 0.000000
O O23 0.707534 0.250653 0.000000
#
# Coordination Sequence:
#
# PCOD9381248 Si02
#       8
#     8   8   8   8   8   8   8   8
#     4  10  17  26  44  67  89 113 139 170 209 250
#     4   7  10  18  33  54  80 109 139 168 200 241
#     4   7  10  18  35  59  81 100 128 167 205 239
#     4   9  17  29  45  64  82 102 134 173 208 245
#     4   8  14  25  42  65  90 114 144 181 213 242
#     4  10  20  32  45  61  81 106 136 173 216 256
#     4   9  16  27  44  63  83 108 137 170 209 252
#     4   9  16  25  40  63  89 114 139 171 210 249
#
# _framework density 19.627078999999998
#
# number of rings (size 3 to 8) (size 9 to 14) (size 15 to 20)
#    0.000    3.375    1.250    3.000    0.000    2.000 
#    0.000    1.250    0.000    4.125    0.000    7.875 
#    0.000    0.500    0.000    6.250    0.000    0.250 
#
# Total GULP energy -356673.977908 kJ/mol
# GULP energy per Si atom -5573.030905 kJ/mol
# Density = 1.958241 g / cm^3
# Si number density = 19.627079 Si / 1000 Ang^3
#
#
#
# Elastic Constant Matrix: (Units=GPa)
#
#
# Indices 1 2 3 4 5 6 
#
# 1 155.5697 81.5714 -3.8343 0.0000 0.0000 0.0000
# 2 81.5714 112.9895 8.1385 0.0000 0.0000 0.0000
# 3 -3.8343 8.1385 63.8914 0.0000 0.0000 0.0000
# 4 0.0000 0.0000 0.0000 -1.4037 0.0000 0.0000
# 5 0.0000 0.0000 0.0000 0.0000 13.6948 0.0000
# 6 0.0000 0.0000 0.0000 0.0000 0.0000 93.5385
#
#
#
# Elastic Compliance Matrix: (Units=1/GPa)
#
#
# Indices 1 2 3 4 5 6 
#
# 1 0.010505 -0.007700 0.001611 0.000000 0.000000 0.000000
# 2 -0.007700 0.014576 -0.002319 0.000000 0.000000 0.000000
# 3 0.001611 -0.002319 0.016044 0.000000 0.000000 0.000000
# 4 0.000000 0.000000 0.000000 -0.712400 0.000000 0.000000
# 5 0.000000 0.000000 0.000000 0.000000 0.073020 0.000000
# 6 0.000000 0.000000 0.000000 0.000000 0.000000 0.010691
#
#
# Mechanical properties :
#
#
# Convention : Reuss Voigt Hill
#
# Bulk Modulus (GPa) = 41.13561 56.02242 48.57902
# Shear Modulus (GPa) = -8.88659 37.60426 14.35883
#
# Velocity S-wave (km/s) = -2.13015 4.38189 2.70771
# Velocity P-wave (km/s) = 3.86704 7.36252 5.88051
#
# Compressibility (1/GPa) = 0.02430984
#
# Stress axis : x y z
#
# Youngs Moduli (GPa) = 95.19091 68.60386 62.32999
#
# Poissons Ratio (x) = 0.52826 -0.10043
# Poissons Ratio (y) = 0.73299 0.14453
# Poissons Ratio (z) = -0.15338 0.15908
#
# Static dielectric constant tensor:
#      x y z
#    x 1.725470 0.000000 0.000000 
#    y 0.000000 1.674530 0.000000 
#    z 0.000000 0.000000 1.775440 
# 
# From -- ./inp_files/9982.got.cif
#   From: 2010.05.17/outbox.cif.g08.bks.cpg/sg47_5_cif.got.tgz:9982.got - 2010.06.03 20:15:42.
