data_PCOD9381401
_publ_section_title
;
Structure prediction by ZEFSAII (Michael W. Deem and Ramdas Pophale) SiO2 
 PCOD9381401
Probable space group: P M M M
;
_chemical_formula_sum "Si O2"
_cell_formula_units_Z 52
_cell_length_a 29.287834
_cell_length_b 8.508777
_cell_length_c 12.265378
_cell_angle_alpha 90.000000
_cell_angle_beta 90.000000
_cell_angle_gamma 90.000000
_cell_volume 3056.576946
_symmetry_space_group_name_H-M "P M M M"
_symmetry_group_IT_number 47
_symmetry_cell_setting 'orthorhombic'
loop_
_space_group_symop_operation_xyz
x,y,z
-x,-y,z
x,-y,-z
-x,y,-z
-x,-y,-z
x,y,-z
-x,y,z
x,-y,z
loop_
_atom_site_type_symbol
_atom_site_label
_atom_site_fract_x
_atom_site_fract_y
_atom_site_fract_z
Si Si1 0.431406 0.183814 0.000000
Si Si2 0.639409 0.808673 0.375535
Si Si3 0.450030 0.807917 0.757948
Si Si4 0.000000 0.316854 0.867490
Si Si5 0.333699 0.318787 0.000000
Si Si6 0.096360 0.820144 0.867748
Si Si7 0.806835 0.685874 0.127739
Si Si8 0.716695 0.186936 0.792497
O O1 0.447560 0.248127 0.883635
O O2 0.377199 0.205807 0.000000
O O3 0.443882 0.000000 0.000000
O O4 0.638854 0.753234 0.500000
O O5 0.594417 0.755157 0.308940
O O6 0.685902 0.768501 0.311548
O O7 0.637383 0.000000 0.377554
O O8 0.500000 0.765437 0.712331
O O9 0.447897 0.000000 0.760304
O O10 0.047272 0.240669 0.828438
O O11 0.000000 0.500000 0.841322
O O12 0.000000 0.302751 0.000000
O O13 0.304422 0.280071 0.894068
O O14 0.348373 0.500000 0.000000
O O15 0.141185 0.721737 0.838500
O O16 0.103197 0.000000 0.835130
O O17 0.094252 0.814679 0.000000
O O18 0.798638 0.500000 0.130101
O O19 0.769977 0.771240 0.203565
O O20 0.801500 0.738386 0.000000
O O21 0.711063 0.000000 0.809782
#
# Coordination Sequence:
#
# PCOD9381401 Si02
#       8
#     4   8   8   4   4   8   8   8
#     4  10  17  30  48  72  98 124 151 185 229 280
#     4   9  18  31  47  70  96 121 154 194 233 276
#     4   9  16  26  45  73 100 123 149 187 232 277
#     4   9  15  23  35  51  77 117 162 205 242 275
#     4  12  22  31  47  71  94 119 151 190 231 280
#     4   9  16  25  37  55  81 117 160 200 236 281
#     4  10  19  29  42  64  92 119 150 194 240 285
#     4  11  20  32  50  69  92 122 153 190 238 288
#
# _framework density 17.012495999999999
#
# number of rings (size 3 to 8) (size 9 to 14) (size 15 to 20)
#    0.000    2.231    2.308    2.538    0.000    4.615 
#    0.000    1.538    0.000    2.769    0.000    0.000 
#    0.000    1.231    0.000    0.692    0.000   14.385 
#
# Total GULP energy -289776.206562 kJ/mol
# GULP energy per Si atom -5572.619357 kJ/mol
# Density = 1.697377 g / cm^3
# Si number density = 17.012496 Si / 1000 Ang^3
#
#
#
# Elastic Constant Matrix: (Units=GPa)
#
#
# Indices 1 2 3 4 5 6 
#
# 1 132.7827 15.0273 44.7598 0.0000 0.0000 0.0000
# 2 15.0273 24.9149 14.1357 0.0000 0.0000 0.0000
# 3 44.7598 14.1357 80.9729 0.0000 0.0000 0.0000
# 4 0.0000 0.0000 0.0000 0.6158 0.0000 0.0000
# 5 0.0000 0.0000 0.0000 0.0000 9.4723 0.0000
# 6 0.0000 0.0000 0.0000 0.0000 0.0000 -5.1141
#
#
#
# Elastic Compliance Matrix: (Units=1/GPa)
#
#
# Indices 1 2 3 4 5 6 
#
# 1 0.009459 -0.003040 -0.004698 0.000000 0.000000 0.000000
# 2 -0.003040 0.045526 -0.006267 0.000000 0.000000 0.000000
# 3 -0.004698 -0.006267 0.016041 0.000000 0.000000 0.000000
# 4 0.000000 0.000000 0.000000 1.623964 0.000000 0.000000
# 5 0.000000 0.000000 0.000000 0.000000 0.105571 0.000000
# 6 0.000000 0.000000 0.000000 0.000000 0.000000 -0.195536
#
#
# Mechanical properties :
#
#
# Convention : Reuss Voigt Hill
#
# Bulk Modulus (GPa) = 23.24740 42.94622 33.09681
# Shear Modulus (GPa) = 3.03514 11.97797 7.50656
#
# Velocity S-wave (km/s) = 1.33714 2.65631 2.10284
# Velocity P-wave (km/s) = 4.00980 5.89124 5.03911
#
# Compressibility (1/GPa) = 0.04301557
#
# Stress axis : x y z
#
# Youngs Moduli (GPa) = 105.72257 21.96559 62.34097
#
# Poissons Ratio (x) = 0.06677 0.29287
# Poissons Ratio (y) = 0.32135 0.39071
# Poissons Ratio (z) = 0.49668 0.13767
#
# Static dielectric constant tensor:
#      x y z
#    x 1.609950 0.000000 0.000000 
#    y 0.000000 1.589330 0.000000 
#    z 0.000000 0.000000 1.559390 
# 
# From -- ./inp_files/20066.got.cif
#   From: 2010.05.17/outbox.cif.g08.bks.cpg/sg47_11_cif.got.tgz:20066.got - 2010.06.03 20:15:42.
