data_PCOD9381378
_publ_section_title
;
Structure prediction by ZEFSAII (Michael W. Deem and Ramdas Pophale) SiO2 
 PCOD9381378
Probable space group: P M M M
;
_chemical_formula_sum "Si O2"
_cell_formula_units_Z 44
_cell_length_a 7.451979
_cell_length_b 15.175676
_cell_length_c 19.696987
_cell_angle_alpha 90.000000
_cell_angle_beta 90.000000
_cell_angle_gamma 90.000000
_cell_volume 2227.508995
_symmetry_space_group_name_H-M "P M M M"
_symmetry_group_IT_number 47
_symmetry_cell_setting 'orthorhombic'
loop_
_space_group_symop_operation_xyz
x,y,z
-x,-y,z
x,-y,-z
-x,y,-z
-x,-y,-z
x,y,-z
-x,y,z
x,-y,z
loop_
_atom_site_type_symbol
_atom_site_label
_atom_site_fract_x
_atom_site_fract_y
_atom_site_fract_z
Si Si1 0.781166 0.100870 0.848968
Si Si2 0.704019 0.606145 0.500000
Si Si3 0.716947 0.405587 0.852998
Si Si4 0.797816 0.744742 0.245350
Si Si5 0.716401 0.648740 0.000000
Si Si6 0.204542 0.851871 0.000000
Si Si7 0.208396 0.398762 0.652002
O O1 0.716819 0.168778 0.790799
O O2 0.717717 0.120451 0.926475
O O3 0.000000 0.110864 0.850629
O O4 0.738857 0.000000 0.832689
O O5 0.706456 0.500000 0.500000
O O6 0.500000 0.637469 0.500000
O O7 0.785565 0.628474 0.572857
O O8 0.500000 0.398211 0.847287
O O9 0.769903 0.500000 0.823418
O O10 0.803514 0.323925 0.816507
O O11 0.764884 0.400681 0.931679
O O12 0.712520 0.681256 0.303164
O O13 0.000000 0.768338 0.268505
O O14 0.500000 0.657861 0.000000
O O15 0.793724 0.746426 0.000000
O O16 0.000000 0.886319 0.000000
O O17 0.282876 0.500000 0.658372
O O18 0.000000 0.404885 0.672396
#
# Coordination Sequence:
#
# PCOD9381378 Si02
#       7
#     8   4   8   8   4   4   8
#     4   9  17  29  47  70  93 118 152 197 246 288
#     4   9  17  29  47  71  96 123 156 186 209 249
#     4  10  20  32  45  61  86 122 158 191 231 279
#     4  10  19  31  48  70  94 120 154 193 232 277
#     4  10  19  31  45  60  84 118 155 193 235 278
#     4  10  17  29  49  68  86 114 155 201 245 286
#     4   9  17  29  45  67  97 128 151 178 221 267
#
# _framework density 19.753008000000001
#
# number of rings (size 3 to 8) (size 9 to 14) (size 15 to 20)
#    0.000    2.455    1.818    1.364    0.000    5.091 
#    0.000    1.818    0.000    4.364    0.000    0.636 
#    0.000    5.091    0.000    0.000    0.000    0.000 
#
# Total GULP energy -245189.358965 kJ/mol
# GULP energy per Si atom -5572.485431 kJ/mol
# Density = 1.970805 g / cm^3
# Si number density = 19.753008 Si / 1000 Ang^3
#
#
#
# Elastic Constant Matrix: (Units=GPa)
#
#
# Indices 1 2 3 4 5 6 
#
# 1 55.2379 5.3427 5.5876 0.0000 0.0000 0.0000
# 2 5.3427 145.8691 58.9186 0.0000 0.0000 0.0000
# 3 5.5876 58.9186 132.5838 0.0000 0.0000 0.0000
# 4 0.0000 0.0000 0.0000 10.9565 0.0000 0.0000
# 5 0.0000 0.0000 0.0000 0.0000 17.5110 0.0000
# 6 0.0000 0.0000 0.0000 0.0000 0.0000 2.8868
#
#
#
# Elastic Compliance Matrix: (Units=1/GPa)
#
#
# Indices 1 2 3 4 5 6 
#
# 1 0.018204 -0.000435 -0.000574 0.000000 0.000000 0.000000
# 2 -0.000435 0.008366 -0.003699 0.000000 0.000000 0.000000
# 3 -0.000574 -0.003699 0.009210 0.000000 0.000000 0.000000
# 4 0.000000 0.000000 0.000000 0.091270 0.000000 0.000000
# 5 0.000000 0.000000 0.000000 0.000000 0.057107 0.000000
# 6 0.000000 0.000000 0.000000 0.000000 0.000000 0.346406
#
#
# Mechanical properties :
#
#
# Convention : Reuss Voigt Hill
#
# Bulk Modulus (GPa) = 37.93113 52.59873 45.26493
# Shear Modulus (GPa) = 9.11134 23.86032 16.48583
#
# Velocity S-wave (km/s) = 2.15003 3.47930 2.89208
# Velocity P-wave (km/s) = 5.04063 6.54422 5.84101
#
# Compressibility (1/GPa) = 0.02636357
#
# Stress axis : x y z
#
# Youngs Moduli (GPa) = 54.93412 119.53768 108.57202
#
# Poissons Ratio (x) = 0.05199 0.06231
# Poissons Ratio (y) = 0.02389 0.40163
# Poissons Ratio (z) = 0.03153 0.44220
#
# Static dielectric constant tensor:
#      x y z
#    x 1.765100 0.000000 0.000000 
#    y 0.000000 1.678880 0.000000 
#    z 0.000000 0.000000 1.721150 
# 
# From -- ./inp_files/26435.got.cif
#   From: 2010.05.17/outbox.cif.g08.bks.cpg/sg47_14_cif.got.tgz:26435.got - 2010.06.03 20:15:42.
