data_PCOD9381344
_publ_section_title
;
Structure prediction by ZEFSAII (Michael W. Deem and Ramdas Pophale) SiO2 
 PCOD9381344
Probable space group: P M M M
;
_chemical_formula_sum "Si O2"
_cell_formula_units_Z 52
_cell_length_a 13.968576
_cell_length_b 7.354699
_cell_length_c 25.077308
_cell_angle_alpha 90.000000
_cell_angle_beta 90.000000
_cell_angle_gamma 90.000000
_cell_volume 2576.309010
_symmetry_space_group_name_H-M "P M M M"
_symmetry_group_IT_number 47
_symmetry_cell_setting 'orthorhombic'
loop_
_space_group_symop_operation_xyz
x,y,z
-x,-y,z
x,-y,-z
-x,y,-z
-x,-y,-z
x,y,-z
-x,y,z
x,-y,z
loop_
_atom_site_type_symbol
_atom_site_label
_atom_site_fract_x
_atom_site_fract_y
_atom_site_fract_z
Si Si1 0.500000 0.219367 0.437199
Si Si2 0.610493 0.279875 0.724610
Si Si3 0.107058 0.781018 0.225869
Si Si4 0.611611 0.721180 0.940638
Si Si5 0.702098 0.711507 0.832928
Si Si6 0.695998 0.205451 0.386383
Si Si7 0.891336 0.777802 0.348969
O O1 0.500000 0.251101 0.500000
O O2 0.600429 0.288728 0.412698
O O3 0.500000 0.000000 0.427135
O O4 0.500000 0.235244 0.716092
O O5 0.620654 0.500000 0.722641
O O6 0.644832 0.212909 0.782154
O O7 0.670726 0.200970 0.676290
O O8 0.188011 0.722109 0.184866
O O9 0.124382 0.720555 0.287110
O O10 0.000000 0.723045 0.211017
O O11 0.108796 0.000000 0.227091
O O12 0.500000 0.768725 0.932001
O O13 0.615923 0.500000 0.942123
O O14 0.673957 0.786154 0.890597
O O15 0.640000 0.783383 0.000000
O O16 0.674005 0.500000 0.835135
O O17 0.803262 0.285200 0.385905
O O18 0.703336 0.000000 0.408147
O O19 0.000000 0.725141 0.363769
O O20 0.888644 0.000000 0.349267
#
# Coordination Sequence:
#
# PCOD9381344 Si02
#       7
#     4   8   8   8   8   8   8
#     4   9  18  30  45  69  95 119 152 193 228 254
#     4  10  19  28  39  62  97 123 136 170 226 272
#     4   9  17  29  44  62  88 119 147 179 222 272
#     4   8  14  26  44  64  86 115 151 184 216 265
#     4  10  18  27  43  67  91 115 144 182 227 266
#     4  10  17  28  48  66  85 118 154 184 215 263
#     4   8  14  25  42  64  87 113 147 183 218 260
#
# _framework density 20.183914000000001
#
# number of rings (size 3 to 8) (size 9 to 14) (size 15 to 20)
#    0.000    2.846    2.308    1.846    0.000    2.154 
#    0.000    0.000    0.000    4.154    0.000    7.538 
#    0.000    0.000    0.000    1.385    0.000    1.538 
#
# Total GULP energy -289931.029949 kJ/mol
# GULP energy per Si atom -5575.596730 kJ/mol
# Density = 2.013797 g / cm^3
# Si number density = 20.183914 Si / 1000 Ang^3
#
#
#
# Elastic Constant Matrix: (Units=GPa)
#
#
# Indices 1 2 3 4 5 6 
#
# 1 155.4068 -2.6451 57.9786 0.0000 0.0000 0.0000
# 2 -2.6451 73.1086 1.4604 0.0000 0.0000 0.0000
# 3 57.9786 1.4604 65.2484 0.0000 0.0000 0.0000
# 4 0.0000 0.0000 0.0000 6.3856 0.0000 0.0000
# 5 0.0000 0.0000 0.0000 0.0000 15.8842 0.0000
# 6 0.0000 0.0000 0.0000 0.0000 0.0000 8.1622
#
#
#
# Elastic Compliance Matrix: (Units=1/GPa)
#
#
# Indices 1 2 3 4 5 6 
#
# 1 0.009645 0.000520 -0.008582 0.000000 0.000000 0.000000
# 2 0.000520 0.013712 -0.000769 0.000000 0.000000 0.000000
# 3 -0.008582 -0.000769 0.022969 0.000000 0.000000 0.000000
# 4 0.000000 0.000000 0.000000 0.156603 0.000000 0.000000
# 5 0.000000 0.000000 0.000000 0.000000 0.062956 0.000000
# 6 0.000000 0.000000 0.000000 0.000000 0.000000 0.122516
#
#
# Mechanical properties :
#
#
# Convention : Reuss Voigt Hill
#
# Bulk Modulus (GPa) = 34.88614 45.26128 40.07371
# Shear Modulus (GPa) = 12.03022 21.88439 16.95730
#
# Velocity S-wave (km/s) = 2.44402 3.29637 2.90166
# Velocity P-wave (km/s) = 5.02852 6.07957 5.57885
#
# Compressibility (1/GPa) = 0.02866468
#
# Stress axis : x y z
#
# Youngs Moduli (GPa) = 103.67534 72.92626 43.53603
#
# Poissons Ratio (x) = -0.03795 0.37365
# Poissons Ratio (y) = -0.05395 0.03349
# Poissons Ratio (z) = 0.88979 0.05611
#
# Static dielectric constant tensor:
#      x y z
#    x 1.741880 0.000000 0.000000 
#    y 0.000000 1.820520 0.000000 
#    z 0.000000 0.000000 1.688610 
# 
# From -- ./inp_files/12539.got.cif
#   From: 2010.05.17/outbox.cif.g08.bks.cpg/sg47_7_cif.got.tgz:12539.got - 2010.06.03 20:15:42.
