data_PCOD9381318
_publ_section_title
;
Structure prediction by ZEFSAII (Michael W. Deem and Ramdas Pophale) SiO2 
 PCOD9381318
Probable space group: P M M M
;
_chemical_formula_sum "Si O2"
_cell_formula_units_Z 46
_cell_length_a 7.641512
_cell_length_b 22.746470
_cell_length_c 12.863370
_cell_angle_alpha 90.000000
_cell_angle_beta 90.000000
_cell_angle_gamma 90.000000
_cell_volume 2235.877830
_symmetry_space_group_name_H-M "P M M M"
_symmetry_group_IT_number 47
_symmetry_cell_setting 'orthorhombic'
loop_
_space_group_symop_operation_xyz
x,y,z
-x,-y,z
x,-y,-z
-x,y,-z
-x,-y,-z
x,y,-z
-x,y,z
x,-y,z
loop_
_atom_site_type_symbol
_atom_site_label
_atom_site_fract_x
_atom_site_fract_y
_atom_site_fract_z
Si Si1 0.705824 0.768514 0.383683
Si Si2 0.302017 0.068524 0.846126
Si Si3 0.000000 0.892333 0.000000
Si Si4 0.210792 0.354808 0.697904
Si Si5 0.785865 0.431541 0.500000
Si Si6 0.213635 0.565867 0.118062
Si Si7 0.200014 0.901137 0.617721
O O1 0.756782 0.748376 0.500000
O O2 0.500000 0.781548 0.382323
O O3 0.740614 0.713163 0.311559
O O4 0.797198 0.830497 0.365731
O O5 0.500000 0.085690 0.874267
O O6 0.287069 0.073417 0.720821
O O7 0.154301 0.103564 0.908503
O O8 0.274493 0.000000 0.874019
O O9 0.271334 0.394536 0.600767
O O10 0.275086 0.385409 0.802432
O O11 0.000000 0.357415 0.696593
O O12 0.730644 0.500000 0.500000
O O13 0.000000 0.432452 0.500000
O O14 0.263975 0.500000 0.151685
O O15 0.000000 0.566819 0.117518
O O16 0.271209 0.574906 0.000000
O O17 0.272259 0.911732 0.500000
O O18 0.000000 0.921848 0.616855
#
# Coordination Sequence:
#
# PCOD9381318 Si02
#       7
#     8   8   2   8   4   8   8
#     4  10  20  34  52  74 104 142 182 224 277 344
#     4  11  23  39  64  96 129 168 210 255 309 364
#     4  12  23  42  66  92 130 172 218 260 297 354
#     4  10  17  27  47  71  96 128 168 214 266 326
#     4   9  16  24  39  69 101 123 156 213 274 329
#     4   8  14  25  43  68  95 123 160 208 261 318
#     4  10  21  38  62  90 120 155 199 252 310 370
#
# _framework density 20.573575000000002
#
# number of rings (size 3 to 8) (size 9 to 14) (size 15 to 20)
#    0.000    2.174    1.739    3.130    0.000    4.870 
#    0.000    1.739    1.913    3.130    0.000    1.217 
#    0.000    0.000    0.000    0.000    0.000    0.000 
#
# Total GULP energy -256208.587097 kJ/mol
# GULP energy per Si atom -5569.751893 kJ/mol
# Density = 2.052675 g / cm^3
# Si number density = 20.573575 Si / 1000 Ang^3
#
#
#
# Elastic Constant Matrix: (Units=GPa)
#
#
# Indices 1 2 3 4 5 6 
#
# 1 76.5629 2.6908 22.8721 0.0000 0.0000 0.0000
# 2 2.6908 46.2766 22.4212 0.0000 0.0000 0.0000
# 3 22.8721 22.4212 100.6613 0.0000 0.0000 0.0000
# 4 0.0000 0.0000 0.0000 26.2653 0.0000 0.0000
# 5 0.0000 0.0000 0.0000 0.0000 3.8024 0.0000
# 6 0.0000 0.0000 0.0000 0.0000 0.0000 6.8871
#
#
#
# Elastic Compliance Matrix: (Units=1/GPa)
#
#
# Indices 1 2 3 4 5 6 
#
# 1 0.014040 0.000817 -0.003372 0.000000 0.000000 0.000000
# 2 0.000817 0.024271 -0.005592 0.000000 0.000000 0.000000
# 3 -0.003372 -0.005592 0.011946 0.000000 0.000000 0.000000
# 4 0.000000 0.000000 0.000000 0.038073 0.000000 0.000000
# 5 0.000000 0.000000 0.000000 0.000000 0.262994 0.000000
# 6 0.000000 0.000000 0.000000 0.000000 0.000000 0.145199
#
#
# Mechanical properties :
#
#
# Convention : Reuss Voigt Hill
#
# Bulk Modulus (GPa) = 29.44316 35.49653 32.46985
# Shear Modulus (GPa) = 9.53948 19.09206 14.31577
#
# Velocity S-wave (km/s) = 2.15565 3.04960 2.64073
# Velocity P-wave (km/s) = 4.53189 5.44894 5.01143
#
# Compressibility (1/GPa) = 0.03396375
#
# Stress axis : x y z
#
# Youngs Moduli (GPa) = 71.22595 41.20156 83.70969
#
# Poissons Ratio (x) = -0.03368 0.28229
# Poissons Ratio (y) = -0.05823 0.46809
# Poissons Ratio (z) = 0.24019 0.23039
#
# Static dielectric constant tensor:
#      x y z
#    x 1.779000 0.000000 0.000000 
#    y 0.000000 1.714030 0.000000 
#    z 0.000000 0.000000 1.748720 
# 
# From -- ./inp_files/15323.got.cif
#   From: 2010.05.17/outbox.cif.g08.bks.cpg/sg47_8_cif.got.tgz:15323.got - 2010.06.03 20:15:42.
