data_PCOD9381835
_publ_section_title
;
Structure prediction by ZEFSAII (Michael W. Deem and Ramdas Pophale) SiO2 
 PCOD9381835
Probable space group: P M M M
;
_chemical_formula_sum "Si O2"
_cell_formula_units_Z 52
_cell_length_a 29.078369
_cell_length_b 12.252120
_cell_length_c 7.521157
_cell_angle_alpha 90.000000
_cell_angle_beta 90.000000
_cell_angle_gamma 90.000000
_cell_volume 2679.575138
_symmetry_space_group_name_H-M "P M M M"
_symmetry_group_IT_number 47
_symmetry_cell_setting 'orthorhombic'
loop_
_space_group_symop_operation_xyz
x,y,z
-x,-y,z
x,-y,-z
-x,y,-z
-x,-y,-z
x,y,-z
-x,y,z
x,-y,z
loop_
_atom_site_type_symbol
_atom_site_label
_atom_site_fract_x
_atom_site_fract_y
_atom_site_fract_z
Si Si1 0.899087 0.874866 0.289243
Si Si2 0.552145 0.122565 0.786329
Si Si3 0.813189 0.264716 0.282617
Si Si4 0.000000 0.875950 0.211394
Si Si5 0.275716 0.124753 0.282672
Si Si6 0.672157 0.500000 0.282352
Si Si7 0.779762 0.500000 0.716994
Si Si8 0.361254 0.267046 0.288600
O O1 0.891445 0.883961 0.500000
O O2 0.859404 0.795442 0.220112
O O3 0.950650 0.829220 0.264374
O O4 0.897021 0.000000 0.217196
O O5 0.500000 0.144680 0.723979
O O6 0.589376 0.212953 0.739450
O O7 0.565491 0.000000 0.723983
O O8 0.550640 0.118417 0.000000
O O9 0.814114 0.266858 0.500000
O O10 0.769236 0.192361 0.230492
O O11 0.804521 0.388864 0.224785
O O12 0.000000 0.000000 0.285754
O O13 0.000000 0.881299 0.000000
O O14 0.276220 0.123322 0.500000
O O15 0.321482 0.186371 0.220342
O O16 0.274055 0.000000 0.223171
O O17 0.671639 0.500000 0.500000
O O18 0.725957 0.500000 0.230431
O O19 0.647411 0.610705 0.220916
O O20 0.779638 0.500000 0.500000
O O21 0.354267 0.273235 0.500000
#
# Coordination Sequence:
#
# PCOD9381835 Si02
#       8
#     8   8   8   4   8   4   4   8
#     4   9  16  26  42  66  93 117 145 186 230 267
#     4   9  19  36  54  70  92 123 156 193 242 294
#     4   9  15  23  38  62  92 122 150 181 223 272
#     4   9  17  29  45  64  87 118 152 183 224 279
#     4   9  15  22  36  63  96 122 146 182 228 275
#     4   9  16  28  44  68 102 133 158 191 234 275
#     4   9  14  24  40  61  93 129 157 181 220 271
#     4  10  18  29  48  73  98 126 160 196 231 273
#
# _framework density 19.406063
#
# number of rings (size 3 to 8) (size 9 to 14) (size 15 to 20)
#    0.000    2.846    1.538    1.615    0.000    4.000 
#    0.000    1.538    0.000    3.692    0.000    5.923 
#    0.000    0.000    0.000    0.000    0.000    0.000 
#
# Total GULP energy -290036.706824 kJ/mol
# GULP energy per Si atom -5577.628977 kJ/mol
# Density = 1.936189 g / cm^3
# Si number density = 19.406063 Si / 1000 Ang^3
#
#
#
# Elastic Constant Matrix: (Units=GPa)
#
#
# Indices 1 2 3 4 5 6 
#
# 1 165.5452 114.2123 -1.5164 0.0000 0.0000 0.0000
# 2 114.2123 188.5604 7.7418 0.0000 0.0000 0.0000
# 3 -1.5164 7.7418 47.1607 0.0000 0.0000 0.0000
# 4 0.0000 0.0000 0.0000 -49.0731 0.0000 0.0000
# 5 0.0000 0.0000 0.0000 0.0000 70.4417 0.0000
# 6 0.0000 0.0000 0.0000 0.0000 0.0000 18.6027
#
#
#
# Elastic Compliance Matrix: (Units=1/GPa)
#
#
# Indices 1 2 3 4 5 6 
#
# 1 0.010466 -0.006396 0.001387 0.000000 0.000000 0.000000
# 2 -0.006396 0.009249 -0.001724 0.000000 0.000000 0.000000
# 3 0.001387 -0.001724 0.021532 0.000000 0.000000 0.000000
# 4 0.000000 0.000000 0.000000 -0.020378 0.000000 0.000000
# 5 0.000000 0.000000 0.000000 0.000000 0.014196 0.000000
# 6 0.000000 0.000000 0.000000 0.000000 0.000000 0.053756
#
#
# Mechanical properties :
#
#
# Convention : Reuss Voigt Hill
#
# Bulk Modulus (GPa) = 35.99849 71.34908 53.67378
# Shear Modulus (GPa) = 44.82379 26.71617 35.76998
#
# Velocity S-wave (km/s) = 4.81123 3.71441 4.29795
# Velocity P-wave (km/s) = 7.03238 7.43249 7.23520
#
# Compressibility (1/GPa) = 0.02777894
#
# Stress axis : x y z
#
# Youngs Moduli (GPa) = 95.54397 108.12546 46.44324
#
# Poissons Ratio (x) = 0.69162 -0.06440
# Poissons Ratio (y) = 0.61115 0.08006
# Poissons Ratio (z) = -0.13248 0.18640
#
# Static dielectric constant tensor:
#      x y z
#    x 1.666110 0.000000 0.000000 
#    y 0.000000 1.666050 0.000000 
#    z 0.000000 0.000000 1.735260 
# 
# From -- ./inp_files/13335.got.cif
#   From: 2010.05.17/outbox.cif.g08.bks.cpg/sg47_7_cif.got.tgz:13335.got - 2010.06.03 20:15:42.
