data_PCOD9381927
_publ_section_title
;
Structure prediction by ZEFSAII (Michael W. Deem and Ramdas Pophale) SiO2 
 PCOD9381927
Probable space group: P M M M
;
_chemical_formula_sum "Si O2"
_cell_formula_units_Z 64
_cell_length_a 9.115876
_cell_length_b 14.762787
_cell_length_c 32.338417
_cell_angle_alpha 90.000000
_cell_angle_beta 90.000000
_cell_angle_gamma 90.000000
_cell_volume 4351.966259
_symmetry_space_group_name_H-M "P M M M"
_symmetry_group_IT_number 47
_symmetry_cell_setting 'orthorhombic'
loop_
_space_group_symop_operation_xyz
x,y,z
-x,-y,z
x,-y,-z
-x,y,-z
-x,-y,-z
x,y,-z
-x,y,z
x,-y,z
loop_
_atom_site_type_symbol
_atom_site_label
_atom_site_fract_x
_atom_site_fract_y
_atom_site_fract_z
Si Si1 0.178374 0.788378 0.454234
Si Si2 0.823725 0.105426 0.213181
Si Si3 0.175580 0.398200 0.586233
Si Si4 0.171824 0.890000 0.954379
Si Si5 0.822806 0.222224 0.293184
Si Si6 0.821191 0.103976 0.373141
Si Si7 0.668643 0.889744 0.871510
Si Si8 0.674954 0.603389 0.675774
O O1 0.230354 0.814217 0.500000
O O2 0.215603 0.684195 0.443686
O O3 0.228036 0.850543 0.416101
O O4 0.000000 0.793679 0.454693
O O5 0.782096 0.166864 0.252121
O O6 0.753843 0.136516 0.170032
O O7 0.000000 0.107548 0.209406
O O8 0.781909 0.000000 0.220550
O O9 0.205141 0.500000 0.570414
O O10 0.257582 0.386842 0.629763
O O11 0.000000 0.391525 0.593921
O O12 0.258681 0.857625 0.914251
O O13 0.000000 0.867068 0.950595
O O14 0.180043 0.000000 0.954326
O O15 0.224472 0.860267 0.000000
O O16 0.778540 0.164350 0.333764
O O17 0.748761 0.319870 0.296481
O O18 0.000000 0.231350 0.294126
O O19 0.000000 0.103707 0.373521
O O20 0.773241 0.000000 0.369334
O O21 0.500000 0.862208 0.869255
O O22 0.673875 0.000000 0.872475
O O23 0.500000 0.615039 0.674169
O O24 0.706451 0.500000 0.689186
#
# Coordination Sequence:
#
# PCOD9381927 Si02
#       8
#     8   8   8   8   8   8   8   8
#     4   9  16  25  39  63  90 111 133 163 202 245
#     4   9  17  28  42  60  82 109 141 176 213 252
#     4   9  16  28  46  65  85 108 133 163 199 240
#     4   8  13  21  33  48  67  96 137 183 226 263
#     4  10  18  30  48  67  84 106 138 172 206 245
#     4   9  16  26  41  62  87 110 134 169 207 240
#     4   9  16  24  34  50  75 106 139 177 219 259
#     4  10  20  32  47  67  88 108 130 160 201 247
#
# _framework density 14.705997
#
# number of rings (size 3 to 8) (size 9 to 14) (size 15 to 20)
#    0.000    2.875    1.250    1.500    0.000    5.000 
#    0.000    3.750    0.000    1.500    0.000    1.750 
#    0.000    1.000    0.000    0.000    0.000    0.625 
#
# Total GULP energy -356379.390075 kJ/mol
# GULP energy per Si atom -5568.427970 kJ/mol
# Density = 1.467253 g / cm^3
# Si number density = 14.705997 Si / 1000 Ang^3
#
#
#
# Elastic Constant Matrix: (Units=GPa)
#
#
# Indices 1 2 3 4 5 6 
#
# 1 18.4173 22.4933 36.6171 0.0000 0.0000 0.0000
# 2 22.4933 69.0488 50.3436 0.0000 0.0000 0.0000
# 3 36.6171 50.3436 133.2609 0.0000 0.0000 0.0000
# 4 0.0000 0.0000 0.0000 5.9818 0.0000 0.0000
# 5 0.0000 0.0000 0.0000 0.0000 1.4457 0.0000
# 6 0.0000 0.0000 0.0000 0.0000 0.0000 10.2708
#
#
#
# Elastic Compliance Matrix: (Units=1/GPa)
#
#
# Indices 1 2 3 4 5 6 
#
# 1 0.145843 -0.025245 -0.030537 0.000000 0.000000 0.000000
# 2 -0.025245 0.024358 -0.002265 0.000000 0.000000 0.000000
# 3 -0.030537 -0.002265 0.016751 0.000000 0.000000 0.000000
# 4 0.000000 0.000000 0.000000 0.167172 0.000000 0.000000
# 5 0.000000 0.000000 0.000000 0.000000 0.691718 0.000000
# 6 0.000000 0.000000 0.000000 0.000000 0.000000 0.097364
#
#
# Mechanical properties :
#
#
# Convention : Reuss Voigt Hill
#
# Bulk Modulus (GPa) = 14.11303 48.84835 31.48069
# Shear Modulus (GPa) = 3.89736 10.95785 7.42761
#
# Velocity S-wave (km/s) = 1.62971 2.73266 2.24982
# Velocity P-wave (km/s) = 3.62752 6.57612 5.31057
#
# Compressibility (1/GPa) = 0.07085649
#
# Stress axis : x y z
#
# Youngs Moduli (GPa) = 6.85671 41.05445 59.69863
#
# Poissons Ratio (x) = 1.03642 1.82303
# Poissons Ratio (y) = 0.17310 0.13523
# Poissons Ratio (z) = 0.20938 0.09300
#
# Static dielectric constant tensor:
#      x y z
#    x 1.484950 0.000000 0.000000 
#    y 0.000000 1.479700 0.000000 
#    z 0.000000 0.000000 1.487410 
# 
# From -- ./inp_files/8209.got.cif
#   From: 2010.05.17/outbox.cif.g08.bks.cpg/sg47_5_cif.got.tgz:8209.got - 2010.06.03 20:15:42.
