data_PCOD9381745
_publ_section_title
;
Structure prediction by ZEFSAII (Michael W. Deem and Ramdas Pophale) SiO2 
 PCOD9381745
Probable space group: P M M M
;
_chemical_formula_sum "Si O2"
_cell_formula_units_Z 52
_cell_length_a 13.310317
_cell_length_b 24.059933
_cell_length_c 10.472436
_cell_angle_alpha 90.000000
_cell_angle_beta 90.000000
_cell_angle_gamma 90.000000
_cell_volume 3353.748777
_symmetry_space_group_name_H-M "P M M M"
_symmetry_group_IT_number 47
_symmetry_cell_setting 'orthorhombic'
loop_
_space_group_symop_operation_xyz
x,y,z
-x,-y,z
x,-y,-z
-x,y,-z
-x,-y,-z
x,y,-z
-x,y,z
x,-y,z
loop_
_atom_site_type_symbol
_atom_site_label
_atom_site_fract_x
_atom_site_fract_y
_atom_site_fract_z
Si Si1 0.879015 0.844998 0.351690
Si Si2 0.877961 0.936417 0.854453
Si Si3 0.121179 0.438051 0.500000
Si Si4 0.385884 0.649493 0.354453
Si Si5 0.810088 0.278515 0.350777
Si Si6 0.311356 0.565667 0.142635
Si Si7 0.884913 0.617127 0.231502
O O1 0.859812 0.860276 0.500000
O O2 0.846638 0.892349 0.252344
O O3 0.826110 0.786159 0.324947
O O4 0.000000 0.836995 0.339779
O O5 0.000000 0.936559 0.853206
O O6 0.846211 0.000000 0.827671
O O7 0.847510 0.922118 0.000000
O O8 0.163354 0.500000 0.500000
O O9 0.146058 0.406785 0.370851
O O10 0.000000 0.441483 0.500000
O O11 0.373670 0.627840 0.500000
O O12 0.500000 0.669909 0.341851
O O13 0.303025 0.697891 0.338897
O O14 0.366287 0.601911 0.250117
O O15 0.842329 0.287003 0.500000
O O16 0.872902 0.317123 0.254027
O O17 0.310843 0.500000 0.171710
O O18 0.197377 0.589434 0.142244
O O19 0.354091 0.573115 0.000000
O O20 0.000000 0.602704 0.202537
#
# Coordination Sequence:
#
# PCOD9381745 Si02
#       7
#     8   8   4   8   8   8   8
#     4   9  16  24  38  62  90 120 151 178 207 250
#     4   8  14  25  39  55  81 120 159 189 216 242
#     4   9  16  24  38  62  83 105 144 186 217 244
#     4   9  19  36  56  73  86 106 141 185 229 272
#     4   9  16  28  45  66  92 117 142 178 225 271
#     4  10  22  36  48  66  91 117 143 175 223 277
#     4  10  18  29  45  64  89 121 152 181 213 258
#
# _framework density 15.505038000000001
#
# number of rings (size 3 to 8) (size 9 to 14) (size 15 to 20)
#    0.000    2.846    0.769    1.385    1.077    3.077 
#    0.000    6.923    0.000    3.692    0.000    0.000 
#    0.000    0.615    0.000    7.692    0.000    1.538 
#
# Total GULP energy -289555.292183 kJ/mol
# GULP energy per Si atom -5568.371004 kJ/mol
# Density = 1.546975 g / cm^3
# Si number density = 15.505038 Si / 1000 Ang^3
#
#
#
# Elastic Constant Matrix: (Units=GPa)
#
#
# Indices 1 2 3 4 5 6 
#
# 1 46.0179 11.3409 17.6683 0.0000 0.0000 0.0000
# 2 11.3409 115.0268 68.6643 0.0000 0.0000 0.0000
# 3 17.6683 68.6643 88.0188 0.0000 0.0000 0.0000
# 4 0.0000 0.0000 0.0000 -9.8547 0.0000 0.0000
# 5 0.0000 0.0000 0.0000 0.0000 1.3697 0.0000
# 6 0.0000 0.0000 0.0000 0.0000 0.0000 9.6513
#
#
#
# Elastic Compliance Matrix: (Units=1/GPa)
#
#
# Indices 1 2 3 4 5 6 
#
# 1 0.023599 0.000938 -0.005469 0.000000 0.000000 0.000000
# 2 0.000938 0.016308 -0.012910 0.000000 0.000000 0.000000
# 3 -0.005469 -0.012910 0.022530 0.000000 0.000000 0.000000
# 4 0.000000 0.000000 0.000000 -0.101474 0.000000 0.000000
# 5 0.000000 0.000000 0.000000 0.000000 0.730075 0.000000
# 6 0.000000 0.000000 0.000000 0.000000 0.000000 0.103613
#
#
# Mechanical properties :
#
#
# Convention : Reuss Voigt Hill
#
# Bulk Modulus (GPa) = 36.29078 49.37894 42.83486
# Shear Modulus (GPa) = 5.96148 10.32593 8.14371
#
# Velocity S-wave (km/s) = 1.96296 2.58344 2.29428
# Velocity P-wave (km/s) = 5.34736 6.38867 5.89107
#
# Compressibility (1/GPa) = 0.02755521
#
# Stress axis : x y z
#
# Youngs Moduli (GPa) = 42.37420 61.32068 44.38487
#
# Poissons Ratio (x) = -0.05750 0.24273
# Poissons Ratio (y) = -0.03974 0.57301
# Poissons Ratio (z) = 0.23173 0.79165
#
# Static dielectric constant tensor:
#      x y z
#    x 1.520270 0.000000 0.000000 
#    y 0.000000 1.513050 0.000000 
#    z 0.000000 0.000000 1.545470 
# 
# From -- ./inp_files/7666.got.cif
#   From: 2010.05.17/outbox.cif.g08.bks.cpg/sg47_4_cif.got.tgz:7666.got - 2010.06.03 20:15:42.
