data_PCOD9381157
_publ_section_title
;
Structure prediction by ZEFSAII (Michael W. Deem and Ramdas Pophale) SiO2 
 PCOD9381157
Probable space group: I M A 2
;
_chemical_formula_sum "Si O2"
_cell_formula_units_Z 24
_cell_length_a 9.000000
_cell_length_b 21.000000
_cell_length_c 15.000000
_cell_angle_alpha 90.000000
_cell_angle_beta 90.000000
_cell_angle_gamma 90.000000
_cell_volume 2835.000000
_symmetry_space_group_name_H-M "I M A 2"
_symmetry_group_IT_number 46
_symmetry_cell_setting 'orthorhombic'
loop_
_space_group_symop_operation_xyz
x,y,z
-x,-y,z
1/2-x,y,z
1/2+x,-y,z
1/2+x,1/2+y,1/2+z
1/2-x,1/2-y,1/2+z
-x,1/2+y,1/2+z
x,1/2-y,1/2+z
loop_
_atom_site_type_symbol
_atom_site_label
_atom_site_fract_x
_atom_site_fract_y
_atom_site_fract_z
Si Si1 0.074570 0.431015 0.497620
Si Si2 0.572190 0.069578 0.174952
Si Si3 0.082191 0.652888 0.364467
Si Si4 0.573133 0.661124 0.808373
Si Si5 0.577484 0.216033 0.478654
Si Si6 0.573579 0.229429 0.689132
O O1 0.250000 0.435547 0.513814
O O2 0.000000 0.500000 0.488507
O O3 0.994701 0.399360 0.584158
O O4 0.037324 0.393249 0.407908
O O5 0.750000 0.068430 0.169947
O O6 0.514519 0.103132 0.263724
O O7 0.500000 0.000000 0.174813
O O8 0.250000 0.626728 0.374706
O O9 0.075027 0.715818 0.427487
O O10 0.061663 0.671148 0.260379
O O11 0.750000 0.653043 0.805349
O O12 0.520052 0.674427 0.909749
O O13 0.523395 0.717966 0.740903
O O14 0.750000 0.194472 0.477058
O O15 0.534299 0.219276 0.584236
O O16 0.750000 0.248391 0.690351
#
# Coordination Sequence:
#
# PCOD9381157 Si02
#       6
#     8   8   8   8   8   8
#     4  11  21  33  50  73 100 130 164 202 247 294
#     4  11  21  35  53  73  99 129 163 202 245 292
#     4   9  17  30  49  74 102 131 164 201 243 291
#     4  11  21  32  49  75 104 132 163 200 244 292
#     4   9  18  33  52  73  98 131 166 200 242 290
#     4   9  18  33  53  74  99 133 168 203 245 291
#
# _framework density 8.4656079999999996
#
# number of rings (size 3 to 8) (size 9 to 14) (size 15 to 20)
#    0.000    2.000    0.000    7.500    0.000    4.667 
#    0.000    0.000    0.000    1.000    0.000    4.667 
#    0.000    0.000    0.000    0.000    0.000    0.000 
#
# Total GULP energy -133708.634020 kJ/mol
# GULP energy per Si atom -5571.193084 kJ/mol
# Density = 0.844634 g / cm^3
# Si number density = 8.465608 Si / 1000 Ang^3
#
#
#
# Elastic Constant Matrix: (Units=GPa)
#
#
# Indices 1 2 3 4 5 6 
#
# 1 133.7956 29.5105 51.8531 0.0000 0.0000 0.0000
# 2 29.5105 28.4008 23.8751 0.0000 0.0000 0.0000
# 3 51.8531 23.8751 158.8070 0.0000 0.0000 0.0000
# 4 0.0000 0.0000 0.0000 23.5602 0.0000 0.0000
# 5 0.0000 0.0000 0.0000 0.0000 31.1636 0.0000
# 6 0.0000 0.0000 0.0000 0.0000 0.0000 22.6555
#
#
#
# Elastic Compliance Matrix: (Units=1/GPa)
#
#
# Indices 1 2 3 4 5 6 
#
# 1 0.010219 -0.008943 -0.001992 0.000000 0.000000 0.000000
# 2 -0.008943 0.048131 -0.004316 0.000000 0.000000 0.000000
# 3 -0.001992 -0.004316 0.007596 0.000000 0.000000 0.000000
# 4 0.000000 0.000000 0.000000 0.042444 0.000000 0.000000
# 5 0.000000 0.000000 0.000000 0.000000 0.032089 0.000000
# 6 0.000000 0.000000 0.000000 0.000000 0.000000 0.044139
#
#
# Mechanical properties :
#
#
# Convention : Reuss Voigt Hill
#
# Bulk Modulus (GPa) = 28.21389 59.05344 43.63367
# Shear Modulus (GPa) = 22.03266 29.86018 25.94642
#
# Velocity S-wave (km/s) = 3.61127 4.20410 3.91891
# Velocity P-wave (km/s) = 5.83853 7.64984 6.80472
#
# Compressibility (1/GPa) = 0.03544353
#
# Stress axis : x y z
#
# Youngs Moduli (GPa) = 97.85991 20.77653 131.64416
#
# Poissons Ratio (x) = 0.18581 0.26224
# Poissons Ratio (y) = 0.87520 0.56817
# Poissons Ratio (z) = 0.19494 0.08967
#
# Static dielectric constant tensor:
#      x y z
#    x 1.570180 0.000000 0.000000 
#    y 0.000000 1.651700 0.000000 
#    z 0.000000 0.000000 1.587170 
# 
# From -- ./inp_files/14016.got.cif
#   From: 2010.05.17/outbox.ucp.g08.bks.cvg/sg46_8_cif.got.tgz:14016.got - 2010.06.11 16:34:52.
