data_PCOD9381808
_publ_section_title
;
Structure prediction by ZEFSAII (Michael W. Deem and Ramdas Pophale) SiO2 
 PCOD9381808
Probable space group: P M M M
;
_chemical_formula_sum "Si O2"
_cell_formula_units_Z 40
_cell_length_a 20.520187
_cell_length_b 7.380828
_cell_length_c 12.258063
_cell_angle_alpha 90.000000
_cell_angle_beta 90.000000
_cell_angle_gamma 90.000000
_cell_volume 1856.556831
_symmetry_space_group_name_H-M "P M M M"
_symmetry_group_IT_number 47
_symmetry_cell_setting 'orthorhombic'
loop_
_space_group_symop_operation_xyz
x,y,z
-x,-y,z
x,-y,-z
-x,y,-z
-x,-y,-z
x,y,-z
-x,y,z
x,-y,z
loop_
_atom_site_type_symbol
_atom_site_label
_atom_site_fract_x
_atom_site_fract_y
_atom_site_fract_z
Si Si1 0.373844 0.277939 0.240490
Si Si2 0.139032 0.217274 0.789083
Si Si3 0.000000 0.778488 0.871739
Si Si4 0.629290 0.704253 0.000000
Si Si5 0.220758 0.220317 0.000000
Si Si6 0.500000 0.279483 0.623825
Si Si7 0.249056 0.714383 0.623663
O O1 0.371165 0.500000 0.234492
O O2 0.386200 0.212691 0.117293
O O3 0.434366 0.225230 0.315111
O O4 0.306014 0.216046 0.295534
O O5 0.065518 0.281317 0.810095
O O6 0.182005 0.277247 0.892418
O O7 0.178923 0.262934 0.680492
O O8 0.136478 0.000000 0.793819
O O9 0.000000 0.000000 0.873087
O O10 0.000000 0.724781 0.000000
O O11 0.601722 0.500000 0.000000
O O12 0.707692 0.700125 0.000000
O O13 0.225616 0.000000 0.000000
O O14 0.500000 0.500000 0.623192
O O15 0.500000 0.217419 0.500000
O O16 0.252108 0.786913 0.500000
O O17 0.260996 0.500000 0.615768
#
# Coordination Sequence:
#
# PCOD9381808 Si02
#       7
#     8   8   4   4   4   4   8
#     4   9  17  28  45  70  98 129 163 201 248 295
#     4  10  19  32  53  78 101 127 162 205 248 294
#     4   9  16  30  52  77 102 126 157 200 251 300
#     4  10  18  29  47  73 103 129 156 202 254 296
#     4  10  18  29  49  77 103 127 158 198 246 300
#     4   9  16  27  43  65  97 133 166 202 243 290
#     4  10  20  34  51  71  99 135 171 205 243 291
#
# _framework density 21.545259000000001
#
# number of rings (size 3 to 8) (size 9 to 14) (size 15 to 20)
#    0.000    2.400    3.000    0.600    0.000    3.200 
#    0.000    3.000    0.000    3.600    0.000    3.500 
#    0.000    4.800    0.000    0.000    0.000    0.000 
#
# Total GULP energy -223359.197381 kJ/mol
# GULP energy per Si atom -5583.979935 kJ/mol
# Density = 2.149622 g / cm^3
# Si number density = 21.545259 Si / 1000 Ang^3
#
#
#
# Elastic Constant Matrix: (Units=GPa)
#
#
# Indices 1 2 3 4 5 6 
#
# 1 127.0491 -4.9040 81.2518 0.0000 0.0000 0.0000
# 2 -4.9040 75.8522 4.4074 0.0000 0.0000 0.0000
# 3 81.2518 4.4074 208.9991 0.0000 0.0000 0.0000
# 4 0.0000 0.0000 0.0000 6.4075 0.0000 0.0000
# 5 0.0000 0.0000 0.0000 0.0000 11.8068 0.0000
# 6 0.0000 0.0000 0.0000 0.0000 0.0000 15.6918
#
#
#
# Elastic Compliance Matrix: (Units=1/GPa)
#
#
# Indices 1 2 3 4 5 6 
#
# 1 0.010539 0.000921 -0.004117 0.000000 0.000000 0.000000
# 2 0.000921 0.013280 -0.000638 0.000000 0.000000 0.000000
# 3 -0.004117 -0.000638 0.006399 0.000000 0.000000 0.000000
# 4 0.000000 0.000000 0.000000 0.156066 0.000000 0.000000
# 5 0.000000 0.000000 0.000000 0.000000 0.084697 0.000000
# 6 0.000000 0.000000 0.000000 0.000000 0.000000 0.063727
#
#
# Mechanical properties :
#
#
# Convention : Reuss Voigt Hill
#
# Bulk Modulus (GPa) = 44.34622 63.71230 54.02926
# Shear Modulus (GPa) = 14.29006 28.85758 21.57382
#
# Velocity S-wave (km/s) = 2.57817 3.66374 3.16781
# Velocity P-wave (km/s) = 5.43048 6.89441 6.20577
#
# Compressibility (1/GPa) = 0.02254984
#
# Stress axis : x y z
#
# Youngs Moduli (GPa) = 94.88310 75.30055 156.28394
#
# Poissons Ratio (x) = -0.06932 0.64338
# Poissons Ratio (y) = -0.08735 0.09970
# Poissons Ratio (z) = 0.39061 0.04804
#
# Static dielectric constant tensor:
#      x y z
#    x 1.740810 0.000000 0.000000 
#    y 0.000000 1.856640 0.000000 
#    z 0.000000 0.000000 1.776640 
# 
# From -- ./inp_files/18982.got.cif
#   From: 2010.05.17/outbox.cif.g08.bks.cpg/sg47_10_cif.got.tgz:18982.got - 2010.06.03 20:15:42.
