data_PCOD9381381
_publ_section_title
;
Structure prediction by ZEFSAII (Michael W. Deem and Ramdas Pophale) SiO2 
 PCOD9381381
Probable space group: P M M M
;
_chemical_formula_sum "Si O2"
_cell_formula_units_Z 64
_cell_length_a 7.472133
_cell_length_b 20.140344
_cell_length_c 21.538507
_cell_angle_alpha 90.000000
_cell_angle_beta 90.000000
_cell_angle_gamma 90.000000
_cell_volume 3241.358544
_symmetry_space_group_name_H-M "P M M M"
_symmetry_group_IT_number 47
_symmetry_cell_setting 'orthorhombic'
loop_
_space_group_symop_operation_xyz
x,y,z
-x,-y,z
x,-y,-z
-x,y,-z
-x,-y,-z
x,y,-z
-x,y,z
x,-y,z
loop_
_atom_site_type_symbol
_atom_site_label
_atom_site_fract_x
_atom_site_fract_y
_atom_site_fract_z
Si Si1 0.707107 0.295033 0.184927
Si Si2 0.717936 0.073267 0.123347
Si Si3 0.283980 0.073855 0.267843
Si Si4 0.792308 0.782918 0.692535
Si Si5 0.281580 0.573483 0.247494
Si Si6 0.209063 0.718445 0.566963
Si Si7 0.280738 0.788381 0.069077
Si Si8 0.716347 0.573576 0.607852
O O1 0.500000 0.308294 0.169680
O O2 0.709498 0.246554 0.244595
O O3 0.785367 0.365015 0.207337
O O4 0.783717 0.258457 0.124876
O O5 0.500000 0.073051 0.122608
O O6 0.770604 0.081924 0.195577
O O7 0.776303 0.136288 0.084062
O O8 0.776082 0.000000 0.102487
O O9 0.500000 0.074719 0.268731
O O10 0.221671 0.137582 0.305768
O O11 0.226175 0.000000 0.288212
O O12 0.714473 0.751049 0.629659
O O13 0.000000 0.763526 0.696060
O O14 0.500000 0.575289 0.247551
O O15 0.227485 0.500000 0.226387
O O16 0.230173 0.580809 0.319756
O O17 0.287062 0.737750 0.500000
O O18 0.219522 0.638838 0.573279
O O19 0.000000 0.737430 0.566086
O O20 0.500000 0.788646 0.070785
O O21 0.226647 0.768314 0.000000
O O22 0.500000 0.574280 0.605129
O O23 0.774114 0.500000 0.586420
#
# Coordination Sequence:
#
# PCOD9381381 Si02
#       8
#     8   8   8   8   8   8   8   8
#     4  10  17  29  50  69  92 126 161 200 242 285
#     4   8  13  22  38  62  91 121 152 184 219 266
#     4   9  17  31  52  75  97 122 156 196 238 284
#     4  11  21  32  50  74  97 122 158 201 237 280
#     4   8  14  25  44  69  92 118 155 197 240 283
#     4  10  22  37  49  66  97 134 165 195 237 288
#     4   9  16  24  38  65  96 125 159 197 235 276
#     4   9  17  30  49  73  98 124 160 202 239 283
#
# _framework density 19.744804999999999
#
# number of rings (size 3 to 8) (size 9 to 14) (size 15 to 20)
#    0.000    2.750    2.500    1.875    0.000    1.750 
#    0.000    2.500    0.000    1.500    0.000    5.250 
#    0.000    2.000    0.000    1.125    0.000    1.250 
#
# Total GULP energy -357003.329392 kJ/mol
# GULP energy per Si atom -5578.177022 kJ/mol
# Density = 1.969987 g / cm^3
# Si number density = 19.744805 Si / 1000 Ang^3
#
#
#
# Elastic Constant Matrix: (Units=GPa)
#
#
# Indices 1 2 3 4 5 6 
#
# 1 54.6572 -7.1658 0.1161 0.0000 0.0000 0.0000
# 2 -7.1658 124.3897 67.4591 0.0000 0.0000 0.0000
# 3 0.1161 67.4591 127.4877 0.0000 0.0000 0.0000
# 4 0.0000 0.0000 0.0000 11.9995 0.0000 0.0000
# 5 0.0000 0.0000 0.0000 0.0000 3.9448 0.0000
# 6 0.0000 0.0000 0.0000 0.0000 0.0000 285.4928
#
#
#
# Elastic Compliance Matrix: (Units=1/GPa)
#
#
# Indices 1 2 3 4 5 6 
#
# 1 0.018495 0.001507 -0.000814 0.000000 0.000000 0.000000
# 2 0.001507 0.011397 -0.006032 0.000000 0.000000 0.000000
# 3 -0.000814 -0.006032 0.011037 0.000000 0.000000 0.000000
# 4 0.000000 0.000000 0.000000 0.083337 0.000000 0.000000
# 5 0.000000 0.000000 0.000000 0.000000 0.253496 0.000000
# 6 0.000000 0.000000 0.000000 0.000000 0.000000 0.003503
#
#
# Mechanical properties :
#
#
# Convention : Reuss Voigt Hill
#
# Bulk Modulus (GPa) = 33.05760 47.48372 40.27066
# Shear Modulus (GPa) = 12.43696 76.69578 44.56637
#
# Velocity S-wave (km/s) = 2.51247 6.23922 4.75607
# Velocity P-wave (km/s) = 5.01951 8.71807 7.11337
#
# Compressibility (1/GPa) = 0.03025023
#
# Stress axis : x y z
#
# Youngs Moduli (GPa) = 54.06819 87.73869 90.60802
#
# Poissons Ratio (x) = -0.13223 0.07378
# Poissons Ratio (y) = -0.08148 0.54657
# Poissons Ratio (z) = 0.04403 0.52926
#
# Static dielectric constant tensor:
#      x y z
#    x 1.773370 0.000000 0.000000 
#    y 0.000000 1.700680 0.000000 
#    z 0.000000 0.000000 1.688950 
# 
# From -- ./inp_files/30004.got.cif
#   From: 2010.05.17/outbox.cif.g08.bks.cpg/sg47_16_cif.got.tgz:30004.got - 2010.06.03 20:15:42.
