data_PCOD9381463
_publ_section_title
;
Structure prediction by ZEFSAII (Michael W. Deem and Ramdas Pophale) SiO2 
 PCOD9381463
Probable space group: P M M M
;
_chemical_formula_sum "Si O2"
_cell_formula_units_Z 64
_cell_length_a 7.382770
_cell_length_b 29.680937
_cell_length_c 15.164678
_cell_angle_alpha 90.000000
_cell_angle_beta 90.000000
_cell_angle_gamma 90.000000
_cell_volume 3322.998452
_symmetry_space_group_name_H-M "P M M M"
_symmetry_group_IT_number 47
_symmetry_cell_setting 'orthorhombic'
loop_
_space_group_symop_operation_xyz
x,y,z
-x,-y,z
x,-y,-z
-x,y,-z
-x,-y,-z
x,y,-z
-x,y,z
x,-y,z
loop_
_atom_site_type_symbol
_atom_site_label
_atom_site_fract_x
_atom_site_fract_y
_atom_site_fract_z
Si Si1 0.778162 0.950920 0.282229
Si Si2 0.281470 0.184105 0.100872
Si Si3 0.789747 0.079783 0.097295
Si Si4 0.285620 0.732280 0.213901
Si Si5 0.281979 0.548428 0.894637
Si Si6 0.217367 0.766093 0.599654
Si Si7 0.779960 0.867532 0.398494
Si Si8 0.721544 0.647204 0.897141
O O1 0.714337 0.945355 0.181736
O O2 0.715994 0.907829 0.337216
O O3 0.000000 0.949411 0.282005
O O4 0.726457 0.000000 0.317543
O O5 0.500000 0.181986 0.105011
O O6 0.215902 0.133383 0.116900
O O7 0.214621 0.221800 0.168711
O O8 0.232451 0.196555 0.000000
O O9 0.000000 0.066515 0.091757
O O10 0.709267 0.072807 0.000000
O O11 0.500000 0.732726 0.196752
O O12 0.261850 0.734063 0.318850
O O13 0.215738 0.688051 0.164108
O O14 0.500000 0.548032 0.883429
O O15 0.214315 0.500000 0.859857
O O16 0.218197 0.597607 0.864562
O O17 0.248650 0.548450 0.000000
O O18 0.280918 0.755023 0.500000
O O19 0.281663 0.816834 0.623265
O O20 0.000000 0.767925 0.595039
O O21 0.731654 0.876070 0.500000
O O22 0.000000 0.866990 0.393639
O O23 0.500000 0.646671 0.896704
O O24 0.773425 0.653551 0.000000
#
# Coordination Sequence:
#
# PCOD9381463 Si02
#       8
#     8   8   8   8   8   8   8   8
#     4   9  16  24  36  56  78  96 115 145 187 229
#     4   9  17  28  41  58  81 108 136 162 189 227
#     4   9  17  28  41  56  74  99 131 161 186 216
#     4  10  18  26  40  62  85 108 133 164 202 237
#     4   7   9  14  26  45  71 106 144 173 194 223
#     4   9  18  32  47  60  77 105 136 163 196 239
#     4   8  14  25  40  56  73  94 120 148 181 227
#     4   8  13  21  33  52  82 116 143 166 197 238
#
# _framework density 19.259713999999999
#
# number of rings (size 3 to 8) (size 9 to 14) (size 15 to 20)
#    0.000    3.375    0.000    3.000    0.000    3.750 
#    0.000    2.500    0.000    1.500    0.000    1.750 
#    0.000    1.000    0.000   20.125    0.000   12.500 
#
# Total GULP energy -356759.180796 kJ/mol
# GULP energy per Si atom -5574.362200 kJ/mol
# Density = 1.921588 g / cm^3
# Si number density = 19.259714 Si / 1000 Ang^3
#
#
#
# Elastic Constant Matrix: (Units=GPa)
#
#
# Indices 1 2 3 4 5 6 
#
# 1 65.2809 -2.2366 -2.1289 0.0000 0.0000 0.0000
# 2 -2.2366 85.6290 66.0509 0.0000 0.0000 0.0000
# 3 -2.1289 66.0509 83.5080 0.0000 0.0000 0.0000
# 4 0.0000 0.0000 0.0000 15.9176 0.0000 0.0000
# 5 0.0000 0.0000 0.0000 0.0000 6.8849 0.0000
# 6 0.0000 0.0000 0.0000 0.0000 0.0000 -0.2584
#
#
#
# Elastic Compliance Matrix: (Units=1/GPa)
#
#
# Indices 1 2 3 4 5 6 
#
# 1 0.015333 0.000254 0.000190 0.000000 0.000000 0.000000
# 2 0.000254 0.029957 -0.023688 0.000000 0.000000 0.000000
# 3 0.000190 -0.023688 0.030716 0.000000 0.000000 0.000000
# 4 0.000000 0.000000 0.000000 0.062824 0.000000 0.000000
# 5 0.000000 0.000000 0.000000 0.000000 0.145245 0.000000
# 6 0.000000 0.000000 0.000000 0.000000 0.000000 -3.870114
#
#
# Mechanical properties :
#
#
# Convention : Reuss Voigt Hill
#
# Bulk Modulus (GPa) = 33.87767 39.75429 36.81598
# Shear Modulus (GPa) = -1.41655 16.02432 7.30389
#
# Velocity S-wave (km/s) = -0.85854 2.88759 1.94950
# Velocity P-wave (km/s) = 4.07987 5.63946 4.92183
#
# Compressibility (1/GPa) = 0.02951797
#
# Stress axis : x y z
#
# Youngs Moduli (GPa) = 65.21751 33.38108 32.55633
#
# Poissons Ratio (x) = -0.00847 -0.00619
# Poissons Ratio (y) = -0.01656 0.77120
# Poissons Ratio (z) = -0.01240 0.79074
#
# Static dielectric constant tensor:
#      x y z
#    x 1.721920 0.000000 0.000000 
#    y 0.000000 1.693810 0.000000 
#    z 0.000000 0.000000 1.662370 
# 
# From -- ./inp_files/22168.got.cif
#   From: 2010.05.17/outbox.cif.g08.bks.cpg/sg47_12_cif.got.tgz:22168.got - 2010.06.03 20:15:42.
