data_PCOD9381770
_publ_section_title
;
Structure prediction by ZEFSAII (Michael W. Deem and Ramdas Pophale) SiO2 
 PCOD9381770
Probable space group: P M M M
;
_chemical_formula_sum "Si O2"
_cell_formula_units_Z 52
_cell_length_a 14.141847
_cell_length_b 8.065602
_cell_length_c 28.739688
_cell_angle_alpha 90.000000
_cell_angle_beta 90.000000
_cell_angle_gamma 90.000000
_cell_volume 3278.120934
_symmetry_space_group_name_H-M "P M M M"
_symmetry_group_IT_number 47
_symmetry_cell_setting 'orthorhombic'
loop_
_space_group_symop_operation_xyz
x,y,z
-x,-y,z
x,-y,-z
-x,y,-z
-x,-y,-z
x,y,-z
-x,y,z
x,-y,z
loop_
_atom_site_type_symbol
_atom_site_label
_atom_site_fract_x
_atom_site_fract_y
_atom_site_fract_z
Si Si1 0.708034 0.802232 0.789309
Si Si2 0.107961 0.800558 0.448168
Si Si3 0.612912 0.311501 0.116972
Si Si4 0.108180 0.298806 0.737977
Si Si5 0.614599 0.000000 0.946919
Si Si6 0.211238 0.696799 0.355820
Si Si7 0.393793 0.199698 0.694372
O O1 0.670042 0.715870 0.835462
O O2 0.816241 0.764525 0.775566
O O3 0.647063 0.745213 0.744434
O O4 0.695365 0.000000 0.794728
O O5 0.136967 0.743084 0.500000
O O6 0.173507 0.751703 0.405569
O O7 0.000000 0.741975 0.439877
O O8 0.105325 0.000000 0.449458
O O9 0.500000 0.291651 0.126343
O O10 0.627071 0.500000 0.099773
O O11 0.641129 0.166626 0.081049
O O12 0.110560 0.500000 0.738539
O O13 0.146172 0.240754 0.687245
O O14 0.000000 0.246334 0.745296
O O15 0.500000 0.000000 0.948573
O O16 0.649270 0.000000 0.000000
O O17 0.206288 0.500000 0.354172
O O18 0.317659 0.749630 0.344024
O O19 0.500000 0.261102 0.686784
O O20 0.395996 0.000000 0.695679
#
# Coordination Sequence:
#
# PCOD9381770 Si02
#       7
#     8   8   8   8   4   8   8
#     4  10  18  29  46  68  95 124 159 200 236 277
#     4   9  18  32  49  68  89 114 146 184 225 273
#     4  10  19  30  47  70  97 131 166 201 244 289
#     4   9  18  31  44  62  93 128 158 189 227 277
#     4   9  18  32  48  68  97 131 167 207 245 284
#     4  10  19  30  46  68  93 120 149 185 231 278
#     4   9  18  31  47  66  90 123 159 193 227 268
#
# _framework density 15.862747000000001
#
# number of rings (size 3 to 8) (size 9 to 14) (size 15 to 20)
#    0.000    2.538    0.769    2.308    0.000    4.000 
#    0.000    2.308    0.000    0.462    0.000    3.231 
#    0.000    1.231    0.000    3.231    0.000    0.154 
#
# Total GULP energy -289880.210204 kJ/mol
# GULP energy per Si atom -5574.619427 kJ/mol
# Density = 1.582664 g / cm^3
# Si number density = 15.862747 Si / 1000 Ang^3
#
#
#
# Elastic Constant Matrix: (Units=GPa)
#
#
# Indices 1 2 3 4 5 6 
#
# 1 97.0741 30.0168 60.2265 0.0000 0.0000 0.0000
# 2 30.0168 53.4985 38.5256 0.0000 0.0000 0.0000
# 3 60.2265 38.5256 121.5492 0.0000 0.0000 0.0000
# 4 0.0000 0.0000 0.0000 13.7995 0.0000 0.0000
# 5 0.0000 0.0000 0.0000 0.0000 19.2491 0.0000
# 6 0.0000 0.0000 0.0000 0.0000 0.0000 15.5543
#
#
#
# Elastic Compliance Matrix: (Units=1/GPa)
#
#
# Indices 1 2 3 4 5 6 
#
# 1 0.015542 -0.004114 -0.006397 0.000000 0.000000 0.000000
# 2 -0.004114 0.025309 -0.005984 0.000000 0.000000 0.000000
# 3 -0.006397 -0.005984 0.013293 0.000000 0.000000 0.000000
# 4 0.000000 0.000000 0.000000 0.072466 0.000000 0.000000
# 5 0.000000 0.000000 0.000000 0.000000 0.051950 0.000000
# 6 0.000000 0.000000 0.000000 0.000000 0.000000 0.064291
#
#
# Mechanical properties :
#
#
# Convention : Reuss Voigt Hill
#
# Bulk Modulus (GPa) = 47.26802 58.85106 53.05954
# Shear Modulus (GPa) = 17.67450 19.27744 18.47597
#
# Velocity S-wave (km/s) = 3.34161 3.48985 3.41653
# Velocity P-wave (km/s) = 6.68964 7.30886 7.00609
#
# Compressibility (1/GPa) = 0.02115595
#
# Stress axis : x y z
#
# Youngs Moduli (GPa) = 64.34011 39.51146 75.22513
#
# Poissons Ratio (x) = 0.16254 0.48124
# Poissons Ratio (y) = 0.26467 0.45011
# Poissons Ratio (z) = 0.41160 0.23642
#
# Static dielectric constant tensor:
#      x y z
#    x 1.520590 0.000000 0.000000 
#    y 0.000000 1.559380 0.000000 
#    z 0.000000 0.000000 1.518080 
# 
# From -- ./inp_files/7647.got.cif
#   From: 2010.05.17/outbox.cif.g08.bks.cpg/sg47_4_cif.got.tgz:7647.got - 2010.06.03 20:15:42.
