data_PCOD9381403
_publ_section_title
;
Structure prediction by ZEFSAII (Michael W. Deem and Ramdas Pophale) SiO2 
 PCOD9381403
Probable space group: P M M M
;
_chemical_formula_sum "Si O2"
_cell_formula_units_Z 56
_cell_length_a 7.584804
_cell_length_b 23.764362
_cell_length_c 15.641720
_cell_angle_alpha 90.000000
_cell_angle_beta 90.000000
_cell_angle_gamma 90.000000
_cell_volume 2819.389184
_symmetry_space_group_name_H-M "P M M M"
_symmetry_group_IT_number 47
_symmetry_cell_setting 'orthorhombic'
loop_
_space_group_symop_operation_xyz
x,y,z
-x,-y,z
x,-y,-z
-x,y,-z
-x,-y,-z
x,y,-z
-x,y,z
x,-y,z
loop_
_atom_site_type_symbol
_atom_site_label
_atom_site_fract_x
_atom_site_fract_y
_atom_site_fract_z
Si Si1 0.700270 0.624362 0.666867
Si Si2 0.792916 0.123639 0.097595
Si Si3 0.709982 0.000000 0.097141
Si Si4 0.285059 0.318169 0.906907
Si Si5 0.707282 0.775778 0.777041
Si Si6 0.715748 0.255254 0.597819
Si Si7 0.284519 0.563962 0.836497
Si Si8 0.200435 0.566095 0.500000
O O1 0.500000 0.637468 0.694499
O O2 0.773924 0.683358 0.632737
O O3 0.776349 0.587828 0.744202
O O4 0.702637 0.586265 0.583866
O O5 0.764217 0.060424 0.132812
O O6 0.725325 0.170567 0.162066
O O7 0.000000 0.132810 0.090696
O O8 0.717939 0.127000 0.000000
O O9 0.500000 0.000000 0.093900
O O10 0.783006 0.000000 0.000000
O O11 0.500000 0.316454 0.905345
O O12 0.220835 0.278334 0.829821
O O13 0.235085 0.383660 0.896800
O O14 0.228639 0.296475 0.000000
O O15 0.500000 0.764820 0.768075
O O16 0.771381 0.782919 0.679148
O O17 0.776933 0.245001 0.500000
O O18 0.500000 0.255172 0.591884
O O19 0.500000 0.560986 0.837251
O O20 0.223609 0.500000 0.853475
O O21 0.190939 0.500000 0.500000
O O22 0.000000 0.588856 0.500000
#
# Coordination Sequence:
#
# PCOD9381403 Si02
#       8
#     8   8   4   8   8   8   8   4
#     4  10  17  30  50  67  83 111 153 196 243 303
#     4  10  20  33  50  76 112 148 177 206 242 283
#     4   9  17  31  53  81 112 145 180 211 239 278
#     4   9  16  25  39  61  90 124 159 198 247 298
#     4  10  18  30  49  72  98 129 169 212 252 299
#     4   9  16  28  49  72  93 119 157 209 261 305
#     4   9  16  25  39  61  86 113 152 200 247 299
#     4  11  23  33  41  61  91 115 141 186 247 310
#
# _framework density 19.862459000000001
#
# number of rings (size 3 to 8) (size 9 to 14) (size 15 to 20)
#    0.000    2.429    2.143    1.714    0.000    3.714 
#    0.000    2.143    0.000    0.000    0.000    0.500 
#    0.000    4.000    0.000    6.000    0.000    5.714 
#
# Total GULP energy -311990.795018 kJ/mol
# GULP energy per Si atom -5571.264197 kJ/mol
# Density = 1.981725 g / cm^3
# Si number density = 19.862459 Si / 1000 Ang^3
#
#
#
# Elastic Constant Matrix: (Units=GPa)
#
#
# Indices 1 2 3 4 5 6 
#
# 1 45.5817 -1.7969 4.3672 0.0000 0.0000 0.0000
# 2 -1.7969 113.6649 57.5785 0.0000 0.0000 0.0000
# 3 4.3672 57.5785 144.0610 0.0000 0.0000 0.0000
# 4 0.0000 0.0000 0.0000 7.6038 0.0000 0.0000
# 5 0.0000 0.0000 0.0000 0.0000 -10.3752 0.0000
# 6 0.0000 0.0000 0.0000 0.0000 0.0000 214.3102
#
#
#
# Elastic Compliance Matrix: (Units=1/GPa)
#
#
# Indices 1 2 3 4 5 6 
#
# 1 0.022070 0.000862 -0.001014 0.000000 0.000000 0.000000
# 2 0.000862 0.011065 -0.004449 0.000000 0.000000 0.000000
# 3 -0.001014 -0.004449 0.008750 0.000000 0.000000 0.000000
# 4 0.000000 0.000000 0.000000 0.131513 0.000000 0.000000
# 5 0.000000 0.000000 0.000000 0.000000 -0.096384 0.000000
# 6 0.000000 0.000000 0.000000 0.000000 0.000000 0.004666
#
#
# Mechanical properties :
#
#
# Convention : Reuss Voigt Hill
#
# Bulk Modulus (GPa) = 30.59498 47.06724 38.83111
# Shear Modulus (GPa) = 49.12815 58.51836 53.82325
#
# Velocity S-wave (km/s) = 4.97874 5.43376 5.21122
# Velocity P-wave (km/s) = 6.96329 7.94454 7.47004
#
# Compressibility (1/GPa) = 0.03268510
#
# Stress axis : x y z
#
# Youngs Moduli (GPa) = 45.31091 90.37577 114.28240
#
# Poissons Ratio (x) = -0.07794 0.11585
# Poissons Ratio (y) = -0.03908 0.50839
# Poissons Ratio (z) = 0.04593 0.40204
#
# Static dielectric constant tensor:
#      x y z
#    x 1.785690 0.000000 0.000000 
#    y 0.000000 1.698510 0.000000 
#    z 0.000000 0.000000 1.742820 
# 
# From -- ./inp_files/21691.got.cif
#   From: 2010.05.17/outbox.cif.g08.bks.cpg/sg47_11_cif.got.tgz:21691.got - 2010.06.03 20:15:42.
