data_PCOD9381402
_publ_section_title
;
Structure prediction by ZEFSAII (Michael W. Deem and Ramdas Pophale) SiO2 
 PCOD9381402
Probable space group: P M M M
;
_chemical_formula_sum "Si O2"
_cell_formula_units_Z 60
_cell_length_a 15.910724
_cell_length_b 7.388411
_cell_length_c 26.246644
_cell_angle_alpha 90.000000
_cell_angle_beta 90.000000
_cell_angle_gamma 90.000000
_cell_volume 3085.423401
_symmetry_space_group_name_H-M "P M M M"
_symmetry_group_IT_number 47
_symmetry_cell_setting 'orthorhombic'
loop_
_space_group_symop_operation_xyz
x,y,z
-x,-y,z
x,-y,-z
-x,y,-z
-x,-y,-z
x,y,-z
-x,y,z
x,-y,z
loop_
_atom_site_type_symbol
_atom_site_label
_atom_site_fract_x
_atom_site_fract_y
_atom_site_fract_z
Si Si1 0.402119 0.797828 0.000000
Si Si2 0.853721 0.278759 0.942270
Si Si3 0.773073 0.715108 0.243131
Si Si4 0.910914 0.720148 0.834887
Si Si5 0.096391 0.217285 0.333499
Si Si6 0.101409 0.214527 0.445248
Si Si7 0.596133 0.278894 0.793664
Si Si8 0.678113 0.703983 0.101670
O O1 0.377991 0.700256 0.051658
O O2 0.500000 0.816240 0.000000
O O3 0.364046 0.000000 0.000000
O O4 0.853273 0.500000 0.945165
O O5 0.910367 0.229441 0.894248
O O6 0.763339 0.215776 0.921251
O O7 0.871399 0.217326 0.000000
O O8 0.766739 0.500000 0.237231
O O9 0.829028 0.784624 0.195484
O O10 0.832821 0.745046 0.291673
O O11 0.675965 0.778942 0.241419
O O12 0.908827 0.500000 0.832823
O O13 0.000000 0.778187 0.811232
O O14 0.124976 0.285727 0.389497
O O15 0.000000 0.281661 0.322307
O O16 0.090175 0.000000 0.337104
O O17 0.131699 0.288530 0.500000
O O18 0.000000 0.230178 0.445596
O O19 0.121022 0.000000 0.445673
O O20 0.500000 0.217829 0.783234
O O21 0.591876 0.500000 0.792646
O O22 0.627312 0.221227 0.850337
O O23 0.701749 0.500000 0.117872
#
# Coordination Sequence:
#
# PCOD9381402 Si02
#       8
#     4   8   8   8   8   8   8   8
#     4  11  23  33  41  61  90 109 124 156 207 267
#     4   9  15  24  40  60  80  99 126 168 208 244
#     4  10  18  29  45  64  89 117 146 183 225 267
#     4   9  16  25  38  58  84 111 135 164 209 258
#     4   9  17  28  43  66  95 124 155 187 214 248
#     4   7  10  19  37  60  86 118 154 187 215 243
#     4   9  17  29  47  68  85 106 143 187 225 263
#     4  10  17  30  50  66  79 101 136 173 207 250
#
# _framework density 19.446276999999998
#
# number of rings (size 3 to 8) (size 9 to 14) (size 15 to 20)
#    0.000    2.867    2.000    2.200    0.000    2.133 
#    0.000    2.000    0.000    1.600    0.000    1.867 
#    0.000    1.067    0.000    6.667    0.000    0.267 
#
# Total GULP energy -334016.423042 kJ/mol
# GULP energy per Si atom -5566.940384 kJ/mol
# Density = 1.940202 g / cm^3
# Si number density = 19.446277 Si / 1000 Ang^3
#
#
#
# Elastic Constant Matrix: (Units=GPa)
#
#
# Indices 1 2 3 4 5 6 
#
# 1 141.6055 4.3465 65.1358 0.0000 0.0000 0.0000
# 2 4.3465 66.6078 2.1324 0.0000 0.0000 0.0000
# 3 65.1358 2.1324 153.5316 0.0000 0.0000 0.0000
# 4 0.0000 0.0000 0.0000 5.6192 0.0000 0.0000
# 5 0.0000 0.0000 0.0000 0.0000 11.7439 0.0000
# 6 0.0000 0.0000 0.0000 0.0000 0.0000 -1.5307
#
#
#
# Elastic Compliance Matrix: (Units=1/GPa)
#
#
# Indices 1 2 3 4 5 6 
#
# 1 0.008788 -0.000454 -0.003722 0.000000 0.000000 0.000000
# 2 -0.000454 0.015043 -0.000016 0.000000 0.000000 0.000000
# 3 -0.003722 -0.000016 0.008093 0.000000 0.000000 0.000000
# 4 0.000000 0.000000 0.000000 0.177961 0.000000 0.000000
# 5 0.000000 0.000000 0.000000 0.000000 0.085150 0.000000
# 6 0.000000 0.000000 0.000000 0.000000 0.000000 -0.653277
#
#
# Mechanical properties :
#
#
# Convention : Reuss Voigt Hill
#
# Bulk Modulus (GPa) = 42.48274 56.10826 49.29550
# Shear Modulus (GPa) = -14.61944 22.50849 3.94452
#
# Velocity S-wave (km/s) = -2.74485 3.40585 1.42577
# Velocity P-wave (km/s) = 3.44210 6.66198 5.30236
#
# Compressibility (1/GPa) = 0.02353897
#
# Stress axis : x y z
#
# Youngs Moduli (GPa) = 113.79366 66.47420 123.57016
#
# Poissons Ratio (x) = 0.03020 0.45992
# Poissons Ratio (y) = 0.05170 0.00200
# Poissons Ratio (z) = 0.42353 0.00108
#
# Static dielectric constant tensor:
#      x y z
#    x 1.713420 0.000000 0.000000 
#    y 0.000000 1.813170 0.000000 
#    z 0.000000 0.000000 1.776790 
# 
# From -- ./inp_files/32938.got.cif
#   From: 2010.05.17/outbox.cif.g08.bks.cpg/sg47_17_cif.got.tgz:32938.got - 2010.06.03 20:15:42.
