data_PCOD9381956
_publ_section_title
;
Structure prediction by ZEFSAII (Michael W. Deem and Ramdas Pophale) SiO2 
 PCOD9381956
Probable space group: P M M M
;
_chemical_formula_sum "Si O2"
_cell_formula_units_Z 36
_cell_length_a 9.009552
_cell_length_b 21.189535
_cell_length_c 12.053955
_cell_angle_alpha 90.000000
_cell_angle_beta 90.000000
_cell_angle_gamma 90.000000
_cell_volume 2301.199062
_symmetry_space_group_name_H-M "P M M M"
_symmetry_group_IT_number 47
_symmetry_cell_setting 'orthorhombic'
loop_
_space_group_symop_operation_xyz
x,y,z
-x,-y,z
x,-y,-z
-x,y,-z
-x,-y,-z
x,y,-z
-x,y,z
x,-y,z
loop_
_atom_site_type_symbol
_atom_site_label
_atom_site_fract_x
_atom_site_fract_y
_atom_site_fract_z
Si Si1 0.171598 0.000000 0.364661
Si Si2 0.319664 0.500000 0.373959
Si Si3 0.329696 0.128669 0.365294
Si Si4 0.680551 0.573453 0.000000
Si Si5 0.177625 0.260380 0.630526
Si Si6 0.320203 0.624650 0.761556
O O1 0.252953 0.063887 0.327730
O O2 0.174715 0.000000 0.500000
O O3 0.000000 0.000000 0.331312
O O4 0.500000 0.500000 0.375702
O O5 0.265956 0.500000 0.500000
O O6 0.276138 0.436926 0.309596
O O7 0.330711 0.126366 0.500000
O O8 0.500000 0.132403 0.328043
O O9 0.240555 0.191816 0.336404
O O10 0.724257 0.609528 0.111969
O O11 0.730088 0.500000 0.000000
O O12 0.500000 0.570942 0.000000
O O13 0.217272 0.271139 0.500000
O O14 0.248140 0.314310 0.706458
O O15 0.000000 0.260692 0.638409
O O16 0.500000 0.630390 0.757525
#
# Coordination Sequence:
#
# PCOD9381956 Si02
#       6
#     4   4   8   4   8   8
#     4   9  15  23  37  59  89 124 157 188 225 269
#     4   9  16  25  42  68  91 113 146 185 222 268
#     4   9  16  26  41  61  86 119 159 196 227 266
#     4   9  16  30  51  73  91 112 147 194 241 279
#     4  10  20  32  44  62  92 126 156 190 236 284
#     4  10  18  30  49  69  90 116 151 192 233 280
#
# _framework density 15.644018000000001
#
# number of rings (size 3 to 8) (size 9 to 14) (size 15 to 20)
#    0.000    2.556    1.111    2.333    0.000    6.222 
#    0.000    1.111    0.000    2.667    0.000    0.000 
#    0.000    0.889    0.000    9.556    0.000    7.333 
#
# Total GULP energy -200640.063182 kJ/mol
# GULP energy per Si atom -5573.335088 kJ/mol
# Density = 1.560841 g / cm^3
# Si number density = 15.644018 Si / 1000 Ang^3
#
#
#
# Elastic Constant Matrix: (Units=GPa)
#
#
# Indices 1 2 3 4 5 6 
#
# 1 60.5162 59.9278 34.3608 0.0000 0.0000 0.0000
# 2 59.9278 174.5345 70.4125 0.0000 0.0000 0.0000
# 3 34.3608 70.4125 92.5094 0.0000 0.0000 0.0000
# 4 0.0000 0.0000 0.0000 0.3486 0.0000 0.0000
# 5 0.0000 0.0000 0.0000 0.0000 10.9018 0.0000
# 6 0.0000 0.0000 0.0000 0.0000 0.0000 -27.4591
#
#
#
# Elastic Compliance Matrix: (Units=1/GPa)
#
#
# Indices 1 2 3 4 5 6 
#
# 1 0.026095 -0.007287 -0.004146 0.000000 0.000000 0.000000
# 2 -0.007287 0.010304 -0.005136 0.000000 0.000000 0.000000
# 3 -0.004146 -0.005136 0.016259 0.000000 0.000000 0.000000
# 4 0.000000 0.000000 0.000000 2.868838 0.000000 0.000000
# 5 0.000000 0.000000 0.000000 0.000000 0.091728 0.000000
# 6 0.000000 0.000000 0.000000 0.000000 0.000000 -0.036418
#
#
# Mechanical properties :
#
#
# Convention : Reuss Voigt Hill
#
# Bulk Modulus (GPa) = 51.23100 72.99583 62.11341
# Shear Modulus (GPa) = 1.65758 7.61552 4.63655
#
# Velocity S-wave (km/s) = 1.03047 2.20875 1.72343
# Velocity P-wave (km/s) = 5.85106 7.29840 6.61443
#
# Compressibility (1/GPa) = 0.01951943
#
# Stress axis : x y z
#
# Youngs Moduli (GPa) = 38.32156 97.05325 61.50607
#
# Poissons Ratio (x) = 0.70727 0.25499
# Poissons Ratio (y) = 0.27926 0.31588
# Poissons Ratio (z) = 0.15887 0.49844
#
# Static dielectric constant tensor:
#      x y z
#    x 1.523660 0.000000 0.000000 
#    y 0.000000 1.507050 0.000000 
#    z 0.000000 0.000000 1.503640 
# 
# From -- ./inp_files/15049.got.cif
#   From: 2010.05.17/outbox.cif.g08.bks.cpg/sg47_8_cif.got.tgz:15049.got - 2010.06.03 20:15:42.
