data_PCOD9381793
_publ_section_title
;
Structure prediction by ZEFSAII (Michael W. Deem and Ramdas Pophale) SiO2 
 PCOD9381793
Probable space group: P M M M
;
_chemical_formula_sum "Si O2"
_cell_formula_units_Z 60
_cell_length_a 17.821601
_cell_length_b 21.483012
_cell_length_c 7.474697
_cell_angle_alpha 90.000000
_cell_angle_beta 90.000000
_cell_angle_gamma 90.000000
_cell_volume 2861.774962
_symmetry_space_group_name_H-M "P M M M"
_symmetry_group_IT_number 47
_symmetry_cell_setting 'orthorhombic'
loop_
_space_group_symop_operation_xyz
x,y,z
-x,-y,z
x,-y,-z
-x,y,-z
-x,-y,-z
x,y,-z
-x,y,z
x,-y,z
loop_
_atom_site_type_symbol
_atom_site_label
_atom_site_fract_x
_atom_site_fract_y
_atom_site_fract_z
Si Si1 0.161541 0.736852 0.714424
Si Si2 0.753310 0.429620 0.780636
Si Si3 0.917415 0.615050 0.210563
Si Si4 0.584291 0.187652 0.288737
Si Si5 0.000000 0.073097 0.297372
Si Si6 0.676045 0.689407 0.800164
Si Si7 0.844203 0.119184 0.281849
Si Si8 0.317157 0.070431 0.719046
O O1 0.170304 0.733234 0.500000
O O2 0.096562 0.689056 0.768111
O O3 0.238815 0.714564 0.800832
O O4 0.152591 0.808249 0.762977
O O5 0.734967 0.500000 0.731791
O O6 0.839080 0.414195 0.719820
O O7 0.692644 0.378523 0.716311
O O8 0.754381 0.425240 0.000000
O O9 0.000000 0.598012 0.283959
O O10 0.919190 0.599768 0.000000
O O11 0.578561 0.176332 0.500000
O O12 0.500000 0.190896 0.214752
O O13 0.626684 0.253863 0.272864
O O14 0.631226 0.128213 0.218910
O O15 0.078542 0.091257 0.213300
O O16 0.000000 0.101396 0.500000
O O17 0.000000 0.000000 0.314889
O O18 0.647327 0.679007 0.000000
O O19 0.842933 0.113596 0.500000
O O20 0.767788 0.086308 0.223141
O O21 0.318034 0.070938 0.500000
O O22 0.338579 0.000000 0.773227
#
# Coordination Sequence:
#
# PCOD9381793 Si02
#       8
#     8   8   8   8   4   8   8   8
#     4  10  18  29  47  69  96 128 168 211 253 301
#     4   8  15  29  50  75  99 127 168 215 257 298
#     4   9  18  30  44  68 102 134 168 210 258 308
#     4  10  20  34  53  79 108 135 165 203 249 300
#     4   9  16  24  34  56  91 123 154 201 256 298
#     4  10  19  33  54  77 101 129 163 202 248 302
#     4   9  16  25  40  63  92 125 161 205 254 297
#     4   9  16  28  47  71  99 131 168 210 255 299
#
# _framework density 20.966011000000002
#
# number of rings (size 3 to 8) (size 9 to 14) (size 15 to 20)
#    0.000    2.733    1.333    2.000    0.933    2.667 
#    0.000    2.667    0.000   10.800    0.000    7.467 
#    0.000    2.133    0.000    0.000    0.000    0.000 
#
# Total GULP energy -334348.048418 kJ/mol
# GULP energy per Si atom -5572.467474 kJ/mol
# Density = 2.091829 g / cm^3
# Si number density = 20.966011 Si / 1000 Ang^3
#
#
#
# Elastic Constant Matrix: (Units=GPa)
#
#
# Indices 1 2 3 4 5 6 
#
# 1 129.1316 78.3498 2.8378 0.0000 0.0000 0.0000
# 2 78.3498 167.8221 3.5565 0.0000 0.0000 0.0000
# 3 2.8378 3.5565 54.9478 0.0000 0.0000 0.0000
# 4 0.0000 0.0000 0.0000 13.4932 0.0000 0.0000
# 5 0.0000 0.0000 0.0000 0.0000 -1.6666 0.0000
# 6 0.0000 0.0000 0.0000 0.0000 0.0000 -7.9397
#
#
#
# Elastic Compliance Matrix: (Units=1/GPa)
#
#
# Indices 1 2 3 4 5 6 
#
# 1 0.010808 -0.005041 -0.000232 0.000000 0.000000 0.000000
# 2 -0.005041 0.008318 -0.000278 0.000000 0.000000 0.000000
# 3 -0.000232 -0.000278 0.018229 0.000000 0.000000 0.000000
# 4 0.000000 0.000000 0.000000 0.074111 0.000000 0.000000
# 5 0.000000 0.000000 0.000000 0.000000 -0.600033 0.000000
# 6 0.000000 0.000000 0.000000 0.000000 0.000000 -0.125949
#
#
# Mechanical properties :
#
#
# Convention : Reuss Voigt Hill
#
# Bulk Modulus (GPa) = 38.09060 57.93218 48.01139
# Shear Modulus (GPa) = -8.40811 18.58788 5.08988
#
# Velocity S-wave (km/s) = -2.00476 2.98077 1.55979
# Velocity P-wave (km/s) = 3.58448 6.28793 5.11794
#
# Compressibility (1/GPa) = 0.02625320
#
# Stress axis : x y z
#
# Youngs Moduli (GPa) = 92.52781 120.22257 54.85742
#
# Poissons Ratio (x) = 0.60601 0.01272
# Poissons Ratio (y) = 0.46641 0.01525
# Poissons Ratio (z) = 0.02146 0.03343
#
# Static dielectric constant tensor:
#      x y z
#    x 1.731300 0.000000 0.000000 
#    y 0.000000 1.774670 0.000000 
#    z 0.000000 0.000000 1.836980 
# 
# From -- ./inp_files/10068.got.cif
#   From: 2010.05.17/outbox.cif.g08.bks.cpg/sg47_6_cif.got.tgz:10068.got - 2010.06.03 20:15:42.
