data_PCOD9381942
_publ_section_title
;
Structure prediction by ZEFSAII (Michael W. Deem and Ramdas Pophale) SiO2 
 PCOD9381942
Probable space group: P M M M
;
_chemical_formula_sum "Si O2"
_cell_formula_units_Z 56
_cell_length_a 14.734902
_cell_length_b 16.118204
_cell_length_c 14.243366
_cell_angle_alpha 90.000000
_cell_angle_beta 90.000000
_cell_angle_gamma 90.000000
_cell_volume 3382.801652
_symmetry_space_group_name_H-M "P M M M"
_symmetry_group_IT_number 47
_symmetry_cell_setting 'orthorhombic'
loop_
_space_group_symop_operation_xyz
x,y,z
-x,-y,z
x,-y,-z
-x,y,-z
-x,-y,-z
x,y,-z
-x,y,z
x,-y,z
loop_
_atom_site_type_symbol
_atom_site_label
_atom_site_fract_x
_atom_site_fract_y
_atom_site_fract_z
Si Si1 0.108268 0.757455 0.895513
Si Si2 0.722376 0.908342 0.613062
Si Si3 0.224040 0.406909 0.894563
Si Si4 0.897183 0.649780 0.387432
Si Si5 0.709371 0.407476 0.305652
Si Si6 0.895085 0.165951 0.699968
Si Si7 0.604850 0.749779 0.386693
O O1 0.152643 0.667171 0.884137
O O2 0.132692 0.814646 0.807495
O O3 0.000000 0.748136 0.891367
O O4 0.132664 0.788684 0.000000
O O5 0.726423 0.904833 0.500000
O O6 0.822772 0.893834 0.652991
O O7 0.659702 0.831682 0.644590
O O8 0.688369 0.000000 0.639485
O O9 0.183682 0.500000 0.887736
O O10 0.291613 0.399746 0.807224
O O11 0.263279 0.399735 0.000000
O O12 0.886451 0.645031 0.500000
O O13 0.814445 0.602795 0.338113
O O14 0.890810 0.745552 0.354258
O O15 0.000000 0.621127 0.363919
O O16 0.678405 0.500000 0.332506
O O17 0.653434 0.333007 0.350512
O O18 0.000000 0.137975 0.696992
O O19 0.607626 0.748399 0.500000
O O20 0.500000 0.753141 0.357453
#
# Coordination Sequence:
#
# PCOD9381942 Si02
#       7
#     8   8   8   8   8   8   8
#     4   9  16  26  42  64  91 128 173 212 247 290
#     4  10  20  34  54  78 101 128 164 203 247 300
#     4   9  17  28  43  65  93 125 163 210 259 299
#     4  10  19  30  45  66  96 136 175 206 239 283
#     4  11  21  33  51  73 100 135 172 209 248 293
#     4  10  18  30  48  71 101 135 166 202 246 289
#     4  10  21  37  55  75 101 130 162 204 251 298
#
# _framework density 16.554326
#
# number of rings (size 3 to 8) (size 9 to 14) (size 15 to 20)
#    0.000    2.143    2.857    0.857    0.000    3.429 
#    0.000    6.429    0.000    0.857    0.000    4.000 
#    0.000    0.000    0.000    6.000    0.000    0.286 
#
# Total GULP energy -312076.994217 kJ/mol
# GULP energy per Si atom -5572.803468 kJ/mol
# Density = 1.651665 g / cm^3
# Si number density = 16.554326 Si / 1000 Ang^3
#
#
#
# Elastic Constant Matrix: (Units=GPa)
#
#
# Indices 1 2 3 4 5 6 
#
# 1 72.3728 49.0755 24.7093 0.0000 0.0000 0.0000
# 2 49.0755 100.3381 23.8942 0.0000 0.0000 0.0000
# 3 24.7093 23.8942 48.1510 0.0000 0.0000 0.0000
# 4 0.0000 0.0000 0.0000 16.9264 0.0000 0.0000
# 5 0.0000 0.0000 0.0000 0.0000 10.7803 0.0000
# 6 0.0000 0.0000 0.0000 0.0000 0.0000 -0.0304
#
#
#
# Elastic Compliance Matrix: (Units=1/GPa)
#
#
# Indices 1 2 3 4 5 6 
#
# 1 0.022535 -0.009376 -0.006911 0.000000 0.000000 0.000000
# 2 -0.009376 0.015203 -0.002733 0.000000 0.000000 0.000000
# 3 -0.006911 -0.002733 0.025671 0.000000 0.000000 0.000000
# 4 0.000000 0.000000 0.000000 0.059079 0.000000 0.000000
# 5 0.000000 0.000000 0.000000 0.000000 0.092762 0.000000
# 6 0.000000 0.000000 0.000000 0.000000 0.000000-32.863929
#
#
# Mechanical properties :
#
#
# Convention : Reuss Voigt Hill
#
# Bulk Modulus (GPa) = 39.41940 46.24667 42.83303
# Shear Modulus (GPa) = -0.15336 13.74746 6.79705
#
# Velocity S-wave (km/s) = -0.30470 2.88487 2.02850
# Velocity P-wave (km/s) = 4.87238 6.25249 5.60507
#
# Compressibility (1/GPa) = 0.02536822
#
# Stress axis : x y z
#
# Youngs Moduli (GPa) = 44.37593 65.77711 38.95480
#
# Poissons Ratio (x) = 0.61672 0.26923
# Poissons Ratio (y) = 0.41607 0.10646
# Poissons Ratio (z) = 0.30670 0.17976
#
# Static dielectric constant tensor:
#      x y z
#    x 1.541410 0.000000 0.000000 
#    y 0.000000 1.561500 0.000000 
#    z 0.000000 0.000000 1.586170 
# 
# From -- ./inp_files/23804.got.cif
#   From: 2010.05.17/outbox.cif.g08.bks.cpg/sg47_12_cif.got.tgz:23804.got - 2010.06.03 20:15:42.
