data_PCOD9381991
_publ_section_title
;
Structure prediction by ZEFSAII (Michael W. Deem and Ramdas Pophale) SiO2 
 PCOD9381991
Probable space group: P M M M
;
_chemical_formula_sum "Si O2"
_cell_formula_units_Z 48
_cell_length_a 14.296871
_cell_length_b 12.626994
_cell_length_c 15.357379
_cell_angle_alpha 90.000000
_cell_angle_beta 90.000000
_cell_angle_gamma 90.000000
_cell_volume 2772.413947
_symmetry_space_group_name_H-M "P M M M"
_symmetry_group_IT_number 47
_symmetry_cell_setting 'orthorhombic'
loop_
_space_group_symop_operation_xyz
x,y,z
-x,-y,z
x,-y,-z
-x,y,-z
-x,-y,-z
x,y,-z
-x,y,z
x,-y,z
loop_
_atom_site_type_symbol
_atom_site_label
_atom_site_fract_x
_atom_site_fract_y
_atom_site_fract_z
Si Si1 0.109026 0.128020 0.235590
Si Si2 0.387400 0.384561 0.500000
Si Si3 0.777465 0.125865 0.399610
Si Si4 0.607435 0.245929 0.666295
Si Si5 0.605627 0.000000 0.894572
Si Si6 0.261648 0.194875 0.099543
Si Si7 0.607350 0.626538 0.847044
O O1 0.140967 0.160212 0.333163
O O2 0.175487 0.184758 0.165366
O O3 0.000000 0.150139 0.221672
O O4 0.122634 0.000000 0.227045
O O5 0.344562 0.500000 0.500000
O O6 0.500000 0.393406 0.500000
O O7 0.365918 0.322622 0.413041
O O8 0.779849 0.166186 0.500000
O O9 0.682466 0.154219 0.347466
O O10 0.783650 0.000000 0.406270
O O11 0.500000 0.209387 0.656606
O O12 0.612207 0.316832 0.752656
O O13 0.662813 0.105375 0.871536
O O14 0.500000 0.000000 0.859389
O O15 0.599346 0.000000 0.000000
O O16 0.315411 0.306917 0.101331
O O17 0.233547 0.170496 0.000000
O O18 0.500000 0.642119 0.879482
O O19 0.623252 0.500000 0.842952
#
# Coordination Sequence:
#
# PCOD9381991 Si02
#       7
#     8   4   8   8   4   8   8
#     4  10  21  38  59  82 109 142 184 234 285 331
#     4   9  16  26  43  69 100 135 179 225 261 300
#     4  10  20  34  53  80 113 144 177 217 269 335
#     4  10  18  30  49  75 108 147 186 223 265 319
#     4   9  18  32  51  79 114 147 177 215 265 325
#     4  11  21  35  56  83 114 146 186 231 276 331
#     4  10  21  36  54  79 114 154 193 229 268 322
#
# _framework density 17.313431000000001
#
# number of rings (size 3 to 8) (size 9 to 14) (size 15 to 20)
#    0.000    2.000    3.333    1.000    0.000    4.333 
#    0.000    4.167    0.000    0.500    0.000    1.167 
#    0.000    2.000    0.000    0.000    0.000    0.000 
#
# Total GULP energy -267448.229452 kJ/mol
# GULP energy per Si atom -5571.838114 kJ/mol
# Density = 1.727403 g / cm^3
# Si number density = 17.313431 Si / 1000 Ang^3
#
#
#
# Elastic Constant Matrix: (Units=GPa)
#
#
# Indices 1 2 3 4 5 6 
#
# 1 114.5601 34.9585 51.1879 0.0000 0.0000 0.0000
# 2 34.9585 40.7967 26.9591 0.0000 0.0000 0.0000
# 3 51.1879 26.9591 92.7454 0.0000 0.0000 0.0000
# 4 0.0000 0.0000 0.0000 18.5371 0.0000 0.0000
# 5 0.0000 0.0000 0.0000 0.0000 13.4853 0.0000
# 6 0.0000 0.0000 0.0000 0.0000 0.0000 15.3546
#
#
#
# Elastic Compliance Matrix: (Units=1/GPa)
#
#
# Indices 1 2 3 4 5 6 
#
# 1 0.013500 -0.008224 -0.005060 0.000000 0.000000 0.000000
# 2 -0.008224 0.035350 -0.005736 0.000000 0.000000 0.000000
# 3 -0.005060 -0.005736 0.015242 0.000000 0.000000 0.000000
# 4 0.000000 0.000000 0.000000 0.053946 0.000000 0.000000
# 5 0.000000 0.000000 0.000000 0.000000 0.074155 0.000000
# 6 0.000000 0.000000 0.000000 0.000000 0.000000 0.065127
#
#
# Mechanical properties :
#
#
# Convention : Reuss Voigt Hill
#
# Bulk Modulus (GPa) = 38.38684 52.70148 45.54416
# Shear Modulus (GPa) = 16.44500 18.47517 17.46008
#
# Velocity S-wave (km/s) = 3.08529 3.27019 3.17909
# Velocity P-wave (km/s) = 5.90863 6.69064 6.31176
#
# Compressibility (1/GPa) = 0.02605059
#
# Stress axis : x y z
#
# Youngs Moduli (GPa) = 74.07627 28.28888 65.60614
#
# Poissons Ratio (x) = 0.23265 0.33198
# Poissons Ratio (y) = 0.60920 0.37635
# Poissons Ratio (z) = 0.37484 0.16228
#
# Static dielectric constant tensor:
#      x y z
#    x 1.574440 0.000000 0.000000 
#    y 0.000000 1.595500 0.000000 
#    z 0.000000 0.000000 1.617580 
# 
# From -- ./inp_files/22706.got.cif
#   From: 2010.05.17/outbox.cif.g08.bks.cpg/sg47_12_cif.got.tgz:22706.got - 2010.06.03 20:15:42.
