data_PCOD9381112
_publ_section_title
;
Structure prediction by ZEFSAII (Michael W. Deem and Ramdas Pophale) SiO2 
 PCOD9381112
Probable space group: I M A 2
;
_chemical_formula_sum "Si O2"
_cell_formula_units_Z 32
_cell_length_a 9.000000
_cell_length_b 18.000000
_cell_length_c 21.000000
_cell_angle_alpha 90.000000
_cell_angle_beta 90.000000
_cell_angle_gamma 90.000000
_cell_volume 3402.000000
_symmetry_space_group_name_H-M "I M A 2"
_symmetry_group_IT_number 46
_symmetry_cell_setting 'orthorhombic'
loop_
_space_group_symop_operation_xyz
x,y,z
-x,-y,z
1/2-x,y,z
1/2+x,-y,z
1/2+x,1/2+y,1/2+z
1/2-x,1/2-y,1/2+z
-x,1/2+y,1/2+z
x,1/2-y,1/2+z
loop_
_atom_site_type_symbol
_atom_site_label
_atom_site_fract_x
_atom_site_fract_y
_atom_site_fract_z
Si Si1 0.072660 0.630175 0.022630
Si Si2 0.571234 0.925373 0.649244
Si Si3 0.569018 0.707026 0.523798
Si Si4 0.421938 0.122982 0.391665
Si Si5 0.568608 0.799897 0.748986
Si Si6 0.068785 0.371859 0.752394
Si Si7 0.428161 0.073900 0.117519
Si Si8 0.921005 0.695918 0.386277
O O1 0.250000 0.627736 0.026864
O O2 0.996133 0.585326 0.079284
O O3 0.010953 0.714280 0.031309
O O4 0.017973 0.603440 0.953074
O O5 0.750000 0.929991 0.646637
O O6 0.527914 0.854498 0.692263
O O7 0.500000 0.000000 0.677120
O O8 0.750000 0.719370 0.522188
O O9 0.536168 0.648258 0.578520
O O10 0.518898 0.674558 0.455190
O O11 0.250000 0.099881 0.400707
O O12 0.479386 0.099692 0.321908
O O13 0.420388 0.213620 0.387187
O O14 0.750000 0.799118 0.751255
O O15 0.523416 0.714129 0.741750
O O16 0.512536 0.826408 0.818469
O O17 0.250000 0.372155 0.754596
O O18 0.020338 0.415952 0.690380
O O19 0.250000 0.066828 0.117055
O O20 0.500000 0.000000 0.089742
O O21 0.750000 0.670714 0.385623
#
# Coordination Sequence:
#
# PCOD9381112 Si02
#       8
#     8   8   8   8   8   8   8   8
#     4  11  21  33  52  78 104 128 161 207 256 303
#     4  11  22  36  52  71 100 136 172 208 248 295
#     4   9  17  32  55  77  99 133 173 207 243 294
#     4   8  14  28  51  75  98 126 163 205 247 295
#     4   8  14  27  51  77  96 119 159 208 249 290
#     4   8  14  28  52  77  97 125 168 209 245 293
#     4  10  20  33  49  72 103 138 174 209 248 293
#     4   7  11  23  47  77  98 117 156 205 246 287
#
# _framework density 9.4062319999999993
#
# number of rings (size 3 to 8) (size 9 to 14) (size 15 to 20)
#    0.000    3.000    0.000    4.500    0.000    2.500 
#    0.000    1.875    0.000   18.000    0.000    0.000 
#    0.000    0.000    0.000    0.000    0.000    0.000 
#
# Total GULP energy -178258.115671 kJ/mol
# GULP energy per Si atom -5570.566115 kJ/mol
# Density = 0.938482 g / cm^3
# Si number density = 9.406232 Si / 1000 Ang^3
#
#
#
# Elastic Constant Matrix: (Units=GPa)
#
#
# Indices 1 2 3 4 5 6 
#
# 1 37.6931 11.7156 18.5705 0.0000 0.0000 0.0000
# 2 11.7156 50.7841 25.3730 0.0000 0.0000 0.0000
# 3 18.5705 25.3730 105.3797 0.0000 0.0000 0.0000
# 4 0.0000 0.0000 0.0000 -11.6296 0.0000 0.0000
# 5 0.0000 0.0000 0.0000 0.0000 7.6723 0.0000
# 6 0.0000 0.0000 0.0000 0.0000 0.0000 19.0705
#
#
#
# Elastic Compliance Matrix: (Units=1/GPa)
#
#
# Indices 1 2 3 4 5 6 
#
# 1 0.030079 -0.004877 -0.004126 0.000000 0.000000 0.000000
# 2 -0.004877 0.023175 -0.004720 0.000000 0.000000 0.000000
# 3 -0.004126 -0.004720 0.011353 0.000000 0.000000 0.000000
# 4 0.000000 0.000000 0.000000 -0.085988 0.000000 0.000000
# 5 0.000000 0.000000 0.000000 0.000000 0.130339 0.000000
# 6 0.000000 0.000000 0.000000 0.000000 0.000000 0.052437
#
#
# Mechanical properties :
#
#
# Convention : Reuss Voigt Hill
#
# Bulk Modulus (GPa) = 26.91158 33.90832 30.40995
# Shear Modulus (GPa) = 24.84720 12.23584 18.54152
#
# Velocity S-wave (km/s) = 3.63820 2.55308 3.14283
# Velocity P-wave (km/s) = 5.65552 5.17248 5.41938
#
# Compressibility (1/GPa) = 0.03715872
#
# Stress axis : x y z
#
# Youngs Moduli (GPa) = 33.24580 43.15020 88.08081
#
# Poissons Ratio (x) = 0.21046 0.36344
# Poissons Ratio (y) = 0.16216 0.41578
# Poissons Ratio (z) = 0.13718 0.20369
#
# Static dielectric constant tensor:
#      x y z
#    x 1.620010 0.000000 0.000000 
#    y 0.000000 1.642310 0.000000 
#    z 0.000000 0.000000 1.714730 
# 
# From -- ./inp_files/21330.got.cif
#   From: 2010.05.17/outbox.ucp.g08.bks.cvg/sg46_11_cif.got.tgz:21330.got - 2010.06.11 16:34:52.
