data_PCOD9381580
_publ_section_title
;
Structure prediction by ZEFSAII (Michael W. Deem and Ramdas Pophale) SiO2 
 PCOD9381580
Probable space group: P M M M
;
_chemical_formula_sum "Si O2"
_cell_formula_units_Z 60
_cell_length_a 9.171769
_cell_length_b 18.744924
_cell_length_c 24.023150
_cell_angle_alpha 90.000000
_cell_angle_beta 90.000000
_cell_angle_gamma 90.000000
_cell_volume 4130.158752
_symmetry_space_group_name_H-M "P M M M"
_symmetry_group_IT_number 47
_symmetry_cell_setting 'orthorhombic'
loop_
_space_group_symop_operation_xyz
x,y,z
-x,-y,z
x,-y,-z
-x,y,-z
-x,-y,-z
x,y,-z
-x,y,z
x,-y,z
loop_
_atom_site_type_symbol
_atom_site_label
_atom_site_fract_x
_atom_site_fract_y
_atom_site_fract_z
Si Si1 0.827835 0.085845 0.886110
Si Si2 0.674201 0.841632 0.781303
Si Si3 0.324659 0.582635 0.676150
Si Si4 0.325197 0.341998 0.438691
Si Si5 0.166695 0.209961 0.609619
Si Si6 0.325745 0.082588 0.663178
Si Si7 0.668246 0.086666 0.000000
Si Si8 0.167643 0.711294 0.269928
O O1 0.749418 0.122640 0.834231
O O2 0.000000 0.101710 0.886842
O O3 0.811669 0.000000 0.881024
O O4 0.752318 0.108196 0.944010
O O5 0.500000 0.838058 0.788090
O O6 0.704241 0.888994 0.725849
O O7 0.741372 0.763745 0.769571
O O8 0.500000 0.590930 0.681529
O O9 0.287920 0.500000 0.684316
O O10 0.284863 0.607604 0.613231
O O11 0.244454 0.636036 0.718161
O O12 0.285989 0.369980 0.500000
O O13 0.500000 0.333821 0.436496
O O14 0.252659 0.265014 0.429138
O O15 0.245036 0.134929 0.620503
O O16 0.166967 0.248808 0.670077
O O17 0.000000 0.201050 0.591662
O O18 0.500000 0.088443 0.655076
O O19 0.283224 0.000000 0.658110
O O20 0.500000 0.110329 0.000000
O O21 0.667500 0.000000 0.000000
O O22 0.000000 0.703748 0.251917
#
# Coordination Sequence:
#
# PCOD9381580 Si02
#       8
#     8   8   8   8   8   8   4   8
#     4  10  19  29  41  59  85 116 150 188 227 262
#     4  10  18  28  43  62  84 110 142 178 214 252
#     4   9  17  29  45  65  88 112 137 165 198 239
#     4   9  17  29  45  63  82 106 135 165 198 238
#     4   9  17  28  42  59  79 104 132 163 201 245
#     4   9  17  28  42  60  81 104 131 166 208 252
#     4   9  17  29  43  57  77 111 154 193 226 261
#     4   9  17  29  43  60  83 110 139 168 203 248
#
# _framework density 14.527286999999999
#
# number of rings (size 3 to 8) (size 9 to 14) (size 15 to 20)
#    0.000    2.733    0.000    2.200    0.000    6.933 
#    0.000    1.333    0.000    0.400    0.000    6.533 
#    0.000    0.000    0.000    0.600    0.000   11.067 
#
# Total GULP energy -334316.967003 kJ/mol
# GULP energy per Si atom -5571.949450 kJ/mol
# Density = 1.449422 g / cm^3
# Si number density = 14.527287 Si / 1000 Ang^3
#
#
#
# Elastic Constant Matrix: (Units=GPa)
#
#
# Indices 1 2 3 4 5 6 
#
# 1 58.9492 38.1703 22.3520 0.0000 0.0000 0.0000
# 2 38.1703 93.8658 11.5408 0.0000 0.0000 0.0000
# 3 22.3520 11.5408 29.4461 0.0000 0.0000 0.0000
# 4 0.0000 0.0000 0.0000 13.0733 0.0000 0.0000
# 5 0.0000 0.0000 0.0000 0.0000 17.9221 0.0000
# 6 0.0000 0.0000 0.0000 0.0000 0.0000 18.0221
#
#
#
# Elastic Compliance Matrix: (Units=1/GPa)
#
#
# Indices 1 2 3 4 5 6 
#
# 1 0.030959 -0.010191 -0.019506 0.000000 0.000000 0.000000
# 2 -0.010191 0.014548 0.002034 0.000000 0.000000 0.000000
# 3 -0.019506 0.002034 0.047970 0.000000 0.000000 0.000000
# 4 0.000000 0.000000 0.000000 0.076492 0.000000 0.000000
# 5 0.000000 0.000000 0.000000 0.000000 0.055797 0.000000
# 6 0.000000 0.000000 0.000000 0.000000 0.000000 0.055487
#
#
# Mechanical properties :
#
#
# Convention : Reuss Voigt Hill
#
# Bulk Modulus (GPa) = 26.21211 36.26527 31.23869
# Shear Modulus (GPa) = 14.31456 17.15004 15.73230
#
# Velocity S-wave (km/s) = 3.14244 3.43963 3.29439
# Velocity P-wave (km/s) = 5.59009 6.38690 6.00173
#
# Compressibility (1/GPa) = 0.03815031
#
# Stress axis : x y z
#
# Youngs Moduli (GPa) = 32.30104 68.74002 20.84649
#
# Poissons Ratio (x) = 0.70053 0.40663
# Poissons Ratio (y) = 0.32918 -0.04241
# Poissons Ratio (z) = 0.63007 -0.13983
#
# Static dielectric constant tensor:
#      x y z
#    x 1.487960 0.000000 0.000000 
#    y 0.000000 1.460720 0.000000 
#    z 0.000000 0.000000 1.465530 
# 
# From -- ./inp_files/28908.got.cif
#   From: 2010.05.17/outbox.cif.g08.bks.cpg/sg47_15_cif.got.tgz:28908.got - 2010.06.03 20:15:42.
