data_PCOD9381262
_publ_section_title
;
Structure prediction by ZEFSAII (Michael W. Deem and Ramdas Pophale) SiO2 
 PCOD9381262
Probable space group: P M M M
;
_chemical_formula_sum "Si O2"
_cell_formula_units_Z 56
_cell_length_a 7.546136
_cell_length_b 15.728090
_cell_length_c 21.054925
_cell_angle_alpha 90.000000
_cell_angle_beta 90.000000
_cell_angle_gamma 90.000000
_cell_volume 2498.931275
_symmetry_space_group_name_H-M "P M M M"
_symmetry_group_IT_number 47
_symmetry_cell_setting 'orthorhombic'
loop_
_space_group_symop_operation_xyz
x,y,z
-x,-y,z
x,-y,-z
-x,y,-z
-x,-y,-z
x,y,-z
-x,y,z
x,-y,z
loop_
_atom_site_type_symbol
_atom_site_label
_atom_site_fract_x
_atom_site_fract_y
_atom_site_fract_z
Si Si1 0.714104 0.406813 0.155705
Si Si2 0.792880 0.828137 0.294922
Si Si3 0.283956 0.360705 0.568459
Si Si4 0.210333 0.756257 0.928530
Si Si5 0.296866 0.632848 0.295278
Si Si6 0.216826 0.094729 0.162750
Si Si7 0.712759 0.841008 0.568116
O O1 0.500000 0.404605 0.158851
O O2 0.768841 0.500000 0.132740
O O3 0.766539 0.330744 0.109963
O O4 0.782016 0.393957 0.227920
O O5 0.701852 0.735846 0.295928
O O6 0.729865 0.881038 0.234485
O O7 0.773419 0.872953 0.363309
O O8 0.000000 0.809709 0.285535
O O9 0.225506 0.395816 0.500000
O O10 0.500000 0.366913 0.569523
O O11 0.218781 0.394148 0.636465
O O12 0.240983 0.259765 0.567791
O O13 0.280766 0.833497 0.885753
O O14 0.000000 0.770501 0.933549
O O15 0.282755 0.752297 0.000000
O O16 0.500000 0.602518 0.295176
O O17 0.000000 0.095217 0.162196
O O18 0.274191 0.000000 0.146023
O O19 0.775602 0.876711 0.500000
O O20 0.500000 0.846763 0.568198
#
# Coordination Sequence:
#
# PCOD9381262 Si02
#       7
#     8   8   8   8   8   8   8
#     4  10  21  36  55  79 108 144 182 219 261 312
#     4  10  17  26  46  73 101 132 170 218 265 310
#     4   7  10  18  35  60  87 118 159 203 245 289
#     4  10  21  38  60  84 108 135 171 216 264 316
#     4   9  16  28  47  68  96 136 177 214 255 307
#     4   9  18  33  53  79 110 140 171 212 264 319
#     4   8  14  25  41  63  95 135 176 217 262 311
#
# _framework density 22.409580999999999
#
# number of rings (size 3 to 8) (size 9 to 14) (size 15 to 20)
#    0.000    3.000    1.429    2.143    0.000    1.429 
#    0.000    2.857    0.000    4.714    0.000    7.000 
#    0.000    0.000    0.000    8.429    0.000   10.429 
#
# Total GULP energy -312304.230227 kJ/mol
# GULP energy per Si atom -5576.861254 kJ/mol
# Density = 2.235858 g / cm^3
# Si number density = 22.409581 Si / 1000 Ang^3
#
#
#
# Elastic Constant Matrix: (Units=GPa)
#
#
# Indices 1 2 3 4 5 6 
#
# 1 55.4193 -1.5488 7.1128 0.0000 0.0000 0.0000
# 2 -1.5488 112.1642 94.5511 0.0000 0.0000 0.0000
# 3 7.1128 94.5511 234.6513 0.0000 0.0000 0.0000
# 4 0.0000 0.0000 0.0000 -18.7248 0.0000 0.0000
# 5 0.0000 0.0000 0.0000 0.0000 23.8568 0.0000
# 6 0.0000 0.0000 0.0000 0.0000 0.0000 34.6623
#
#
#
# Elastic Compliance Matrix: (Units=1/GPa)
#
#
# Indices 1 2 3 4 5 6 
#
# 1 0.018201 0.001085 -0.000989 0.000000 0.000000 0.000000
# 2 0.001085 0.013566 -0.005499 0.000000 0.000000 0.000000
# 3 -0.000989 -0.005499 0.006508 0.000000 0.000000 0.000000
# 4 0.000000 0.000000 0.000000 -0.053405 0.000000 0.000000
# 5 0.000000 0.000000 0.000000 0.000000 0.041917 0.000000
# 6 0.000000 0.000000 0.000000 0.000000 0.000000 0.028850
#
#
# Mechanical properties :
#
#
# Convention : Reuss Voigt Hill
#
# Bulk Modulus (GPa) = 36.40502 66.94054 51.67278
# Shear Modulus (GPa) = 66.13813 28.10019 47.11916
#
# Velocity S-wave (km/s) = 5.43851 3.54494 4.59042
# Velocity P-wave (km/s) = 7.46439 6.83313 7.15572
#
# Compressibility (1/GPa) = 0.02746874
#
# Stress axis : x y z
#
# Youngs Moduli (GPa) = 54.94053 73.71245 153.66824
#
# Poissons Ratio (x) = -0.07997 0.15196
# Poissons Ratio (y) = -0.05961 0.84507
# Poissons Ratio (z) = 0.05433 0.40537
#
# Static dielectric constant tensor:
#      x y z
#    x 1.878720 0.000000 0.000000 
#    y 0.000000 1.802120 0.000000 
#    z 0.000000 0.000000 1.866590 
# 
# From -- ./inp_files/29705.got.cif
#   From: 2010.05.17/outbox.cif.g08.bks.cpg/sg47_15_cif.got.tgz:29705.got - 2010.06.03 20:15:42.
