data_PCOD9381471
_publ_section_title
;
Structure prediction by ZEFSAII (Michael W. Deem and Ramdas Pophale) SiO2 
 PCOD9381471
Probable space group: P M M M
;
_chemical_formula_sum "Si O2"
_cell_formula_units_Z 52
_cell_length_a 8.156710
_cell_length_b 16.995858
_cell_length_c 19.099792
_cell_angle_alpha 90.000000
_cell_angle_beta 90.000000
_cell_angle_gamma 90.000000
_cell_volume 2647.809607
_symmetry_space_group_name_H-M "P M M M"
_symmetry_group_IT_number 47
_symmetry_cell_setting 'orthorhombic'
loop_
_space_group_symop_operation_xyz
x,y,z
-x,-y,z
x,-y,-z
-x,y,-z
-x,-y,-z
x,y,-z
-x,y,z
x,-y,z
loop_
_atom_site_type_symbol
_atom_site_label
_atom_site_fract_x
_atom_site_fract_y
_atom_site_fract_z
Si Si1 0.805890 0.500000 0.422000
Si Si2 0.298705 0.828591 0.672723
Si Si3 0.806442 0.590445 0.789677
Si Si4 0.689793 0.659013 0.348014
Si Si5 0.301360 0.318934 0.919744
Si Si6 0.302460 0.164316 0.836196
Si Si7 0.691030 0.000000 0.336807
Si Si8 0.809491 0.000000 0.820282
O O1 0.732550 0.500000 0.500000
O O2 0.761780 0.581202 0.383386
O O3 0.000000 0.500000 0.426812
O O4 0.500000 0.829030 0.671121
O O5 0.242440 0.746835 0.637637
O O6 0.250642 0.825118 0.754929
O O7 0.241702 0.913488 0.643080
O O8 0.760721 0.500000 0.777218
O O9 0.709434 0.644455 0.735182
O O10 0.767456 0.614714 0.868543
O O11 0.000000 0.599283 0.775719
O O12 0.500000 0.660393 0.367132
O O13 0.500000 0.322337 0.917859
O O14 0.249889 0.236356 0.884591
O O15 0.248928 0.325567 0.000000
O O16 0.500000 0.161546 0.836890
O O17 0.234242 0.080108 0.859411
O O18 0.704923 0.000000 0.251893
O O19 0.500000 0.000000 0.356994
O O20 0.000000 0.000000 0.800673
#
# Coordination Sequence:
#
# PCOD9381471 Si02
#       8
#     4   8   8   8   8   8   4   4
#     4  11  25  43  59  83 122 159 186 217 269 331
#     4   8  14  26  49  78 104 136 175 219 268 320
#     4  11  23  37  54  77 107 141 177 218 273 334
#     4  11  20  34  59  88 113 143 188 232 266 310
#     4  10  21  37  56  75  96 129 180 236 283 329
#     4   9  16  31  49  67  96 132 170 215 276 331
#     4   8  14  28  46  69 106 143 170 207 270 327
#     4  10  18  26  41  69  96 126 171 217 266 322
#
# _framework density 19.638874000000001
#
# number of rings (size 3 to 8) (size 9 to 14) (size 15 to 20)
#    0.000    2.231    2.308    2.769    0.000    2.769 
#    0.000    2.692    0.000    2.308    0.000    0.538 
#    0.000    4.308    0.000    0.000    0.000    0.000 
#
# Total GULP energy -289867.955279 kJ/mol
# GULP energy per Si atom -5574.383755 kJ/mol
# Density = 1.959417 g / cm^3
# Si number density = 19.638874 Si / 1000 Ang^3
#
#
#
# Elastic Constant Matrix: (Units=GPa)
#
#
# Indices 1 2 3 4 5 6 
#
# 1 13.2653 15.2949 0.5673 0.0000 0.0000 0.0000
# 2 15.2949 169.1518 32.2566 0.0000 0.0000 0.0000
# 3 0.5673 32.2566 41.5264 0.0000 0.0000 0.0000
# 4 0.0000 0.0000 0.0000 6.5919 0.0000 0.0000
# 5 0.0000 0.0000 0.0000 0.0000 13.3172 0.0000
# 6 0.0000 0.0000 0.0000 0.0000 0.0000 -25.6437
#
#
#
# Elastic Compliance Matrix: (Units=1/GPa)
#
#
# Indices 1 2 3 4 5 6 
#
# 1 0.085279 -0.008791 0.005664 0.000000 0.000000 0.000000
# 2 -0.008791 0.007846 -0.005975 0.000000 0.000000 0.000000
# 3 0.005664 -0.005975 0.028644 0.000000 0.000000 0.000000
# 4 0.000000 0.000000 0.000000 0.151702 0.000000 0.000000
# 5 0.000000 0.000000 0.000000 0.000000 0.075091 0.000000
# 6 0.000000 0.000000 0.000000 0.000000 0.000000 -0.038996
#
#
# Mechanical properties :
#
#
# Convention : Reuss Voigt Hill
#
# Bulk Modulus (GPa) = 9.65573 35.57566 22.61570
# Shear Modulus (GPa) = 13.80102 10.57472 12.18787
#
# Velocity S-wave (km/s) = 2.65380 2.32299 2.49389
# Velocity P-wave (km/s) = 3.78385 5.03481 4.45347
#
# Compressibility (1/GPa) = 0.10356549
#
# Stress axis : x y z
#
# Youngs Moduli (GPa) = 11.72626 127.45251 34.91072
#
# Poissons Ratio (x) = 1.12044 -0.19772
# Poissons Ratio (y) = 0.10309 0.20857
# Poissons Ratio (z) = -0.06641 0.76147
#
# Static dielectric constant tensor:
#      x y z
#    x 1.690160 0.000000 0.000000 
#    y 0.000000 1.749610 0.000000 
#    z 0.000000 0.000000 1.664860 
# 
# From -- ./inp_files/26834.got.cif
#   From: 2010.05.17/outbox.cif.g08.bks.cpg/sg47_14_cif.got.tgz:26834.got - 2010.06.03 20:15:42.
