data_PCOD9381192
_publ_section_title
;
Structure prediction by ZEFSAII (Michael W. Deem and Ramdas Pophale) SiO2 
 PCOD9381192
Probable space group: P M M M
;
_chemical_formula_sum "Si O2"
_cell_formula_units_Z 64
_cell_length_a 7.312290
_cell_length_b 15.419630
_cell_length_c 29.514869
_cell_angle_alpha 90.000000
_cell_angle_beta 90.000000
_cell_angle_gamma 90.000000
_cell_volume 3327.884306
_symmetry_space_group_name_H-M "P M M M"
_symmetry_group_IT_number 47
_symmetry_cell_setting 'orthorhombic'
loop_
_space_group_symop_operation_xyz
x,y,z
-x,-y,z
x,-y,-z
-x,y,-z
-x,-y,-z
x,y,-z
-x,y,z
x,-y,z
loop_
_atom_site_type_symbol
_atom_site_label
_atom_site_fract_x
_atom_site_fract_y
_atom_site_fract_z
Si Si1 0.277838 0.900972 0.869085
Si Si2 0.277453 0.596291 0.084486
Si Si3 0.277263 0.097860 0.765186
Si Si4 0.218944 0.400908 0.352353
Si Si5 0.723194 0.778913 0.950443
Si Si6 0.282470 0.722793 0.732404
Si Si7 0.217777 0.604497 0.451254
Si Si8 0.722486 0.402591 0.810832
O O1 0.500000 0.897908 0.869117
O O2 0.223892 0.881752 0.817324
O O3 0.215019 0.835716 0.907830
O O4 0.224791 0.000000 0.879191
O O5 0.500000 0.595145 0.083569
O O6 0.217692 0.500000 0.070276
O O7 0.219702 0.679229 0.056162
O O8 0.223588 0.610357 0.137025
O O9 0.500000 0.094778 0.764400
O O10 0.215931 0.178098 0.734294
O O11 0.215888 0.000000 0.754038
O O12 0.284760 0.500000 0.343027
O O13 0.254714 0.333583 0.312479
O O14 0.287696 0.369138 0.401717
O O15 0.000000 0.407440 0.356260
O O16 0.500000 0.780144 0.949472
O O17 0.778930 0.811349 0.000000
O O18 0.500000 0.728392 0.738685
O O19 0.211549 0.668043 0.775307
O O20 0.290523 0.636257 0.500000
O O21 0.239430 0.500000 0.451176
O O22 0.000000 0.621913 0.451895
O O23 0.500000 0.400533 0.810747
O O24 0.776466 0.500000 0.796873
#
# Coordination Sequence:
#
# PCOD9381192 Si02
#       8
#     8   8   8   8   8   8   8   8
#     4   8  13  21  31  41  55  76 103 139 182 223
#     4   8  13  20  27  34  48  72 102 137 173 206
#     4   8  14  24  37  52  68  88 119 159 197 230
#     4   9  17  27  38  56  84 112 133 156 189 226
#     4   9  15  19  23  33  49  71 102 139 177 216
#     4  10  17  24  38  57  76  99 128 163 198 230
#     4   7  10  19  36  54  71  98 137 168 182 204
#     4   8  13  20  30  45  63  83 111 147 182 215
#
# _framework density 19.231437
#
# number of rings (size 3 to 8) (size 9 to 14) (size 15 to 20)
#    0.000    3.625    0.000    3.750    0.000    4.250 
#    0.000    2.500    0.000    0.750    0.000    1.750 
#    0.000    0.500    0.000    6.250    0.000   10.250 
#
# Total GULP energy -356691.141721 kJ/mol
# GULP energy per Si atom -5573.299089 kJ/mol
# Density = 1.918767 g / cm^3
# Si number density = 19.231437 Si / 1000 Ang^3
#
#
#
# Elastic Constant Matrix: (Units=GPa)
#
#
# Indices 1 2 3 4 5 6 
#
# 1 74.7347 3.3700 -1.9118 0.0000 0.0000 0.0000
# 2 3.3700 115.7908 76.3614 0.0000 0.0000 0.0000
# 3 -1.9118 76.3614 86.7399 0.0000 0.0000 0.0000
# 4 0.0000 0.0000 0.0000 17.8504 0.0000 0.0000
# 5 0.0000 0.0000 0.0000 0.0000 -1.0316 0.0000
# 6 0.0000 0.0000 0.0000 0.0000 0.0000 -4.7431
#
#
#
# Elastic Compliance Matrix: (Units=1/GPa)
#
#
# Indices 1 2 3 4 5 6 
#
# 1 0.013483 -0.001403 0.001532 0.000000 0.000000 0.000000
# 2 -0.001403 0.020736 -0.018286 0.000000 0.000000 0.000000
# 3 0.001532 -0.018286 0.027661 0.000000 0.000000 0.000000
# 4 0.000000 0.000000 0.000000 0.056021 0.000000 0.000000
# 5 0.000000 0.000000 0.000000 0.000000 -0.969397 0.000000
# 6 0.000000 0.000000 0.000000 0.000000 0.000000 -0.210832
#
#
# Mechanical properties :
#
#
# Convention : Reuss Voigt Hill
#
# Bulk Modulus (GPa) = 39.11369 48.10051 43.60710
# Shear Modulus (GPa) = -4.91405 15.71153 5.39874
#
# Velocity S-wave (km/s) = -1.60024 2.86137 1.67730
# Velocity P-wave (km/s) = 4.11925 5.99852 5.14541
#
# Compressibility (1/GPa) = 0.02556650
#
# Stress axis : x y z
#
# Youngs Moduli (GPa) = 74.16682 48.22430 36.15232
#
# Poissons Ratio (x) = 0.06765 -0.05539
# Poissons Ratio (y) = 0.10404 0.66109
# Poissons Ratio (z) = -0.11364 0.88184
#
# Static dielectric constant tensor:
#      x y z
#    x 2.017370 0.000000 0.000000 
#    y 0.000000 1.664820 0.000000 
#    z 0.000000 0.000000 1.693640 
# 
# From -- ./inp_files/34452.got.cif
#   From: 2010.05.17/outbox.cif.g08.bks.cpg/sg47_18_cif.got.tgz:34452.got - 2010.06.03 20:15:42.
