data_PCOD9381172
_publ_section_title
;
Structure prediction by ZEFSAII (Michael W. Deem and Ramdas Pophale) SiO2 
 PCOD9381172
Probable space group: P M M M
;
_chemical_formula_sum "Si O2"
_cell_formula_units_Z 48
_cell_length_a 7.873077
_cell_length_b 21.598683
_cell_length_c 17.797592
_cell_angle_alpha 90.000000
_cell_angle_beta 90.000000
_cell_angle_gamma 90.000000
_cell_volume 3026.446604
_symmetry_space_group_name_H-M "P M M M"
_symmetry_group_IT_number 47
_symmetry_cell_setting 'orthorhombic'
loop_
_space_group_symop_operation_xyz
x,y,z
-x,-y,z
x,-y,-z
-x,y,-z
-x,-y,-z
x,y,-z
-x,y,z
x,-y,z
loop_
_atom_site_type_symbol
_atom_site_label
_atom_site_fract_x
_atom_site_fract_y
_atom_site_fract_z
Si Si1 0.000000 0.693831 0.089061
Si Si2 0.705485 0.697244 0.413976
Si Si3 0.207417 0.929414 0.585821
Si Si4 0.693459 0.384782 0.278853
Si Si5 0.200501 0.184361 0.683863
Si Si6 0.000000 0.567695 0.185196
Si Si7 0.685876 0.259383 0.821610
O O1 0.000000 0.625613 0.127892
O O2 0.164015 0.730367 0.119896
O O3 0.000000 0.688337 0.000000
O O4 0.761157 0.691989 0.500000
O O5 0.500000 0.701774 0.412197
O O6 0.748143 0.638595 0.361427
O O7 0.774704 0.759064 0.374594
O O8 0.259779 0.914823 0.500000
O O9 0.266356 0.877773 0.644216
O O10 0.000000 0.928052 0.586206
O O11 0.258708 0.000000 0.602791
O O12 0.500000 0.409574 0.280658
O O13 0.834031 0.425439 0.237882
O O14 0.687938 0.321139 0.230377
O O15 0.284048 0.204463 0.762104
O O16 0.000000 0.177893 0.697846
O O17 0.000000 0.500000 0.148638
O O18 0.500000 0.254120 0.856634
#
# Coordination Sequence:
#
# PCOD9381172 Si02
#       7
#     4   8   8   8   8   4   8
#     4  10  20  35  54  77 102 121 141 172 215 276
#     4   9  17  27  40  61  87 116 153 199 249 287
#     4   8  14  23  34  54  90 134 174 208 241 275
#     4   8  16  30  46  64  89 120 153 190 229 267
#     4  10  16  24  41  65  90 121 164 203 235 276
#     4  10  20  33  51  72  92 120 153 178 209 256
#     4   9  17  31  49  70  96 123 151 186 228 273
#
# _framework density 15.860184
#
# number of rings (size 3 to 8) (size 9 to 14) (size 15 to 20)
#    0.000    3.000    0.833    2.500    3.500    1.833 
#    0.000    0.000    0.000    3.000    0.000   12.833 
#    0.000    1.333    0.000    1.500    0.000    0.000 
#
# Total GULP energy -267353.212312 kJ/mol
# GULP energy per Si atom -5569.858590 kJ/mol
# Density = 1.582409 g / cm^3
# Si number density = 15.860184 Si / 1000 Ang^3
#
#
#
# Elastic Constant Matrix: (Units=GPa)
#
#
# Indices 1 2 3 4 5 6 
#
# 1 76.0327 28.8937 41.7457 0.0000 0.0000 0.0000
# 2 28.8937 72.0498 38.0040 0.0000 0.0000 0.0000
# 3 41.7457 38.0040 93.4371 0.0000 0.0000 0.0000
# 4 0.0000 0.0000 0.0000 12.4692 0.0000 0.0000
# 5 0.0000 0.0000 0.0000 0.0000 6.1201 0.0000
# 6 0.0000 0.0000 0.0000 0.0000 0.0000 -9.5015
#
#
#
# Elastic Compliance Matrix: (Units=1/GPa)
#
#
# Indices 1 2 3 4 5 6 
#
# 1 0.018224 -0.003837 -0.006582 0.000000 0.000000 0.000000
# 2 -0.003837 0.018478 -0.005801 0.000000 0.000000 0.000000
# 3 -0.006582 -0.005801 0.016003 0.000000 0.000000 0.000000
# 4 0.000000 0.000000 0.000000 0.080198 0.000000 0.000000
# 5 0.000000 0.000000 0.000000 0.000000 0.163395 0.000000
# 6 0.000000 0.000000 0.000000 0.000000 0.000000 -0.105247
#
#
# Mechanical properties :
#
#
# Convention : Reuss Voigt Hill
#
# Bulk Modulus (GPa) = 49.34609 50.97848 50.16228
# Shear Modulus (GPa) = 21.71606 10.67599 16.19602
#
# Velocity S-wave (km/s) = 3.70431 2.59729 3.19905
# Velocity P-wave (km/s) = 7.03396 6.41925 6.73362
#
# Compressibility (1/GPa) = 0.02026503
#
# Stress axis : x y z
#
# Youngs Moduli (GPa) = 54.87329 54.11847 62.49022
#
# Poissons Ratio (x) = 0.20763 0.41128
# Poissons Ratio (y) = 0.21053 0.36254
# Poissons Ratio (z) = 0.36115 0.31397
#
# Static dielectric constant tensor:
#      x y z
#    x 1.568700 0.000000 0.000000 
#    y 0.000000 1.524060 0.000000 
#    z 0.000000 0.000000 1.508860 
# 
# From -- ./inp_files/26883.got.cif
#   From: 2010.05.17/outbox.cif.g08.bks.cpg/sg47_14_cif.got.tgz:26883.got - 2010.06.03 20:15:42.
