data_PCOD9381493
_publ_section_title
;
Structure prediction by ZEFSAII (Michael W. Deem and Ramdas Pophale) SiO2 
 PCOD9381493
Probable space group: P M M M
;
_chemical_formula_sum "Si O2"
_cell_formula_units_Z 48
_cell_length_a 13.988474
_cell_length_b 25.102012
_cell_length_c 7.450939
_cell_angle_alpha 90.000000
_cell_angle_beta 90.000000
_cell_angle_gamma 90.000000
_cell_volume 2616.314094
_symmetry_space_group_name_H-M "P M M M"
_symmetry_group_IT_number 47
_symmetry_cell_setting 'orthorhombic'
loop_
_space_group_symop_operation_xyz
x,y,z
-x,-y,z
x,-y,-z
-x,y,-z
-x,-y,-z
x,y,-z
-x,y,z
x,-y,z
loop_
_atom_site_type_symbol
_atom_site_label
_atom_site_fract_x
_atom_site_fract_y
_atom_site_fract_z
Si Si1 0.894601 0.168880 0.782995
Si Si2 0.388016 0.326977 0.281190
Si Si3 0.394342 0.896446 0.792451
Si Si4 0.614218 0.557356 0.283254
Si Si5 0.804963 0.941104 0.780483
Si Si6 0.692437 0.784049 0.291135
O O1 0.870711 0.108299 0.725537
O O2 0.804945 0.204240 0.725149
O O3 0.000000 0.185059 0.721795
O O4 0.894177 0.169344 0.000000
O O5 0.383321 0.327859 0.500000
O O6 0.500000 0.322695 0.233955
O O7 0.350240 0.384905 0.219484
O O8 0.335276 0.273819 0.218418
O O9 0.500000 0.903508 0.712876
O O10 0.302996 0.927791 0.717085
O O11 0.363763 0.834258 0.790361
O O12 0.400310 0.913062 0.000000
O O13 0.624649 0.556895 0.500000
O O14 0.500000 0.557723 0.248200
O O15 0.651736 0.500000 0.217053
O O16 0.834701 0.000000 0.724393
O O17 0.803977 0.940373 0.000000
O O18 0.665614 0.784897 0.500000
#
# Coordination Sequence:
#
# PCOD9381493 Si02
#       6
#     8   8   8   8   8   8
#     4   9  18  32  47  61  78  99 123 157 202 246
#     4   8  13  20  31  51  79 108 135 160 186 218
#     4   9  17  28  41  58  82 110 136 161 189 223
#     4   7   9  14  25  42  68 103 136 160 183 214
#     4   8  14  25  42  64  83  96 119 158 199 236
#     4  10  18  27  41  60  82 106 133 164 195 231
#
# _framework density 18.346419999999998
#
# number of rings (size 3 to 8) (size 9 to 14) (size 15 to 20)
#    0.000    3.500    0.000    3.500    0.000    2.000 
#    0.000    3.333    0.000    8.000    0.000    9.333 
#    0.000    3.333    0.000   27.167    0.000   17.000 
#
# Total GULP energy -267298.024768 kJ/mol
# GULP energy per Si atom -5568.708849 kJ/mol
# Density = 1.830466 g / cm^3
# Si number density = 18.346420 Si / 1000 Ang^3
#
#
#
# Elastic Constant Matrix: (Units=GPa)
#
#
# Indices 1 2 3 4 5 6 
#
# 1 42.8077 4.4692 -7.8836 0.0000 0.0000 0.0000
# 2 4.4692 121.3633 -8.3407 0.0000 0.0000 0.0000
# 3 -7.8836 -8.3407 52.5238 0.0000 0.0000 0.0000
# 4 0.0000 0.0000 0.0000 9.4466 0.0000 0.0000
# 5 0.0000 0.0000 0.0000 0.0000 5.8597 0.0000
# 6 0.0000 0.0000 0.0000 0.0000 0.0000 10.5302
#
#
#
# Elastic Compliance Matrix: (Units=1/GPa)
#
#
# Indices 1 2 3 4 5 6 
#
# 1 0.024074 -0.000645 0.003511 0.000000 0.000000 0.000000
# 2 -0.000645 0.008348 0.001229 0.000000 0.000000 0.000000
# 3 0.003511 0.001229 0.019761 0.000000 0.000000 0.000000
# 4 0.000000 0.000000 0.000000 0.105858 0.000000 0.000000
# 5 0.000000 0.000000 0.000000 0.000000 0.170656 0.000000
# 6 0.000000 0.000000 0.000000 0.000000 0.000000 0.094965
#
#
# Mechanical properties :
#
#
# Convention : Reuss Voigt Hill
#
# Bulk Modulus (GPa) = 16.56388 21.46495 19.01442
# Shear Modulus (GPa) = 11.47848 20.39729 15.93788
#
# Velocity S-wave (km/s) = 2.50402 3.33796 2.95060
# Velocity P-wave (km/s) = 4.17231 5.15570 4.68985
#
# Compressibility (1/GPa) = 0.06037234
#
# Stress axis : x y z
#
# Youngs Moduli (GPa) = 41.53816 119.79014 50.60450
#
# Poissons Ratio (x) = 0.07729 -0.17767
# Poissons Ratio (y) = 0.02680 -0.06218
# Poissons Ratio (z) = -0.14584 -0.14720
#
# Static dielectric constant tensor:
#      x y z
#    x 1.609410 0.000000 0.000000 
#    y 0.000000 1.670240 0.000000 
#    z 0.000000 0.000000 1.732890 
# 
# From -- ./inp_files/7471.got.cif
#   From: 2010.05.17/outbox.cif.g08.bks.cpg/sg47_4_cif.got.tgz:7471.got - 2010.06.03 20:15:42.
