data_PCOD9381759
_publ_section_title
;
Structure prediction by ZEFSAII (Michael W. Deem and Ramdas Pophale) SiO2 
 PCOD9381759
Probable space group: P M M M
;
_chemical_formula_sum "Si O2"
_cell_formula_units_Z 64
_cell_length_a 18.672047
_cell_length_b 14.603024
_cell_length_c 15.147022
_cell_angle_alpha 90.000000
_cell_angle_beta 90.000000
_cell_angle_gamma 90.000000
_cell_volume 4130.113503
_symmetry_space_group_name_H-M "P M M M"
_symmetry_group_IT_number 47
_symmetry_cell_setting 'orthorhombic'
loop_
_space_group_symop_operation_xyz
x,y,z
-x,-y,z
x,-y,-z
-x,y,-z
-x,-y,-z
x,y,-z
-x,y,z
x,-y,z
loop_
_atom_site_type_symbol
_atom_site_label
_atom_site_fract_x
_atom_site_fract_y
_atom_site_fract_z
Si Si1 0.417015 0.601376 0.832950
Si Si2 0.778962 0.890305 0.602268
Si Si3 0.836199 0.604365 0.394245
Si Si4 0.415489 0.197522 0.100525
Si Si5 0.079494 0.218366 0.393282
Si Si6 0.646396 0.109344 0.729766
Si Si7 0.324445 0.396250 0.656073
Si Si8 0.578976 0.236308 0.595496
O O1 0.500000 0.605117 0.800569
O O2 0.408442 0.500000 0.874727
O O3 0.407397 0.692291 0.890440
O O4 0.361739 0.607056 0.751924
O O5 0.762812 0.859614 0.500000
O O6 0.855305 0.848706 0.629470
O O7 0.718859 0.866709 0.674928
O O8 0.783081 0.000000 0.599484
O O9 0.822785 0.613291 0.500000
O O10 0.859163 0.500000 0.377898
O O11 0.894412 0.679747 0.369107
O O12 0.760460 0.620511 0.346344
O O13 0.500000 0.177150 0.118944
O O14 0.365018 0.149074 0.172400
O O15 0.400453 0.169785 0.000000
O O16 0.075575 0.215329 0.500000
O O17 0.000000 0.196776 0.359271
O O18 0.588087 0.162184 0.671312
O O19 0.638779 0.000000 0.730005
O O20 0.335046 0.500000 0.621232
O O21 0.363928 0.316875 0.603452
O O22 0.586102 0.190535 0.500000
O O23 0.500000 0.278025 0.601895
#
# Coordination Sequence:
#
# PCOD9381759 Si02
#       8
#     8   8   8   8   8   8   8   8
#     4   9  17  30  49  71  94 121 153 191 239 292
#     4   9  18  32  50  71  93 121 157 193 233 283
#     4   9  17  27  39  58  86 123 163 194 221 260
#     4  10  21  36  53  73  95 121 157 199 246 296
#     4   9  17  28  43  65  93 124 156 190 226 266
#     4  11  22  36  52  67  89 122 159 201 245 284
#     4  10  18  29  46  66  91 124 160 198 237 279
#     4  11  22  32  44  64  90 122 160 200 240 281
#
# _framework density 15.495943
#
# number of rings (size 3 to 8) (size 9 to 14) (size 15 to 20)
#    0.000    2.250    1.250    2.250    0.000    5.250 
#    0.000    5.625    0.000    0.000    0.000    0.000 
#    0.000    0.500    0.000    2.750    0.000    7.125 
#
# Total GULP energy -356510.597070 kJ/mol
# GULP energy per Si atom -5570.478079 kJ/mol
# Density = 1.546067 g / cm^3
# Si number density = 15.495943 Si / 1000 Ang^3
#
#
#
# Elastic Constant Matrix: (Units=GPa)
#
#
# Indices 1 2 3 4 5 6 
#
# 1 78.7582 29.5501 32.4777 0.0000 0.0000 0.0000
# 2 29.5501 55.8801 28.5034 0.0000 0.0000 0.0000
# 3 32.4777 28.5034 75.4909 0.0000 0.0000 0.0000
# 4 0.0000 0.0000 0.0000 9.6663 0.0000 0.0000
# 5 0.0000 0.0000 0.0000 0.0000 3.9550 0.0000
# 6 0.0000 0.0000 0.0000 0.0000 0.0000 14.0588
#
#
#
# Elastic Compliance Matrix: (Units=1/GPa)
#
#
# Indices 1 2 3 4 5 6 
#
# 1 0.017193 -0.006588 -0.004910 0.000000 0.000000 0.000000
# 2 -0.006588 0.024688 -0.006487 0.000000 0.000000 0.000000
# 3 -0.004910 -0.006487 0.017808 0.000000 0.000000 0.000000
# 4 0.000000 0.000000 0.000000 0.103452 0.000000 0.000000
# 5 0.000000 0.000000 0.000000 0.000000 0.252844 0.000000
# 6 0.000000 0.000000 0.000000 0.000000 0.000000 0.071130
#
#
# Mechanical properties :
#
#
# Convention : Reuss Voigt Hill
#
# Bulk Modulus (GPa) = 42.15787 43.46575 42.81181
# Shear Modulus (GPa) = 9.41633 13.50922 11.46278
#
# Velocity S-wave (km/s) = 2.46776 2.95581 2.72274
# Velocity P-wave (km/s) = 5.94849 6.30553 6.12961
#
# Compressibility (1/GPa) = 0.02372036
#
# Stress axis : x y z
#
# Youngs Moduli (GPa) = 58.16182 40.50507 56.15359
#
# Poissons Ratio (x) = 0.26684 0.27569
# Poissons Ratio (y) = 0.38316 0.36429
# Poissons Ratio (z) = 0.28555 0.26277
#
# Static dielectric constant tensor:
#      x y z
#    x 1.519860 0.000000 0.000000 
#    y 0.000000 1.549740 0.000000 
#    z 0.000000 0.000000 1.511000 
# 
# From -- ./inp_files/24122.got.cif
#   From: 2010.05.17/outbox.cif.g08.bks.cpg/sg47_13_cif.got.tgz:24122.got - 2010.06.03 20:15:42.
