data_PCOD9381769
_publ_section_title
;
Structure prediction by ZEFSAII (Michael W. Deem and Ramdas Pophale) SiO2 
 PCOD9381769
Probable space group: P M M M
;
_chemical_formula_sum "Si O2"
_cell_formula_units_Z 60
_cell_length_a 21.944974
_cell_length_b 7.826591
_cell_length_c 19.533486
_cell_angle_alpha 90.000000
_cell_angle_beta 90.000000
_cell_angle_gamma 90.000000
_cell_volume 3354.960918
_symmetry_space_group_name_H-M "P M M M"
_symmetry_group_IT_number 47
_symmetry_cell_setting 'orthorhombic'
loop_
_space_group_symop_operation_xyz
x,y,z
-x,-y,z
x,-y,-z
-x,y,-z
-x,-y,-z
x,y,-z
-x,y,z
x,-y,z
loop_
_atom_site_type_symbol
_atom_site_label
_atom_site_fract_x
_atom_site_fract_y
_atom_site_fract_z
Si Si1 0.000000 0.209646 0.579846
Si Si2 0.567443 0.702879 0.785168
Si Si3 0.751036 0.206747 0.577551
Si Si4 0.686364 0.704306 0.289453
Si Si5 0.124494 0.797103 0.351948
Si Si6 0.189257 0.297512 0.220504
Si Si7 0.228306 0.205661 0.923495
Si Si8 0.631311 0.206673 0.077248
O O1 0.061131 0.269633 0.618192
O O2 0.000000 0.258662 0.500000
O O3 0.000000 0.000000 0.581402
O O4 0.500000 0.775279 0.773439
O O5 0.564296 0.500000 0.771711
O O6 0.623054 0.774155 0.739751
O O7 0.588029 0.726706 0.863594
O O8 0.742121 0.265373 0.500000
O O9 0.699702 0.260897 0.631319
O O10 0.815920 0.270064 0.607760
O O11 0.752802 0.000000 0.577282
O O12 0.685722 0.500000 0.278721
O O13 0.745675 0.773124 0.248654
O O14 0.137496 0.769095 0.271673
O O15 0.123749 0.000000 0.363865
O O16 0.189985 0.500000 0.229156
O O17 0.187105 0.258672 0.140228
O O18 0.298434 0.263373 0.911054
O O19 0.229652 0.000000 0.924838
O O20 0.210536 0.264219 0.000000
O O21 0.630798 0.000000 0.079830
O O22 0.614187 0.257757 0.000000
#
# Coordination Sequence:
#
# PCOD9381769 Si02
#       8
#     4   8   8   8   8   8   8   8
#     4   9  16  28  49  75 102 133 168 197 221 260
#     4  10  20  33  47  63  86 118 156 194 231 275
#     4   9  17  29  47  71  94 116 146 185 228 271
#     4   9  18  31  45  64  88 115 148 188 232 274
#     4   9  17  29  47  71  99 130 159 190 225 263
#     4  10  18  29  46  68  94 123 158 196 232 274
#     4   9  17  29  46  68  93 121 153 192 238 282
#     4   9  18  31  46  65  90 119 151 188 231 279
#
# _framework density 17.883963000000001
#
# number of rings (size 3 to 8) (size 9 to 14) (size 15 to 20)
#    0.000    2.733    1.333    1.600    0.000    4.000 
#    0.000    3.000    0.000    2.000    0.000    3.267 
#    0.000    3.733    0.000    0.000    0.000    0.000 
#
# Total GULP energy -334463.045304 kJ/mol
# GULP energy per Si atom -5574.384088 kJ/mol
# Density = 1.784326 g / cm^3
# Si number density = 17.883963 Si / 1000 Ang^3
#
#
#
# Elastic Constant Matrix: (Units=GPa)
#
#
# Indices 1 2 3 4 5 6 
#
# 1 116.0510 6.1601 75.3548 0.0000 0.0000 0.0000
# 2 6.1601 16.0863 -9.0814 0.0000 0.0000 0.0000
# 3 75.3548 -9.0814 125.9348 0.0000 0.0000 0.0000
# 4 0.0000 0.0000 0.0000 46.8474 0.0000 0.0000
# 5 0.0000 0.0000 0.0000 0.0000 22.7155 0.0000
# 6 0.0000 0.0000 0.0000 0.0000 0.0000 9.4989
#
#
#
# Elastic Compliance Matrix: (Units=1/GPa)
#
#
# Indices 1 2 3 4 5 6 
#
# 1 0.016064 -0.012069 -0.010483 0.000000 0.000000 0.000000
# 2 -0.012069 0.073871 0.012549 0.000000 0.000000 0.000000
# 3 -0.010483 0.012549 0.015118 0.000000 0.000000 0.000000
# 4 0.000000 0.000000 0.000000 0.021346 0.000000 0.000000
# 5 0.000000 0.000000 0.000000 0.000000 0.044023 0.000000
# 6 0.000000 0.000000 0.000000 0.000000 0.000000 0.105275
#
#
# Mechanical properties :
#
#
# Convention : Reuss Voigt Hill
#
# Bulk Modulus (GPa) = 11.75825 44.77100 28.26462
# Shear Modulus (GPa) = 15.42963 28.18826 21.80894
#
# Velocity S-wave (km/s) = 2.94047 3.97441 3.49588
# Velocity P-wave (km/s) = 4.25647 6.79336 5.66866
#
# Compressibility (1/GPa) = 0.08504670
#
# Stress axis : x y z
#
# Youngs Moduli (GPa) = 62.25051 13.53715 66.14670
#
# Poissons Ratio (x) = 0.16339 0.69339
# Poissons Ratio (y) = 0.75133 -0.83007
# Poissons Ratio (z) = 0.65254 -0.16988
#
# Static dielectric constant tensor:
#      x y z
#    x 1.615090 0.000000 0.000000 
#    y 0.000000 1.654780 0.000000 
#    z 0.000000 0.000000 1.618940 
# 
# From -- ./inp_files/11623.got.cif
#   From: 2010.05.17/outbox.cif.g08.bks.cpg/sg47_6_cif.got.tgz:11623.got - 2010.06.03 20:15:42.
