data_PCOD9381525
_publ_section_title
;
Structure prediction by ZEFSAII (Michael W. Deem and Ramdas Pophale) SiO2 
 PCOD9381525
Probable space group: P M M M
;
_chemical_formula_sum "Si O2"
_cell_formula_units_Z 56
_cell_length_a 14.248121
_cell_length_b 7.460510
_cell_length_c 30.595415
_cell_angle_alpha 90.000000
_cell_angle_beta 90.000000
_cell_angle_gamma 90.000000
_cell_volume 3252.239048
_symmetry_space_group_name_H-M "P M M M"
_symmetry_group_IT_number 47
_symmetry_cell_setting 'orthorhombic'
loop_
_space_group_symop_operation_xyz
x,y,z
-x,-y,z
x,-y,-z
-x,y,-z
-x,-y,-z
x,y,-z
-x,y,z
x,-y,z
loop_
_atom_site_type_symbol
_atom_site_label
_atom_site_fract_x
_atom_site_fract_y
_atom_site_fract_z
Si Si1 0.296236 0.289324 0.136352
Si Si2 0.104876 0.215842 0.181315
Si Si3 0.609110 0.718366 0.951280
Si Si4 0.604367 0.208735 0.773715
Si Si5 0.109424 0.781009 0.642397
Si Si6 0.791921 0.780378 0.730669
Si Si7 0.112224 0.216045 0.452987
O O1 0.316016 0.500000 0.136703
O O2 0.186909 0.264091 0.147540
O O3 0.329004 0.218613 0.089412
O O4 0.356122 0.214374 0.176840
O O5 0.140277 0.274263 0.229351
O O6 0.000000 0.281141 0.171754
O O7 0.101939 0.000000 0.182389
O O8 0.500000 0.767585 0.944429
O O9 0.612378 0.500000 0.951829
O O10 0.637434 0.777993 0.000000
O O11 0.500000 0.287452 0.770952
O O12 0.687762 0.283460 0.743538
O O13 0.597034 0.000000 0.761860
O O14 0.169189 0.722177 0.683976
O O15 0.145514 0.720811 0.594592
O O16 0.000000 0.729042 0.647391
O O17 0.110181 0.000000 0.642126
O O18 0.791310 0.000000 0.730769
O O19 0.148885 0.283223 0.500000
O O20 0.000000 0.249204 0.452763
O O21 0.123731 0.000000 0.453387
#
# Coordination Sequence:
#
# PCOD9381525 Si02
#       7
#     8   8   8   8   8   8   8
#     4  10  18  27  43  65  83  99 124 157 189 222
#     4   9  17  29  43  57  77 106 134 158 186 220
#     4   8  14  25  41  61  83 103 122 148 185 226
#     4   9  17  28  40  54  76 104 128 152 185 225
#     4   8  11  14  23  39  58  81 111 148 183 213
#     4   8  13  21  33  49  66  87 121 158 185 211
#     4   7   9  12  17  28  50  79 107 136 175 219
#
# _framework density 17.218906
#
# number of rings (size 3 to 8) (size 9 to 14) (size 15 to 20)
#    0.000    3.571    0.000    3.857    0.000    2.857 
#    0.000    0.000    0.000    2.143    0.000    8.000 
#    0.000    0.571    0.000    8.000    0.000   11.714 
#
# Total GULP energy -311782.734362 kJ/mol
# GULP energy per Si atom -5567.548828 kJ/mol
# Density = 1.717971 g / cm^3
# Si number density = 17.218906 Si / 1000 Ang^3
#
#
#
# Elastic Constant Matrix: (Units=GPa)
#
#
# Indices 1 2 3 4 5 6 
#
# 1 102.8879 -1.5616 80.6272 0.0000 0.0000 0.0000
# 2 -1.5616 47.5899 0.1586 0.0000 0.0000 0.0000
# 3 80.6272 0.1586 185.0611 0.0000 0.0000 0.0000
# 4 0.0000 0.0000 0.0000 10.5911 0.0000 0.0000
# 5 0.0000 0.0000 0.0000 0.0000 20.8479 0.0000
# 6 0.0000 0.0000 0.0000 0.0000 0.0000 -1.4208
#
#
#
# Elastic Compliance Matrix: (Units=1/GPa)
#
#
# Indices 1 2 3 4 5 6 
#
# 1 0.014770 0.000506 -0.006435 0.000000 0.000000 0.000000
# 2 0.000506 0.021030 -0.000239 0.000000 0.000000 0.000000
# 3 -0.006435 -0.000239 0.008208 0.000000 0.000000 0.000000
# 4 0.000000 0.000000 0.000000 0.094418 0.000000 0.000000
# 5 0.000000 0.000000 0.000000 0.000000 0.047967 0.000000
# 6 0.000000 0.000000 0.000000 0.000000 0.000000 -0.703832
#
#
# Mechanical properties :
#
#
# Convention : Reuss Voigt Hill
#
# Bulk Modulus (GPa) = 31.57340 54.88748 43.23044
# Shear Modulus (GPa) = -10.11028 23.09129 6.49051
#
# Velocity S-wave (km/s) = -2.42577 3.66600 1.94360
# Velocity P-wave (km/s) = 3.24507 7.06151 5.49524
#
# Compressibility (1/GPa) = 0.03167223
#
# Stress axis : x y z
#
# Youngs Moduli (GPa) = 67.70450 47.55054 121.83813
#
# Poissons Ratio (x) = -0.02407 0.78408
# Poissons Ratio (y) = -0.03427 0.02906
# Poissons Ratio (z) = 0.43571 0.01134
#
# Static dielectric constant tensor:
#      x y z
#    x 1.570690 0.000000 0.000000 
#    y 0.000000 1.711650 0.000000 
#    z 0.000000 0.000000 1.608060 
# 
# From -- ./inp_files/14220.got.cif
#   From: 2010.05.17/outbox.cif.g08.bks.cpg/sg47_8_cif.got.tgz:14220.got - 2010.06.03 20:15:42.
