data_PCOD9381741
_publ_section_title
;
Structure prediction by ZEFSAII (Michael W. Deem and Ramdas Pophale) SiO2 
 PCOD9381741
Probable space group: P M M M
;
_chemical_formula_sum "Si O2"
_cell_formula_units_Z 64
_cell_length_a 14.843860
_cell_length_b 8.486571
_cell_length_c 32.253513
_cell_angle_alpha 90.000000
_cell_angle_beta 90.000000
_cell_angle_gamma 90.000000
_cell_volume 4063.087010
_symmetry_space_group_name_H-M "P M M M"
_symmetry_group_IT_number 47
_symmetry_cell_setting 'orthorhombic'
loop_
_space_group_symop_operation_xyz
x,y,z
-x,-y,z
x,-y,-z
-x,y,-z
-x,-y,-z
x,y,-z
-x,y,z
x,-y,z
loop_
_atom_site_type_symbol
_atom_site_label
_atom_site_fract_x
_atom_site_fract_y
_atom_site_fract_z
Si Si1 0.899837 0.308198 0.747635
Si Si2 0.603670 0.309613 0.202946
Si Si3 0.285329 0.813696 0.124169
Si Si4 0.101450 0.309949 0.155580
Si Si5 0.391000 0.812918 0.455420
Si Si6 0.395265 0.190795 0.635203
Si Si7 0.710772 0.309283 0.714481
Si Si8 0.603667 0.309774 0.047349
O O1 0.900453 0.500000 0.746735
O O2 0.886271 0.264685 0.795961
O O3 0.813879 0.255786 0.721377
O O4 0.000000 0.255140 0.734741
O O5 0.500000 0.255473 0.201746
O O6 0.603454 0.500000 0.202945
O O7 0.658532 0.255953 0.162809
O O8 0.653223 0.258553 0.245185
O O9 0.182400 0.759165 0.129240
O O10 0.330010 0.756177 0.081672
O O11 0.290085 0.000000 0.126449
O O12 0.106330 0.500000 0.154003
O O13 0.000000 0.262994 0.143230
O O14 0.359928 0.745938 0.500000
O O15 0.500000 0.801333 0.454990
O O16 0.362588 0.751305 0.410314
O O17 0.370223 0.000000 0.456007
O O18 0.500000 0.239582 0.641155
O O19 0.334901 0.248840 0.672813
O O20 0.394761 0.000000 0.634279
O O21 0.710007 0.500000 0.713865
O O22 0.500000 0.262504 0.056312
O O23 0.606387 0.500000 0.048868
O O24 0.624633 0.262021 0.000000
#
# Coordination Sequence:
#
# PCOD9381741 Si02
#       8
#     8   8   8   8   8   8   8   8
#     4   8  14  27  48  68  83 106 147 194 229 260
#     4  10  20  33  47  63  88 125 166 198 218 253
#     4  12  23  32  48  75 105 129 150 186 236 283
#     4   9  17  33  56  74  90 119 160 199 230 267
#     4   7  10  19  36  55  74 102 144 187 220 255
#     4   9  17  27  39  58  86 118 149 182 221 267
#     4  10  18  29  45  63  86 116 151 188 224 264
#     4   9  19  37  59  78  96 124 163 201 231 265
#
# _framework density 15.751571
#
# number of rings (size 3 to 8) (size 9 to 14) (size 15 to 20)
#    0.000    2.750    1.250    4.125    0.000    3.750 
#    0.000    0.625    0.000    1.125    0.000    4.375 
#    0.000    0.500    0.000    6.250    0.000    0.250 
#
# Total GULP energy -356549.251242 kJ/mol
# GULP energy per Si atom -5571.082051 kJ/mol
# Density = 1.571572 g / cm^3
# Si number density = 15.751571 Si / 1000 Ang^3
#
#
#
# Elastic Constant Matrix: (Units=GPa)
#
#
# Indices 1 2 3 4 5 6 
#
# 1 126.0419 19.8274 84.5889 0.0000 0.0000 0.0000
# 2 19.8274 7.4565 18.1180 0.0000 0.0000 0.0000
# 3 84.5889 18.1180 134.5726 0.0000 0.0000 0.0000
# 4 0.0000 0.0000 0.0000 19.2695 0.0000 0.0000
# 5 0.0000 0.0000 0.0000 0.0000 6.8583 0.0000
# 6 0.0000 0.0000 0.0000 0.0000 0.0000 4.5605
#
#
#
# Elastic Compliance Matrix: (Units=1/GPa)
#
#
# Indices 1 2 3 4 5 6 
#
# 1 0.017042 -0.028665 -0.006853 0.000000 0.000000 0.000000
# 2 -0.028665 0.247527 -0.015307 0.000000 0.000000 0.000000
# 3 -0.006853 -0.015307 0.013800 0.000000 0.000000 0.000000
# 4 0.000000 0.000000 0.000000 0.051895 0.000000 0.000000
# 5 0.000000 0.000000 0.000000 0.000000 0.145810 0.000000
# 6 0.000000 0.000000 0.000000 0.000000 0.000000 0.219274
#
#
# Mechanical properties :
#
#
# Convention : Reuss Voigt Hill
#
# Bulk Modulus (GPa) = 5.65872 57.01549 31.33711
# Shear Modulus (GPa) = 5.84177 15.84010 10.84094
#
# Velocity S-wave (km/s) = 1.92789 3.17459 2.62629
# Velocity P-wave (km/s) = 2.92505 7.05072 5.39762
#
# Compressibility (1/GPa) = 0.17671839
#
# Stress axis : x y z
#
# Youngs Moduli (GPa) = 58.67735 4.03996 72.46628
#
# Poissons Ratio (x) = 0.11581 0.49662
# Poissons Ratio (y) = 1.68198 1.10927
# Poissons Ratio (z) = 0.40212 0.06184
#
# Static dielectric constant tensor:
#      x y z
#    x 1.523400 0.000000 0.000000 
#    y 0.000000 1.543660 0.000000 
#    z 0.000000 0.000000 1.531220 
# 
# From -- ./inp_files/34670.got.cif
#   From: 2010.05.17/outbox.cif.g08.bks.cpg/sg47_18_cif.got.tgz:34670.got - 2010.06.03 20:15:42.
