data_PCOD9381940
_publ_section_title
;
Structure prediction by ZEFSAII (Michael W. Deem and Ramdas Pophale) SiO2 
 PCOD9381940
Probable space group: P M M M
;
_chemical_formula_sum "Si O2"
_cell_formula_units_Z 52
_cell_length_a 16.919071
_cell_length_b 20.950829
_cell_length_c 8.940245
_cell_angle_alpha 90.000000
_cell_angle_beta 90.000000
_cell_angle_gamma 90.000000
_cell_volume 3169.035801
_symmetry_space_group_name_H-M "P M M M"
_symmetry_group_IT_number 47
_symmetry_cell_setting 'orthorhombic'
loop_
_space_group_symop_operation_xyz
x,y,z
-x,-y,z
x,-y,-z
-x,y,-z
-x,-y,-z
x,y,-z
-x,y,z
x,-y,z
loop_
_atom_site_type_symbol
_atom_site_label
_atom_site_fract_x
_atom_site_fract_y
_atom_site_fract_z
Si Si1 0.152918 0.370798 0.823067
Si Si2 0.000000 0.146181 0.320646
Si Si3 0.589366 0.192310 0.680107
Si Si4 0.000000 0.717083 0.824991
Si Si5 0.174525 0.130766 0.680247
Si Si6 0.744831 0.266031 0.321129
Si Si7 0.327653 0.927699 0.821131
Si Si8 0.907010 0.500000 0.320679
O O1 0.076246 0.326271 0.797181
O O2 0.224871 0.328954 0.760167
O O3 0.135725 0.437172 0.741690
O O4 0.160907 0.381426 0.000000
O O5 0.000000 0.220178 0.274545
O O6 0.915553 0.118476 0.269992
O O7 0.000000 0.141821 0.500000
O O8 0.593577 0.185819 0.500000
O O9 0.500000 0.209493 0.721724
O O10 0.656771 0.243375 0.722005
O O11 0.615019 0.125196 0.751195
O O12 0.000000 0.736206 0.000000
O O13 0.180149 0.122997 0.500000
O O14 0.199329 0.204475 0.712804
O O15 0.240319 0.087748 0.758291
O O16 0.748030 0.275602 0.500000
O O17 0.350181 0.000000 0.781654
O O18 0.327342 0.921481 0.000000
O O19 0.905377 0.500000 0.500000
O O20 0.000000 0.500000 0.273249
#
# Coordination Sequence:
#
# PCOD9381940 Si02
#       8
#     8   4   8   4   8   8   8   4
#     4  11  21  33  48  70 102 138 173 206 245 290
#     4  10  18  30  48  70  94 123 166 216 255 288
#     4   9  19  36  57  80 103 127 158 199 247 298
#     4  10  20  29  43  69 100 134 167 203 247 294
#     4   9  18  31  49  71  94 125 166 211 252 291
#     4   9  17  31  51  74  99 127 161 201 244 294
#     4  10  21  35  50  70  99 133 164 198 245 301
#     4  11  23  35  49  69  98 139 182 219 251 282
#
# _framework density 16.408776
#
# number of rings (size 3 to 8) (size 9 to 14) (size 15 to 20)
#    0.000    2.231    2.308    2.077    0.000    5.846 
#    0.000    1.923    0.000    2.308    0.000    0.538 
#    0.000    4.308    0.000    0.000    0.000    0.000 
#
# Total GULP energy -290036.262747 kJ/mol
# GULP energy per Si atom -5577.620437 kJ/mol
# Density = 1.637143 g / cm^3
# Si number density = 16.408776 Si / 1000 Ang^3
#
#
#
# Elastic Constant Matrix: (Units=GPa)
#
#
# Indices 1 2 3 4 5 6 
#
# 1 124.4260 40.9358 29.2888 0.0000 0.0000 0.0000
# 2 40.9358 80.3355 32.5336 0.0000 0.0000 0.0000
# 3 29.2888 32.5336 20.9865 0.0000 0.0000 0.0000
# 4 0.0000 0.0000 0.0000 29.3931 0.0000 0.0000
# 5 0.0000 0.0000 0.0000 0.0000 13.7958 0.0000
# 6 0.0000 0.0000 0.0000 0.0000 0.0000 7.6491
#
#
#
# Elastic Compliance Matrix: (Units=1/GPa)
#
#
# Indices 1 2 3 4 5 6 
#
# 1 0.012065 0.001803 -0.019633 0.000000 0.000000 0.000000
# 2 0.001803 0.033713 -0.054778 0.000000 0.000000 0.000000
# 3 -0.019633 -0.054778 0.159966 0.000000 0.000000 0.000000
# 4 0.000000 0.000000 0.000000 0.034022 0.000000 0.000000
# 5 0.000000 0.000000 0.000000 0.000000 0.072486 0.000000
# 6 0.000000 0.000000 0.000000 0.000000 0.000000 0.130734
#
#
# Mechanical properties :
#
#
# Convention : Reuss Voigt Hill
#
# Bulk Modulus (GPa) = 16.52113 47.91826 32.21969
# Shear Modulus (GPa) = 8.21858 18.36692 13.29275
#
# Velocity S-wave (km/s) = 2.24043 3.34928 2.84931
# Velocity P-wave (km/s) = 4.09671 6.65004 5.52296
#
# Compressibility (1/GPa) = 0.06052856
#
# Stress axis : x y z
#
# Youngs Moduli (GPa) = 82.88294 29.66258 6.25131
#
# Poissons Ratio (x) = -0.05348 0.12273
# Poissons Ratio (y) = -0.14943 0.34243
# Poissons Ratio (z) = 1.62724 1.62485
#
# Static dielectric constant tensor:
#      x y z
#    x 1.569000 0.000000 0.000000 
#    y 0.000000 1.524280 0.000000 
#    z 0.000000 0.000000 1.544350 
# 
# From -- ./inp_files/9608.got.cif
#   From: 2010.05.17/outbox.cif.g08.bks.cpg/sg47_5_cif.got.tgz:9608.got - 2010.06.03 20:15:42.
