data_PCOD9381070
_publ_section_title
;
Structure prediction by ZEFSAII (Michael W. Deem and Ramdas Pophale) SiO2 
 PCOD9381070
Probable space group: I M A 2
;
_chemical_formula_sum "Si O2"
_cell_formula_units_Z 64
_cell_length_a 21.846023
_cell_length_b 29.250824
_cell_length_c 7.615875
_cell_angle_alpha 90.000000
_cell_angle_beta 90.000000
_cell_angle_gamma 90.000000
_cell_volume 4866.652071
_symmetry_space_group_name_H-M "I M A 2"
_symmetry_group_IT_number 46
_symmetry_cell_setting 'orthorhombic'
loop_
_space_group_symop_operation_xyz
x,y,z
-x,-y,z
1/2-x,y,z
1/2+x,-y,z
1/2+x,1/2+y,1/2+z
1/2-x,1/2-y,1/2+z
-x,1/2+y,1/2+z
x,1/2-y,1/2+z
loop_
_atom_site_type_symbol
_atom_site_label
_atom_site_fract_x
_atom_site_fract_y
_atom_site_fract_z
Si Si1 0.180607 0.802114 0.658530
Si Si2 0.178293 0.978203 0.663468
Si Si3 0.400751 0.886404 0.076846
Si Si4 0.017808 0.574855 0.868936
Si Si5 0.319393 0.802114 0.079345
Si Si6 0.400751 0.613596 0.161027
Si Si7 0.401163 0.018079 0.368936
Si Si8 0.678293 0.478203 0.574404
O O1 0.250000 0.809092 0.589951
O O2 0.183567 0.807165 0.868937
O O3 0.162795 0.750000 0.618937
O O4 0.133190 0.840428 0.598752
O O5 0.250000 0.976219 0.618887
O O6 0.141608 0.012661 0.539049
O O7 0.147468 0.928249 0.640797
O O8 0.172284 0.990079 0.868936
O O9 0.458616 0.898463 0.197137
O O10 0.352532 0.928249 0.097075
O O11 0.366811 0.840428 0.139122
O O12 0.415507 0.883235 0.868936
O O13 0.055858 0.527182 0.868936
O O14 0.946980 0.560769 0.868936
O O15 0.041384 0.601537 0.040736
O O16 0.250000 0.809092 0.147923
O O17 0.358391 0.012661 0.198824
O O18 0.750000 0.476219 0.618986
#
# Coordination Sequence:
#
# PCOD9381070 Si02
#       8
#     8   8   8   8   8   8   8   8
#     4   9  17  27  38  54  75  98 127 167 209 238
#     4   9  16  26  41  58  76 100 127 157 197 236
#     4   9  17  28  40  54  74 100 132 167 195 230
#     4   9  18  28  40  54  72 100 132 164 200 231
#     4   9  17  27  38  54  75  98 127 167 209 238
#     4   9  17  28  40  54  74 100 132 167 195 230
#     4   9  17  28  38  56  77  95 128 168 196 229
#     4   9  16  26  41  58  76 100 127 157 197 236
#
# _framework density 13.150724
#
# number of rings (size 3 to 8) (size 9 to 14) (size 15 to 20)
#    0.000    3.000    0.000    1.125    1.750    4.000 
#    0.000    6.250    0.000    0.000    0.000    0.000 
#    0.000    0.000    0.000    0.000    0.000    5.000 
#
# Total GULP energy -178202.021590 kJ/mol
# GULP energy per Si atom -5568.813175 kJ/mol
# Density = 1.312079 g / cm^3
# Si number density = 13.150724 Si / 1000 Ang^3
#
#
#
# Elastic Constant Matrix: (Units=GPa)
#
#
# Indices 1 2 3 4 5 6 
#
# 1 69.7034 44.5636 43.7408 0.0000 0.0000 0.0000
# 2 44.5636 65.5057 33.9645 0.0000 0.0000 0.0000
# 3 43.7408 33.9645 60.2154 0.0000 0.0000 0.0000
# 4 0.0000 0.0000 0.0000 15.3013 0.0000 0.0000
# 5 0.0000 0.0000 0.0000 0.0000 13.8579 0.0000
# 6 0.0000 0.0000 0.0000 0.0000 0.0000 17.4617
#
#
#
# Elastic Compliance Matrix: (Units=1/GPa)
#
#
# Indices 1 2 3 4 5 6 
#
# 1 0.034022 -0.014601 -0.016478 0.000000 0.000000 0.000000
# 2 -0.014601 0.027843 -0.005098 0.000000 0.000000 0.000000
# 3 -0.016478 -0.005098 0.031452 0.000000 0.000000 0.000000
# 4 0.000000 0.000000 0.000000 0.065354 0.000000 0.000000
# 5 0.000000 0.000000 0.000000 0.000000 0.072161 0.000000
# 6 0.000000 0.000000 0.000000 0.000000 0.000000 0.057268
#
#
# Mechanical properties :
#
#
# Convention : Reuss Voigt Hill
#
# Bulk Modulus (GPa) = 47.70510 48.88470 48.29490
# Shear Modulus (GPa) = 13.60760 14.20121 13.90441
#
# Velocity S-wave (km/s) = 3.22023 3.28972 3.25516
# Velocity P-wave (km/s) = 7.08385 7.18909 7.13666
#
# Compressibility (1/GPa) = 0.02096212
#
# Stress axis : x y z
#
# Youngs Moduli (GPa) = 29.39279 35.91627 31.79435
#
# Poissons Ratio (x) = 0.52443 0.52390
# Poissons Ratio (y) = 0.42918 0.16209
# Poissons Ratio (z) = 0.48433 0.18310
#
# Static dielectric constant tensor:
#      x y z
#    x 1.413900 0.000000 0.000000 
#    y 0.000000 1.413950 0.000000 
#    z 0.000000 0.000000 1.466630 
# 
# From -- ./inp_files/7006.got.cif
#   From: 2010.05.17/outbox.cif.g08.bks.cpg/sg46_4_cif.got.tgz:7006.got - 2010.06.03 19:58:25.
