data_PCOD9381079
_publ_section_title
;
Structure prediction by ZEFSAII (Michael W. Deem and Ramdas Pophale) SiO2 
 PCOD9381079
Probable space group: I M A 2
;
_chemical_formula_sum "Si O2"
_cell_formula_units_Z 32
_cell_length_a 9.000000
_cell_length_b 24.000000
_cell_length_c 18.000000
_cell_angle_alpha 90.000000
_cell_angle_beta 90.000000
_cell_angle_gamma 90.000000
_cell_volume 3888.000000
_symmetry_space_group_name_H-M "I M A 2"
_symmetry_group_IT_number 46
_symmetry_cell_setting 'orthorhombic'
loop_
_space_group_symop_operation_xyz
x,y,z
-x,-y,z
1/2-x,y,z
1/2+x,-y,z
1/2+x,1/2+y,1/2+z
1/2-x,1/2-y,1/2+z
-x,1/2+y,1/2+z
x,1/2-y,1/2+z
loop_
_atom_site_type_symbol
_atom_site_label
_atom_site_fract_x
_atom_site_fract_y
_atom_site_fract_z
Si Si1 0.422438 0.155109 0.621140
Si Si2 0.416174 0.771557 0.871586
Si Si3 0.925306 0.556485 0.519666
Si Si4 0.577677 0.161792 0.085676
Si Si5 0.583237 0.252343 0.700442
Si Si6 0.073701 0.942183 0.705267
Si Si7 0.425647 0.904736 0.870178
Si Si8 0.421403 0.262803 0.002189
O O1 0.250000 0.140541 0.629114
O O2 0.462796 0.209648 0.669401
O O3 0.522204 0.105695 0.650020
O O4 0.453314 0.177823 0.538868
O O5 0.250000 0.761455 0.902352
O O6 0.417106 0.751957 0.787632
O O7 0.442264 0.837970 0.873335
O O8 0.540763 0.739826 0.916677
O O9 0.750000 0.551697 0.520053
O O10 0.000000 0.500000 0.546968
O O11 0.980309 0.608934 0.566879
O O12 0.982808 0.567974 0.436085
O O13 0.750000 0.149514 0.069366
O O14 0.561833 0.186222 0.168210
O O15 0.522735 0.214172 0.036833
O O16 0.750000 0.234387 0.674265
O O17 0.250000 0.946636 0.705685
O O18 0.026903 0.925346 0.789057
O O19 0.000000 0.000000 0.684968
O O20 0.250000 0.917074 0.880035
O O21 0.250000 0.249575 0.018175
#
# Coordination Sequence:
#
# PCOD9381079 Si02
#       8
#     8   8   8   8   8   8   8   8
#     4  10  20  33  49  71  99 130 167 207 246 290
#     4  10  18  31  51  75 102 133 166 200 244 296
#     4  12  24  36  51  70  98 133 173 209 245 290
#     4  10  19  33  52  72  97 129 165 205 249 292
#     4   9  18  33  52  73  98 129 164 203 247 296
#     4  11  22  36  52  71  98 132 172 209 247 292
#     4  10  20  34  50  71 101 134 171 206 238 286
#     4  10  20  32  48  73 101 130 165 204 247 293
#
# _framework density 8.2304530000000007
#
# number of rings (size 3 to 8) (size 9 to 14) (size 15 to 20)
#    0.000    1.750    2.500    3.000    0.000    4.500 
#    0.000    0.000    0.000    0.000    0.000    0.875 
#    0.000    6.000    0.000    0.000    0.000    0.000 
#
# Total GULP energy -178428.916635 kJ/mol
# GULP energy per Si atom -5575.903645 kJ/mol
# Density = 0.821172 g / cm^3
# Si number density = 8.230453 Si / 1000 Ang^3
#
#
#
# Elastic Constant Matrix: (Units=GPa)
#
#
# Indices 1 2 3 4 5 6 
#
# 1 44.6276 36.6096 14.6710 0.0000 0.0000 0.0000
# 2 36.6096 73.5740 25.2688 0.0000 0.0000 0.0000
# 3 14.6710 25.2688 16.5465 0.0000 0.0000 0.0000
# 4 0.0000 0.0000 0.0000 22.5132 0.0000 0.0000
# 5 0.0000 0.0000 0.0000 0.0000 27.9790 0.0000
# 6 0.0000 0.0000 0.0000 0.0000 0.0000 24.7634
#
#
#
# Elastic Compliance Matrix: (Units=1/GPa)
#
#
# Indices 1 2 3 4 5 6 
#
# 1 0.038682 -0.015706 -0.010312 0.000000 0.000000 0.000000
# 2 -0.015706 0.034961 -0.039464 0.000000 0.000000 0.000000
# 3 -0.010312 -0.039464 0.129845 0.000000 0.000000 0.000000
# 4 0.000000 0.000000 0.000000 0.044418 0.000000 0.000000
# 5 0.000000 0.000000 0.000000 0.000000 0.035741 0.000000
# 6 0.000000 0.000000 0.000000 0.000000 0.000000 0.040382
#
#
# Mechanical properties :
#
#
# Convention : Reuss Voigt Hill
#
# Bulk Modulus (GPa) = 13.78855 31.98299 22.88577
# Shear Modulus (GPa) = 10.43474 18.93102 14.68288
#
# Velocity S-wave (km/s) = 2.52049 3.39493 2.98985
# Velocity P-wave (km/s) = 4.10673 5.90248 5.08451
#
# Compressibility (1/GPa) = 0.07252395
#
# Stress axis : x y z
#
# Youngs Moduli (GPa) = 25.85180 28.60360 7.70146
#
# Poissons Ratio (x) = 0.44925 0.07942
# Poissons Ratio (y) = 0.40603 0.30393
# Poissons Ratio (z) = 0.26659 1.12880
#
# Static dielectric constant tensor:
#      x y z
#    x 1.575970 0.000000 0.000000 
#    y 0.000000 1.540190 0.000000 
#    z 0.000000 0.000000 1.592090 
# 
# From -- ./inp_files/18577.got.cif
#   From: 2010.05.17/outbox.ucp.g08.bks.cvg/sg46_10_cif.got.tgz:18577.got - 2010.06.11 16:34:52.
