data_PCOD9381867
_publ_section_title
;
Structure prediction by ZEFSAII (Michael W. Deem and Ramdas Pophale) SiO2 
 PCOD9381867
Probable space group: P M M M
;
_chemical_formula_sum "Si O2"
_cell_formula_units_Z 36
_cell_length_a 7.357016
_cell_length_b 11.316063
_cell_length_c 18.950156
_cell_angle_alpha 90.000000
_cell_angle_beta 90.000000
_cell_angle_gamma 90.000000
_cell_volume 1577.647039
_symmetry_space_group_name_H-M "P M M M"
_symmetry_group_IT_number 47
_symmetry_cell_setting 'orthorhombic'
loop_
_space_group_symop_operation_xyz
x,y,z
-x,-y,z
x,-y,-z
-x,y,-z
-x,-y,-z
x,y,-z
-x,y,z
x,-y,z
loop_
_atom_site_type_symbol
_atom_site_label
_atom_site_fract_x
_atom_site_fract_y
_atom_site_fract_z
Si Si1 0.222559 0.258204 0.159257
Si Si2 0.207535 0.000000 0.152602
Si Si3 0.278490 0.000000 0.682273
Si Si4 0.286838 0.205132 0.420995
Si Si5 0.221094 0.500000 0.918513
Si Si6 0.781850 0.631786 0.301939
O O1 0.285715 0.129130 0.133235
O O2 0.277995 0.376700 0.117729
O O3 0.281472 0.280546 0.240234
O O4 0.000000 0.254419 0.157890
O O5 0.207115 0.000000 0.238341
O O6 0.000000 0.000000 0.126414
O O7 0.215086 0.110628 0.635133
O O8 0.500000 0.000000 0.687775
O O9 0.210759 0.201667 0.500000
O O10 0.500000 0.177900 0.427249
O O11 0.268578 0.327956 0.380099
O O12 0.000000 0.500000 0.914261
O O13 0.273834 0.500000 0.000000
O O14 0.717478 0.500000 0.286141
O O15 0.000000 0.630759 0.298070
#
# Coordination Sequence:
#
# PCOD9381867 Si02
#       6
#     8   4   4   8   4   8
#     4   9  16  28  46  71 100 131 164 200 242 291
#     4  10  18  29  50  75 100 129 164 210 256 290
#     4  10  19  32  50  71  95 124 168 212 251 304
#     4  10  21  35  49  67  96 131 165 209 262 308
#     4   9  16  28  48  74 106 141 166 188 237 307
#     4  10  19  32  51  71  94 127 169 210 250 301
#
# _framework density 22.818792999999999
#
# number of rings (size 3 to 8) (size 9 to 14) (size 15 to 20)
#    0.000    2.333    3.333    0.333    0.000    2.667 
#    0.000    2.778    0.000    5.333    0.000    0.000 
#    0.000    8.000    0.000    0.000    0.000    0.000 
#
# Total GULP energy -200910.930810 kJ/mol
# GULP energy per Si atom -5580.859189 kJ/mol
# Density = 2.276686 g / cm^3
# Si number density = 22.818793 Si / 1000 Ang^3
#
#
#
# Elastic Constant Matrix: (Units=GPa)
#
#
# Indices 1 2 3 4 5 6 
#
# 1 85.0653 -4.9320 -8.1834 0.0000 0.0000 0.0000
# 2 -4.9320 176.2255 43.9815 0.0000 0.0000 0.0000
# 3 -8.1834 43.9815 89.4448 0.0000 0.0000 0.0000
# 4 0.0000 0.0000 0.0000 10.6542 0.0000 0.0000
# 5 0.0000 0.0000 0.0000 0.0000 16.1377 0.0000
# 6 0.0000 0.0000 0.0000 0.0000 0.0000 4.8855
#
#
#
# Elastic Compliance Matrix: (Units=1/GPa)
#
#
# Indices 1 2 3 4 5 6 
#
# 1 0.011861 0.000070 0.001051 0.000000 0.000000 0.000000
# 2 0.000070 0.006469 -0.003174 0.000000 0.000000 0.000000
# 3 0.001051 -0.003174 0.012837 0.000000 0.000000 0.000000
# 4 0.000000 0.000000 0.000000 0.093860 0.000000 0.000000
# 5 0.000000 0.000000 0.000000 0.000000 0.061967 0.000000
# 6 0.000000 0.000000 0.000000 0.000000 0.000000 0.204687
#
#
# Mechanical properties :
#
#
# Convention : Reuss Voigt Hill
#
# Bulk Modulus (GPa) = 36.95628 45.82977 41.39302
# Shear Modulus (GPa) = 12.35155 27.66011 20.00583
#
# Velocity S-wave (km/s) = 2.32908 3.48539 2.96417
# Velocity P-wave (km/s) = 4.84392 6.02703 5.46757
#
# Compressibility (1/GPa) = 0.02705900
#
# Stress axis : x y z
#
# Youngs Moduli (GPa) = 84.31125 154.58928 77.89898
#
# Poissons Ratio (x) = -0.01077 -0.08186
# Poissons Ratio (y) = -0.00587 0.24728
# Poissons Ratio (z) = -0.08860 0.49073
#
# Static dielectric constant tensor:
#      x y z
#    x 1.909930 0.000000 0.000000 
#    y 0.000000 1.904710 0.000000 
#    z 0.000000 0.000000 1.790550 
# 
# From -- ./inp_files/29313.got.cif
#   From: 2010.05.17/outbox.cif.g08.bks.cpg/sg47_15_cif.got.tgz:29313.got - 2010.06.03 20:15:42.
