data_PCOD9381447
_publ_section_title
;
Structure prediction by ZEFSAII (Michael W. Deem and Ramdas Pophale) SiO2 
 PCOD9381447
Probable space group: P M M M
;
_chemical_formula_sum "Si O2"
_cell_formula_units_Z 52
_cell_length_a 22.182033
_cell_length_b 16.602383
_cell_length_c 7.614384
_cell_angle_alpha 90.000000
_cell_angle_beta 90.000000
_cell_angle_gamma 90.000000
_cell_volume 2804.184280
_symmetry_space_group_name_H-M "P M M M"
_symmetry_group_IT_number 47
_symmetry_cell_setting 'orthorhombic'
loop_
_space_group_symop_operation_xyz
x,y,z
-x,-y,z
x,-y,-z
-x,y,-z
-x,-y,-z
x,y,-z
-x,y,z
x,-y,z
loop_
_atom_site_type_symbol
_atom_site_label
_atom_site_fract_x
_atom_site_fract_y
_atom_site_fract_z
Si Si1 0.110163 0.500000 0.291438
Si Si2 0.758631 0.743151 0.783778
Si Si3 0.430220 0.500000 0.215627
Si Si4 0.193836 0.087855 0.795852
Si Si5 0.934337 0.849149 0.296259
Si Si6 0.341238 0.364330 0.201003
Si Si7 0.248615 0.500000 0.714041
Si Si8 0.112576 0.678174 0.792689
O O1 0.108730 0.500000 0.500000
O O2 0.179713 0.500000 0.230248
O O3 0.087243 0.411658 0.236854
O O4 0.773258 0.833398 0.722410
O O5 0.693145 0.712663 0.721127
O O6 0.817606 0.690075 0.729434
O O7 0.757401 0.740910 0.000000
O O8 0.500000 0.500000 0.263542
O O9 0.394952 0.419393 0.277138
O O10 0.425759 0.500000 0.000000
O O11 0.122872 0.108671 0.789612
O O12 0.204912 0.000000 0.716564
O O13 0.211398 0.084366 0.000000
O O14 0.933304 0.872620 0.500000
O O15 0.924095 0.752588 0.286294
O O16 0.000000 0.868705 0.221749
O O17 0.284764 0.425343 0.207981
O O18 0.358535 0.345926 0.000000
O O19 0.252424 0.500000 0.500000
O O20 0.113395 0.692437 0.000000
#
# Coordination Sequence:
#
# PCOD9381447 Si02
#       8
#     4   8   4   8   8   8   4   8
#     4  11  20  28  41  64  92 115 137 173 221 267
#     4   8  14  25  42  63  82 106 139 175 218 261
#     4   8  14  22  35  59  88 119 155 195 227 248
#     4   9  18  32  49  69  90 109 135 176 221 269
#     4  10  21  36  51  66  87 113 141 174 215 268
#     4   9  15  25  41  57  81 117 153 184 215 256
#     4  10  18  24  35  60  89 110 138 176 208 247
#     4  10  19  31  48  66  86 111 145 186 221 262
#
# _framework density 18.543716
#
# number of rings (size 3 to 8) (size 9 to 14) (size 15 to 20)
#    0.000    2.692    1.538    2.769    0.000    2.462 
#    0.000    1.923    0.000    6.000    0.000    0.000 
#    0.000    0.615    0.000    8.615    0.000    0.000 
#
# Total GULP energy -289578.741141 kJ/mol
# GULP energy per Si atom -5568.821945 kJ/mol
# Density = 1.850151 g / cm^3
# Si number density = 18.543716 Si / 1000 Ang^3
#
#
#
# Elastic Constant Matrix: (Units=GPa)
#
#
# Indices 1 2 3 4 5 6 
#
# 1 79.7456 27.8787 -2.9080 0.0000 0.0000 0.0000
# 2 27.8787 112.7495 -6.8324 0.0000 0.0000 0.0000
# 3 -2.9080 -6.8324 46.5681 0.0000 0.0000 0.0000
# 4 0.0000 0.0000 0.0000 -8.8580 0.0000 0.0000
# 5 0.0000 0.0000 0.0000 0.0000 40.5756 0.0000
# 6 0.0000 0.0000 0.0000 0.0000 0.0000 8.2396
#
#
#
# Elastic Compliance Matrix: (Units=1/GPa)
#
#
# Indices 1 2 3 4 5 6 
#
# 1 0.013732 -0.003374 0.000363 0.000000 0.000000 0.000000
# 2 -0.003374 0.009778 0.001224 0.000000 0.000000 0.000000
# 3 0.000363 0.001224 0.021676 0.000000 0.000000 0.000000
# 4 0.000000 0.000000 0.000000 -0.112892 0.000000 0.000000
# 5 0.000000 0.000000 0.000000 0.000000 0.024645 0.000000
# 6 0.000000 0.000000 0.000000 0.000000 0.000000 0.121365
#
#
# Mechanical properties :
#
#
# Convention : Reuss Voigt Hill
#
# Bulk Modulus (GPa) = 24.03154 30.59332 27.31243
# Shear Modulus (GPa) = 52.21987 22.71978 37.46982
#
# Velocity S-wave (km/s) = 5.31240 3.50408 4.50001
# Velocity P-wave (km/s) = 7.11451 5.73631 6.46226
#
# Compressibility (1/GPa) = 0.04161197
#
# Stress axis : x y z
#
# Youngs Moduli (GPa) = 72.82006 102.27523 46.13366
#
# Poissons Ratio (x) = 0.34503 -0.01673
# Poissons Ratio (y) = 0.24566 -0.05646
# Poissons Ratio (z) = -0.02640 -0.12517
#
# Static dielectric constant tensor:
#      x y z
#    x 1.633680 0.000000 0.000000 
#    y 0.000000 1.738070 0.000000 
#    z 0.000000 0.000000 1.686180 
# 
# From -- ./inp_files/12614.got.cif
#   From: 2010.05.17/outbox.cif.g08.bks.cpg/sg47_7_cif.got.tgz:12614.got - 2010.06.03 20:15:42.
