data_PCOD9381367
_publ_section_title
;
Structure prediction by ZEFSAII (Michael W. Deem and Ramdas Pophale) SiO2 
 PCOD9381367
Probable space group: P M M M
;
_chemical_formula_sum "Si O2"
_cell_formula_units_Z 48
_cell_length_a 7.423481
_cell_length_b 14.815161
_cell_length_c 21.438924
_cell_angle_alpha 90.000000
_cell_angle_beta 90.000000
_cell_angle_gamma 90.000000
_cell_volume 2357.854281
_symmetry_space_group_name_H-M "P M M M"
_symmetry_group_IT_number 47
_symmetry_cell_setting 'orthorhombic'
loop_
_space_group_symop_operation_xyz
x,y,z
-x,-y,z
x,-y,-z
-x,y,-z
-x,-y,-z
x,y,-z
-x,y,z
x,-y,z
loop_
_atom_site_type_symbol
_atom_site_label
_atom_site_fract_x
_atom_site_fract_y
_atom_site_fract_z
Si Si1 0.219697 0.400157 0.245582
Si Si2 0.217524 0.400036 0.390797
Si Si3 0.780080 0.103613 0.929450
Si Si4 0.718106 0.895749 0.308325
Si Si5 0.211169 0.219439 0.185378
Si Si6 0.710403 0.202649 0.432697
O O1 0.274443 0.500000 0.224441
O O2 0.272221 0.390008 0.318170
O O3 0.286650 0.316529 0.205257
O O4 0.000000 0.398042 0.245716
O O5 0.276363 0.500000 0.412436
O O6 0.278955 0.310831 0.425745
O O7 0.000000 0.399815 0.393142
O O8 0.713972 0.169370 0.875247
O O9 0.000000 0.103754 0.928246
O O10 0.725327 0.000000 0.917362
O O11 0.726376 0.127966 0.000000
O O12 0.500000 0.893726 0.308572
O O13 0.775360 0.844578 0.245797
O O14 0.784687 0.843826 0.370290
O O15 0.775042 0.000000 0.308333
O O16 0.000000 0.233939 0.172506
O O17 0.788899 0.176522 0.500000
O O18 0.500000 0.177637 0.434026
#
# Coordination Sequence:
#
# PCOD9381367 Si02
#       6
#     8   8   8   8   8   8
#     4   8  14  25  43  68  94 117 144 183 229 270
#     4   9  17  31  50  70  93 120 149 184 232 284
#     4   8  14  24  39  65  99 126 150 185 227 268
#     4  10  21  35  49  67  92 119 149 191 238 277
#     4  10  17  28  51  74  91 119 158 193 223 265
#     4  10  21  35  49  66  90 121 155 190 230 277
#
# _framework density 20.357491
#
# number of rings (size 3 to 8) (size 9 to 14) (size 15 to 20)
#    0.000    2.833    1.667    2.000    0.000    2.333 
#    0.000    3.333    0.000    1.500    0.000    8.167 
#    0.000    0.000    0.000    1.500    0.000    1.833 
#
# Total GULP energy -267868.904300 kJ/mol
# GULP energy per Si atom -5580.602173 kJ/mol
# Density = 2.031116 g / cm^3
# Si number density = 20.357491 Si / 1000 Ang^3
#
#
#
# Elastic Constant Matrix: (Units=GPa)
#
#
# Indices 1 2 3 4 5 6 
#
# 1 63.1368 -8.8983 -4.0879 0.0000 0.0000 0.0000
# 2 -8.8983 124.1366 75.1680 0.0000 0.0000 0.0000
# 3 -4.0879 75.1680 137.2984 0.0000 0.0000 0.0000
# 4 0.0000 0.0000 0.0000 -34.5201 0.0000 0.0000
# 5 0.0000 0.0000 0.0000 0.0000 8.5442 0.0000
# 6 0.0000 0.0000 0.0000 0.0000 0.0000 9.6130
#
#
#
# Elastic Compliance Matrix: (Units=1/GPa)
#
#
# Indices 1 2 3 4 5 6 
#
# 1 0.016005 0.001285 -0.000227 0.000000 0.000000 0.000000
# 2 0.001285 0.012154 -0.006616 0.000000 0.000000 0.000000
# 3 -0.000227 -0.006616 0.010899 0.000000 0.000000 0.000000
# 4 0.000000 0.000000 0.000000 -0.028969 0.000000 0.000000
# 5 0.000000 0.000000 0.000000 0.000000 0.117039 0.000000
# 6 0.000000 0.000000 0.000000 0.000000 0.000000 0.104026
#
#
# Mechanical properties :
#
#
# Convention : Reuss Voigt Hill
#
# Bulk Modulus (GPa) = 35.78892 49.88170 42.83531
# Shear Modulus (GPa) = 19.87422 14.22010 17.04716
#
# Velocity S-wave (km/s) = 3.12791 2.64582 2.89691
# Velocity P-wave (km/s) = 5.53746 5.82150 5.68126
#
# Compressibility (1/GPa) = 0.02794161
#
# Stress axis : x y z
#
# Youngs Moduli (GPa) = 62.48052 82.27978 91.75512
#
# Poissons Ratio (x) = -0.10569 0.02080
# Poissons Ratio (y) = -0.08026 0.60702
# Poissons Ratio (z) = 0.01417 0.54433
#
# Static dielectric constant tensor:
#      x y z
#    x 1.810310 0.000000 0.000000 
#    y 0.000000 1.714880 0.000000 
#    z 0.000000 0.000000 1.707880 
# 
# From -- ./inp_files/6739.got.cif
#   From: 2010.05.17/outbox.cif.g08.bks.cpg/sg47_4_cif.got.tgz:6739.got - 2010.06.03 20:15:42.
