data_PCOD9381316
_publ_section_title
;
Structure prediction by ZEFSAII (Michael W. Deem and Ramdas Pophale) SiO2 
 PCOD9381316
Probable space group: P M M M
;
_chemical_formula_sum "Si O2"
_cell_formula_units_Z 52
_cell_length_a 24.402078
_cell_length_b 14.772644
_cell_length_c 7.416385
_cell_angle_alpha 90.000000
_cell_angle_beta 90.000000
_cell_angle_gamma 90.000000
_cell_volume 2673.482280
_symmetry_space_group_name_H-M "P M M M"
_symmetry_group_IT_number 47
_symmetry_cell_setting 'orthorhombic'
loop_
_space_group_symop_operation_xyz
x,y,z
-x,-y,z
x,-y,-z
-x,y,-z
-x,-y,-z
x,y,-z
-x,y,z
x,-y,z
loop_
_atom_site_type_symbol
_atom_site_label
_atom_site_fract_x
_atom_site_fract_y
_atom_site_fract_z
Si Si1 0.402789 0.399637 0.217730
Si Si2 0.275266 0.399636 0.219921
Si Si3 0.880110 0.895089 0.221337
Si Si4 0.000000 0.109893 0.209746
Si Si5 0.440840 0.797383 0.710454
Si Si6 0.222787 0.218193 0.211196
Si Si7 0.668475 0.104481 0.281720
O O1 0.421471 0.500000 0.276520
O O2 0.339025 0.388839 0.272658
O O3 0.434301 0.311014 0.279380
O O4 0.404672 0.399349 0.000000
O O5 0.257094 0.500000 0.274659
O O6 0.239539 0.315986 0.286631
O O7 0.275373 0.397515 0.000000
O O8 0.940528 0.863710 0.283611
O O9 0.830171 0.833283 0.284930
O O10 0.871682 0.000000 0.273824
O O11 0.880875 0.895074 0.000000
O O12 0.000000 0.000000 0.214463
O O13 0.000000 0.137413 0.000000
O O14 0.442076 0.822799 0.500000
O O15 0.500000 0.823166 0.789156
O O16 0.386027 0.843846 0.785121
O O17 0.276515 0.155543 0.224622
O O18 0.211196 0.232261 0.000000
O O19 0.668219 0.106596 0.500000
O O20 0.668565 0.000000 0.224726
#
# Coordination Sequence:
#
# PCOD9381316 Si02
#       7
#     8   8   8   4   8   8   8
#     4   9  17  31  50  69  89 113 139 169 212 266
#     4   8  14  25  42  64  88 111 135 167 211 258
#     4   8  13  20  33  58  88 115 143 175 211 248
#     4   7  10  18  30  48  84 122 142 167 209 249
#     4  10  21  35  49  65  85 111 145 180 212 253
#     4  10  17  27  47  70  88 109 143 184 216 248
#     4  10  21  35  48  63  86 114 141 173 218 264
#
# _framework density 19.450289000000001
#
# number of rings (size 3 to 8) (size 9 to 14) (size 15 to 20)
#    0.000    3.000    1.538    2.308    0.000    2.154 
#    0.000    3.077    0.000    0.462    0.000    3.231 
#    0.000    7.385    0.000    0.000    0.000    1.538 
#
# Total GULP energy -290011.897980 kJ/mol
# GULP energy per Si atom -5577.151884 kJ/mol
# Density = 1.940602 g / cm^3
# Si number density = 19.450289 Si / 1000 Ang^3
#
#
#
# Elastic Constant Matrix: (Units=GPa)
#
#
# Indices 1 2 3 4 5 6 
#
# 1 160.8120 68.8290 -1.7620 0.0000 0.0000 0.0000
# 2 68.8290 104.6428 -7.2855 0.0000 0.0000 0.0000
# 3 -1.7620 -7.2855 60.7912 0.0000 0.0000 0.0000
# 4 0.0000 0.0000 0.0000 7.3565 0.0000 0.0000
# 5 0.0000 0.0000 0.0000 0.0000 7.6941 0.0000
# 6 0.0000 0.0000 0.0000 0.0000 0.0000 35.9533
#
#
#
# Elastic Compliance Matrix: (Units=1/GPa)
#
#
# Indices 1 2 3 4 5 6 
#
# 1 0.008666 -0.005731 -0.000436 0.000000 0.000000 0.000000
# 2 -0.005731 0.013426 0.001443 0.000000 0.000000 0.000000
# 3 -0.000436 0.001443 0.016610 0.000000 0.000000 0.000000
# 4 0.000000 0.000000 0.000000 0.135935 0.000000 0.000000
# 5 0.000000 0.000000 0.000000 0.000000 0.129969 0.000000
# 6 0.000000 0.000000 0.000000 0.000000 0.000000 0.027814
#
#
# Mechanical properties :
#
#
# Convention : Reuss Voigt Hill
#
# Bulk Modulus (GPa) = 34.18105 49.53434 41.85769
# Shear Modulus (GPa) = 14.21992 27.96507 21.09250
#
# Velocity S-wave (km/s) = 2.70680 3.79591 3.29664
# Velocity P-wave (km/s) = 5.23266 6.68837 6.00479
#
# Compressibility (1/GPa) = 0.02925597
#
# Stress axis : x y z
#
# Youngs Moduli (GPa) = 115.38724 74.48142 60.20447
#
# Poissons Ratio (x) = 0.42683 0.02623
# Poissons Ratio (y) = 0.66125 -0.08687
# Poissons Ratio (z) = 0.05026 -0.10747
#
# Static dielectric constant tensor:
#      x y z
#    x 1.688720 0.000000 0.000000 
#    y 0.000000 1.668210 0.000000 
#    z 0.000000 0.000000 1.781170 
# 
# From -- ./inp_files/12500.got.cif
#   From: 2010.05.17/outbox.cif.g08.bks.cpg/sg47_7_cif.got.tgz:12500.got - 2010.06.03 20:15:42.
