data_PCOD9381485
_publ_section_title
;
Structure prediction by ZEFSAII (Michael W. Deem and Ramdas Pophale) SiO2 
 PCOD9381485
Probable space group: P M M M
;
_chemical_formula_sum "Si O2"
_cell_formula_units_Z 64
_cell_length_a 32.192626
_cell_length_b 7.487602
_cell_length_c 15.035283
_cell_angle_alpha 90.000000
_cell_angle_beta 90.000000
_cell_angle_gamma 90.000000
_cell_volume 3624.188373
_symmetry_space_group_name_H-M "P M M M"
_symmetry_group_IT_number 47
_symmetry_cell_setting 'orthorhombic'
loop_
_space_group_symop_operation_xyz
x,y,z
-x,-y,z
x,-y,-z
-x,y,-z
-x,-y,-z
x,y,-z
-x,y,z
x,-y,z
loop_
_atom_site_type_symbol
_atom_site_label
_atom_site_fract_x
_atom_site_fract_y
_atom_site_fract_z
Si Si1 0.373218 0.711820 0.785149
Si Si2 0.044629 0.785102 0.893597
Si Si3 0.786635 0.787882 0.217678
Si Si4 0.294965 0.715578 0.101500
Si Si5 0.135755 0.218820 0.896420
Si Si6 0.249196 0.783981 0.599142
Si Si7 0.346938 0.288461 0.597794
Si Si8 0.546775 0.785055 0.100746
O O1 0.365588 0.500000 0.777974
O O2 0.336136 0.782168 0.847767
O O3 0.369395 0.785287 0.685184
O O4 0.417418 0.734859 0.831324
O O5 0.090003 0.722304 0.863460
O O6 0.000000 0.717212 0.858859
O O7 0.044250 0.000000 0.881606
O O8 0.044680 0.753761 0.000000
O O9 0.745816 0.762157 0.157487
O O10 0.826743 0.717850 0.165340
O O11 0.776880 0.717420 0.316514
O O12 0.793134 0.000000 0.227100
O O13 0.297107 0.500000 0.097915
O O14 0.292738 0.780699 0.000000
O O15 0.135800 0.000000 0.896746
O O16 0.141524 0.271559 0.000000
O O17 0.236580 0.723442 0.500000
O O18 0.297466 0.733402 0.611807
O O19 0.247611 0.000000 0.599441
O O20 0.356897 0.212706 0.500000
O O21 0.355612 0.500000 0.593328
O O22 0.500000 0.723764 0.123163
O O23 0.545710 0.000000 0.098205
O O24 0.556603 0.723174 0.000000
#
# Coordination Sequence:
#
# PCOD9381485 Si02
#       8
#     8   8   8   8   8   8   8   8
#     4  10  19  31  48  69  90 111 140 174 206 243
#     4   7   9  14  25  41  63  92 123 157 201 245
#     4  10  18  27  40  57  79 108 140 170 201 243
#     4  10  20  31  41  58  87 116 139 167 200 235
#     4   8  13  20  30  47  72 100 130 164 200 240
#     4   9  17  28  41  58  80 105 136 174 210 242
#     4   9  17  30  48  67  86 109 138 172 208 243
#     4   9  19  35  52  70  92 116 142 173 207 242
#
# _framework density 17.659127000000002
#
# number of rings (size 3 to 8) (size 9 to 14) (size 15 to 20)
#    0.000    3.000    1.250    2.250    0.000    2.750 
#    0.000    0.625    0.000    0.375    0.000    2.625 
#    0.000    1.000    0.000   11.625    0.000    4.000 
#
# Total GULP energy -356627.560062 kJ/mol
# GULP energy per Si atom -5572.305626 kJ/mol
# Density = 1.761893 g / cm^3
# Si number density = 17.659127 Si / 1000 Ang^3
#
#
#
# Elastic Constant Matrix: (Units=GPa)
#
#
# Indices 1 2 3 4 5 6 
#
# 1 142.6901 -5.1574 96.2490 0.0000 0.0000 0.0000
# 2 -5.1574 45.2942 3.7876 0.0000 0.0000 0.0000
# 3 96.2490 3.7876 155.4635 0.0000 0.0000 0.0000
# 4 0.0000 0.0000 0.0000 6.3490 0.0000 0.0000
# 5 0.0000 0.0000 0.0000 0.0000 6.8648 0.0000
# 6 0.0000 0.0000 0.0000 0.0000 0.0000 18.5822
#
#
#
# Elastic Compliance Matrix: (Units=1/GPa)
#
#
# Indices 1 2 3 4 5 6 
#
# 1 0.012217 0.002028 -0.007613 0.000000 0.000000 0.000000
# 2 0.002028 0.022459 -0.001803 0.000000 0.000000 0.000000
# 3 -0.007613 -0.001803 0.011189 0.000000 0.000000 0.000000
# 4 0.000000 0.000000 0.000000 0.157506 0.000000 0.000000
# 5 0.000000 0.000000 0.000000 0.000000 0.145671 0.000000
# 6 0.000000 0.000000 0.000000 0.000000 0.000000 0.053815
#
#
# Mechanical properties :
#
#
# Convention : Reuss Voigt Hill
#
# Bulk Modulus (GPa) = 32.16454 59.24512 45.70483
# Shear Modulus (GPa) = 11.68236 22.93045 17.30640
#
# Velocity S-wave (km/s) = 2.57485 3.60739 3.13393
# Velocity P-wave (km/s) = 5.20514 7.13954 6.24766
#
# Compressibility (1/GPa) = 0.03109014
#
# Stress axis : x y z
#
# Youngs Moduli (GPa) = 81.85624 44.52462 89.37001
#
# Poissons Ratio (x) = -0.09028 0.68035
# Poissons Ratio (y) = -0.16597 0.16109
# Poissons Ratio (z) = 0.62315 0.08026
#
# Static dielectric constant tensor:
#      x y z
#    x 1.601660 0.000000 0.000000 
#    y 0.000000 1.685480 0.000000 
#    z 0.000000 0.000000 1.615260 
# 
# From -- ./inp_files/8286.got.cif
#   From: 2010.05.17/outbox.cif.g08.bks.cpg/sg47_5_cif.got.tgz:8286.got - 2010.06.03 20:15:42.
