data_PCOD9381087
_publ_section_title
;
Structure prediction by ZEFSAII (Michael W. Deem and Ramdas Pophale) SiO2 
 PCOD9381087
Probable space group: I M A 2
;
_chemical_formula_sum "Si O2"
_cell_formula_units_Z 32
_cell_length_a 9.000000
_cell_length_b 30.000000
_cell_length_c 15.000000
_cell_angle_alpha 90.000000
_cell_angle_beta 90.000000
_cell_angle_gamma 90.000000
_cell_volume 4050.000000
_symmetry_space_group_name_H-M "I M A 2"
_symmetry_group_IT_number 46
_symmetry_cell_setting 'orthorhombic'
loop_
_space_group_symop_operation_xyz
x,y,z
-x,-y,z
1/2-x,y,z
1/2+x,-y,z
1/2+x,1/2+y,1/2+z
1/2-x,1/2-y,1/2+z
-x,1/2+y,1/2+z
x,1/2-y,1/2+z
loop_
_atom_site_type_symbol
_atom_site_label
_atom_site_fract_x
_atom_site_fract_y
_atom_site_fract_z
Si Si1 0.427049 0.453614 0.194160
Si Si2 0.574268 0.721003 0.612926
Si Si3 0.923641 0.128955 0.784293
Si Si4 0.573494 0.779262 0.318198
Si Si5 0.428384 0.801594 0.930569
Si Si6 0.078907 0.812878 0.607702
Si Si7 0.575061 0.639951 0.950750
Si Si8 0.425664 0.455144 0.986675
O O1 0.500000 0.500000 0.222439
O O2 0.250000 0.456598 0.196867
O O3 0.482514 0.413280 0.254525
O O4 0.472230 0.446520 0.090029
O O5 0.750000 0.712681 0.607298
O O6 0.524346 0.713929 0.715606
O O7 0.492643 0.697340 0.530498
O O8 0.535195 0.772669 0.597638
O O9 0.750000 0.116322 0.790336
O O10 0.968123 0.154353 0.874120
O O11 0.935661 0.164693 0.703945
O O12 0.750000 0.768223 0.316057
O O13 0.492105 0.740419 0.373958
O O14 0.554801 0.825068 0.371997
O O15 0.250000 0.797678 0.932859
O O16 0.250000 0.797892 0.596527
O O17 0.032266 0.846803 0.531142
O O18 0.750000 0.642299 0.979168
O O19 0.543520 0.588668 0.929487
O O20 0.500000 0.500000 0.954457
O O21 0.250000 0.462228 0.988963
#
# Coordination Sequence:
#
# PCOD9381087 Si02
#       8
#     8   8   8   8   8   8   8   8
#     4  10  19  31  49  73 100 133 166 201 248 300
#     4  11  22  35  49  70 100 134 172 210 250 297
#     4  10  21  34  48  71 102 133 169 209 249 298
#     4  10  21  34  51  72  98 132 169 210 250 296
#     4  11  22  35  51  73 100 132 170 211 255 295
#     4  11  20  30  47  71  99 133 168 205 247 291
#     4  10  19  33  49  71  98 131 169 206 247 291
#     4   9  18  30  46  69  98 128 161 198 242 294
#
# _framework density 7.9012349999999998
#
# number of rings (size 3 to 8) (size 9 to 14) (size 15 to 20)
#    0.000    1.750    3.750    1.500    0.000    3.000 
#    0.000    0.000    0.000    0.000    0.000    0.875 
#    0.000    4.000    0.000    0.000    0.000    0.000 
#
# Total GULP energy -178408.891401 kJ/mol
# GULP energy per Si atom -5575.277856 kJ/mol
# Density = 0.788325 g / cm^3
# Si number density = 7.901235 Si / 1000 Ang^3
#
#
#
# Elastic Constant Matrix: (Units=GPa)
#
#
# Indices 1 2 3 4 5 6 
#
# 1 21.8678 14.0489 11.1649 0.0000 0.0000 0.0000
# 2 14.0489 53.2413 -10.8705 0.0000 0.0000 0.0000
# 3 11.1649 -10.8705 37.6786 0.0001 0.0000 0.0000
# 4 0.0000 0.0000 0.0001 15.8494 0.0000 0.0000
# 5 0.0000 0.0000 0.0000 0.0000 18.3802 0.0000
# 6 0.0000 0.0000 0.0000 0.0000 0.0000 21.6961
#
#
#
# Elastic Compliance Matrix: (Units=1/GPa)
#
#
# Indices 1 2 3 4 5 6 
#
# 1 0.079322 -0.027340 -0.031392 0.000000 0.000000 0.000000
# 2 -0.027340 0.029382 0.016578 0.000000 0.000000 0.000000
# 3 -0.031392 0.016578 0.040625 0.000000 0.000000 0.000000
# 4 0.000000 0.000000 0.000000 0.063094 0.000000 0.000000
# 5 0.000000 0.000000 0.000000 0.000000 0.054406 0.000000
# 6 0.000000 0.000000 0.000000 0.000000 0.000000 0.046091
#
#
# Mechanical properties :
#
#
# Convention : Reuss Voigt Hill
#
# Bulk Modulus (GPa) = 15.37993 15.71935 15.54964
# Shear Modulus (GPa) = 11.93596 17.74810 14.84203
#
# Velocity S-wave (km/s) = 2.75130 3.35494 3.06800
# Velocity P-wave (km/s) = 4.45495 4.99765 4.73408
#
# Compressibility (1/GPa) = 0.06501981
#
# Stress axis : x y z
#
# Youngs Moduli (GPa) = 12.60691 34.03490 24.61518
#
# Poissons Ratio (x) = 0.93052 0.77273
# Poissons Ratio (y) = 0.34468 -0.40808
# Poissons Ratio (z) = 0.39576 -0.56424
#
# Static dielectric constant tensor:
#      x y z
#    x 1.534940 0.000000 0.000000 
#    y 0.000000 1.534100 0.000000 
#    z 0.000000 0.000000 1.526470 
# 
# From -- ./inp_files/14721.got.cif
#   From: 2010.05.17/outbox.ucp.g08.bks.cvg/sg46_8_cif.got.tgz:14721.got - 2010.06.11 16:34:52.
