data_PCOD9381805
_publ_section_title
;
Structure prediction by ZEFSAII (Michael W. Deem and Ramdas Pophale) SiO2 
 PCOD9381805
Probable space group: P M M M
;
_chemical_formula_sum "Si O2"
_cell_formula_units_Z 52
_cell_length_a 26.906199
_cell_length_b 13.320535
_cell_length_c 7.606815
_cell_angle_alpha 90.000000
_cell_angle_beta 90.000000
_cell_angle_gamma 90.000000
_cell_volume 2726.320268
_symmetry_space_group_name_H-M "P M M M"
_symmetry_group_IT_number 47
_symmetry_cell_setting 'orthorhombic'
loop_
_space_group_symop_operation_xyz
x,y,z
-x,-y,z
x,-y,-z
-x,y,-z
-x,-y,-z
x,y,-z
-x,y,z
x,-y,z
loop_
_atom_site_type_symbol
_atom_site_label
_atom_site_fract_x
_atom_site_fract_y
_atom_site_fract_z
Si Si1 0.173013 0.000000 0.287015
Si Si2 0.710787 0.000000 0.208931
Si Si3 0.000000 0.882529 0.285179
Si Si4 0.555787 0.885380 0.288296
Si Si5 0.106800 0.186691 0.709399
Si Si6 0.658866 0.200537 0.208983
Si Si7 0.835407 0.387192 0.211428
Si Si8 0.721724 0.386774 0.214901
O O1 0.230270 0.000000 0.233203
O O2 0.143966 0.099602 0.224203
O O3 0.172349 0.000000 0.500000
O O4 0.685806 0.899027 0.282094
O O5 0.700731 0.000000 0.000000
O O6 0.949001 0.831479 0.223246
O O7 0.000000 0.878967 0.500000
O O8 0.000000 0.000000 0.237118
O O9 0.554921 0.887999 0.500000
O O10 0.500000 0.858707 0.228579
O O11 0.600276 0.813118 0.235308
O O12 0.566456 0.000000 0.227407
O O13 0.104415 0.171772 0.500000
O O14 0.128470 0.296979 0.739565
O O15 0.684218 0.301508 0.278169
O O16 0.667874 0.201667 0.000000
O O17 0.848772 0.500000 0.273393
O O18 0.778683 0.365131 0.269108
O O19 0.834434 0.390744 0.000000
O O20 0.709209 0.500000 0.270716
O O21 0.721434 0.387182 0.000000
#
# Coordination Sequence:
#
# PCOD9381805 Si02
#       8
#     4   4   4   8   8   8   8   8
#     4  10  20  31  46  71  99 126 160 196 238 291
#     4  10  20  30  42  68 101 129 152 187 242 293
#     4   9  16  32  54  71  94 130 167 200 241 294
#     4   9  18  32  48  66  92 128 162 190 231 287
#     4  10  19  32  52  75  96 124 163 206 245 284
#     4  10  18  29  47  71  96 120 154 199 238 272
#     4   9  18  34  54  73  97 132 166 196 240 295
#     4   8  15  29  49  70  93 126 163 192 227 282
#
# _framework density 19.073326999999999
#
# number of rings (size 3 to 8) (size 9 to 14) (size 15 to 20)
#    0.000    2.692    1.538    2.308    0.000    3.077 
#    0.000    2.308    0.000    4.615    0.000    3.231 
#    0.000    0.000    0.000    0.000    0.000    0.000 
#
# Total GULP energy -290088.251703 kJ/mol
# GULP energy per Si atom -5578.620225 kJ/mol
# Density = 1.902991 g / cm^3
# Si number density = 19.073327 Si / 1000 Ang^3
#
#
#
# Elastic Constant Matrix: (Units=GPa)
#
#
# Indices 1 2 3 4 5 6 
#
# 1 154.8882 111.2610 -6.9068 0.0000 0.0000 0.0000
# 2 111.2610 158.4240 1.5332 0.0000 0.0000 0.0000
# 3 -6.9068 1.5332 34.4033 0.0000 0.0000 0.0000
# 4 0.0000 0.0000 0.0000 24.3061 0.0000 0.0000
# 5 0.0000 0.0000 0.0000 0.0000 21.3949 0.0000
# 6 0.0000 0.0000 0.0000 0.0000 0.0000 27.4972
#
#
#
# Elastic Compliance Matrix: (Units=1/GPa)
#
#
# Indices 1 2 3 4 5 6 
#
# 1 0.013352 -0.009407 0.003100 0.000000 0.000000 0.000000
# 2 -0.009407 0.012943 -0.002465 0.000000 0.000000 0.000000
# 3 0.003100 -0.002465 0.029799 0.000000 0.000000 0.000000
# 4 0.000000 0.000000 0.000000 0.041142 0.000000 0.000000
# 5 0.000000 0.000000 0.000000 0.000000 0.046740 0.000000
# 6 0.000000 0.000000 0.000000 0.000000 0.000000 0.036367
#
#
# Mechanical properties :
#
#
# Convention : Reuss Voigt Hill
#
# Bulk Modulus (GPa) = 25.94139 62.16557 44.05348
# Shear Modulus (GPa) = 23.72621 30.76153 27.24387
#
# Velocity S-wave (km/s) = 3.53079 4.02033 3.78349
# Velocity P-wave (km/s) = 5.50022 7.36304 6.49872
#
# Compressibility (1/GPa) = 0.03854844
#
# Stress axis : x y z
#
# Youngs Moduli (GPa) = 74.89624 77.26463 33.55796
#
# Poissons Ratio (x) = 0.72683 -0.10402
# Poissons Ratio (y) = 0.70455 0.08273
# Poissons Ratio (z) = -0.23216 0.19048
#
# Static dielectric constant tensor:
#      x y z
#    x 1.648960 0.000000 0.000000 
#    y 0.000000 1.659060 0.000000 
#    z 0.000000 0.000000 1.720910 
# 
# From -- ./inp_files/13300.got.cif
#   From: 2010.05.17/outbox.cif.g08.bks.cpg/sg47_7_cif.got.tgz:13300.got - 2010.06.03 20:15:42.
