data_PCOD9381052
_publ_section_title
;
Structure prediction by ZEFSAII (Michael W. Deem and Ramdas Pophale) SiO2 
 PCOD9381052
Probable space group: I M A 2
;
_chemical_formula_sum "Si O2"
_cell_formula_units_Z 24
_cell_length_a 16.631365
_cell_length_b 7.192979
_cell_length_c 7.709804
_cell_angle_alpha 90.000000
_cell_angle_beta 90.000000
_cell_angle_gamma 90.000000
_cell_volume 922.316599
_symmetry_space_group_name_H-M "I M A 2"
_symmetry_group_IT_number 46
_symmetry_cell_setting 'orthorhombic'
loop_
_space_group_symop_operation_xyz
x,y,z
-x,-y,z
1/2-x,y,z
1/2+x,-y,z
1/2+x,1/2+y,1/2+z
1/2-x,1/2-y,1/2+z
-x,1/2+y,1/2+z
x,1/2-y,1/2+z
loop_
_atom_site_type_symbol
_atom_site_label
_atom_site_fract_x
_atom_site_fract_y
_atom_site_fract_z
Si Si1 0.105335 0.004365 0.793910
Si Si2 0.840725 0.877357 0.424909
Si Si3 0.922223 0.369308 0.649559
O O1 0.155552 0.058360 0.623666
O O2 0.098813 0.207497 0.884477
O O3 0.051728 0.840307 0.701542
O O4 0.126133 0.889474 0.969298
O O5 0.750000 0.814788 0.388074
O O6 0.867277 0.039584 0.296474
O O7 0.000000 0.500000 0.630878
#
# Coordination Sequence:
#
# PCOD9381052 Si02
#       3
#     8   8   8
#     4  12  27  51  77 119 160 213 269 332 400 487
#     4  12  28  50  81 121 165 212 270 338 410 486
#     4  12  30  50  83 118 165 215 275 335 413 479
#
# _framework density 26.021436000000001
#
# number of rings (size 3 to 8) (size 9 to 14) (size 15 to 20)
#    0.000    0.000    6.667    1.000    4.667    5.333 
#    0.000    0.000    0.000    0.000    0.000    0.000 
#    0.000    0.000    0.000    0.000    0.000    0.000 
#
# Total GULP energy -66826.967047 kJ/mol
# GULP energy per Si atom -5568.913921 kJ/mol
# Density = 2.596221 g / cm^3
# Si number density = 26.021436 Si / 1000 Ang^3
#
#
#
# Elastic Constant Matrix: (Units=GPa)
#
#
# Indices 1 2 3 4 5 6 
#
# 1 94.5828 44.1069 40.2941 0.0000 0.0000 0.0000
# 2 44.1069 221.5723 67.7987 0.0000 0.0000 0.0000
# 3 40.2941 67.7987 247.6812 0.0000 0.0000 0.0000
# 4 0.0000 0.0000 0.0000 43.2796 0.0000 0.0000
# 5 0.0000 0.0000 0.0000 0.0000 22.3842 0.0000
# 6 0.0000 0.0000 0.0000 0.0000 0.0000 18.8345
#
#
#
# Elastic Compliance Matrix: (Units=1/GPa)
#
#
# Indices 1 2 3 4 5 6 
#
# 1 0.012101 -0.001972 -0.001429 0.000000 0.000000 0.000000
# 2 -0.001972 0.005247 -0.001116 0.000000 0.000000 0.000000
# 3 -0.001429 -0.001116 0.004575 0.000000 0.000000 0.000000
# 4 0.000000 0.000000 0.000000 0.023106 0.000000 0.000000
# 5 0.000000 0.000000 0.000000 0.000000 0.044674 0.000000
# 6 0.000000 0.000000 0.000000 0.000000 0.000000 0.053094
#
#
# Mechanical properties :
#
#
# Convention : Reuss Voigt Hill
#
# Bulk Modulus (GPa) = 77.57327 96.47064 87.02195
# Shear Modulus (GPa) = 32.02533 44.34210 38.18371
#
# Velocity S-wave (km/s) = 3.51198 4.13250 3.83481
# Velocity P-wave (km/s) = 6.80598 7.74107 7.28854
#
# Compressibility (1/GPa) = 0.01289104
#
# Stress axis : x y z
#
# Youngs Moduli (GPa) = 82.63828 190.58451 218.56604
#
# Poissons Ratio (x) = 0.37576 0.31232
# Poissons Ratio (y) = 0.16293 0.24382
# Poissons Ratio (z) = 0.11809 0.21260
#
# Static dielectric constant tensor:
#      x y z
#    x 2.485460 0.000000 0.000000 
#    y 0.000000 2.066680 0.000000 
#    z 0.000000 0.000000 1.994470 
# 
# From -- ./inp_files/7668.got.cif
#   From: 2010.05.17/outbox.cif.g08.bks.cpg/sg46_4_cif.got.tgz:7668.got - 2010.06.03 19:58:25.
