data_PCOD9381544
_publ_section_title
;
Structure prediction by ZEFSAII (Michael W. Deem and Ramdas Pophale) SiO2 
 PCOD9381544
Probable space group: P M M M
;
_chemical_formula_sum "Si O2"
_cell_formula_units_Z 56
_cell_length_a 23.955697
_cell_length_b 7.379915
_cell_length_c 15.344307
_cell_angle_alpha 90.000000
_cell_angle_beta 90.000000
_cell_angle_gamma 90.000000
_cell_volume 2712.735496
_symmetry_space_group_name_H-M "P M M M"
_symmetry_group_IT_number 47
_symmetry_cell_setting 'orthorhombic'
loop_
_space_group_symop_operation_xyz
x,y,z
-x,-y,z
x,-y,-z
-x,y,-z
-x,-y,-z
x,y,-z
-x,y,z
x,-y,z
loop_
_atom_site_type_symbol
_atom_site_label
_atom_site_fract_x
_atom_site_fract_y
_atom_site_fract_z
Si Si1 0.935399 0.221019 0.902206
Si Si2 0.340572 0.282359 0.401108
Si Si3 0.212706 0.215764 0.598909
Si Si4 0.562348 0.721534 0.727252
Si Si5 0.844691 0.790489 0.231687
Si Si6 0.746938 0.281091 0.900934
Si Si7 0.618523 0.279367 0.902486
O O1 0.894554 0.288062 0.826674
O O2 0.000000 0.271858 0.889387
O O3 0.933299 0.000000 0.902272
O O4 0.918061 0.278150 0.000000
O O5 0.347435 0.215112 0.500000
O O6 0.344911 0.500000 0.403188
O O7 0.277235 0.241915 0.373639
O O8 0.388884 0.216696 0.337416
O O9 0.206194 0.287364 0.500000
O O10 0.172786 0.288977 0.674883
O O11 0.203985 0.000000 0.594418
O O12 0.500000 0.778631 0.703058
O O13 0.562816 0.500000 0.726109
O O14 0.578624 0.778384 0.824851
O O15 0.790294 0.786447 0.169896
O O16 0.859723 0.000000 0.247739
O O17 0.748357 0.500000 0.898273
O O18 0.682809 0.226177 0.884592
O O19 0.761669 0.225468 0.000000
O O20 0.618207 0.500000 0.903221
O O21 0.603382 0.220187 0.000000
#
# Coordination Sequence:
#
# PCOD9381544 Si02
#       7
#     8   8   8   8   8   8   8
#     4   8  14  25  41  62  88 115 142 173 207 243
#     4   9  17  29  45  63  82 106 136 169 208 257
#     4   9  18  31  45  63  88 114 139 173 218 259
#     4   9  16  24  36  56  79 102 131 169 208 242
#     4  10  18  27  44  67  87 111 145 181 211 244
#     4   9  17  28  42  62  89 117 140 168 213 261
#     4   8  14  24  36  51  75 107 137 162 195 245
#
# _framework density 20.643369
#
# number of rings (size 3 to 8) (size 9 to 14) (size 15 to 20)
#    0.000    3.143    0.000    2.571    0.000    3.143 
#    0.000    2.857    0.000    1.286    0.000    7.000 
#    0.000    0.000    0.000   17.143    0.000   15.286 
#
# Total GULP energy -312506.843377 kJ/mol
# GULP energy per Si atom -5580.479346 kJ/mol
# Density = 2.059638 g / cm^3
# Si number density = 20.643369 Si / 1000 Ang^3
#
#
#
# Elastic Constant Matrix: (Units=GPa)
#
#
# Indices 1 2 3 4 5 6 
#
# 1 110.0859 3.5085 104.1481 0.0000 0.0000 0.0000
# 2 3.5085 72.9833 5.5321 0.0000 0.0000 0.0000
# 3 104.1481 5.5321 143.0739 0.0000 0.0000 0.0000
# 4 0.0000 0.0000 0.0000 2.3522 0.0000 0.0000
# 5 0.0000 0.0000 0.0000 0.0000 17.7691 0.0000
# 6 0.0000 0.0000 0.0000 0.0000 0.0000 8.9562
#
#
#
# Elastic Compliance Matrix: (Units=1/GPa)
#
#
# Indices 1 2 3 4 5 6 
#
# 1 0.029180 0.000208 -0.021249 0.000000 0.000000 0.000000
# 2 0.000208 0.013744 -0.000683 0.000000 0.000000 0.000000
# 3 -0.021249 -0.000683 0.022484 0.000000 0.000000 0.000000
# 4 0.000000 0.000000 0.000000 0.425143 0.000000 0.000000
# 5 0.000000 0.000000 0.000000 0.000000 0.056278 0.000000
# 6 0.000000 0.000000 0.000000 0.000000 0.000000 0.111654
#
#
# Mechanical properties :
#
#
# Convention : Reuss Voigt Hill
#
# Bulk Modulus (GPa) = 45.53864 61.39116 53.46490
# Shear Modulus (GPa) = 7.04970 20.01246 13.53108
#
# Velocity S-wave (km/s) = 1.84997 3.11696 2.56299
# Velocity P-wave (km/s) = 5.16438 6.53891 5.89187
#
# Compressibility (1/GPa) = 0.02195937
#
# Stress axis : x y z
#
# Youngs Moduli (GPa) = 34.26949 72.76153 44.47621
#
# Poissons Ratio (x) = -0.01513 0.94509
# Poissons Ratio (y) = -0.00712 0.03037
# Poissons Ratio (z) = 0.72821 0.04968
#
# Static dielectric constant tensor:
#      x y z
#    x 1.699630 0.000000 0.000000 
#    y 0.000000 1.847360 0.000000 
#    z 0.000000 0.000000 1.744230 
# 
# From -- ./inp_files/25140.got.cif
#   From: 2010.05.17/outbox.cif.g08.bks.cpg/sg47_13_cif.got.tgz:25140.got - 2010.06.03 20:15:42.
