data_PCOD9381325
_publ_section_title
;
Structure prediction by ZEFSAII (Michael W. Deem and Ramdas Pophale) SiO2 
 PCOD9381325
Probable space group: P M M M
;
_chemical_formula_sum "Si O2"
_cell_formula_units_Z 52
_cell_length_a 23.863080
_cell_length_b 14.801995
_cell_length_c 7.877830
_cell_angle_alpha 90.000000
_cell_angle_beta 90.000000
_cell_angle_gamma 90.000000
_cell_volume 2782.616494
_symmetry_space_group_name_H-M "P M M M"
_symmetry_group_IT_number 47
_symmetry_cell_setting 'orthorhombic'
loop_
_space_group_symop_operation_xyz
x,y,z
-x,-y,z
x,-y,-z
-x,y,-z
-x,-y,-z
x,y,-z
-x,y,z
x,-y,z
loop_
_atom_site_type_symbol
_atom_site_label
_atom_site_fract_x
_atom_site_fract_y
_atom_site_fract_z
Si Si1 0.722305 0.601196 0.292562
Si Si2 0.331481 0.216596 0.703367
Si Si3 0.111436 0.208290 0.799196
Si Si4 0.148389 0.600112 0.704026
Si Si5 0.563464 0.103865 0.292586
Si Si6 0.778440 0.895751 0.794211
Si Si7 0.000000 0.898356 0.701180
O O1 0.722309 0.602647 0.500000
O O2 0.705347 0.500000 0.240721
O O3 0.684428 0.683755 0.231429
O O4 0.787088 0.615318 0.239084
O O5 0.337647 0.224123 0.500000
O O6 0.388125 0.170509 0.769360
O O7 0.278444 0.152437 0.737701
O O8 0.112171 0.313782 0.753257
O O9 0.167419 0.159469 0.729153
O O10 0.055638 0.156088 0.748557
O O11 0.115689 0.202433 0.000000
O O12 0.149551 0.597155 0.500000
O O13 0.130752 0.500000 0.764215
O O14 0.564117 0.104877 0.500000
O O15 0.500000 0.126986 0.240177
O O16 0.575071 0.000000 0.242096
O O17 0.780735 0.000000 0.738690
O O18 0.779174 0.895109 0.000000
O O19 0.000000 0.906354 0.500000
O O20 0.000000 0.000000 0.775529
#
# Coordination Sequence:
#
# PCOD9381325 Si02
#       7
#     8   8   8   8   8   8   4
#     4   8  14  25  43  69  99 127 156 198 251 298
#     4  10  17  27  48  72  92 122 169 211 242 291
#     4  11  22  37  57  79 106 138 169 206 254 309
#     4   9  17  32  54  78 106 137 167 205 255 305
#     4   8  14  24  38  61  94 127 161 206 256 297
#     4  10  21  34  47  69 103 134 156 193 253 305
#     4  11  25  43  62  81 102 135 179 218 248 293
#
# _framework density 18.687446999999999
#
# number of rings (size 3 to 8) (size 9 to 14) (size 15 to 20)
#    0.000    2.538    1.538    3.000    0.000    3.077 
#    0.000    0.385    0.000    3.692    0.000    5.385 
#    0.000    0.000    0.000    1.385    0.000    1.692 
#
# Total GULP energy -290071.780691 kJ/mol
# GULP energy per Si atom -5578.303475 kJ/mol
# Density = 1.864491 g / cm^3
# Si number density = 18.687447 Si / 1000 Ang^3
#
#
#
# Elastic Constant Matrix: (Units=GPa)
#
#
# Indices 1 2 3 4 5 6 
#
# 1 128.9219 101.4941 4.1984 0.0000 0.0000 0.0000
# 2 101.4941 190.0524 10.0024 0.0000 0.0000 0.0000
# 3 4.1984 10.0024 19.7025 0.0000 0.0000 0.0000
# 4 0.0000 0.0000 0.0000 2.8797 0.0000 0.0000
# 5 0.0000 0.0000 0.0000 0.0000 -4.9731 0.0000
# 6 0.0000 0.0000 0.0000 0.0000 0.0000 32.8236
#
#
#
# Elastic Compliance Matrix: (Units=1/GPa)
#
#
# Indices 1 2 3 4 5 6 
#
# 1 0.013395 -0.007196 0.000799 0.000000 0.000000 0.000000
# 2 -0.007196 0.009271 -0.003174 0.000000 0.000000 0.000000
# 3 0.000799 -0.003174 0.052196 0.000000 0.000000 0.000000
# 4 0.000000 0.000000 0.000000 0.347264 0.000000 0.000000
# 5 0.000000 0.000000 0.000000 0.000000 -0.201081 0.000000
# 6 0.000000 0.000000 0.000000 0.000000 0.000000 0.030466
#
#
# Mechanical properties :
#
#
# Convention : Reuss Voigt Hill
#
# Bulk Modulus (GPa) = 17.94637 63.34073 40.64355
# Shear Modulus (GPa) = 17.28750 21.01148 19.14949
#
# Velocity S-wave (km/s) = 3.04482 3.35679 3.20461
# Velocity P-wave (km/s) = 4.68887 6.99946 5.95726
#
# Compressibility (1/GPa) = 0.05572156
#
# Stress axis : x y z
#
# Youngs Moduli (GPa) = 74.65260 107.85850 19.15863
#
# Poissons Ratio (x) = 0.77611 -0.01530
# Poissons Ratio (y) = 0.53717 0.06080
# Poissons Ratio (z) = -0.05962 0.34229
#
# Static dielectric constant tensor:
#      x y z
#    x 1.580680 0.000000 0.000000 
#    y 0.000000 1.683890 0.000000 
#    z 0.000000 0.000000 1.672790 
# 
# From -- ./inp_files/11073.got.cif
#   From: 2010.05.17/outbox.cif.g08.bks.cpg/sg47_6_cif.got.tgz:11073.got - 2010.06.03 20:15:42.
