data_PCOD9381375
_publ_section_title
;
Structure prediction by ZEFSAII (Michael W. Deem and Ramdas Pophale) SiO2 
 PCOD9381375
Probable space group: P M M M
;
_chemical_formula_sum "Si O2"
_cell_formula_units_Z 52
_cell_length_a 17.672207
_cell_length_b 18.485193
_cell_length_c 8.460509
_cell_angle_alpha 90.000000
_cell_angle_beta 90.000000
_cell_angle_gamma 90.000000
_cell_volume 2763.829646
_symmetry_space_group_name_H-M "P M M M"
_symmetry_group_IT_number 47
_symmetry_cell_setting 'orthorhombic'
loop_
_space_group_symop_operation_xyz
x,y,z
-x,-y,z
x,-y,-z
-x,y,-z
-x,-y,-z
x,y,-z
-x,y,z
x,-y,z
loop_
_atom_site_type_symbol
_atom_site_label
_atom_site_fract_x
_atom_site_fract_y
_atom_site_fract_z
Si Si1 0.000000 0.644230 0.316924
Si Si2 0.677379 0.138891 0.810591
Si Si3 0.683055 0.580597 0.192886
Si Si4 0.160730 0.651319 0.811220
Si Si5 0.413108 0.281946 0.806958
Si Si6 0.164216 0.815662 0.689886
Si Si7 0.000000 0.179753 0.685143
Si Si8 0.587305 0.000000 0.310590
O O1 0.921155 0.621504 0.238919
O O2 0.000000 0.732380 0.307436
O O3 0.000000 0.624104 0.500000
O O4 0.635675 0.212652 0.756686
O O5 0.763622 0.141610 0.752362
O O6 0.631060 0.070630 0.749008
O O7 0.677162 0.138215 0.000000
O O8 0.663573 0.500000 0.246985
O O9 0.768452 0.602414 0.238337
O O10 0.626753 0.643958 0.245247
O O11 0.681063 0.580288 0.000000
O O12 0.171459 0.731660 0.740644
O O13 0.162522 0.658490 0.000000
O O14 0.500000 0.276598 0.755666
O O15 0.412790 0.282028 0.000000
O O16 0.162992 0.818168 0.500000
O O17 0.081811 0.842440 0.751182
O O18 0.000000 0.159405 0.500000
O O19 0.500000 0.000000 0.254924
O O20 0.587136 0.000000 0.500000
#
# Coordination Sequence:
#
# PCOD9381375 Si02
#       8
#     4   8   8   8   8   8   4   4
#     4   9  17  29  46  70 100 137 179 226 279 335
#     4  11  21  36  58  86 116 149 187 229 277 330
#     4   9  17  29  46  72 107 142 180 230 282 330
#     4  10  17  29  48  74 104 139 183 231 280 332
#     4   9  17  30  50  77 107 138 177 226 277 328
#     4  10  18  31  53  80 112 149 186 228 276 329
#     4   7  14  27  45  73 105 137 177 220 266 318
#     4  11  25  43  61  86 119 152 187 227 280 347
#
# _framework density 18.814474000000001
#
# number of rings (size 3 to 8) (size 9 to 14) (size 15 to 20)
#    0.000    2.385    1.538    3.231    0.000    1.538 
#    0.000    3.077    0.000    4.615    0.000    3.231 
#    0.000    1.231    0.000    0.000    0.000    0.000 
#
# Total GULP energy -290034.484246 kJ/mol
# GULP energy per Si atom -5577.586236 kJ/mol
# Density = 1.877165 g / cm^3
# Si number density = 18.814474 Si / 1000 Ang^3
#
#
#
# Elastic Constant Matrix: (Units=GPa)
#
#
# Indices 1 2 3 4 5 6 
#
# 1 183.5408 79.2866 27.5632 0.0000 0.0000 0.0000
# 2 79.2866 105.1398 18.4906 0.0000 0.0000 0.0000
# 3 27.5632 18.4906 34.7396 0.0000 0.0000 0.0000
# 4 0.0000 0.0000 0.0000 3.2156 0.0000 0.0000
# 5 0.0000 0.0000 0.0000 0.0000 19.9858 0.0000
# 6 0.0000 0.0000 0.0000 0.0000 0.0000 6.4775
#
#
#
# Elastic Compliance Matrix: (Units=1/GPa)
#
#
# Indices 1 2 3 4 5 6 
#
# 1 0.008485 -0.005753 -0.003670 0.000000 0.000000 0.000000
# 2 -0.005753 0.014394 -0.003097 0.000000 0.000000 0.000000
# 3 -0.003670 -0.003097 0.033346 0.000000 0.000000 0.000000
# 4 0.000000 0.000000 0.000000 0.310983 0.000000 0.000000
# 5 0.000000 0.000000 0.000000 0.000000 0.050036 0.000000
# 6 0.000000 0.000000 0.000000 0.000000 0.000000 0.154381
#
#
# Mechanical properties :
#
#
# Convention : Reuss Voigt Hill
#
# Bulk Modulus (GPa) = 32.06667 63.78899 47.92783
# Shear Modulus (GPa) = 8.23643 19.14109 13.68876
#
# Velocity S-wave (km/s) = 2.09457 3.19307 2.70027
# Velocity P-wave (km/s) = 4.78855 6.89725 5.93727
#
# Compressibility (1/GPa) = 0.03118503
#
# Stress axis : x y z
#
# Youngs Moduli (GPa) = 117.85961 69.47282 29.98887
#
# Poissons Ratio (x) = 0.39967 0.11005
# Poissons Ratio (y) = 0.67804 0.09287
# Poissons Ratio (z) = 0.43253 0.21515
#
# Static dielectric constant tensor:
#      x y z
#    x 1.674240 0.000000 0.000000 
#    y 0.000000 1.627500 0.000000 
#    z 0.000000 0.000000 1.652910 
# 
# From -- ./inp_files/9609.got.cif
#   From: 2010.05.17/outbox.cif.g08.bks.cpg/sg47_5_cif.got.tgz:9609.got - 2010.06.03 20:15:42.
