data_PCOD9381822
_publ_section_title
;
Structure prediction by ZEFSAII (Michael W. Deem and Ramdas Pophale) SiO2 
 PCOD9381822
Probable space group: P M M M
;
_chemical_formula_sum "Si O2"
_cell_formula_units_Z 60
_cell_length_a 20.210400
_cell_length_b 7.844853
_cell_length_c 20.247276
_cell_angle_alpha 90.000000
_cell_angle_beta 90.000000
_cell_angle_gamma 90.000000
_cell_volume 3210.157362
_symmetry_space_group_name_H-M "P M M M"
_symmetry_group_IT_number 47
_symmetry_cell_setting 'orthorhombic'
loop_
_space_group_symop_operation_xyz
x,y,z
-x,-y,z
x,-y,-z
-x,y,-z
-x,-y,-z
x,y,-z
-x,y,z
x,-y,z
loop_
_atom_site_type_symbol
_atom_site_label
_atom_site_fract_x
_atom_site_fract_y
_atom_site_fract_z
Si Si1 0.716170 0.296442 0.424369
Si Si2 0.142244 0.290556 0.630171
Si Si3 0.685598 0.294147 0.074950
Si Si4 0.075260 0.296097 0.765152
Si Si5 0.575000 0.705544 0.824780
Si Si6 0.323279 0.202559 0.287735
Si Si7 0.077242 0.307242 0.500000
Si Si8 0.788089 0.797664 0.186508
O O1 0.705992 0.231939 0.500000
O O2 0.721219 0.500000 0.430301
O O3 0.784749 0.233621 0.391354
O O4 0.667305 0.260859 0.363331
O O5 0.142871 0.500000 0.634752
O O6 0.107346 0.229241 0.696659
O O7 0.099589 0.230479 0.568146
O O8 0.682833 0.500000 0.072954
O O9 0.620308 0.233321 0.114194
O O10 0.747576 0.246373 0.120757
O O11 0.689622 0.231220 0.000000
O O12 0.069394 0.500000 0.759360
O O13 0.136142 0.263302 0.814721
O O14 0.000000 0.231944 0.777313
O O15 0.500000 0.770031 0.825470
O O16 0.572602 0.500000 0.828729
O O17 0.615294 0.750513 0.758783
O O18 0.257342 0.271790 0.248227
O O19 0.316808 0.000000 0.289035
O O20 0.107122 0.500000 0.500000
O O21 0.000000 0.321701 0.500000
O O22 0.789864 0.000000 0.193854
#
# Coordination Sequence:
#
# PCOD9381822 Si02
#       8
#     8   8   8   8   8   8   4   8
#     4  10  18  29  48  71  95 127 169 218 268 311
#     4   9  15  24  38  61  90 120 155 201 255 306
#     4   9  18  33  55  83 112 140 167 197 237 287
#     4  10  19  30  47  70  95 127 169 218 268 311
#     4   9  18  33  55  83 112 140 167 197 237 287
#     4  10  20  33  50  72 100 137 177 213 250 296
#     4   9  14  20  32  54  87 121 152 191 246 309
#     4  10  20  33  50  72 100 137 177 213 250 296
#
# _framework density 18.690671999999999
#
# number of rings (size 3 to 8) (size 9 to 14) (size 15 to 20)
#    0.000    2.467    2.000    1.200    0.000    4.000 
#    0.000    1.333    0.000    0.800    0.000    9.333 
#    0.000    4.267    0.000    0.000    0.000    0.000 
#
# Total GULP energy -334102.600433 kJ/mol
# GULP energy per Si atom -5568.376674 kJ/mol
# Density = 1.864813 g / cm^3
# Si number density = 18.690672 Si / 1000 Ang^3
#
#
#
# Elastic Constant Matrix: (Units=GPa)
#
#
# Indices 1 2 3 4 5 6 
#
# 1 129.1506 7.0007 82.7131 0.0000 0.0000 0.0000
# 2 7.0007 24.9551 7.0276 0.0000 0.0000 0.0000
# 3 82.7131 7.0276 152.7319 0.0000 0.0000 0.0000
# 4 0.0000 0.0000 0.0000 6.1521 0.0000 0.0000
# 5 0.0000 0.0000 0.0000 0.0000 14.9056 0.0000
# 6 0.0000 0.0000 0.0000 0.0000 0.0000 5.3067
#
#
#
# Elastic Compliance Matrix: (Units=1/GPa)
#
#
# Indices 1 2 3 4 5 6 
#
# 1 0.011913 -0.001545 -0.006380 0.000000 0.000000 0.000000
# 2 -0.001545 0.040798 -0.001040 0.000000 0.000000 0.000000
# 3 -0.006380 -0.001040 0.010051 0.000000 0.000000 0.000000
# 4 0.000000 0.000000 0.000000 0.162547 0.000000 0.000000
# 5 0.000000 0.000000 0.000000 0.000000 0.067089 0.000000
# 6 0.000000 0.000000 0.000000 0.000000 0.000000 0.188441
#
#
# Mechanical properties :
#
#
# Convention : Reuss Voigt Hill
#
# Bulk Modulus (GPa) = 22.30652 55.59116 38.94884
# Shear Modulus (GPa) = 9.73305 19.27930 14.50617
#
# Velocity S-wave (km/s) = 2.28446 3.21517 2.78891
# Velocity P-wave (km/s) = 4.34958 6.60230 5.59058
#
# Compressibility (1/GPa) = 0.04482994
#
# Stress axis : x y z
#
# Youngs Moduli (GPa) = 83.94232 24.51074 99.49582
#
# Poissons Ratio (x) = 0.03787 0.63483
# Poissons Ratio (y) = 0.12971 0.10352
# Poissons Ratio (z) = 0.53559 0.02550
#
# Static dielectric constant tensor:
#      x y z
#    x 1.673950 0.000000 0.000000 
#    y 0.000000 1.686600 0.000000 
#    z 0.000000 0.000000 1.655000 
# 
# From -- ./inp_files/28816.got.cif
#   From: 2010.05.17/outbox.cif.g08.bks.cpg/sg47_15_cif.got.tgz:28816.got - 2010.06.03 20:15:42.
