data_PCOD9381184
_publ_section_title
;
Structure prediction by ZEFSAII (Michael W. Deem and Ramdas Pophale) SiO2 
 PCOD9381184
Probable space group: P M M M
;
_chemical_formula_sum "Si O2"
_cell_formula_units_Z 52
_cell_length_a 29.031088
_cell_length_b 7.852818
_cell_length_c 12.358157
_cell_angle_alpha 90.000000
_cell_angle_beta 90.000000
_cell_angle_gamma 90.000000
_cell_volume 2817.361352
_symmetry_space_group_name_H-M "P M M M"
_symmetry_group_IT_number 47
_symmetry_cell_setting 'orthorhombic'
loop_
_space_group_symop_operation_xyz
x,y,z
-x,-y,z
x,-y,-z
-x,y,-z
-x,-y,-z
x,y,-z
-x,y,z
x,-y,z
loop_
_atom_site_type_symbol
_atom_site_label
_atom_site_fract_x
_atom_site_fract_y
_atom_site_fract_z
Si Si1 0.399934 0.704034 0.374757
Si Si2 0.694233 0.293186 0.281467
Si Si3 0.147153 0.194910 0.500000
Si Si4 0.250381 0.295682 0.500000
Si Si5 0.771899 0.296204 0.877656
Si Si6 0.500000 0.202835 0.623568
Si Si7 0.139498 0.799780 0.736512
Si Si8 0.948379 0.294005 0.874753
O O1 0.396557 0.768936 0.500000
O O2 0.395179 0.500000 0.381700
O O3 0.357891 0.768048 0.301026
O O4 0.450853 0.742017 0.330249
O O5 0.692455 0.500000 0.271527
O O6 0.720972 0.255950 0.392872
O O7 0.726268 0.229641 0.183746
O O8 0.202456 0.199348 0.500000
O O9 0.134307 0.275287 0.384454
O O10 0.129426 0.000000 0.500000
O O11 0.241340 0.500000 0.500000
O O12 0.766884 0.500000 0.885340
O O13 0.816847 0.267675 0.803622
O O14 0.777740 0.229322 0.000000
O O15 0.500000 0.272728 0.500000
O O16 0.500000 0.000000 0.619333
O O17 0.092856 0.772712 0.802552
O O18 0.148299 0.000000 0.723398
O O19 0.947004 0.500000 0.872004
O O20 0.000000 0.240810 0.841179
O O21 0.941867 0.242697 0.000000
#
# Coordination Sequence:
#
# PCOD9381184 Si02
#       8
#     8   8   4   4   8   4   8   8
#     4   9  15  25  42  62  85 117 155 192 230 277
#     4   9  16  27  46  71  94 120 160 202 237 279
#     4  10  22  36  47  69 103 136 166 198 238 284
#     4  10  16  28  50  70  90 124 169 205 233 280
#     4  10  20  33  50  73 101 131 162 199 243 287
#     4   9  17  27  37  57  90 121 148 184 233 286
#     4  11  22  35  52  74 102 134 166 200 239 287
#     4   9  19  37  59  80 101 126 160 204 249 289
#
# _framework density 18.456987000000002
#
# number of rings (size 3 to 8) (size 9 to 14) (size 15 to 20)
#    0.000    2.385    2.308    1.615    0.000    4.308 
#    0.000    2.692    0.000    2.308    0.000    0.538 
#    0.000    4.308    0.000    0.000    0.000    0.000 
#
# Total GULP energy -289869.338449 kJ/mol
# GULP energy per Si atom -5574.410355 kJ/mol
# Density = 1.841498 g / cm^3
# Si number density = 18.456987 Si / 1000 Ang^3
#
#
#
# Elastic Constant Matrix: (Units=GPa)
#
#
# Indices 1 2 3 4 5 6 
#
# 1 144.7383 -0.0115 70.9717 0.0000 0.0000 0.0000
# 2 -0.0115 20.1150 8.5334 0.0000 0.0000 0.0000
# 3 70.9717 8.5334 122.4483 0.0000 0.0000 0.0000
# 4 0.0000 0.0000 0.0000 11.1978 0.0000 0.0000
# 5 0.0000 0.0000 0.0000 0.0000 8.5464 0.0000
# 6 0.0000 0.0000 0.0000 0.0000 0.0000 753.7257
#
#
#
# Elastic Compliance Matrix: (Units=1/GPa)
#
#
# Indices 1 2 3 4 5 6 
#
# 1 0.009771 0.002481 -0.005836 0.000000 0.000000 0.000000
# 2 0.002481 0.051859 -0.005052 0.000000 0.000000 0.000000
# 3 -0.005836 -0.005052 0.011902 0.000000 0.000000 0.000000
# 4 0.000000 0.000000 0.000000 0.089303 0.000000 0.000000
# 5 0.000000 0.000000 0.000000 0.000000 0.117009 0.000000
# 6 0.000000 0.000000 0.000000 0.000000 0.000000 0.001327
#
#
# Mechanical properties :
#
#
# Convention : Reuss Voigt Hill
#
# Bulk Modulus (GPa) = 17.63128 49.58765 33.60947
# Shear Modulus (GPa) = 15.77833 168.54784 92.16309
#
# Velocity S-wave (km/s) = 2.92699 9.56648 7.07406
# Velocity P-wave (km/s) = 4.58218 12.20444 9.21804
#
# Compressibility (1/GPa) = 0.05671737
#
# Stress axis : x y z
#
# Youngs Moduli (GPa) = 102.34367 19.28305 84.02276
#
# Poissons Ratio (x) = -0.04785 0.49038
# Poissons Ratio (y) = -0.25396 0.42451
# Poissons Ratio (z) = 0.59730 0.09742
#
# Static dielectric constant tensor:
#      x y z
#    x 1.636340 0.000000 0.000000 
#    y 0.000000 1.680620 0.000000 
#    z 0.000000 0.000000 1.655690 
# 
# From -- ./inp_files/19866.got.cif
#   From: 2010.05.17/outbox.cif.g08.bks.cpg/sg47_10_cif.got.tgz:19866.got - 2010.06.03 20:15:42.
