data_PCOD9381127
_publ_section_title
;
Structure prediction by ZEFSAII (Michael W. Deem and Ramdas Pophale) SiO2 
 PCOD9381127
Probable space group: I M A 2
;
_chemical_formula_sum "Si O2"
_cell_formula_units_Z 32
_cell_length_a 9.000000
_cell_length_b 24.000000
_cell_length_c 15.000000
_cell_angle_alpha 90.000000
_cell_angle_beta 90.000000
_cell_angle_gamma 90.000000
_cell_volume 3240.000000
_symmetry_space_group_name_H-M "I M A 2"
_symmetry_group_IT_number 46
_symmetry_cell_setting 'orthorhombic'
loop_
_space_group_symop_operation_xyz
x,y,z
-x,-y,z
1/2-x,y,z
1/2+x,-y,z
1/2+x,1/2+y,1/2+z
1/2-x,1/2-y,1/2+z
-x,1/2+y,1/2+z
x,1/2-y,1/2+z
loop_
_atom_site_type_symbol
_atom_site_label
_atom_site_fract_x
_atom_site_fract_y
_atom_site_fract_z
Si Si1 0.076538 0.849850 0.892700
Si Si2 0.925495 0.154012 0.677927
Si Si3 0.571207 0.892694 0.192813
Si Si4 0.426624 0.056661 0.008412
Si Si5 0.427200 0.442234 0.061509
Si Si6 0.424433 0.602306 0.887048
Si Si7 0.077216 0.728670 0.870638
Si Si8 0.075915 0.232784 0.183852
O O1 0.250000 0.863474 0.906663
O O2 0.049865 0.851181 0.785358
O O3 0.052456 0.785703 0.923306
O O4 0.978107 0.892581 0.946806
O O5 0.750000 0.148330 0.661449
O O6 0.013928 0.107326 0.624207
O O7 0.980975 0.215425 0.649333
O O8 0.750000 0.895288 0.208027
O O9 0.528535 0.932519 0.111498
O O10 0.488496 0.902908 0.286534
O O11 0.538009 0.830175 0.156415
O O12 0.250000 0.052427 0.006554
O O13 0.500000 0.000000 0.975741
O O14 0.500000 0.500000 0.092350
O O15 0.250000 0.445230 0.063172
O O16 0.484946 0.430907 0.960988
O O17 0.250000 0.587161 0.888209
O O18 0.435792 0.668057 0.913255
O O19 0.250000 0.732458 0.836485
O O20 0.962407 0.730151 0.789239
O O21 0.250000 0.242939 0.168601
#
# Coordination Sequence:
#
# PCOD9381127 Si02
#       8
#     8   8   8   8   8   8   8   8
#     4   9  19  37  60  85 115 149 185 229 280 334
#     4  10  21  39  61  86 117 151 188 233 285 343
#     4   9  20  38  58  84 118 154 192 236 285 337
#     4  11  24  40  57  79 110 148 194 241 282 332
#     4  12  26  43  61  83 113 150 195 242 286 340
#     4  10  20  37  62  90 119 152 188 230 283 340
#     4   8  16  32  55  85 118 150 185 225 276 340
#     4   9  16  30  55  86 117 148 185 230 283 340
#
# _framework density 9.8765429999999999
#
# number of rings (size 3 to 8) (size 9 to 14) (size 15 to 20)
#    0.000    2.250    0.000    3.375    0.000    6.500 
#    0.000    3.750    0.000    0.000    0.000    0.000 
#    0.000    0.000    0.000    0.000    0.000    0.000 
#
# Total GULP energy -178622.192448 kJ/mol
# GULP energy per Si atom -5581.943514 kJ/mol
# Density = 0.985406 g / cm^3
# Si number density = 9.876543 Si / 1000 Ang^3
#
#
#
# Elastic Constant Matrix: (Units=GPa)
#
#
# Indices 1 2 3 4 5 6 
#
# 1 84.1970 31.3433 21.0673 0.0001 0.0000 0.0000
# 2 31.3433 65.2427 6.9131 0.0002 0.0000 0.0000
# 3 21.0673 6.9131 32.2248 0.0002 0.0000 0.0000
# 4 0.0001 0.0002 0.0002 5.3950 0.0000 0.0000
# 5 0.0000 0.0000 0.0000 0.0000 29.3493 0.0000
# 6 0.0000 0.0000 0.0000 0.0000 0.0000 29.9025
#
#
#
# Elastic Compliance Matrix: (Units=1/GPa)
#
#
# Indices 1 2 3 4 5 6 
#
# 1 0.016909 -0.007114 -0.009529 0.000000 0.000000 0.000000
# 2 -0.007114 0.018677 0.000644 -0.000001 0.000000 0.000000
# 3 -0.009529 0.000644 0.037123 -0.000001 0.000000 0.000000
# 4 0.000000 -0.000001 -0.000001 0.185355 0.000000 0.000000
# 5 0.000000 0.000000 0.000000 0.000000 0.034072 0.000000
# 6 0.000000 0.000000 0.000000 0.000000 0.000000 0.033442
#
#
# Mechanical properties :
#
#
# Convention : Reuss Voigt Hill
#
# Bulk Modulus (GPa) = 24.56238 33.36799 28.96519
# Shear Modulus (GPa) = 13.47178 21.08542 17.27860
#
# Velocity S-wave (km/s) = 2.61436 3.27073 2.96079
# Velocity P-wave (km/s) = 4.64488 5.58505 5.13652
#
# Compressibility (1/GPa) = 0.04071267
#
# Stress axis : x y z
#
# Youngs Moduli (GPa) = 59.13922 53.54278 26.93733
#
# Poissons Ratio (x) = 0.38089 0.25667
# Poissons Ratio (y) = 0.42070 -0.01735
# Poissons Ratio (z) = 0.56351 -0.03448
#
# Static dielectric constant tensor:
#      x y z
#    x 1.654800 0.000000 0.000000 
#    y 0.000000 1.724410 0.000000 
#    z 0.000000 0.000000 1.679550 
# 
# From -- ./inp_files/14507.got.cif
#   From: 2010.05.17/outbox.ucp.g08.bks.cvg/sg46_8_cif.got.tgz:14507.got - 2010.06.11 16:34:52.
