data_PCOD9381638
_publ_section_title
;
Structure prediction by ZEFSAII (Michael W. Deem and Ramdas Pophale) SiO2 
 PCOD9381638
Probable space group: P M M M
;
_chemical_formula_sum "Si O2"
_cell_formula_units_Z 64
_cell_length_a 7.541816
_cell_length_b 32.514152
_cell_length_c 14.809085
_cell_angle_alpha 90.000000
_cell_angle_beta 90.000000
_cell_angle_gamma 90.000000
_cell_volume 3631.420911
_symmetry_space_group_name_H-M "P M M M"
_symmetry_group_IT_number 47
_symmetry_cell_setting 'orthorhombic'
loop_
_space_group_symop_operation_xyz
x,y,z
-x,-y,z
x,-y,-z
-x,y,-z
-x,-y,-z
x,y,-z
-x,y,z
x,-y,z
loop_
_atom_site_type_symbol
_atom_site_label
_atom_site_fract_x
_atom_site_fract_y
_atom_site_fract_z
Si Si1 0.214804 0.207567 0.895597
Si Si2 0.216314 0.954069 0.104862
Si Si3 0.716652 0.251569 0.600935
Si Si4 0.286448 0.156528 0.399801
Si Si5 0.709528 0.710471 0.783588
Si Si6 0.289552 0.365595 0.897022
Si Si7 0.213275 0.455753 0.894897
Si Si8 0.209502 0.125994 0.206890
O O1 0.271038 0.249118 0.845470
O O2 0.280025 0.167234 0.841758
O O3 0.000000 0.207181 0.894808
O O4 0.272071 0.206862 0.000000
O O5 0.280839 0.916280 0.165278
O O6 0.000000 0.954512 0.108019
O O7 0.274921 0.000000 0.131713
O O8 0.264527 0.947394 0.000000
O O9 0.770506 0.264368 0.500000
O O10 0.500000 0.251544 0.602410
O O11 0.771355 0.203959 0.614263
O O12 0.781666 0.278492 0.684555
O O13 0.226061 0.143470 0.500000
O O14 0.500000 0.156882 0.401069
O O15 0.231414 0.130216 0.313974
O O16 0.500000 0.703001 0.771066
O O17 0.784280 0.670810 0.835130
O O18 0.500000 0.358748 0.904727
O O19 0.266448 0.411461 0.857524
O O20 0.216896 0.364439 0.000000
O O21 0.273414 0.500000 0.856276
O O22 0.000000 0.456310 0.894799
O O23 0.272348 0.455168 0.000000
O O24 0.000000 0.125912 0.187329
#
# Coordination Sequence:
#
# PCOD9381638 Si02
#       8
#     8   8   8   8   8   8   8   8
#     4  10  20  30  39  57  87 117 140 166 204 247
#     4   8  14  26  45  67  89 114 143 174 211 256
#     4   8  14  26  44  62  79 104 140 178 211 244
#     4   9  17  30  47  65  85 111 143 175 211 257
#     4  10  18  29  44  60  82 112 146 177 203 243
#     4   9  17  26  36  55  82 110 138 168 204 242
#     4   8  14  25  40  56  74 101 139 176 206 241
#     4  10  18  28  45  68  89 108 138 179 216 249
#
# _framework density 17.623954999999999
#
# number of rings (size 3 to 8) (size 9 to 14) (size 15 to 20)
#    0.000    3.000    1.250    2.250    0.000    3.250 
#    0.000    2.500    0.000    2.250    0.000    3.500 
#    0.000    0.500    0.000    6.250    0.000    1.250 
#
# Total GULP energy -356633.972118 kJ/mol
# GULP energy per Si atom -5572.405814 kJ/mol
# Density = 1.758384 g / cm^3
# Si number density = 17.623955 Si / 1000 Ang^3
#
#
#
# Elastic Constant Matrix: (Units=GPa)
#
#
# Indices 1 2 3 4 5 6 
#
# 1 38.6156 -0.4642 -3.7494 0.0000 0.0000 0.0000
# 2 -0.4642 162.6469 84.8359 0.0000 0.0000 0.0000
# 3 -3.7494 84.8359 115.1289 0.0000 0.0000 0.0000
# 4 0.0000 0.0000 0.0000 9.6940 0.0000 0.0000
# 5 0.0000 0.0000 0.0000 0.0000 13.0853 0.0000
# 6 0.0000 0.0000 0.0000 0.0000 0.0000 13.0836
#
#
#
# Elastic Compliance Matrix: (Units=1/GPa)
#
#
# Indices 1 2 3 4 5 6 
#
# 1 0.026014 -0.000597 0.001287 0.000000 0.000000 0.000000
# 2 -0.000597 0.010000 -0.007389 0.000000 0.000000 0.000000
# 3 0.001287 -0.007389 0.014172 0.000000 0.000000 0.000000
# 4 0.000000 0.000000 0.000000 0.103157 0.000000 0.000000
# 5 0.000000 0.000000 0.000000 0.000000 0.076422 0.000000
# 6 0.000000 0.000000 0.000000 0.000000 0.000000 0.076432
#
#
# Mechanical properties :
#
#
# Convention : Reuss Voigt Hill
#
# Bulk Modulus (GPa) = 27.18143 53.07068 40.12606
# Shear Modulus (GPa) = 15.06672 22.89050 18.97861
#
# Velocity S-wave (km/s) = 2.92704 3.60784 3.28512
# Velocity P-wave (km/s) = 5.18458 6.89445 6.09973
#
# Compressibility (1/GPa) = 0.03678982
#
# Stress axis : x y z
#
# Youngs Moduli (GPa) = 38.44077 99.99589 70.56025
#
# Poissons Ratio (x) = 0.05972 -0.09083
# Poissons Ratio (y) = 0.02296 0.52134
# Poissons Ratio (z) = -0.04948 0.73882
#
# Static dielectric constant tensor:
#      x y z
#    x 1.673870 0.000000 0.000000 
#    y 0.000000 1.615600 0.000000 
#    z 0.000000 0.000000 1.595800 
# 
# From -- ./inp_files/8248.got.cif
#   From: 2010.05.17/outbox.cif.g08.bks.cpg/sg47_5_cif.got.tgz:8248.got - 2010.06.03 20:15:42.
