data_PCOD9381083
_publ_section_title
;
Structure prediction by ZEFSAII (Michael W. Deem and Ramdas Pophale) SiO2 
 PCOD9381083
Probable space group: I M A 2
;
_chemical_formula_sum "Si O2"
_cell_formula_units_Z 32
_cell_length_a 9.000000
_cell_length_b 15.000000
_cell_length_c 24.000000
_cell_angle_alpha 90.000000
_cell_angle_beta 90.000000
_cell_angle_gamma 90.000000
_cell_volume 3240.000000
_symmetry_space_group_name_H-M "I M A 2"
_symmetry_group_IT_number 46
_symmetry_cell_setting 'orthorhombic'
loop_
_space_group_symop_operation_xyz
x,y,z
-x,-y,z
1/2-x,y,z
1/2+x,-y,z
1/2+x,1/2+y,1/2+z
1/2-x,1/2-y,1/2+z
-x,1/2+y,1/2+z
x,1/2-y,1/2+z
loop_
_atom_site_type_symbol
_atom_site_label
_atom_site_fract_x
_atom_site_fract_y
_atom_site_fract_z
Si Si1 0.069611 0.899968 0.475700
Si Si2 0.073186 0.273407 0.068675
Si Si3 0.572368 0.096677 0.247215
Si Si4 0.069962 0.400167 0.861512
Si Si5 0.928482 0.097776 0.783646
Si Si6 0.426267 0.773667 0.681605
Si Si7 0.070331 0.901138 0.027444
Si Si8 0.927782 0.402550 0.403577
O O1 0.250000 0.904257 0.473479
O O2 0.011489 0.837144 0.525055
O O3 0.002663 0.861381 0.417608
O O4 0.000000 0.000000 0.482488
O O5 0.250000 0.274999 0.059264
O O6 0.027856 0.302218 0.130543
O O7 0.007294 0.173270 0.064528
O O8 0.750000 0.085843 0.257439
O O9 0.492261 0.134560 0.302829
O O10 0.552849 0.170692 0.199704
O O11 0.500000 0.000000 0.234556
O O12 0.250000 0.401157 0.863823
O O13 0.000000 0.500000 0.861261
O O14 0.750000 0.086584 0.783892
O O15 0.963743 0.164534 0.734218
O O16 0.972514 0.138033 0.844296
O O17 0.000000 0.000000 0.777215
O O18 0.250000 0.784772 0.668360
O O19 0.250000 0.904554 0.034887
O O20 0.035229 0.866455 0.964376
O O21 0.000000 0.000000 0.033983
O O22 0.750000 0.410689 0.403560
O O23 0.000000 0.500000 0.402736
#
# Coordination Sequence:
#
# PCOD9381083 Si02
#       8
#     8   8   8   8   8   8   8   8
#     4  11  22  40  64  89 119 153 192 239 294 352
#     4  12  26  42  59  83 115 153 201 249 294 349
#     4  10  20  36  59  85 115 152 192 237 291 345
#     4  10  18  32  56  88 122 152 187 230 284 348
#     4   9  18  35  58  84 113 144 180 223 275 334
#     4  10  23  41  58  79 111 152 198 243 288 342
#     4  10  20  37  61  88 119 154 191 235 289 346
#     4   8  15  29  53  84 114 144 179 222 275 336
#
# _framework density 9.8765429999999999
#
# number of rings (size 3 to 8) (size 9 to 14) (size 15 to 20)
#    0.000    2.000    0.000    5.625    0.000    4.000 
#    0.000    5.000    0.000    0.000    0.000    0.000 
#    0.000    0.000    0.000    0.000    0.000    0.000 
#
# Total GULP energy -178528.788317 kJ/mol
# GULP energy per Si atom -5579.024635 kJ/mol
# Density = 0.985406 g / cm^3
# Si number density = 9.876543 Si / 1000 Ang^3
#
#
#
# Elastic Constant Matrix: (Units=GPa)
#
#
# Indices 1 2 3 4 5 6 
#
# 1 121.5050 14.3662 31.8058 0.0000 0.0000 0.0000
# 2 14.3662 49.0378 7.3878 0.0000 0.0000 0.0000
# 3 31.8058 7.3878 79.5265 0.0000 0.0000 0.0000
# 4 0.0000 0.0000 0.0000 17.8197 0.0000 0.0000
# 5 0.0000 0.0000 0.0000 0.0000 28.3270 0.0000
# 6 0.0000 0.0000 0.0000 0.0000 0.0000 26.1005
#
#
#
# Elastic Compliance Matrix: (Units=1/GPa)
#
#
# Indices 1 2 3 4 5 6 
#
# 1 0.009426 -0.002225 -0.003563 0.000000 0.000000 0.000000
# 2 -0.002225 0.021207 -0.001080 0.000000 0.000000 0.000000
# 3 -0.003563 -0.001080 0.014100 0.000000 0.000000 0.000000
# 4 0.000000 0.000000 0.000000 0.056118 0.000000 0.000000
# 5 0.000000 0.000000 0.000000 0.000000 0.035302 0.000000
# 6 0.000000 0.000000 0.000000 0.000000 0.000000 0.038313
#
#
# Mechanical properties :
#
#
# Convention : Reuss Voigt Hill
#
# Bulk Modulus (GPa) = 32.26178 39.68764 35.97471
# Shear Modulus (GPa) = 25.18460 27.55008 26.36734
#
# Velocity S-wave (km/s) = 3.57455 3.73865 3.65752
# Velocity P-wave (km/s) = 5.77966 6.22673 6.00736
#
# Compressibility (1/GPa) = 0.03099643
#
# Stress axis : x y z
#
# Youngs Moduli (GPa) = 106.09143 47.15442 70.92291
#
# Poissons Ratio (x) = 0.10490 0.25271
# Poissons Ratio (y) = 0.23601 0.07662
# Poissons Ratio (z) = 0.37801 0.05094
#
# Static dielectric constant tensor:
#      x y z
#    x 1.655670 0.000000 0.000000 
#    y 0.000000 1.701100 0.000000 
#    z 0.000000 0.000000 1.766980 
# 
# From -- ./inp_files/23198.got.cif
#   From: 2010.05.17/outbox.ucp.g08.bks.cvg/sg46_12_cif.got.tgz:23198.got - 2010.06.11 16:34:52.
