data_PCOD9381238
_publ_section_title
;
Structure prediction by ZEFSAII (Michael W. Deem and Ramdas Pophale) SiO2 
 PCOD9381238
Probable space group: P M M M
;
_chemical_formula_sum "Si O2"
_cell_formula_units_Z 64
_cell_length_a 19.351649
_cell_length_b 22.282114
_cell_length_c 7.663075
_cell_angle_alpha 90.000000
_cell_angle_beta 90.000000
_cell_angle_gamma 90.000000
_cell_volume 3304.284599
_symmetry_space_group_name_H-M "P M M M"
_symmetry_group_IT_number 47
_symmetry_cell_setting 'orthorhombic'
loop_
_space_group_symop_operation_xyz
x,y,z
-x,-y,z
x,-y,-z
-x,y,-z
-x,-y,-z
x,y,-z
-x,y,z
x,-y,z
loop_
_atom_site_type_symbol
_atom_site_label
_atom_site_fract_x
_atom_site_fract_y
_atom_site_fract_z
Si Si1 0.375942 0.565046 0.711699
Si Si2 0.924720 0.401854 0.790873
Si Si3 0.077472 0.262229 0.208703
Si Si4 0.274720 0.264937 0.294223
Si Si5 0.815306 0.834688 0.303091
Si Si6 0.077636 0.930062 0.286923
Si Si7 0.574718 0.694765 0.203794
Si Si8 0.226005 0.393643 0.708620
O O1 0.378159 0.567252 0.500000
O O2 0.402041 0.500000 0.767585
O O3 0.415733 0.623111 0.777032
O O4 0.295352 0.572336 0.765605
O O5 0.921113 0.331782 0.736839
O O6 0.847825 0.423810 0.746554
O O7 0.000000 0.425514 0.726837
O O8 0.928482 0.404490 0.000000
O O9 0.129819 0.219824 0.305568
O O10 0.000000 0.240247 0.239213
O O11 0.090633 0.260353 0.000000
O O12 0.258582 0.262594 0.500000
O O13 0.248936 0.201235 0.219618
O O14 0.356066 0.276467 0.279631
O O15 0.236061 0.324857 0.222094
O O16 0.796398 0.854018 0.500000
O O17 0.859751 0.888596 0.221472
O O18 0.077531 0.925632 0.500000
O O19 0.000000 0.911986 0.229255
O O20 0.086986 0.000000 0.242862
O O21 0.500000 0.711879 0.279141
O O22 0.574826 0.709411 0.000000
O O23 0.230161 0.389615 0.500000
#
# Coordination Sequence:
#
# PCOD9381238 Si02
#       8
#     8   8   8   8   8   8   8   8
#     4   9  19  35  53  72  94 120 149 180 216 260
#     4   9  17  27  38  55  81 112 143 176 219 269
#     4   9  17  26  35  53  83 115 145 179 223 270
#     4   9  18  30  44  66  92 117 147 182 224 273
#     4  10  17  26  42  63  86 114 154 198 229 262
#     4   8  14  24  38  59  89 125 163 200 236 269
#     4  10  21  35  51  72  97 122 146 175 212 259
#     4   9  16  28  44  63  86 110 141 182 223 262
#
# _framework density 19.368791999999999
#
# number of rings (size 3 to 8) (size 9 to 14) (size 15 to 20)
#    0.000    2.875    1.250    2.625    0.000    5.000 
#    0.000    2.500    0.000    0.750    0.000    4.375 
#    0.000    0.500    0.000    6.250    0.000    1.000 
#
# Total GULP energy -356561.695199 kJ/mol
# GULP energy per Si atom -5571.276487 kJ/mol
# Density = 1.932471 g / cm^3
# Si number density = 19.368792 Si / 1000 Ang^3
#
#
#
# Elastic Constant Matrix: (Units=GPa)
#
#
# Indices 1 2 3 4 5 6 
#
# 1 124.6607 29.9373 1.9714 0.0000 0.0000 0.0000
# 2 29.9373 77.6138 -1.3965 0.0000 0.0000 0.0000
# 3 1.9714 -1.3965 30.6547 0.0000 0.0000 0.0000
# 4 0.0000 0.0000 0.0000 -4.9295 0.0000 0.0000
# 5 0.0000 0.0000 0.0000 0.0000 18.9808 0.0000
# 6 0.0000 0.0000 0.0000 0.0000 0.0000 3.9094
#
#
#
# Elastic Compliance Matrix: (Units=1/GPa)
#
#
# Indices 1 2 3 4 5 6 
#
# 1 0.008857 -0.003429 -0.000726 0.000000 0.000000 0.000000
# 2 -0.003429 0.014223 0.000868 0.000000 0.000000 0.000000
# 3 -0.000726 0.000868 0.032708 0.000000 0.000000 0.000000
# 4 0.000000 0.000000 0.000000 -0.202859 0.000000 0.000000
# 5 0.000000 0.000000 0.000000 0.000000 0.052685 0.000000
# 6 0.000000 0.000000 0.000000 0.000000 0.000000 0.255793
#
#
# Mechanical properties :
#
#
# Convention : Reuss Voigt Hill
#
# Bulk Modulus (GPa) = 20.31947 32.66152 26.49049
# Shear Modulus (GPa) = 27.11734 17.08660 22.10197
#
# Velocity S-wave (km/s) = 3.74579 2.97336 3.38170
# Velocity P-wave (km/s) = 5.40569 5.35606 5.38093
#
# Compressibility (1/GPa) = 0.04921388
#
# Stress axis : x y z
#
# Youngs Moduli (GPa) = 112.90752 70.31020 30.57383
#
# Poissons Ratio (x) = 0.24112 0.02219
# Poissons Ratio (y) = 0.38720 -0.02655
# Poissons Ratio (z) = 0.08195 -0.06106
#
# Static dielectric constant tensor:
#      x y z
#    x 1.748220 0.000000 0.000000 
#    y 0.000000 1.695370 0.000000 
#    z 0.000000 0.000000 1.723780 
# 
# From -- ./inp_files/10235.got.cif
#   From: 2010.05.17/outbox.cif.g08.bks.cpg/sg47_6_cif.got.tgz:10235.got - 2010.06.03 20:15:42.
