data_PCOD9381116
_publ_section_title
;
Structure prediction by ZEFSAII (Michael W. Deem and Ramdas Pophale) SiO2 
 PCOD9381116
Probable space group: I M A 2
;
_chemical_formula_sum "Si O2"
_cell_formula_units_Z 28
_cell_length_a 9.000000
_cell_length_b 21.000000
_cell_length_c 15.000000
_cell_angle_alpha 90.000000
_cell_angle_beta 90.000000
_cell_angle_gamma 90.000000
_cell_volume 2835.000000
_symmetry_space_group_name_H-M "I M A 2"
_symmetry_group_IT_number 46
_symmetry_cell_setting 'orthorhombic'
loop_
_space_group_symop_operation_xyz
x,y,z
-x,-y,z
1/2-x,y,z
1/2+x,-y,z
1/2+x,1/2+y,1/2+z
1/2-x,1/2-y,1/2+z
-x,1/2+y,1/2+z
x,1/2-y,1/2+z
loop_
_atom_site_type_symbol
_atom_site_label
_atom_site_fract_x
_atom_site_fract_y
_atom_site_fract_z
Si Si1 0.426361 0.172798 0.985530
Si Si2 0.569844 0.072056 0.850625
Si Si3 0.576435 0.183495 0.712509
Si Si4 0.087315 0.940751 0.246308
Si Si5 0.074334 0.694828 0.998065
Si Si6 0.075926 0.314621 0.699587
Si Si7 0.585729 0.440893 0.955455
O O1 0.250000 0.169373 0.967386
O O2 0.507643 0.115028 0.933570
O O3 0.492597 0.242507 0.962485
O O4 0.447946 0.174164 0.092983
O O5 0.750000 0.066404 0.856006
O O6 0.533554 0.118529 0.764836
O O7 0.500000 0.000000 0.847023
O O8 0.750000 0.193836 0.733439
O O9 0.561487 0.183499 0.604892
O O10 0.487381 0.247746 0.735071
O O11 0.250000 0.934721 0.205363
O O12 0.103771 0.954864 0.351067
O O13 0.003498 0.874743 0.241575
O O14 0.000000 0.000000 0.204811
O O15 0.250000 0.701730 0.976573
O O16 0.013611 0.628382 0.960588
O O17 0.250000 0.316016 0.715913
O O18 0.500000 0.500000 0.996985
O O19 0.750000 0.435813 0.996606
#
# Coordination Sequence:
#
# PCOD9381116 Si02
#       7
#     8   8   8   8   8   8   8
#     4  10  22  39  58  84 113 145 189 236 285 341
#     4  11  24  41  61  86 117 154 196 241 292 347
#     4   9  20  38  59  83 112 148 189 231 280 339
#     4  10  20  34  52  78 112 147 185 225 272 329
#     4   9  18  36  59  83 113 149 188 231 280 335
#     4  10  21  37  58  84 113 146 187 235 286 339
#     4   9  19  33  51  78 111 145 181 221 267 324
#
# _framework density 9.8765429999999999
#
# number of rings (size 3 to 8) (size 9 to 14) (size 15 to 20)
#    0.000    2.286    0.000    1.714    2.000    5.143 
#    0.000    0.000    0.000    0.000    0.000    0.000 
#    0.000    0.000    0.000    0.000    0.000    0.000 
#
# Total GULP energy -155994.367681 kJ/mol
# GULP energy per Si atom -5571.227417 kJ/mol
# Density = 0.985406 g / cm^3
# Si number density = 9.876543 Si / 1000 Ang^3
#
#
#
# Elastic Constant Matrix: (Units=GPa)
#
#
# Indices 1 2 3 4 5 6 
#
# 1 65.5228 87.9660 52.1004 0.0000 0.0000 0.0000
# 2 87.9660 200.2675 30.6950 0.0000 0.0000 0.0000
# 3 52.1004 30.6950 21.9787 0.0001 0.0000 0.0000
# 4 0.0000 0.0000 0.0001 52.6682 0.0000 0.0000
# 5 0.0000 0.0000 0.0000 0.0000 15.2463 0.0000
# 6 0.0000 0.0000 0.0000 0.0000 0.0000 40.4742
#
#
#
# Elastic Compliance Matrix: (Units=1/GPa)
#
#
# Indices 1 2 3 4 5 6 
#
# 1 -0.016821 0.001625 0.037605 0.000000 0.000000 0.000000
# 2 0.001625 0.006196 -0.012505 0.000000 0.000000 0.000000
# 3 0.037605 -0.012505 -0.026179 0.000000 0.000000 0.000000
# 4 0.000000 0.000000 0.000000 0.018987 0.000000 0.000000
# 5 0.000000 0.000000 0.000000 0.000000 0.065589 0.000000
# 6 0.000000 0.000000 0.000000 0.000000 0.000000 0.024707
#
#
# Mechanical properties :
#
#
# Convention : Reuss Voigt Hill
#
# Bulk Modulus (GPa) = 60.07745 69.92132 64.99939
# Shear Modulus (GPa) = 203.42577 29.47825 116.45201
#
# Velocity S-wave (km/s) = 10.15913 3.86727 7.68647
# Velocity P-wave (km/s) = 12.96498 7.44416 10.57134
#
# Compressibility (1/GPa) = 0.01664518
#
# Stress axis : x y z
#
# Youngs Moduli (GPa) = -59.44952 161.38627 -38.19840
#
# Poissons Ratio (x) = -0.26222 1.43645
# Poissons Ratio (y) = 0.09659 -0.47768
# Poissons Ratio (z) = 2.23559 2.01817
#
# Static dielectric constant tensor:
#      x y z
#    x 1.735260 0.000000 0.000000 
#    y 0.000000 1.674690 0.000000 
#    z 0.000000 0.000000 1.749120 
# 
# From -- ./inp_files/14164.got.cif
#   From: 2010.05.17/outbox.ucp.g08.bks.cvg/sg46_8_cif.got.tgz:14164.got - 2010.06.11 16:34:52.
