data_PCOD9381910
_publ_section_title
;
Structure prediction by ZEFSAII (Michael W. Deem and Ramdas Pophale) SiO2 
 PCOD9381910
Probable space group: P M M M
;
_chemical_formula_sum "Si O2"
_cell_formula_units_Z 64
_cell_length_a 7.709048
_cell_length_b 20.540883
_cell_length_c 20.754038
_cell_angle_alpha 90.000000
_cell_angle_beta 90.000000
_cell_angle_gamma 90.000000
_cell_volume 3286.415470
_symmetry_space_group_name_H-M "P M M M"
_symmetry_group_IT_number 47
_symmetry_cell_setting 'orthorhombic'
loop_
_space_group_symop_operation_xyz
x,y,z
-x,-y,z
x,-y,-z
-x,y,-z
-x,-y,-z
x,y,-z
-x,y,z
x,-y,z
loop_
_atom_site_type_symbol
_atom_site_label
_atom_site_fract_x
_atom_site_fract_y
_atom_site_fract_z
Si Si1 0.203050 0.287869 0.262634
Si Si2 0.711870 0.926790 0.074721
Si Si3 0.800100 0.104023 0.430643
Si Si4 0.210144 0.072652 0.710445
Si Si5 0.203827 0.430083 0.287516
Si Si6 0.289494 0.608074 0.569976
Si Si7 0.700762 0.173195 0.179837
Si Si8 0.699620 0.245913 0.401035
O O1 0.273142 0.361809 0.259294
O O2 0.220509 0.242085 0.200798
O O3 0.290500 0.252947 0.323741
O O4 0.000000 0.292077 0.279581
O O5 0.500000 0.926777 0.077961
O O6 0.775713 0.869575 0.121252
O O7 0.767852 0.000000 0.094138
O O8 0.759157 0.917162 0.000000
O O9 0.721924 0.085902 0.500000
O O10 0.724553 0.079992 0.362992
O O11 0.797404 0.182368 0.424425
O O12 0.000000 0.081754 0.431434
O O13 0.283378 0.125949 0.758396
O O14 0.000000 0.080959 0.709392
O O15 0.250025 0.000000 0.733545
O O16 0.280509 0.500000 0.267899
O O17 0.221197 0.424075 0.365070
O O18 0.000000 0.431647 0.271453
O O19 0.237061 0.581714 0.500000
O O20 0.500000 0.605404 0.573483
O O21 0.238401 0.684265 0.573612
O O22 0.500000 0.185643 0.165852
O O23 0.500000 0.237842 0.420612
#
# Coordination Sequence:
#
# PCOD9381910 Si02
#       8
#     8   8   8   8   8   8   8   8
#     4  10  19  32  50  70  95 124 155 195 242 290
#     4   8  15  29  49  75 108 142 171 197 228 270
#     4  10  20  32  46  63  85 117 156 198 248 302
#     4  10  21  35  49  66  92 126 161 200 247 294
#     4   9  19  34  49  65  87 118 156 197 239 286
#     4   9  18  30  43  62  88 116 146 183 236 301
#     4  11  20  31  52  79 102 128 163 202 237 276
#     4  10  18  30  47  66  87 114 150 196 245 291
#
# _framework density 19.474105000000002
#
# number of rings (size 3 to 8) (size 9 to 14) (size 15 to 20)
#    0.000    2.375    1.250    2.250    0.000    3.500 
#    0.000    2.500    0.000    1.500    0.000    6.125 
#    0.000    0.500    0.000    6.250    0.000    0.000 
#
# Total GULP energy -357122.240013 kJ/mol
# GULP energy per Si atom -5580.035000 kJ/mol
# Density = 1.942978 g / cm^3
# Si number density = 19.474105 Si / 1000 Ang^3
#
#
#
# Elastic Constant Matrix: (Units=GPa)
#
#
# Indices 1 2 3 4 5 6 
#
# 1 36.1565 3.3354 -2.8175 0.0000 0.0000 0.0000
# 2 3.3354 127.2125 47.6056 0.0000 0.0000 0.0000
# 3 -2.8175 47.6056 82.1507 0.0000 0.0000 0.0000
# 4 0.0000 0.0000 0.0000 45.1318 0.0000 0.0000
# 5 0.0000 0.0000 0.0000 0.0000 12.3645 0.0000
# 6 0.0000 0.0000 0.0000 0.0000 0.0000 -47.0809
#
#
#
# Elastic Compliance Matrix: (Units=1/GPa)
#
#
# Indices 1 2 3 4 5 6 
#
# 1 0.027924 -0.001392 0.001765 0.000000 0.000000 0.000000
# 2 -0.001392 0.010107 -0.005905 0.000000 0.000000 0.000000
# 3 0.001765 -0.005905 0.015655 0.000000 0.000000 0.000000
# 4 0.000000 0.000000 0.000000 0.022157 0.000000 0.000000
# 5 0.000000 0.000000 0.000000 0.000000 0.080877 0.000000
# 6 0.000000 0.000000 0.000000 0.000000 0.000000 -0.021240
#
#
# Mechanical properties :
#
#
# Convention : Reuss Voigt Hill
#
# Bulk Modulus (GPa) = 23.46295 37.97408 30.71852
# Shear Modulus (GPa) = 31.10389 15.24282 23.17336
#
# Velocity S-wave (km/s) = 4.00082 2.80075 3.45332
# Velocity P-wave (km/s) = 5.78071 5.47732 5.63106
#
# Compressibility (1/GPa) = 0.04262038
#
# Stress axis : x y z
#
# Youngs Moduli (GPa) = 35.81212 98.94105 63.87746
#
# Poissons Ratio (x) = 0.13777 -0.11272
# Poissons Ratio (y) = 0.04987 0.37718
# Poissons Ratio (z) = -0.06319 0.58422
#
# Static dielectric constant tensor:
#      x y z
#    x 1.725590 0.000000 0.000000 
#    y 0.000000 1.722700 0.000000 
#    z 0.000000 0.000000 1.678980 
# 
# From -- ./inp_files/30168.got.cif
#   From: 2010.05.17/outbox.cif.g08.bks.cpg/sg47_16_cif.got.tgz:30168.got - 2010.06.03 20:15:42.
