data_PCOD9381997
_publ_section_title
;
Structure prediction by ZEFSAII (Michael W. Deem and Ramdas Pophale) SiO2 
 PCOD9381997
Probable space group: P M M M
;
_chemical_formula_sum "Si O2"
_cell_formula_units_Z 58
_cell_length_a 15.697440
_cell_length_b 25.565834
_cell_length_c 7.370729
_cell_angle_alpha 90.000000
_cell_angle_beta 90.000000
_cell_angle_gamma 90.000000
_cell_volume 2958.007292
_symmetry_space_group_name_H-M "P M M M"
_symmetry_group_IT_number 47
_symmetry_cell_setting 'orthorhombic'
loop_
_space_group_symop_operation_xyz
x,y,z
-x,-y,z
x,-y,-z
-x,y,-z
-x,-y,-z
x,y,-z
-x,y,z
x,-y,z
loop_
_atom_site_type_symbol
_atom_site_label
_atom_site_fract_x
_atom_site_fract_y
_atom_site_fract_z
Si Si1 0.594464 0.689536 0.779428
Si Si2 0.827223 0.166582 0.218045
Si Si3 0.900526 0.057395 0.779277
Si Si4 0.368468 0.189543 0.781744
Si Si5 0.500000 0.148306 0.500000
Si Si6 0.906232 0.725111 0.709713
Si Si7 0.095237 0.560704 0.778733
Si Si8 0.768317 0.642398 0.792487
O O1 0.500000 0.672460 0.720677
O O2 0.606315 0.750684 0.733863
O O3 0.676588 0.657460 0.712738
O O4 0.596258 0.687524 0.000000
O O5 0.852373 0.109039 0.284074
O O6 0.730437 0.181019 0.261893
O O7 0.888137 0.213204 0.281018
O O8 0.834120 0.166250 0.000000
O O9 0.000000 0.061604 0.730140
O O10 0.869127 0.000000 0.720111
O O11 0.896973 0.057431 0.000000
O O12 0.426318 0.152784 0.659817
O O13 0.380438 0.182976 0.000000
O O14 0.906091 0.709368 0.500000
O O15 0.828064 0.693898 0.796156
O O16 0.000000 0.713316 0.786592
O O17 0.106510 0.500000 0.729256
O O18 0.171095 0.597577 0.712307
O O19 0.000000 0.577493 0.720929
O O20 0.095036 0.563223 0.000000
O O21 0.751326 0.626363 0.000000
#
# Coordination Sequence:
#
# PCOD9381997 Si02
#       8
#     8   8   8   8   2   8   8   8
#     4   9  16  29  45  64  96 126 157 209 257 297
#     4  10  19  32  51  74 103 136 170 212 257 306
#     4   8  14  26  47  76 105 133 172 217 254 296
#     4  10  20  33  49  76 105 132 175 218 257 320
#     4  12  22  32  56  74  99 144 167 212 278 318
#     4  11  23  33  43  66 104 139 166 205 255 309
#     4   8  14  25  43  69  96 120 158 213 257 294
#     4  10  18  30  50  70  91 127 169 205 251 310
#
# _framework density 19.607793000000001
#
# number of rings (size 3 to 8) (size 9 to 14) (size 15 to 20)
#    0.000    2.483    2.069    2.276    0.966    2.207 
#    0.000    0.000    0.000    1.241    0.000    7.724 
#    0.000    3.310    0.000    1.862    0.000    3.034 
#
# Total GULP energy -323114.463982 kJ/mol
# GULP energy per Si atom -5570.939034 kJ/mol
# Density = 1.956317 g / cm^3
# Si number density = 19.607793 Si / 1000 Ang^3
#
#
#
# Elastic Constant Matrix: (Units=GPa)
#
#
# Indices 1 2 3 4 5 6 
#
# 1 154.5341 56.5559 11.2367 0.0000 0.0000 0.0000
# 2 56.5559 92.2089 -3.4363 0.0000 0.0000 0.0000
# 3 11.2367 -3.4363 74.3973 0.0000 0.0000 0.0000
# 4 0.0000 0.0000 0.0000 -23.8340 0.0000 0.0000
# 5 0.0000 0.0000 0.0000 0.0000 -53.4506 0.0000
# 6 0.0000 0.0000 0.0000 0.0000 0.0000 19.6615
#
#
#
# Elastic Compliance Matrix: (Units=1/GPa)
#
#
# Indices 1 2 3 4 5 6 
#
# 1 0.008514 -0.005279 -0.001530 0.000000 0.000000 0.000000
# 2 -0.005279 0.014137 0.001450 0.000000 0.000000 0.000000
# 3 -0.001530 0.001450 0.013739 0.000000 0.000000 0.000000
# 4 0.000000 0.000000 0.000000 -0.041957 0.000000 0.000000
# 5 0.000000 0.000000 0.000000 0.000000 -0.018709 0.000000
# 6 0.000000 0.000000 0.000000 0.000000 0.000000 0.050861
#
#
# Mechanical properties :
#
#
# Convention : Reuss Voigt Hill
#
# Bulk Modulus (GPa) = 38.95103 49.98366 44.46735
# Shear Modulus (GPa) = 109.02448 5.59430 57.30939
#
# Velocity S-wave (km/s) = 7.46481 1.69094 5.41214
# Velocity P-wave (km/s) = 9.70598 5.41844 7.86020
#
# Compressibility (1/GPa) = 0.02567326
#
# Stress axis : x y z
#
# Youngs Moduli (GPa) = 117.44814 70.73632 72.78337
#
# Poissons Ratio (x) = 0.37344 0.11135
# Poissons Ratio (y) = 0.62004 -0.10556
# Poissons Ratio (z) = 0.17968 -0.10259
#
# Static dielectric constant tensor:
#      x y z
#    x 1.684400 0.000000 0.000000 
#    y 0.000000 1.678550 0.000000 
#    z 0.000000 0.000000 1.750530 
# 
# From -- ./inp_files/8101.got.cif
#   From: 2010.05.17/outbox.cif.g08.bks.cpg/sg47_5_cif.got.tgz:8101.got - 2010.06.03 20:15:42.
