data_PCOD9381725
_publ_section_title
;
Structure prediction by ZEFSAII (Michael W. Deem and Ramdas Pophale) SiO2 
 PCOD9381725
Probable space group: P M M M
;
_chemical_formula_sum "Si O2"
_cell_formula_units_Z 40
_cell_length_a 17.324004
_cell_length_b 9.258091
_cell_length_c 18.562755
_cell_angle_alpha 90.000000
_cell_angle_beta 90.000000
_cell_angle_gamma 90.000000
_cell_volume 2977.228401
_symmetry_space_group_name_H-M "P M M M"
_symmetry_group_IT_number 47
_symmetry_cell_setting 'orthorhombic'
loop_
_space_group_symop_operation_xyz
x,y,z
-x,-y,z
x,-y,-z
-x,y,-z
-x,-y,-z
x,y,-z
-x,y,z
x,-y,z
loop_
_atom_site_type_symbol
_atom_site_label
_atom_site_fract_x
_atom_site_fract_y
_atom_site_fract_z
Si Si1 0.655551 0.327512 0.085131
Si Si2 0.091804 0.827846 0.725173
Si Si3 0.911808 0.324497 0.000000
Si Si4 0.500000 0.833941 0.087553
Si Si5 0.906418 0.332528 0.419699
Si Si6 0.821484 0.674449 0.855394
O O1 0.643667 0.500000 0.089626
O O2 0.578403 0.246477 0.109404
O O3 0.731915 0.290304 0.129966
O O4 0.669668 0.295112 0.000000
O O5 0.116430 0.766013 0.647250
O O6 0.140511 0.751113 0.787381
O O7 0.000000 0.795070 0.734862
O O8 0.100728 0.000000 0.727652
O O9 0.867738 0.281520 0.072427
O O10 0.912176 0.500000 0.000000
O O11 0.000000 0.274156 0.000000
O O12 0.500000 0.000000 0.110530
O O13 0.500000 0.830356 0.000000
O O14 0.880258 0.287913 0.500000
O O15 0.883934 0.500000 0.408064
O O16 0.000000 0.329787 0.421209
O O17 0.827779 0.500000 0.848034
#
# Coordination Sequence:
#
# PCOD9381725 Si02
#       6
#     8   8   4   4   8   8
#     4   9  16  28  44  61  79  99 130 171 211 248
#     4  10  20  30  39  56  83 112 140 170 208 251
#     4   9  16  26  41  58  73  96 138 185 217 239
#     4   9  17  27  41  61  81 101 126 155 200 257
#     4   8  14  26  44  62  77  97 130 170 208 246
#     4  10  18  29  44  60  77 103 140 179 214 245
#
# _framework density 13.435314
#
# number of rings (size 3 to 8) (size 9 to 14) (size 15 to 20)
#    0.000    2.800    1.000    2.100    0.000    4.400 
#    0.000    2.500    0.000    1.800    0.000    0.000 
#    0.000    0.000    0.000    0.900    0.000   17.400 
#
# Total GULP energy -222775.792588 kJ/mol
# GULP energy per Si atom -5569.394815 kJ/mol
# Density = 1.340473 g / cm^3
# Si number density = 13.435314 Si / 1000 Ang^3
#
#
#
# Elastic Constant Matrix: (Units=GPa)
#
#
# Indices 1 2 3 4 5 6 
#
# 1 98.6037 49.9776 55.8339 0.0000 0.0000 0.0000
# 2 49.9776 46.4889 50.1500 0.0000 0.0000 0.0000
# 3 55.8339 50.1500 107.0248 0.0000 0.0000 0.0000
# 4 0.0000 0.0000 0.0000 9.9917 0.0000 0.0000
# 5 0.0000 0.0000 0.0000 0.0000 2.7438 0.0000
# 6 0.0000 0.0000 0.0000 0.0000 0.0000 14.6976
#
#
#
# Elastic Compliance Matrix: (Units=1/GPa)
#
#
# Indices 1 2 3 4 5 6 
#
# 1 0.022318 -0.023120 -0.000810 0.000000 0.000000 0.000000
# 2 -0.023120 0.067448 -0.019544 0.000000 0.000000 0.000000
# 3 -0.000810 -0.019544 0.018924 0.000000 0.000000 0.000000
# 4 0.000000 0.000000 0.000000 0.100083 0.000000 0.000000
# 5 0.000000 0.000000 0.000000 0.000000 0.364457 0.000000
# 6 0.000000 0.000000 0.000000 0.000000 0.000000 0.068039
#
#
# Mechanical properties :
#
#
# Convention : Reuss Voigt Hill
#
# Bulk Modulus (GPa) = 45.98977 62.67117 54.33047
# Shear Modulus (GPa) = 6.79844 11.89701 9.34773
#
# Velocity S-wave (km/s) = 2.25191 2.97897 2.64058
# Velocity P-wave (km/s) = 6.40830 7.65377 7.05856
#
# Compressibility (1/GPa) = 0.02174397
#
# Stress axis : x y z
#
# Youngs Moduli (GPa) = 44.80590 14.82629 52.84326
#
# Poissons Ratio (x) = 0.34278 0.04280
# Poissons Ratio (y) = 1.03590 1.03274
# Poissons Ratio (z) = 0.03629 0.28976
#
# Static dielectric constant tensor:
#      x y z
#    x 1.425760 0.000000 0.000000 
#    y 0.000000 1.443820 0.000000 
#    z 0.000000 0.000000 1.430070 
# 
# From -- ./inp_files/9393.got.cif
#   From: 2010.05.17/outbox.cif.g08.bks.cpg/sg47_5_cif.got.tgz:9393.got - 2010.06.03 20:15:42.
