data_PCOD9381067
_publ_section_title
;
Structure prediction by ZEFSAII (Michael W. Deem and Ramdas Pophale) SiO2 
 PCOD9381067
Probable space group: I M A 2
;
_chemical_formula_sum "Si O2"
_cell_formula_units_Z 48
_cell_length_a 7.504780
_cell_length_b 14.189112
_cell_length_c 25.016613
_cell_angle_alpha 90.000000
_cell_angle_beta 90.000000
_cell_angle_gamma 90.000000
_cell_volume 2663.923154
_symmetry_space_group_name_H-M "I M A 2"
_symmetry_group_IT_number 46
_symmetry_cell_setting 'orthorhombic'
loop_
_space_group_symop_operation_xyz
x,y,z
-x,-y,z
1/2-x,y,z
1/2+x,-y,z
1/2+x,1/2+y,1/2+z
1/2-x,1/2-y,1/2+z
-x,1/2+y,1/2+z
x,1/2-y,1/2+z
loop_
_atom_site_type_symbol
_atom_site_label
_atom_site_fract_x
_atom_site_fract_y
_atom_site_fract_z
Si Si1 0.462487 0.608205 0.920100
Si Si2 0.468185 0.709341 0.027340
Si Si3 0.537513 0.391795 0.466495
Si Si4 0.963650 0.110161 0.752987
Si Si5 0.536350 0.110161 0.633608
Si Si6 0.031815 0.709341 0.359255
O O1 0.500000 0.500000 0.908172
O O2 0.250000 0.618433 0.921604
O O3 0.525691 0.686248 0.877558
O O4 0.525440 0.639913 0.979114
O O5 0.250000 0.708066 0.028753
O O6 0.531248 0.672905 0.084622
O O7 0.525691 0.813752 0.009037
O O8 0.500000 0.500000 0.478423
O O9 0.750000 0.381567 0.464990
O O10 0.474560 0.360087 0.407480
O O11 0.750000 0.121299 0.751351
O O12 0.032491 0.132001 0.693297
O O13 0.031248 0.172905 0.801973
O O14 0.000000 0.000000 0.763727
O O15 0.750000 0.121299 0.635244
O O16 0.500000 0.000000 0.622868
O O17 0.250000 0.708066 0.357841
#
# Coordination Sequence:
#
# PCOD9381067 Si02
#       6
#     8   8   8   8   8   8
#     4   9  16  27  42  58  78 103 130 159 190 226
#     4   8  15  27  41  57  79 106 129 152 190 235
#     4   9  16  27  42  58  78 103 130 159 190 226
#     4   9  16  26  41  60  80 102 128 157 190 229
#     4   9  16  26  41  60  80 102 128 157 190 229
#     4   8  15  27  41  57  79 106 129 152 190 235
#
# _framework density 18.018536999999998
#
# number of rings (size 3 to 8) (size 9 to 14) (size 15 to 20)
#    0.000    3.333    0.000    3.000    0.000    0.000 
#    0.000    5.000    0.000    1.000    0.000    0.000 
#    0.000    0.000    0.000    0.000    0.000    0.000 
#
# Total GULP energy -133730.142642 kJ/mol
# GULP energy per Si atom -5572.089277 kJ/mol
# Density = 1.797753 g / cm^3
# Si number density = 18.018537 Si / 1000 Ang^3
#
#
#
# Elastic Constant Matrix: (Units=GPa)
#
#
# Indices 1 2 3 4 5 6 
#
# 1 45.7529 -1.4041 9.3592 0.0000 0.0000 0.0000
# 2 -1.4041 145.2292 113.7222 0.0000 0.0000 0.0000
# 3 9.3592 113.7222 185.7311 0.0000 0.0000 0.0000
# 4 0.0000 0.0000 0.0000 26.6307 0.0000 0.0000
# 5 0.0000 0.0000 0.0000 0.0000 4.1989 0.0000
# 6 0.0000 0.0000 0.0000 0.0000 0.0000 21.2894
#
#
#
# Elastic Compliance Matrix: (Units=1/GPa)
#
#
# Indices 1 2 3 4 5 6 
#
# 1 0.022418 0.002116 -0.002425 0.000000 0.000000 0.000000
# 2 0.002116 0.013428 -0.008328 0.000000 0.000000 0.000000
# 3 -0.002425 -0.008328 0.010606 0.000000 0.000000 0.000000
# 4 0.000000 0.000000 0.000000 0.037551 0.000000 0.000000
# 5 0.000000 0.000000 0.000000 0.000000 0.238158 0.000000
# 6 0.000000 0.000000 0.000000 0.000000 0.000000 0.046972
#
#
# Mechanical properties :
#
#
# Convention : Reuss Voigt Hill
#
# Bulk Modulus (GPa) = 34.27528 68.89642 51.58585
# Shear Modulus (GPa) = 12.62207 27.42621 20.02414
#
# Velocity S-wave (km/s) = 2.64958 3.90566 3.33724
# Velocity P-wave (km/s) = 5.33140 7.65887 6.59857
#
# Compressibility (1/GPa) = 0.02917554
#
# Stress axis : x y z
#
# Youngs Moduli (GPa) = 44.60794 74.47360 94.28919
#
# Poissons Ratio (x) = -0.15756 0.22866
# Poissons Ratio (y) = -0.09438 0.78526
# Poissons Ratio (z) = 0.10818 0.62023
#
# Static dielectric constant tensor:
#      x y z
#    x 1.689530 0.000000 0.000000 
#    y 0.000000 1.606780 0.000000 
#    z 0.000000 0.000000 1.630310 
# 
# From -- ./inp_files/7835.got.cif
#   From: 2010.05.17/outbox.cif.g08.bks.cpg/sg46_4_cif.got.tgz:7835.got - 2010.06.03 19:58:25.
