data_PCOD9381720
_publ_section_title
;
Structure prediction by ZEFSAII (Michael W. Deem and Ramdas Pophale) SiO2 
 PCOD9381720
Probable space group: P M M M
;
_chemical_formula_sum "Si O2"
_cell_formula_units_Z 64
_cell_length_a 7.583967
_cell_length_b 14.848198
_cell_length_c 32.509464
_cell_angle_alpha 90.000000
_cell_angle_beta 90.000000
_cell_angle_gamma 90.000000
_cell_volume 3660.833643
_symmetry_space_group_name_H-M "P M M M"
_symmetry_group_IT_number 47
_symmetry_cell_setting 'orthorhombic'
loop_
_space_group_symop_operation_xyz
x,y,z
-x,-y,z
x,-y,-z
-x,y,-z
-x,-y,-z
x,y,-z
-x,y,z
x,-y,z
loop_
_atom_site_type_symbol
_atom_site_label
_atom_site_fract_x
_atom_site_fract_y
_atom_site_fract_z
Si Si1 0.709950 0.399618 0.252504
Si Si2 0.207175 0.599851 0.157721
Si Si3 0.711957 0.104647 0.455768
Si Si4 0.211080 0.788606 0.287194
Si Si5 0.784971 0.103772 0.046290
Si Si6 0.789999 0.896944 0.365661
Si Si7 0.215470 0.896058 0.206584
Si Si8 0.783619 0.212984 0.125432
O O1 0.500000 0.402857 0.248985
O O2 0.772675 0.500000 0.264646
O O3 0.780094 0.380619 0.206542
O O4 0.754410 0.317173 0.282049
O O5 0.284153 0.500000 0.150819
O O6 0.279198 0.685249 0.133272
O O7 0.000000 0.594816 0.147805
O O8 0.772291 0.143171 0.500000
O O9 0.500000 0.104088 0.456611
O O10 0.762453 0.142397 0.411401
O O11 0.772011 0.000000 0.454984
O O12 0.279400 0.835438 0.328680
O O13 0.276516 0.840641 0.246489
O O14 0.000000 0.799171 0.287140
O O15 0.725847 0.168358 0.082843
O O16 0.000000 0.104736 0.046504
O O17 0.732723 0.000000 0.054013
O O18 0.729121 0.128664 0.000000
O O19 0.000000 0.903893 0.360250
O O20 0.719065 0.000000 0.363962
O O21 0.269745 0.847564 0.164475
O O22 0.000000 0.895382 0.206943
O O23 0.270684 0.000000 0.208254
O O24 0.000000 0.213963 0.125480
#
# Coordination Sequence:
#
# PCOD9381720 Si02
#       8
#     8   8   8   8   8   8   8   8
#     4  10  20  32  45  61  81 106 138 176 215 251
#     4   9  16  27  43  61  79 100 132 171 208 250
#     4   8  14  25  40  57  79 111 151 188 217 247
#     4  10  18  29  43  61  85 113 142 171 206 249
#     4   8  13  20  30  48  77 108 134 164 203 245
#     4   9  17  27  40  61  88 116 145 177 212 249
#     4   9  15  22  35  56  79 104 137 172 198 230
#     4   9  14  21  35  55  75 102 138 170 202 241
#
# _framework density 17.482355999999999
#
# number of rings (size 3 to 8) (size 9 to 14) (size 15 to 20)
#    0.000    3.000    1.250    1.875    0.000    4.500 
#    0.000    1.250    0.000    1.500    0.000    2.625 
#    0.000    1.000    0.000   10.000    0.000    8.750 
#
# Total GULP energy -356611.943816 kJ/mol
# GULP energy per Si atom -5572.061622 kJ/mol
# Density = 1.744257 g / cm^3
# Si number density = 17.482356 Si / 1000 Ang^3
#
#
#
# Elastic Constant Matrix: (Units=GPa)
#
#
# Indices 1 2 3 4 5 6 
#
# 1 37.7147 2.7854 4.4622 0.0000 0.0000 0.0000
# 2 2.7854 124.7086 92.4084 0.0000 0.0000 0.0000
# 3 4.4622 92.4084 159.4057 0.0000 0.0000 0.0000
# 4 0.0000 0.0000 0.0000 8.6746 0.0000 0.0000
# 5 0.0000 0.0000 0.0000 0.0000 111.1332 0.0000
# 6 0.0000 0.0000 0.0000 0.0000 0.0000 -2.6886
#
#
#
# Elastic Compliance Matrix: (Units=1/GPa)
#
#
# Indices 1 2 3 4 5 6 
#
# 1 0.026603 -0.000074 -0.000702 0.000000 0.000000 0.000000
# 2 -0.000074 0.014057 -0.008147 0.000000 0.000000 0.000000
# 3 -0.000702 -0.008147 0.011016 0.000000 0.000000 0.000000
# 4 0.000000 0.000000 0.000000 0.115279 0.000000 0.000000
# 5 0.000000 0.000000 0.000000 0.000000 0.008998 0.000000
# 6 0.000000 0.000000 0.000000 0.000000 0.000000 -0.371943
#
#
# Mechanical properties :
#
#
# Convention : Reuss Voigt Hill
#
# Bulk Modulus (GPa) = 29.55905 57.90455 43.73180
# Shear Modulus (GPa) = -29.96404 38.23539 4.13567
#
# Velocity S-wave (km/s) = -4.14449 4.68170 1.53973
# Velocity P-wave (km/s) = 2.44085 7.90051 5.31320
#
# Compressibility (1/GPa) = 0.03383059
#
# Stress axis : x y z
#
# Youngs Moduli (GPa) = 37.58924 71.13784 90.77881
#
# Poissons Ratio (x) = 0.00528 0.06370
# Poissons Ratio (y) = 0.00279 0.73957
# Poissons Ratio (z) = 0.02637 0.57956
#
# Static dielectric constant tensor:
#      x y z
#    x 1.676970 0.000000 0.000000 
#    y 0.000000 1.613720 0.000000 
#    z 0.000000 0.000000 1.601030 
# 
# From -- ./inp_files/34450.got.cif
#   From: 2010.05.17/outbox.cif.g08.bks.cpg/sg47_18_cif.got.tgz:34450.got - 2010.06.03 20:15:42.
