data_PCOD9381982
_publ_section_title
;
Structure prediction by ZEFSAII (Michael W. Deem and Ramdas Pophale) SiO2 
 PCOD9381982
Probable space group: P M M M
;
_chemical_formula_sum "Si O2"
_cell_formula_units_Z 56
_cell_length_a 21.048806
_cell_length_b 16.080533
_cell_length_c 7.743454
_cell_angle_alpha 90.000000
_cell_angle_beta 90.000000
_cell_angle_gamma 90.000000
_cell_volume 2620.973487
_symmetry_space_group_name_H-M "P M M M"
_symmetry_group_IT_number 47
_symmetry_cell_setting 'orthorhombic'
loop_
_space_group_symop_operation_xyz
x,y,z
-x,-y,z
x,-y,-z
-x,y,-z
-x,-y,-z
x,y,-z
-x,y,z
x,-y,z
loop_
_atom_site_type_symbol
_atom_site_label
_atom_site_fract_x
_atom_site_fract_y
_atom_site_fract_z
Si Si1 0.900654 0.588738 0.296479
Si Si2 0.793813 0.179451 0.793416
Si Si3 0.068717 0.773091 0.292474
Si Si4 0.329573 0.092428 0.788208
Si Si5 0.760794 0.366338 0.208479
Si Si6 0.381047 0.409781 0.297668
Si Si7 0.429644 0.229333 0.795505
O O1 0.916657 0.588896 0.500000
O O2 0.923296 0.500000 0.223772
O O3 0.923301 0.677785 0.225048
O O4 0.824537 0.591261 0.275842
O O5 0.868018 0.175627 0.749167
O O6 0.742527 0.112796 0.731689
O O7 0.768148 0.270010 0.737072
O O8 0.791041 0.179370 0.000000
O O9 0.067601 0.767706 0.500000
O O10 0.000000 0.805431 0.233832
O O11 0.376619 0.165500 0.727617
O O12 0.349070 0.000000 0.734768
O O13 0.329670 0.093761 0.000000
O O14 0.694931 0.402435 0.274290
O O15 0.760411 0.370896 0.000000
O O16 0.396143 0.409227 0.500000
O O17 0.401444 0.500000 0.225672
O O18 0.410065 0.325543 0.222913
O O19 0.500000 0.216255 0.721591
O O20 0.432727 0.212912 0.000000
#
# Coordination Sequence:
#
# PCOD9381982 Si02
#       7
#     8   8   8   8   8   8   8
#     4   9  17  28  42  64  96 132 173 220 270 323
#     4   9  17  31  52  77 105 136 171 214 264 317
#     4   9  18  31  47  69  98 136 179 220 266 318
#     4   9  17  33  59  89 116 139 170 216 270 327
#     4  10  18  30  49  73 102 135 176 225 273 318
#     4  11  23  36  52  75 106 147 191 230 269 314
#     4  10  21  38  59  84 114 145 179 220 268 321
#
# _framework density 21.366107
#
# number of rings (size 3 to 8) (size 9 to 14) (size 15 to 20)
#    0.000    2.429    1.429    1.286    0.000    5.143 
#    0.000    4.286    0.000    2.143    0.000    8.000 
#    0.000    0.000    0.000    0.000    0.000    0.000 
#
# Total GULP energy -312399.387882 kJ/mol
# GULP energy per Si atom -5578.560498 kJ/mol
# Density = 2.131748 g / cm^3
# Si number density = 21.366107 Si / 1000 Ang^3
#
#
#
# Elastic Constant Matrix: (Units=GPa)
#
#
# Indices 1 2 3 4 5 6 
#
# 1 145.3350 64.5391 -2.2851 0.0000 0.0000 0.0000
# 2 64.5391 107.8216 4.5661 0.0000 0.0000 0.0000
# 3 -2.2851 4.5661 28.3850 0.0000 0.0000 0.0000
# 4 0.0000 0.0000 0.0000 40.2973 0.0000 0.0000
# 5 0.0000 0.0000 0.0000 0.0000 19.2282 0.0000
# 6 0.0000 0.0000 0.0000 0.0000 0.0000 -3.0268
#
#
#
# Elastic Compliance Matrix: (Units=1/GPa)
#
#
# Indices 1 2 3 4 5 6 
#
# 1 0.009451 -0.005728 0.001682 0.000000 0.000000 0.000000
# 2 -0.005728 0.012810 -0.002522 0.000000 0.000000 0.000000
# 3 0.001682 -0.002522 0.035771 0.000000 0.000000 0.000000
# 4 0.000000 0.000000 0.000000 0.024816 0.000000 0.000000
# 5 0.000000 0.000000 0.000000 0.000000 0.052007 0.000000
# 6 0.000000 0.000000 0.000000 0.000000 0.000000 -0.330384
#
#
# Mechanical properties :
#
#
# Convention : Reuss Voigt Hill
#
# Bulk Modulus (GPa) = 22.27352 46.13132 34.20242
# Shear Modulus (GPa) = -29.86352 25.61450 -2.12451
#
# Velocity S-wave (km/s) = -3.74265 3.46618 -0.99825
# Velocity P-wave (km/s) = 2.86866 6.13653 3.83587
#
# Compressibility (1/GPa) = 0.04489636
#
# Stress axis : x y z
#
# Youngs Moduli (GPa) = 105.81038 78.06303 27.95566
#
# Poissons Ratio (x) = 0.44717 -0.04703
# Poissons Ratio (y) = 0.60611 0.07050
# Poissons Ratio (z) = -0.17800 0.19686
#
# Static dielectric constant tensor:
#      x y z
#    x 1.784720 0.000000 0.000000 
#    y 0.000000 1.783070 0.000000 
#    z 0.000000 0.000000 1.794320 
# 
# From -- ./inp_files/7217.got.cif
#   From: 2010.05.17/outbox.cif.g08.bks.cpg/sg47_4_cif.got.tgz:7217.got - 2010.06.03 20:15:42.
