data_PCOD9381053
_publ_section_title
;
Structure prediction by ZEFSAII (Michael W. Deem and Ramdas Pophale) SiO2 
 PCOD9381053
Probable space group: I M A 2
;
_chemical_formula_sum "Si O2"
_cell_formula_units_Z 24
_cell_length_a 19.522682
_cell_length_b 3.411621
_cell_length_c 11.569532
_cell_angle_alpha 90.000000
_cell_angle_beta 90.000000
_cell_angle_gamma 90.000000
_cell_volume 770.577015
_symmetry_space_group_name_H-M "I M A 2"
_symmetry_group_IT_number 46
_symmetry_cell_setting 'orthorhombic'
loop_
_space_group_symop_operation_xyz
x,y,z
-x,-y,z
1/2-x,y,z
1/2+x,-y,z
1/2+x,1/2+y,1/2+z
1/2-x,1/2-y,1/2+z
-x,1/2+y,1/2+z
x,1/2-y,1/2+z
loop_
_atom_site_type_symbol
_atom_site_label
_atom_site_fract_x
_atom_site_fract_y
_atom_site_fract_z
Si Si1 0.378080 0.263855 0.216650
Si Si2 0.878080 0.263855 0.899369
Si Si3 0.750000 0.500000 0.058010
Si Si4 0.500000 0.500000 0.558010
O O1 0.377329 0.262976 0.365499
O O2 0.309127 0.293359 0.140754
O O3 0.447918 0.227990 0.143601
O O4 0.447918 0.772010 0.972418
O O5 0.877329 0.262975 0.750520
O O6 0.809127 0.293359 0.975266
#
# Coordination Sequence:
#
# PCOD9381053 Si02
#       4
#     8   8   4   4
#     4  12  28  50  79 118 161 215 275 339 411 491
#     4  12  28  50  79 118 161 215 275 339 411 491
#     4  12  28  52  80 114 160 216 276 338 408 484
#     4  12  28  52  84 124 172 220 276 346 420 502
#
# _framework density 31.145493999999999
#
# number of rings (size 3 to 8) (size 9 to 14) (size 15 to 20)
#    0.000    0.000    0.000    8.000    0.000   18.667 
#    0.000    0.000    0.000    0.000    0.000    0.000 
#    0.000    0.000    0.000    0.000    0.000    0.000 
#
# Total GULP energy -66885.423146 kJ/mol
# GULP energy per Si atom -5573.785262 kJ/mol
# Density = 3.107461 g / cm^3
# Si number density = 31.145494 Si / 1000 Ang^3
#
#
#
# Elastic Constant Matrix: (Units=GPa)
#
#
# Indices 1 2 3 4 5 6 
#
# 1 493.5224 146.5278 226.9792 0.0000 0.0000 0.0000
# 2 146.5278 348.9479 175.3127 0.0000 0.0000 0.0000
# 3 226.9792 175.3127 284.4517 0.0000 0.0000 0.0000
# 4 0.0000 0.0000 0.0000 173.7349 0.0000 0.0000
# 5 0.0000 0.0000 0.0000 0.0000 52.5312 0.0000
# 6 0.0000 0.0000 0.0000 0.0000 0.0000 1494.6417
#
#
#
# Elastic Compliance Matrix: (Units=1/GPa)
#
#
# Indices 1 2 3 4 5 6 
#
# 1 0.003203 -0.000088 -0.002501 0.000000 0.000000 0.000000
# 2 -0.000088 0.004154 -0.002489 0.000000 0.000000 0.000000
# 3 -0.002501 -0.002489 0.007046 0.000000 0.000000 0.000000
# 4 0.000000 0.000000 0.000000 0.005756 0.000000 0.000000
# 5 0.000000 0.000000 0.000000 0.000000 0.019036 0.000000
# 6 0.000000 0.000000 0.000000 0.000000 0.000000 0.000669
#
#
# Mechanical properties :
#
#
# Convention : Reuss Voigt Hill
#
# Bulk Modulus (GPa) = 235.62367 247.17348 241.39858
# Shear Modulus (GPa) = 97.20754 382.72172 239.96463
#
# Velocity S-wave (km/s) = 5.59272 11.09724 8.78713
# Velocity P-wave (km/s) = 10.84073 15.61190 13.43973
#
# Compressibility (1/GPa) = 0.00424406
#
# Stress axis : x y z
#
# Youngs Moduli (GPa) = 312.22072 240.75860 141.92811
#
# Poissons Ratio (x) = 0.02124 0.35501
# Poissons Ratio (y) = 0.02755 0.35333
# Poissons Ratio (z) = 0.78097 0.59937
#
# Static dielectric constant tensor:
#      x y z
#    x 1.930130 0.000000 0.000000 
#    y 0.000000 3.407310 0.000000 
#    z 0.000000 0.000000 2.278090 
# 
# From -- ./inp_files/12081.got.cif
#   From: 2010.05.17/outbox.cif.g08.bks.cpg/sg46_7_cif.got.tgz:12081.got - 2010.06.03 19:58:25.
