data_PCOD9381498
_publ_section_title
;
Structure prediction by ZEFSAII (Michael W. Deem and Ramdas Pophale) SiO2 
 PCOD9381498
Probable space group: P M M M
;
_chemical_formula_sum "Si O2"
_cell_formula_units_Z 60
_cell_length_a 23.826065
_cell_length_b 18.842450
_cell_length_c 9.195993
_cell_angle_alpha 90.000000
_cell_angle_beta 90.000000
_cell_angle_gamma 90.000000
_cell_volume 4128.462325
_symmetry_space_group_name_H-M "P M M M"
_symmetry_group_IT_number 47
_symmetry_cell_setting 'orthorhombic'
loop_
_space_group_symop_operation_xyz
x,y,z
-x,-y,z
x,-y,-z
-x,y,-z
-x,-y,-z
x,y,-z
-x,y,z
x,-y,z
loop_
_atom_site_type_symbol
_atom_site_label
_atom_site_fract_x
_atom_site_fract_y
_atom_site_fract_z
Si Si1 0.340458 0.417404 0.673625
Si Si2 0.436581 0.842986 0.672862
Si Si3 0.885707 0.414646 0.828584
Si Si4 0.269588 0.216858 0.166246
Si Si5 0.607084 0.709646 0.833566
Si Si6 0.779741 0.344924 0.327242
Si Si7 0.333143 0.918233 0.174840
Si Si8 0.000000 0.413735 0.667691
O O1 0.348965 0.409467 0.500000
O O2 0.346010 0.500000 0.711912
O O3 0.382771 0.366002 0.758635
O O4 0.276876 0.390494 0.703912
O O5 0.426957 0.839614 0.500000
O O6 0.500000 0.868524 0.699192
O O7 0.429600 0.764555 0.741238
O O8 0.389747 0.892198 0.746886
O O9 0.880659 0.500000 0.811962
O O10 0.832392 0.378534 0.754242
O O11 0.943467 0.392040 0.750793
O O12 0.887792 0.399090 0.000000
O O13 0.331113 0.253819 0.164317
O O14 0.232332 0.265723 0.269156
O O15 0.283495 0.136724 0.214107
O O16 0.248332 0.217546 0.000000
O O17 0.587693 0.703798 0.000000
O O18 0.788407 0.345691 0.500000
O O19 0.321218 0.000000 0.208062
O O20 0.340954 0.910985 0.000000
O O21 0.000000 0.500000 0.667894
O O22 0.000000 0.390477 0.500000
#
# Coordination Sequence:
#
# PCOD9381498 Si02
#       8
#     8   8   8   8   8   8   8   4
#     4   9  17  28  42  61  85 110 135 168 212 258
#     4  10  20  32  46  64  85 109 137 168 202 242
#     4  10  19  29  41  58  82 113 149 187 224 258
#     4   8  15  28  43  60  83 109 136 165 201 245
#     4   9  17  29  45  62  80 105 136 169 206 249
#     4  10  18  27  41  61  84 110 142 177 210 246
#     4   9  18  32  49  68  89 113 139 166 199 242
#     4   9  17  29  43  57  77 109 148 187 224 261
#
# _framework density 14.533257000000001
#
# number of rings (size 3 to 8) (size 9 to 14) (size 15 to 20)
#    0.000    2.733    0.000    3.000    0.000    7.733 
#    0.000    1.333    0.000    0.400    0.000    2.800 
#    0.000    0.000    0.000    0.600    0.000   12.400 
#
# Total GULP energy -334319.104894 kJ/mol
# GULP energy per Si atom -5571.985082 kJ/mol
# Density = 1.450018 g / cm^3
# Si number density = 14.533257 Si / 1000 Ang^3
#
#
#
# Elastic Constant Matrix: (Units=GPa)
#
#
# Indices 1 2 3 4 5 6 
#
# 1 26.3826 10.9375 24.1320 0.0000 0.0000 0.0000
# 2 10.9375 91.9056 31.7198 0.0000 0.0000 0.0000
# 3 24.1320 31.7198 58.7785 0.0000 0.0000 0.0000
# 4 0.0000 0.0000 0.0000 19.7208 0.0000 0.0000
# 5 0.0000 0.0000 0.0000 0.0000 21.6786 0.0000
# 6 0.0000 0.0000 0.0000 0.0000 0.0000 12.6786
#
#
#
# Elastic Compliance Matrix: (Units=1/GPa)
#
#
# Indices 1 2 3 4 5 6 
#
# 1 0.060913 0.001698 -0.025925 0.000000 0.000000 0.000000
# 2 0.001698 0.013418 -0.007939 0.000000 0.000000 0.000000
# 3 -0.025925 -0.007939 0.031941 0.000000 0.000000 0.000000
# 4 0.000000 0.000000 0.000000 0.050708 0.000000 0.000000
# 5 0.000000 0.000000 0.000000 0.000000 0.046128 0.000000
# 6 0.000000 0.000000 0.000000 0.000000 0.000000 0.078873
#
#
# Mechanical properties :
#
#
# Convention : Reuss Voigt Hill
#
# Bulk Modulus (GPa) = 23.84234 34.51613 29.17923
# Shear Modulus (GPa) = 13.87759 18.16742 16.02251
#
# Velocity S-wave (km/s) = 3.09347 3.53945 3.32395
# Velocity P-wave (km/s) = 5.40374 6.36435 5.90362
#
# Compressibility (1/GPa) = 0.04194220
#
# Stress axis : x y z
#
# Youngs Moduli (GPa) = 16.41683 74.52406 31.30791
#
# Poissons Ratio (x) = -0.12658 0.81166
# Poissons Ratio (y) = -0.02788 0.24854
# Poissons Ratio (z) = 0.42561 0.59162
#
# Static dielectric constant tensor:
#      x y z
#    x 1.458380 0.000000 0.000000 
#    y 0.000000 1.482310 0.000000 
#    z 0.000000 0.000000 1.488080 
# 
# From -- ./inp_files/12887.got.cif
#   From: 2010.05.17/outbox.cif.g08.bks.cpg/sg47_7_cif.got.tgz:12887.got - 2010.06.03 20:15:42.
