data_PCOD9381542
_publ_section_title
;
Structure prediction by ZEFSAII (Michael W. Deem and Ramdas Pophale) SiO2 
 PCOD9381542
Probable space group: P M M M
;
_chemical_formula_sum "Si O2"
_cell_formula_units_Z 52
_cell_length_a 7.291349
_cell_length_b 14.103649
_cell_length_c 22.456405
_cell_angle_alpha 90.000000
_cell_angle_beta 90.000000
_cell_angle_gamma 90.000000
_cell_volume 2309.296033
_symmetry_space_group_name_H-M "P M M M"
_symmetry_group_IT_number 47
_symmetry_cell_setting 'orthorhombic'
loop_
_space_group_symop_operation_xyz
x,y,z
-x,-y,z
x,-y,-z
-x,y,-z
-x,-y,-z
x,y,-z
-x,y,z
x,-y,z
loop_
_atom_site_type_symbol
_atom_site_label
_atom_site_fract_x
_atom_site_fract_y
_atom_site_fract_z
Si Si1 0.714666 0.216214 0.681138
Si Si2 0.277788 0.386383 0.000000
Si Si3 0.220641 0.889668 0.194767
Si Si4 0.220544 0.114207 0.935230
Si Si5 0.275384 0.391720 0.744847
Si Si6 0.723520 0.109767 0.565341
Si Si7 0.280984 0.614555 0.126086
O O1 0.500000 0.227806 0.668635
O O2 0.726156 0.160386 0.743830
O O3 0.789086 0.320183 0.694934
O O4 0.791196 0.163593 0.623755
O O5 0.209228 0.347516 0.063123
O O6 0.237680 0.500000 0.000000
O O7 0.500000 0.380054 0.000000
O O8 0.285874 0.850531 0.129937
O O9 0.000000 0.887953 0.192535
O O10 0.277463 0.000000 0.198357
O O11 0.000000 0.124656 0.936030
O O12 0.255544 0.000000 0.934561
O O13 0.289554 0.149888 0.000000
O O14 0.500000 0.391392 0.746387
O O15 0.219339 0.500000 0.737258
O O16 0.212514 0.354197 0.809729
O O17 0.778560 0.146758 0.500000
O O18 0.500000 0.110361 0.566239
O O19 0.778068 0.000000 0.569251
O O20 0.500000 0.628145 0.125495
O O21 0.252362 0.500000 0.125898
#
# Coordination Sequence:
#
# PCOD9381542 Si02
#       7
#     8   4   8   8   8   8   8
#     4  10  18  27  44  66  87 113 145 179 215 258
#     4   7   8  10  20  38  56  80 120 161 190 224
#     4   9  17  28  43  65  91 115 140 176 220 260
#     4   7  10  19  37  58  77 103 143 180 204 239
#     4   8  14  24  37  54  78 108 141 176 214 255
#     4   8  14  25  41  62  87 113 142 174 206 248
#     4   7   9  14  25  41  61  87 122 161 196 233
#
# _framework density 22.517685
#
# number of rings (size 3 to 8) (size 9 to 14) (size 15 to 20)
#    0.000    3.923    0.000    4.154    0.000    0.923 
#    0.000    0.000    1.692    1.846    0.000    7.538 
#    0.000    0.000    0.000    5.231    0.000    2.000 
#
# Total GULP energy -290061.800343 kJ/mol
# GULP energy per Si atom -5578.111545 kJ/mol
# Density = 2.246643 g / cm^3
# Si number density = 22.517685 Si / 1000 Ang^3
#
#
#
# Elastic Constant Matrix: (Units=GPa)
#
#
# Indices 1 2 3 4 5 6 
#
# 1 94.6274 -0.1661 5.2946 0.0000 0.0000 0.0000
# 2 -0.1661 82.2154 89.3107 0.0000 0.0000 0.0000
# 3 5.2946 89.3107 234.1813 0.0000 0.0000 0.0000
# 4 0.0000 0.0000 0.0000 36.8221 0.0000 0.0000
# 5 0.0000 0.0000 0.0000 0.0000 1.1526 0.0000
# 6 0.0000 0.0000 0.0000 0.0000 0.0000 -1.2538
#
#
#
# Elastic Compliance Matrix: (Units=1/GPa)
#
#
# Indices 1 2 3 4 5 6 
#
# 1 0.010592 0.000481 -0.000423 0.000000 0.000000 0.000000
# 2 0.000481 0.020788 -0.007939 0.000000 0.000000 0.000000
# 3 -0.000423 -0.007939 0.007307 0.000000 0.000000 0.000000
# 4 0.000000 0.000000 0.000000 0.027158 0.000000 0.000000
# 5 0.000000 0.000000 0.000000 0.000000 0.867595 0.000000
# 6 0.000000 0.000000 0.000000 0.000000 0.000000 -0.797569
#
#
# Mechanical properties :
#
#
# Convention : Reuss Voigt Hill
#
# Bulk Modulus (GPa) = 43.61891 66.65584 55.13737
# Shear Modulus (GPa) = 31.39213 28.44984 29.92098
#
# Velocity S-wave (km/s) = 3.73783 3.55835 3.64919
# Velocity P-wave (km/s) = 6.16778 6.82263 6.50345
#
# Compressibility (1/GPa) = 0.02292584
#
# Stress axis : x y z
#
# Youngs Moduli (GPa) = 94.40857 48.10402 136.84608
#
# Poissons Ratio (x) = -0.02312 0.05786
# Poissons Ratio (y) = -0.04538 1.08642
# Poissons Ratio (z) = 0.03992 0.38190
#
# Static dielectric constant tensor:
#      x y z
#    x 1.872030 0.000000 0.000000 
#    y 0.000000 1.852040 0.000000 
#    z 0.000000 0.000000 1.856970 
# 
# From -- ./inp_files/30617.got.cif
#   From: 2010.05.17/outbox.cif.g08.bks.cpg/sg47_16_cif.got.tgz:30617.got - 2010.06.03 20:15:42.
