data_PCOD9381203
_publ_section_title
;
Structure prediction by ZEFSAII (Michael W. Deem and Ramdas Pophale) SiO2 
 PCOD9381203
Probable space group: P M M M
;
_chemical_formula_sum "Si O2"
_cell_formula_units_Z 60
_cell_length_a 7.399489
_cell_length_b 30.884230
_cell_length_c 13.967607
_cell_angle_alpha 90.000000
_cell_angle_beta 90.000000
_cell_angle_gamma 90.000000
_cell_volume 3191.982590
_symmetry_space_group_name_H-M "P M M M"
_symmetry_group_IT_number 47
_symmetry_cell_setting 'orthorhombic'
loop_
_space_group_symop_operation_xyz
x,y,z
-x,-y,z
x,-y,-z
-x,y,-z
-x,-y,-z
x,y,-z
-x,y,z
x,-y,z
loop_
_atom_site_type_symbol
_atom_site_label
_atom_site_fract_x
_atom_site_fract_y
_atom_site_fract_z
Si Si1 0.782143 0.953477 0.614142
Si Si2 0.793635 0.224128 0.276508
Si Si3 0.285302 0.396762 0.685794
Si Si4 0.778557 0.141560 0.611574
Si Si5 0.282648 0.306848 0.610023
Si Si6 0.779988 0.283335 0.892221
Si Si7 0.278734 0.450118 0.500000
Si Si8 0.783482 0.382832 0.106215
O O1 0.746312 0.953496 0.500000
O O2 0.720484 0.906147 0.647259
O O3 0.000000 0.953779 0.624845
O O4 0.715547 0.000000 0.652457
O O5 0.714284 0.180816 0.322211
O O6 0.794749 0.261384 0.356914
O O7 0.711868 0.249504 0.186106
O O8 0.000000 0.213251 0.249815
O O9 0.500000 0.394466 0.671713
O O10 0.215077 0.347841 0.670328
O O11 0.218843 0.426429 0.598147
O O12 0.257948 0.408932 0.796787
O O13 0.725033 0.147256 0.500000
O O14 0.000000 0.142250 0.610997
O O15 0.242085 0.316057 0.500000
O O16 0.500000 0.303518 0.619919
O O17 0.717703 0.333091 0.880113
O O18 0.000000 0.284731 0.884342
O O19 0.735009 0.270083 0.000000
O O20 0.223463 0.500000 0.500000
O O21 0.500000 0.449258 0.500000
O O22 0.000000 0.381088 0.101404
O O23 0.720875 0.397567 0.000000
#
# Coordination Sequence:
#
# PCOD9381203 Si02
#       8
#     8   8   8   8   8   8   4   8
#     4   7   9  14  24  37  58  90 120 147 191 244
#     4  10  17  25  39  56  76 104 138 169 199 234
#     4  10  18  30  49  71  92 114 146 183 214 252
#     4   8  13  19  27  45  71  94 121 161 199 231
#     4  10  19  29  39  56  86 116 136 159 197 244
#     4   8  14  24  37  54  77 104 134 166 198 234
#     4   9  18  34  55  75  95 121 149 181 224 261
#     4   9  17  30  47  67  92 120 148 179 216 255
#
# _framework density 18.797094999999999
#
# number of rings (size 3 to 8) (size 9 to 14) (size 15 to 20)
#    0.000    3.133    2.000    2.400    0.000    1.067 
#    0.000    0.333    0.000    1.600    0.000    2.800 
#    0.000    1.067    0.000   12.400    0.000    4.267 
#
# Total GULP energy -334165.814107 kJ/mol
# GULP energy per Si atom -5569.430235 kJ/mol
# Density = 1.875431 g / cm^3
# Si number density = 18.797095 Si / 1000 Ang^3
#
#
#
# Elastic Constant Matrix: (Units=GPa)
#
#
# Indices 1 2 3 4 5 6 
#
# 1 60.6277 3.3667 2.7580 0.0000 0.0000 0.0000
# 2 3.3667 95.2014 44.3419 0.0000 0.0000 0.0000
# 3 2.7580 44.3419 120.2453 0.0000 0.0000 0.0000
# 4 0.0000 0.0000 0.0000 10.8697 0.0000 0.0000
# 5 0.0000 0.0000 0.0000 0.0000 8.0361 0.0000
# 6 0.0000 0.0000 0.0000 0.0000 0.0000 -4.4293
#
#
#
# Elastic Compliance Matrix: (Units=1/GPa)
#
#
# Indices 1 2 3 4 5 6 
#
# 1 0.016530 -0.000493 -0.000198 0.000000 0.000000 0.000000
# 2 -0.000493 0.012697 -0.004671 0.000000 0.000000 0.000000
# 3 -0.000198 -0.004671 0.010043 0.000000 0.000000 0.000000
# 4 0.000000 0.000000 0.000000 0.091999 0.000000 0.000000
# 5 0.000000 0.000000 0.000000 0.000000 0.124438 0.000000
# 6 0.000000 0.000000 0.000000 0.000000 0.000000 -0.225772
#
#
# Mechanical properties :
#
#
# Convention : Reuss Voigt Hill
#
# Bulk Modulus (GPa) = 35.02771 41.88973 38.45872
# Shear Modulus (GPa) = 99.65323 17.93584 58.79454
#
# Velocity S-wave (km/s) = 7.28905 3.09233 5.59879
# Velocity P-wave (km/s) = 9.46126 5.92314 7.89301
#
# Compressibility (1/GPa) = 0.02854882
#
# Stress axis : x y z
#
# Youngs Moduli (GPa) = 60.49447 78.75865 99.56879
#
# Poissons Ratio (x) = 0.03880 0.01966
# Poissons Ratio (y) = 0.02980 0.46507
# Poissons Ratio (z) = 0.01195 0.36787
#
# Static dielectric constant tensor:
#      x y z
#    x 1.776330 0.000000 0.000000 
#    y 0.000000 1.662580 0.000000 
#    z 0.000000 0.000000 1.672970 
# 
# From -- ./inp_files/16920.got.cif
#   From: 2010.05.17/outbox.cif.g08.bks.cpg/sg47_9_cif.got.tgz:16920.got - 2010.06.03 20:15:42.
