data_PCOD9381855
_publ_section_title
;
Structure prediction by ZEFSAII (Michael W. Deem and Ramdas Pophale) SiO2 
 PCOD9381855
Probable space group: P M M M
;
_chemical_formula_sum "Si O2"
_cell_formula_units_Z 58
_cell_length_a 28.809015
_cell_length_b 14.393344
_cell_length_c 7.481491
_cell_angle_alpha 90.000000
_cell_angle_beta 90.000000
_cell_angle_gamma 90.000000
_cell_volume 3102.260568
_symmetry_space_group_name_H-M "P M M M"
_symmetry_group_IT_number 47
_symmetry_cell_setting 'orthorhombic'
loop_
_space_group_symop_operation_xyz
x,y,z
-x,-y,z
x,-y,-z
-x,y,-z
-x,-y,-z
x,y,-z
-x,y,z
x,-y,z
loop_
_atom_site_type_symbol
_atom_site_label
_atom_site_fract_x
_atom_site_fract_y
_atom_site_fract_z
Si Si1 0.049918 0.891823 0.215002
Si Si2 0.600080 0.604371 0.716463
Si Si3 0.500000 0.855656 0.500000
Si Si4 0.673157 0.893475 0.784808
Si Si5 0.707741 0.396150 0.718076
Si Si6 0.762783 0.221551 0.293937
Si Si7 0.152043 0.893937 0.288557
Si Si8 0.575332 0.805499 0.794109
O O1 0.100023 0.854157 0.268866
O O2 0.000000 0.851948 0.275419
O O3 0.050435 0.000000 0.273874
O O4 0.049376 0.891388 0.000000
O O5 0.598522 0.606890 0.500000
O O6 0.585275 0.500000 0.770662
O O7 0.653987 0.616397 0.772864
O O8 0.571983 0.693280 0.782653
O O9 0.540126 0.850505 0.656713
O O10 0.720014 0.850168 0.709156
O O11 0.627680 0.834026 0.739519
O O12 0.666966 0.000000 0.729130
O O13 0.677549 0.891237 0.000000
O O14 0.706871 0.391989 0.500000
O O15 0.722141 0.500000 0.768949
O O16 0.741370 0.315683 0.785603
O O17 0.774433 0.243860 0.500000
O O18 0.807791 0.171873 0.213158
O O19 0.161013 0.902134 0.500000
O O20 0.153418 0.000000 0.215293
O O21 0.568183 0.834629 0.000000
#
# Coordination Sequence:
#
# PCOD9381855 Si02
#       8
#     8   8   2   8   8   8   8   8
#     4   8  14  25  40  56  77 115 167 210 242 285
#     4   9  16  31  57  84 109 137 168 204 248 301
#     4  12  26  44  66  82 112 136 168 216 262 298
#     4  10  22  38  55  77 104 131 164 208 250 293
#     4   8  14  25  46  74 101 130 163 198 238 287
#     4  10  18  29  49  74 102 131 166 199 238 300
#     4   9  17  26  36  60  96 129 161 200 244 287
#     4  11  23  41  62  84 107 136 172 209 254 308
#
# _framework density 18.696045000000002
#
# number of rings (size 3 to 8) (size 9 to 14) (size 15 to 20)
#    0.000    2.621    2.069    1.862    0.966    1.931 
#    0.000    4.138    0.000    2.897    0.000    0.000 
#    0.000    0.552    0.000    6.897    0.000    1.379 
#
# Total GULP energy -322881.660207 kJ/mol
# GULP energy per Si atom -5566.925176 kJ/mol
# Density = 1.865349 g / cm^3
# Si number density = 18.696045 Si / 1000 Ang^3
#
#
#
# Elastic Constant Matrix: (Units=GPa)
#
#
# Indices 1 2 3 4 5 6 
#
# 1 66.9499 -13.4424 11.5423 0.0000 0.0000 0.0000
# 2 -13.4424 40.4122 -3.9680 0.0000 0.0000 0.0000
# 3 11.5423 -3.9680 65.1000 0.0000 0.0000 0.0000
# 4 0.0000 0.0000 0.0000 8.1441 0.0000 0.0000
# 5 0.0000 0.0000 0.0000 0.0000 19.5513 0.0000
# 6 0.0000 0.0000 0.0000 0.0000 0.0000 22.3488
#
#
#
# Elastic Compliance Matrix: (Units=1/GPa)
#
#
# Indices 1 2 3 4 5 6 
#
# 1 0.016430 0.005210 -0.002596 0.000000 0.000000 0.000000
# 2 0.005210 0.026546 0.000694 0.000000 0.000000 0.000000
# 3 -0.002596 0.000694 0.015863 0.000000 0.000000 0.000000
# 4 0.000000 0.000000 0.000000 0.122788 0.000000 0.000000
# 5 0.000000 0.000000 0.000000 0.000000 0.051148 0.000000
# 6 0.000000 0.000000 0.000000 0.000000 0.000000 0.044745
#
#
# Mechanical properties :
#
#
# Convention : Reuss Voigt Hill
#
# Bulk Modulus (GPa) = 15.27692 17.85843 16.56767
# Shear Modulus (GPa) = 17.08107 21.89751 19.48929
#
# Velocity S-wave (km/s) = 3.02589 3.42605 3.23217
# Velocity P-wave (km/s) = 4.51630 5.02226 4.77599
#
# Compressibility (1/GPa) = 0.06545823
#
# Stress axis : x y z
#
# Youngs Moduli (GPa) = 60.86362 37.67000 63.03786
#
# Poissons Ratio (x) = -0.19627 0.16362
# Poissons Ratio (y) = -0.31712 -0.04377
# Poissons Ratio (z) = 0.15797 -0.02615
#
# Static dielectric constant tensor:
#      x y z
#    x 1.655570 0.000000 0.000000 
#    y 0.000000 1.666280 0.000000 
#    z 0.000000 0.000000 1.735970 
# 
# From -- ./inp_files/13452.got.cif
#   From: 2010.05.17/outbox.cif.g08.bks.cpg/sg47_7_cif.got.tgz:13452.got - 2010.06.03 20:15:42.
