data_PCOD9381959
_publ_section_title
;
Structure prediction by ZEFSAII (Michael W. Deem and Ramdas Pophale) SiO2 
 PCOD9381959
Probable space group: P M M M
;
_chemical_formula_sum "Si O2"
_cell_formula_units_Z 52
_cell_length_a 9.270994
_cell_length_b 28.448371
_cell_length_c 12.341042
_cell_angle_alpha 90.000000
_cell_angle_beta 90.000000
_cell_angle_gamma 90.000000
_cell_volume 3254.884134
_symmetry_space_group_name_H-M "P M M M"
_symmetry_group_IT_number 47
_symmetry_cell_setting 'orthorhombic'
loop_
_space_group_symop_operation_xyz
x,y,z
-x,-y,z
x,-y,-z
-x,y,-z
-x,-y,-z
x,y,-z
-x,y,z
x,-y,z
loop_
_atom_site_type_symbol
_atom_site_label
_atom_site_fract_x
_atom_site_fract_y
_atom_site_fract_z
Si Si1 0.840804 0.055316 0.500000
Si Si2 0.834817 0.722140 0.368599
Si Si3 0.672819 0.083022 0.285711
Si Si4 0.671718 0.182189 0.371787
Si Si5 0.324666 0.000000 0.875908
Si Si6 0.665793 0.442976 0.000000
Si Si7 0.331268 0.627971 0.630455
Si Si8 0.171184 0.443903 0.220262
O O1 0.751679 0.066712 0.393624
O O2 0.000000 0.078098 0.500000
O O3 0.858801 0.000000 0.500000
O O4 0.837410 0.720863 0.500000
O O5 0.759309 0.771365 0.341251
O O6 0.742116 0.677023 0.334320
O O7 0.000000 0.719508 0.330507
O O8 0.500000 0.077962 0.297392
O O9 0.702045 0.139004 0.290146
O O10 0.717464 0.047573 0.189297
O O11 0.704419 0.170143 0.500000
O O12 0.500000 0.191575 0.368987
O O13 0.500000 0.000000 0.878451
O O14 0.273434 0.000000 0.000000
O O15 0.751827 0.429509 0.108009
O O16 0.662067 0.500000 0.000000
O O17 0.500000 0.426417 0.000000
O O18 0.321517 0.625062 0.500000
O O19 0.500000 0.626784 0.659892
O O20 0.245532 0.585492 0.685015
O O21 0.192197 0.500000 0.234860
O O22 0.000000 0.435216 0.215465
#
# Coordination Sequence:
#
# PCOD9381959 Si02
#       8
#     4   8   8   8   4   4   8   8
#     4  11  21  29  41  67 101 125 149 187 234 283
#     4   9  17  29  45  66  94 127 159 194 239 293
#     4  10  18  30  49  69  95 127 158 192 237 288
#     4   9  16  26  42  67  94 120 152 189 235 293
#     4   9  18  31  49  72  94 123 168 209 234 271
#     4   9  17  31  51  73  97 125 161 205 249 292
#     4  10  20  33  49  70  99 135 171 207 245 291
#     4  10  20  33  50  73 101 132 167 208 254 303
#
# _framework density 15.975991
#
# number of rings (size 3 to 8) (size 9 to 14) (size 15 to 20)
#    0.000    2.385    1.538    1.846    0.000    5.846 
#    0.000    1.538    0.000    0.923    2.000    0.000 
#    0.000    0.000    0.000    0.000    0.000    0.000 
#
# Total GULP energy -289595.599339 kJ/mol
# GULP energy per Si atom -5569.146141 kJ/mol
# Density = 1.593963 g / cm^3
# Si number density = 15.975991 Si / 1000 Ang^3
#
#
#
# Elastic Constant Matrix: (Units=GPa)
#
#
# Indices 1 2 3 4 5 6 
#
# 1 88.3895 72.1921 40.6389 0.0000 0.0000 0.0000
# 2 72.1921 98.4757 43.7996 0.0000 0.0000 0.0000
# 3 40.6389 43.7996 66.0011 0.0000 0.0000 0.0000
# 4 0.0000 0.0000 0.0000 3.6165 0.0000 0.0000
# 5 0.0000 0.0000 0.0000 0.0000 12.4416 0.0000
# 6 0.0000 0.0000 0.0000 0.0000 0.0000 22.0214
#
#
#
# Elastic Compliance Matrix: (Units=1/GPa)
#
#
# Indices 1 2 3 4 5 6 
#
# 1 0.029497 -0.019218 -0.005408 0.000000 0.000000 0.000000
# 2 -0.019218 0.026929 -0.006037 0.000000 0.000000 0.000000
# 3 -0.005408 -0.006037 0.022488 0.000000 0.000000 0.000000
# 4 0.000000 0.000000 0.000000 0.276514 0.000000 0.000000
# 5 0.000000 0.000000 0.000000 0.000000 0.080376 0.000000
# 6 0.000000 0.000000 0.000000 0.000000 0.000000 0.045410
#
#
# Mechanical properties :
#
#
# Convention : Reuss Voigt Hill
#
# Bulk Modulus (GPa) = 56.86496 62.90305 59.88401
# Shear Modulus (GPa) = 9.11737 14.03159 11.57448
#
# Velocity S-wave (km/s) = 2.39151 2.96682 2.69456
# Velocity P-wave (km/s) = 6.58005 7.15507 6.87357
#
# Compressibility (1/GPa) = 0.01758552
#
# Stress axis : x y z
#
# Youngs Moduli (GPa) = 33.90195 37.13483 44.46866
#
# Poissons Ratio (x) = 0.71367 0.24050
# Poissons Ratio (y) = 0.65154 0.26846
# Poissons Ratio (z) = 0.18336 0.22419
#
# Static dielectric constant tensor:
#      x y z
#    x 1.549860 0.000000 0.000000 
#    y 0.000000 1.551450 0.000000 
#    z 0.000000 0.000000 1.517970 
# 
# From -- ./inp_files/15691.got.cif
#   From: 2010.05.17/outbox.cif.g08.bks.cpg/sg47_8_cif.got.tgz:15691.got - 2010.06.03 20:15:42.
