data_PCOD9381601
_publ_section_title
;
Structure prediction by ZEFSAII (Michael W. Deem and Ramdas Pophale) SiO2 
 PCOD9381601
Probable space group: P M M M
;
_chemical_formula_sum "Si O2"
_cell_formula_units_Z 52
_cell_length_a 7.658064
_cell_length_b 19.637696
_cell_length_c 19.332721
_cell_angle_alpha 90.000000
_cell_angle_beta 90.000000
_cell_angle_gamma 90.000000
_cell_volume 2907.384747
_symmetry_space_group_name_H-M "P M M M"
_symmetry_group_IT_number 47
_symmetry_cell_setting 'orthorhombic'
loop_
_space_group_symop_operation_xyz
x,y,z
-x,-y,z
x,-y,-z
-x,y,-z
-x,-y,-z
x,y,-z
-x,y,z
x,-y,z
loop_
_atom_site_type_symbol
_atom_site_label
_atom_site_fract_x
_atom_site_fract_y
_atom_site_fract_z
Si Si1 0.713071 0.421486 0.078049
Si Si2 0.789259 0.211640 0.288693
Si Si3 0.291691 0.079270 0.500000
Si Si4 0.206120 0.424054 0.349824
Si Si5 0.213794 0.707018 0.424043
Si Si6 0.206871 0.076885 0.652918
Si Si7 0.706864 0.342770 0.788578
O O1 0.500000 0.419950 0.077386
O O2 0.762749 0.500000 0.092856
O O3 0.774388 0.371701 0.138690
O O4 0.770455 0.404463 0.000000
O O5 0.727959 0.247741 0.359615
O O6 0.725338 0.133911 0.294083
O O7 0.741264 0.263537 0.227836
O O8 0.000000 0.209958 0.290224
O O9 0.500000 0.082132 0.500000
O O10 0.228357 0.105006 0.574288
O O11 0.233613 0.000000 0.500000
O O12 0.281803 0.500000 0.350226
O O13 0.272716 0.369721 0.405785
O O14 0.223476 0.387757 0.275272
O O15 0.000000 0.429931 0.363276
O O16 0.271628 0.729028 0.500000
O O17 0.000000 0.708256 0.423651
O O18 0.000000 0.070961 0.664228
O O19 0.281760 0.000000 0.656670
O O20 0.500000 0.352613 0.788004
#
# Coordination Sequence:
#
# PCOD9381601 Si02
#       7
#     8   8   4   8   8   8   8
#     4   8  14  25  42  65  90 114 141 172 204 241
#     4   9  18  30  44  60  82 111 141 175 215 256
#     4   9  17  27  39  59  87 113 134 167 222 273
#     4   9  17  28  41  57  78 106 139 175 214 250
#     4   8  14  24  38  55  73  97 133 171 205 243
#     4   9  17  29  45  63  82 108 146 185 216 255
#     4  10  18  28  44  64  86 110 139 171 207 253
#
# _framework density 17.885489
#
# number of rings (size 3 to 8) (size 9 to 14) (size 15 to 20)
#    0.000    3.154    0.000    2.538    1.077    2.769 
#    0.000    1.538    0.000    6.000    0.000    9.692 
#    0.000    0.615    0.000    7.692    0.000    0.000 
#
# Total GULP energy -289671.757893 kJ/mol
# GULP energy per Si atom -5570.610729 kJ/mol
# Density = 1.784478 g / cm^3
# Si number density = 17.885489 Si / 1000 Ang^3
#
#
#
# Elastic Constant Matrix: (Units=GPa)
#
#
# Indices 1 2 3 4 5 6 
#
# 1 30.6574 -0.0088 -5.0228 0.0000 0.0000 0.0000
# 2 -0.0088 95.7842 39.3898 0.0000 0.0000 0.0000
# 3 -5.0228 39.3898 90.9379 0.0000 0.0000 0.0000
# 4 0.0000 0.0000 0.0000 24.1730 0.0000 0.0000
# 5 0.0000 0.0000 0.0000 0.0000 11.6919 0.0000
# 6 0.0000 0.0000 0.0000 0.0000 0.0000 7.5187
#
#
#
# Elastic Compliance Matrix: (Units=1/GPa)
#
#
# Indices 1 2 3 4 5 6 
#
# 1 0.032981 -0.000908 0.002215 0.000000 0.000000 0.000000
# 2 -0.000908 0.012728 -0.005563 0.000000 0.000000 0.000000
# 3 0.002215 -0.005563 0.013529 0.000000 0.000000 0.000000
# 4 0.000000 0.000000 0.000000 0.041368 0.000000 0.000000
# 5 0.000000 0.000000 0.000000 0.000000 0.085529 0.000000
# 6 0.000000 0.000000 0.000000 0.000000 0.000000 0.133001
#
#
# Mechanical properties :
#
#
# Convention : Reuss Voigt Hill
#
# Bulk Modulus (GPa) = 19.71403 31.78843 25.75123
# Shear Modulus (GPa) = 14.51137 20.87815 17.69476
#
# Velocity S-wave (km/s) = 2.85151 3.42032 3.14878
# Velocity P-wave (km/s) = 4.67844 5.78014 5.25822
#
# Compressibility (1/GPa) = 0.05072530
#
# Stress axis : x y z
#
# Youngs Moduli (GPa) = 30.32032 78.56790 73.91771
#
# Poissons Ratio (x) = 0.07132 -0.16372
# Poissons Ratio (y) = 0.02752 0.41122
# Poissons Ratio (z) = -0.06716 0.43709
#
# Static dielectric constant tensor:
#      x y z
#    x 1.662840 0.000000 0.000000 
#    y 0.000000 1.673630 0.000000 
#    z 0.000000 0.000000 1.600350 
# 
# From -- ./inp_files/26941.got.cif
#   From: 2010.05.17/outbox.cif.g08.bks.cpg/sg47_14_cif.got.tgz:26941.got - 2010.06.03 20:15:42.
