data_PCOD9381136
_publ_section_title
;
Structure prediction by ZEFSAII (Michael W. Deem and Ramdas Pophale) SiO2 
 PCOD9381136
Probable space group: I M A 2
;
_chemical_formula_sum "Si O2"
_cell_formula_units_Z 32
_cell_length_a 9.000000
_cell_length_b 30.000000
_cell_length_c 15.000000
_cell_angle_alpha 90.000000
_cell_angle_beta 90.000000
_cell_angle_gamma 90.000000
_cell_volume 4050.000000
_symmetry_space_group_name_H-M "I M A 2"
_symmetry_group_IT_number 46
_symmetry_cell_setting 'orthorhombic'
loop_
_space_group_symop_operation_xyz
x,y,z
-x,-y,z
1/2-x,y,z
1/2+x,-y,z
1/2+x,1/2+y,1/2+z
1/2-x,1/2-y,1/2+z
-x,1/2+y,1/2+z
x,1/2-y,1/2+z
loop_
_atom_site_type_symbol
_atom_site_label
_atom_site_fract_x
_atom_site_fract_y
_atom_site_fract_z
Si Si1 0.922777 0.682584 0.862160
Si Si2 0.427033 0.868523 0.523997
Si Si3 0.577903 0.626970 0.679900
Si Si4 0.926882 0.286321 0.153657
Si Si5 0.571624 0.795949 0.044123
Si Si6 0.929176 0.547530 0.966163
Si Si7 0.072010 0.952869 0.271275
Si Si8 0.927226 0.277309 0.357373
O O1 0.750000 0.693433 0.882220
O O2 0.926673 0.658080 0.767644
O O3 0.023829 0.725969 0.859582
O O4 0.992434 0.652205 0.938161
O O5 0.250000 0.874045 0.509527
O O6 0.448861 0.832659 0.601982
O O7 0.507535 0.915736 0.533657
O O8 0.750000 0.612286 0.668989
O O9 0.535496 0.658928 0.598260
O O10 0.473799 0.585339 0.701947
O O11 0.750000 0.276010 0.152512
O O12 0.972156 0.291746 0.257135
O O13 0.007535 0.246398 0.099878
O O14 0.750000 0.791532 0.041104
O O15 0.505822 0.797584 0.944487
O O16 0.750000 0.546840 0.962497
O O17 0.000000 0.500000 0.989142
O O18 0.995087 0.557683 0.867028
O O19 0.250000 0.956118 0.282157
O O20 0.000000 0.000000 0.244198
O O21 0.750000 0.282279 0.366344
#
# Coordination Sequence:
#
# PCOD9381136 Si02
#       8
#     8   8   8   8   8   8   8   8
#     4  11  20  31  49  73 103 139 175 214 255 300
#     4  11  21  34  51  75 102 137 176 214 257 305
#     4  10  21  35  50  73 104 137 175 214 254 307
#     4  10  22  36  52  73 102 138 176 215 256 306
#     4  11  22  35  53  75 102 136 176 219 260 304
#     4  11  21  34  51  74 104 137 170 211 255 308
#     4  11  21  33  52  75 103 137 170 210 255 308
#     4  11  22  36  51  72 104 139 177 219 259 306
#
# _framework density 7.9012349999999998
#
# number of rings (size 3 to 8) (size 9 to 14) (size 15 to 20)
#    0.000    1.250    3.750    4.500    0.000    2.500 
#    0.000    0.000    0.000    0.000    0.000    0.875 
#    0.000    6.000    0.000    0.000    0.000    0.000 
#
# Total GULP energy -178582.082654 kJ/mol
# GULP energy per Si atom -5580.690083 kJ/mol
# Density = 0.788325 g / cm^3
# Si number density = 7.901235 Si / 1000 Ang^3
#
#
#
# Elastic Constant Matrix: (Units=GPa)
#
#
# Indices 1 2 3 4 5 6 
#
# 1 47.5780 -0.6766 7.2988 0.0001 0.0000 0.0001
# 2 -0.6766 48.9365 5.9490 0.0000 0.0001 0.0001
# 3 7.2988 5.9490 49.4088 0.0001 0.0001 0.0001
# 4 0.0001 0.0000 0.0001 14.8193 0.0000 0.0000
# 5 0.0000 0.0001 0.0001 0.0000 18.1489 0.0000
# 6 0.0001 0.0001 0.0001 0.0000 0.0000 24.8468
#
#
#
# Elastic Compliance Matrix: (Units=1/GPa)
#
#
# Indices 1 2 3 4 5 6 
#
# 1 0.021529 0.000694 -0.003264 0.000000 0.000000 0.000000
# 2 0.000694 0.020761 -0.002602 0.000000 0.000000 0.000000
# 3 -0.003264 -0.002602 0.021035 0.000000 0.000000 0.000000
# 4 0.000000 0.000000 0.000000 0.067480 0.000000 0.000000
# 5 0.000000 0.000000 0.000000 0.000000 0.055100 0.000000
# 6 0.000000 0.000000 0.000000 0.000000 0.000000 0.040247
#
#
# Mechanical properties :
#
#
# Convention : Reuss Voigt Hill
#
# Bulk Modulus (GPa) = 18.87481 19.00730 18.94106
# Shear Modulus (GPa) = 19.67313 20.45313 20.06313
#
# Velocity S-wave (km/s) = 3.53220 3.60154 3.56704
# Velocity P-wave (km/s) = 5.34840 5.41747 5.38304
#
# Compressibility (1/GPa) = 0.05298067
#
# Stress axis : x y z
#
# Youngs Moduli (GPa) = 46.44961 48.16822 47.54034
#
# Poissons Ratio (x) = -0.03345 0.15517
# Poissons Ratio (y) = -0.03226 0.12371
# Poissons Ratio (z) = 0.15161 0.12534
#
# Static dielectric constant tensor:
#      x y z
#    x 1.528270 0.000000 0.000000 
#    y 0.000000 1.596850 0.000000 
#    z 0.000000 0.000000 1.551770 
# 
# From -- ./inp_files/14722.got.cif
#   From: 2010.05.17/outbox.ucp.g08.bks.cvg/sg46_8_cif.got.tgz:14722.got - 2010.06.11 16:34:52.
