data_PCOD9381057
_publ_section_title
;
Structure prediction by ZEFSAII (Michael W. Deem and Ramdas Pophale) SiO2 
 PCOD9381057
Probable space group: I M A 2
;
_chemical_formula_sum "Si O2"
_cell_formula_units_Z 64
_cell_length_a 14.843884
_cell_length_b 7.059043
_cell_length_c 22.938181
_cell_angle_alpha 90.000000
_cell_angle_beta 90.000000
_cell_angle_gamma 90.000000
_cell_volume 2403.545537
_symmetry_space_group_name_H-M "I M A 2"
_symmetry_group_IT_number 46
_symmetry_cell_setting 'orthorhombic'
loop_
_space_group_symop_operation_xyz
x,y,z
-x,-y,z
1/2-x,y,z
1/2+x,-y,z
1/2+x,1/2+y,1/2+z
1/2-x,1/2-y,1/2+z
-x,1/2+y,1/2+z
x,1/2-y,1/2+z
loop_
_atom_site_type_symbol
_atom_site_label
_atom_site_fract_x
_atom_site_fract_y
_atom_site_fract_z
Si Si1 0.893021 0.526687 0.467150
Si Si2 0.104097 0.443065 0.343902
Si Si3 0.856674 0.501198 0.845861
Si Si4 0.356674 0.001198 0.095157
Si Si5 0.604011 0.570213 0.220509
Si Si6 0.895903 0.556935 0.097116
Si Si7 0.141275 0.978527 0.220509
Si Si8 0.393021 0.026687 0.473868
O O1 0.855056 0.475298 0.403391
O O2 0.871230 0.431087 0.528962
O O3 0.870185 0.750000 0.470509
O O4 0.000000 0.500000 0.462614
O O5 0.105395 0.214945 0.347520
O O6 0.145840 0.494562 0.281636
O O7 0.000000 0.500000 0.342073
O O8 0.750000 0.516964 0.839198
O O9 0.891784 0.409741 0.784860
O O10 0.871231 0.431087 0.912056
O O11 0.250000 0.016966 0.101820
O O12 0.394606 0.214945 0.093498
O O13 0.391783 0.909741 0.156158
O O14 0.500000 0.500000 0.220509
O O15 0.645840 0.505439 0.159382
O O16 0.615000 0.798212 0.220509
O O17 0.000000 0.500000 0.098945
O O18 0.855056 0.475298 0.037627
O O19 0.250000 0.958851 0.220509
O O20 0.500000 0.000000 0.478404
#
# Coordination Sequence:
#
# PCOD9381057 Si02
#       8
#     8   8   8   8   8   8   8   8
#     4   9  17  28  42  61  86 115 142 175 216 255
#     4   8  14  23  36  56  81 107 135 169 209 248
#     4   9  16  26  42  62  83 109 143 179 213 253
#     4   9  16  26  42  62  83 109 143 179 213 253
#     4   8  12  20  34  51  74 105 136 164 200 248
#     4   8  14  23  36  56  81 107 135 169 209 248
#     4   8  14  24  37  57  84 107 131 174 222 250
#     4   9  17  28  42  61  86 115 142 175 216 255
#
# _framework density 26.627327999999999
#
# number of rings (size 3 to 8) (size 9 to 14) (size 15 to 20)
#    0.000    3.500    0.000    0.000    0.000    4.500 
#    0.000    0.625    0.000    0.750    0.000    5.250 
#    0.000    2.000    0.000  178.750    0.000    0.750 
#
# Total GULP energy -178376.908654 kJ/mol
# GULP energy per Si atom -5574.278395 kJ/mol
# Density = 2.656672 g / cm^3
# Si number density = 26.627328 Si / 1000 Ang^3
#
#
#
# Elastic Constant Matrix: (Units=GPa)
#
#
# Indices 1 2 3 4 5 6 
#
# 1 89.2408 -24.4532 10.2432 0.0000 0.0000 0.0000
# 2 -24.4532 108.0434 8.0842 0.0000 0.0000 0.0000
# 3 10.2432 8.0842 417.5113 0.0000 0.0000 0.0000
# 4 0.0000 0.0000 0.0000 -23.9708 0.0000 0.0000
# 5 0.0000 0.0000 0.0000 0.0000 55.3629 0.0000
# 6 0.0000 0.0000 0.0000 0.0000 0.0000 66.4334
#
#
#
# Elastic Compliance Matrix: (Units=1/GPa)
#
#
# Indices 1 2 3 4 5 6 
#
# 1 0.011997 0.002741 -0.000347 0.000000 0.000000 0.000000
# 2 0.002741 0.009895 -0.000259 0.000000 0.000000 0.000000
# 3 -0.000347 -0.000259 0.002409 0.000000 0.000000 0.000000
# 4 0.000000 0.000000 0.000000 -0.041717 0.000000 0.000000
# 5 0.000000 0.000000 0.000000 0.000000 0.018063 0.000000
# 6 0.000000 0.000000 0.000000 0.000000 0.000000 0.015053
#
#
# Mechanical properties :
#
#
# Convention : Reuss Voigt Hill
#
# Bulk Modulus (GPa) = 35.00120 66.94930 50.97525
# Shear Modulus (GPa) = 238.63914 60.95986 149.79950
#
# Velocity S-wave (km/s) = 9.47715 4.78993 7.50866
# Velocity P-wave (km/s) = 11.52947 7.46920 9.71384
#
# Compressibility (1/GPa) = 0.02857045
#
# Stress axis : x y z
#
# Youngs Moduli (GPa) = 83.35674 101.05796 415.16517
#
# Poissons Ratio (x) = -0.27702 0.14423
# Poissons Ratio (y) = -0.22849 0.10747
# Poissons Ratio (z) = 0.02896 0.02616
#
# Static dielectric constant tensor:
#      x y z
#    x 1.851310 0.000000 0.000000 
#    y 0.000000 2.014400 0.000000 
#    z 0.000000 0.000000 2.266480 
# 
# From -- ./inp_files/23522.got.cif
#   From: 2010.05.17/outbox.cif.g08.bks.cpg/sg46_12_cif.got.tgz:23522.got - 2010.06.03 19:58:25.
