data_PCOD9381637
_publ_section_title
;
Structure prediction by ZEFSAII (Michael W. Deem and Ramdas Pophale) SiO2 
 PCOD9381637
Probable space group: P M M M
;
_chemical_formula_sum "Si O2"
_cell_formula_units_Z 64
_cell_length_a 14.673734
_cell_length_b 29.904097
_cell_length_c 8.989166
_cell_angle_alpha 90.000000
_cell_angle_beta 90.000000
_cell_angle_gamma 90.000000
_cell_volume 3944.488873
_symmetry_space_group_name_H-M "P M M M"
_symmetry_group_IT_number 47
_symmetry_cell_setting 'orthorhombic'
loop_
_space_group_symop_operation_xyz
x,y,z
-x,-y,z
x,-y,-z
-x,y,-z
-x,-y,-z
x,y,-z
-x,y,z
x,-y,z
loop_
_atom_site_type_symbol
_atom_site_label
_atom_site_fract_x
_atom_site_fract_y
_atom_site_fract_z
Si Si1 0.225653 0.049955 0.822763
Si Si2 0.394055 0.092376 0.322250
Si Si3 0.389703 0.548983 0.824979
Si Si4 0.896963 0.771491 0.319057
Si Si5 0.109279 0.872798 0.674285
Si Si6 0.609228 0.187402 0.173568
Si Si7 0.393812 0.359002 0.678954
Si Si8 0.287586 0.270274 0.319876
O O1 0.324291 0.058119 0.750463
O O2 0.160304 0.088703 0.762264
O O3 0.192482 0.000000 0.784609
O O4 0.232870 0.053374 0.000000
O O5 0.385217 0.092343 0.500000
O O6 0.500000 0.083644 0.284578
O O7 0.369556 0.141406 0.258819
O O8 0.500000 0.548495 0.812108
O O9 0.357603 0.500000 0.770783
O O10 0.359807 0.593571 0.741353
O O11 0.368418 0.552381 0.000000
O O12 0.900077 0.772733 0.500000
O O13 0.870449 0.822117 0.273102
O O14 0.817912 0.737171 0.276838
O O15 0.000000 0.761744 0.267778
O O16 0.135190 0.875910 0.500000
O O17 0.000000 0.877859 0.683925
O O18 0.500000 0.193513 0.182034
O O19 0.657229 0.229262 0.249869
O O20 0.634631 0.183579 0.000000
O O21 0.392926 0.360904 0.500000
O O22 0.500000 0.352283 0.725028
O O23 0.332645 0.317053 0.726611
O O24 0.293854 0.267532 0.500000
#
# Coordination Sequence:
#
# PCOD9381637 Si02
#       8
#     8   8   8   8   8   8   8   8
#     4  11  24  38  52  73 100 126 150 182 228 279
#     4  10  21  37  56  74  92 119 156 194 228 266
#     4   8  14  25  40  56  76 109 154 196 230 268
#     4   8  15  29  49  71  91 113 146 186 224 262
#     4   9  18  34  56  78  97 120 154 193 229 270
#     4  10  20  32  47  69  96 124 153 185 223 268
#     4   9  17  26  36  57  90 123 154 188 226 268
#     4  10  18  28  45  67  93 125 157 189 225 268
#
# _framework density 16.225169999999999
#
# number of rings (size 3 to 8) (size 9 to 14) (size 15 to 20)
#    0.000    2.625    0.000    3.375    0.000    5.500 
#    0.000    5.000    0.000    1.125    0.000    0.000 
#    0.000    0.500    0.000    6.250    0.000    1.250 
#
# Total GULP energy -356830.433871 kJ/mol
# GULP energy per Si atom -5575.475529 kJ/mol
# Density = 1.618824 g / cm^3
# Si number density = 16.225170 Si / 1000 Ang^3
#
#
#
# Elastic Constant Matrix: (Units=GPa)
#
#
# Indices 1 2 3 4 5 6 
#
# 1 55.2490 57.2575 20.0500 0.0000 0.0000 0.0000
# 2 57.2575 110.4345 28.5294 0.0000 0.0000 0.0000
# 3 20.0500 28.5294 26.6213 0.0000 0.0000 0.0000
# 4 0.0000 0.0000 0.0000 36.7806 0.0000 0.0000
# 5 0.0000 0.0000 0.0000 0.0000 13.3733 0.0000
# 6 0.0000 0.0000 0.0000 0.0000 0.0000 16.9666
#
#
#
# Elastic Compliance Matrix: (Units=1/GPa)
#
#
# Indices 1 2 3 4 5 6 
#
# 1 0.041449 -0.018565 -0.011321 0.000000 0.000000 0.000000
# 2 -0.018565 0.020838 -0.008349 0.000000 0.000000 0.000000
# 3 -0.011321 -0.008349 0.055037 0.000000 0.000000 0.000000
# 4 0.000000 0.000000 0.000000 0.027188 0.000000 0.000000
# 5 0.000000 0.000000 0.000000 0.000000 0.074776 0.000000
# 6 0.000000 0.000000 0.000000 0.000000 0.000000 0.058939
#
#
# Mechanical properties :
#
#
# Convention : Reuss Voigt Hill
#
# Bulk Modulus (GPa) = 24.47772 44.88650 34.68211
# Shear Modulus (GPa) = 13.57534 19.18864 16.38199
#
# Velocity S-wave (km/s) = 2.89569 3.44269 3.18097
# Velocity P-wave (km/s) = 5.12826 6.59755 5.90875
#
# Compressibility (1/GPa) = 0.04085348
#
# Stress axis : x y z
#
# Youngs Moduli (GPa) = 24.12628 47.99036 18.16944
#
# Poissons Ratio (x) = 0.89096 0.20570
# Poissons Ratio (y) = 0.44791 0.15169
# Poissons Ratio (z) = 0.27314 0.40065
#
# Static dielectric constant tensor:
#      x y z
#    x 1.551760 0.000000 0.000000 
#    y 0.000000 1.540580 0.000000 
#    z 0.000000 0.000000 1.539920 
# 
# From -- ./inp_files/8345.got.cif
#   From: 2010.05.17/outbox.cif.g08.bks.cpg/sg47_5_cif.got.tgz:8345.got - 2010.06.03 20:15:42.
