data_PCOD9381565
_publ_section_title
;
Structure prediction by ZEFSAII (Michael W. Deem and Ramdas Pophale) SiO2 
 PCOD9381565
Probable space group: P M M M
;
_chemical_formula_sum "Si O2"
_cell_formula_units_Z 56
_cell_length_a 18.204980
_cell_length_b 15.873989
_cell_length_c 14.054787
_cell_angle_alpha 90.000000
_cell_angle_beta 90.000000
_cell_angle_gamma 90.000000
_cell_volume 4061.631789
_symmetry_space_group_name_H-M "P M M M"
_symmetry_group_IT_number 47
_symmetry_cell_setting 'orthorhombic'
loop_
_space_group_symop_operation_xyz
x,y,z
-x,-y,z
x,-y,-z
-x,y,-z
-x,-y,-z
x,y,-z
-x,y,z
x,-y,z
loop_
_atom_site_type_symbol
_atom_site_label
_atom_site_fract_x
_atom_site_fract_y
_atom_site_fract_z
Si Si1 0.149782 0.332656 0.703307
Si Si2 0.352776 0.905855 0.385444
Si Si3 0.186279 0.845657 0.385863
Si Si4 0.293795 0.596052 0.613375
Si Si5 0.417705 0.730157 0.615900
Si Si6 0.917101 0.000000 0.384711
Si Si7 0.087225 0.600091 0.889352
Si Si8 0.000000 0.598086 0.613904
O O1 0.171153 0.238831 0.671738
O O2 0.217234 0.389163 0.666508
O O3 0.134268 0.347560 0.814375
O O4 0.073851 0.359287 0.652506
O O5 0.362427 0.909134 0.500000
O O6 0.267456 0.882798 0.369294
O O7 0.399033 0.825269 0.351792
O O8 0.369916 0.000000 0.349032
O O9 0.180825 0.828235 0.500000
O O10 0.127578 0.916701 0.358807
O O11 0.280882 0.608652 0.500000
O O12 0.319334 0.500000 0.626681
O O13 0.354755 0.664091 0.644441
O O14 0.416311 0.730799 0.500000
O O15 0.500000 0.705986 0.645224
O O16 0.919220 0.000000 0.500000
O O17 0.000000 0.000000 0.348726
O O18 0.098902 0.500000 0.872917
O O19 0.000000 0.615653 0.874307
O O20 0.103416 0.617539 0.000000
O O21 0.000000 0.500000 0.643705
O O22 0.000000 0.601999 0.500000
#
# Coordination Sequence:
#
# PCOD9381565 Si02
#       8
#     8   8   8   8   8   4   8   4
#     4  12  20  29  45  64  85 113 150 183 221 261
#     4   9  15  26  42  57  78 112 149 183 220 256
#     4  10  18  28  41  59  86 119 148 179 218 261
#     4  10  19  29  41  58  85 121 152 177 209 257
#     4   9  17  28  40  57  82 113 152 190 217 249
#     4   9  18  28  38  54  80 116 154 184 211 250
#     4   9  18  33  49  63  82 109 143 185 229 266
#     4  11  22  30  37  58  92 120 142 174 213 257
#
# _framework density 13.787561999999999
#
# number of rings (size 3 to 8) (size 9 to 14) (size 15 to 20)
#    0.000    2.143    2.857    3.000    1.000    1.714 
#    0.000    2.857    0.000    0.000    0.000    0.500 
#    0.000    2.286    0.000    3.000    0.000    1.857 
#
# Total GULP energy -312068.585239 kJ/mol
# GULP energy per Si atom -5572.653308 kJ/mol
# Density = 1.375618 g / cm^3
# Si number density = 13.787562 Si / 1000 Ang^3
#
#
#
# Elastic Constant Matrix: (Units=GPa)
#
#
# Indices 1 2 3 4 5 6 
#
# 1 73.3859 25.4550 15.9887 0.0000 0.0000 0.0000
# 2 25.4550 82.8213 24.6894 0.0000 0.0000 0.0000
# 3 15.9887 24.6894 42.7331 0.0000 0.0000 0.0000
# 4 0.0000 0.0000 0.0000 7.7486 0.0000 0.0000
# 5 0.0000 0.0000 0.0000 0.0000 5.8926 0.0000
# 6 0.0000 0.0000 0.0000 0.0000 0.0000 12.5149
#
#
#
# Elastic Compliance Matrix: (Units=1/GPa)
#
#
# Indices 1 2 3 4 5 6 
#
# 1 0.015731 -0.003721 -0.003736 0.000000 0.000000 0.000000
# 2 -0.003721 0.015467 -0.007544 0.000000 0.000000 0.000000
# 3 -0.003736 -0.007544 0.029157 0.000000 0.000000 0.000000
# 4 0.000000 0.000000 0.000000 0.129056 0.000000 0.000000
# 5 0.000000 0.000000 0.000000 0.000000 0.169705 0.000000
# 6 0.000000 0.000000 0.000000 0.000000 0.000000 0.079905
#
#
# Mechanical properties :
#
#
# Convention : Reuss Voigt Hill
#
# Bulk Modulus (GPa) = 32.94508 36.80072 34.87290
# Shear Modulus (GPa) = 10.43534 14.08503 12.26018
#
# Velocity S-wave (km/s) = 2.75410 3.19968 2.98521
# Velocity P-wave (km/s) = 5.83610 6.35608 6.10163
#
# Compressibility (1/GPa) = 0.03035355
#
# Stress axis : x y z
#
# Youngs Moduli (GPa) = 63.56741 64.65487 34.29672
#
# Poissons Ratio (x) = 0.24060 0.12813
# Poissons Ratio (y) = 0.23655 0.25872
# Poissons Ratio (z) = 0.23748 0.48774
#
# Static dielectric constant tensor:
#      x y z
#    x 1.455120 0.000000 0.000000 
#    y 0.000000 1.472440 0.000000 
#    z 0.000000 0.000000 1.426100 
# 
# From -- ./inp_files/24740.got.cif
#   From: 2010.05.17/outbox.cif.g08.bks.cpg/sg47_13_cif.got.tgz:24740.got - 2010.06.03 20:15:42.
