data_PCOD9381655
_publ_section_title
;
Structure prediction by ZEFSAII (Michael W. Deem and Ramdas Pophale) SiO2 
 PCOD9381655
Probable space group: P M M M
;
_chemical_formula_sum "Si O2"
_cell_formula_units_Z 48
_cell_length_a 7.415288
_cell_length_b 20.289899
_cell_length_c 14.454335
_cell_angle_alpha 90.000000
_cell_angle_beta 90.000000
_cell_angle_gamma 90.000000
_cell_volume 2174.733398
_symmetry_space_group_name_H-M "P M M M"
_symmetry_group_IT_number 47
_symmetry_cell_setting 'orthorhombic'
loop_
_space_group_symop_operation_xyz
x,y,z
-x,-y,z
x,-y,-z
-x,y,-z
-x,-y,-z
x,y,-z
-x,y,z
x,-y,z
loop_
_atom_site_type_symbol
_atom_site_label
_atom_site_fract_x
_atom_site_fract_y
_atom_site_fract_z
Si Si1 0.280041 0.423098 0.603043
Si Si2 0.711094 0.928001 0.887548
Si Si3 0.298839 0.679806 0.252986
Si Si4 0.792003 0.213640 0.394220
Si Si5 0.716704 0.070052 0.391251
Si Si6 0.279050 0.217339 0.107647
O O1 0.223380 0.399300 0.500000
O O2 0.500000 0.418971 0.603885
O O3 0.232368 0.500000 0.610334
O O4 0.214549 0.380696 0.690224
O O5 0.500000 0.928912 0.858938
O O6 0.783311 0.855848 0.860802
O O7 0.787140 0.000000 0.860924
O O8 0.714216 0.926771 0.000000
O O9 0.500000 0.658968 0.222922
O O10 0.311450 0.735723 0.331643
O O11 0.214709 0.721141 0.168837
O O12 0.724887 0.212494 0.500000
O O13 0.781908 0.139554 0.355260
O O14 0.000000 0.233941 0.395124
O O15 0.767814 0.069418 0.500000
O O16 0.500000 0.071135 0.386634
O O17 0.777980 0.000000 0.351449
O O18 0.500000 0.216096 0.114021
O O19 0.232906 0.225397 0.000000
#
# Coordination Sequence:
#
# PCOD9381655 Si02
#       6
#     8   8   8   8   8   8
#     4   8  14  25  42  65  90 114 144 183 223 265
#     4   7   9  15  29  48  72 104 137 167 204 252
#     4  10  18  28  46  68  88 114 148 185 224 268
#     4  10  20  31  43  62  90 121 149 182 228 278
#     4   8  14  26  44  63  83 112 153 196 229 259
#     4   8  14  24  38  59  86 113 143 182 228 271
#
# _framework density 22.071670999999998
#
# number of rings (size 3 to 8) (size 9 to 14) (size 15 to 20)
#    0.000    3.500    0.000    3.500    0.000    2.000 
#    0.000    2.500    0.000    4.500    0.000    5.833 
#    0.000    0.000    0.000    7.167    0.000    7.500 
#
# Total GULP energy -267555.335683 kJ/mol
# GULP energy per Si atom -5574.069493 kJ/mol
# Density = 2.202144 g / cm^3
# Si number density = 22.071671 Si / 1000 Ang^3
#
#
#
# Elastic Constant Matrix: (Units=GPa)
#
#
# Indices 1 2 3 4 5 6 
#
# 1 70.8381 2.2791 0.2844 0.0000 0.0000 0.0000
# 2 2.2791 123.2122 58.8123 0.0000 0.0000 0.0000
# 3 0.2844 58.8123 121.5281 0.0000 0.0000 0.0000
# 4 0.0000 0.0000 0.0000 83.9443 0.0000 0.0000
# 5 0.0000 0.0000 0.0000 0.0000 -49.8523 0.0000
# 6 0.0000 0.0000 0.0000 0.0000 0.0000 24.4769
#
#
#
# Elastic Compliance Matrix: (Units=1/GPa)
#
#
# Indices 1 2 3 4 5 6 
#
# 1 0.014126 -0.000319 0.000121 0.000000 0.000000 0.000000
# 2 -0.000319 0.010561 -0.005110 0.000000 0.000000 0.000000
# 3 0.000121 -0.005110 0.010701 0.000000 0.000000 0.000000
# 4 0.000000 0.000000 0.000000 0.011913 0.000000 0.000000
# 5 0.000000 0.000000 0.000000 0.000000 -0.020059 0.000000
# 6 0.000000 0.000000 0.000000 0.000000 0.000000 0.040855
#
#
# Mechanical properties :
#
#
# Convention : Reuss Voigt Hill
#
# Bulk Modulus (GPa) = 40.36671 48.70334 44.53502
# Shear Modulus (GPa) = 57.49037 28.66061 43.07549
#
# Velocity S-wave (km/s) = 5.10918 3.60741 4.42251
# Velocity P-wave (km/s) = 7.28927 6.28213 6.80436
#
# Compressibility (1/GPa) = 0.02477289
#
# Stress axis : x y z
#
# Youngs Moduli (GPa) = 70.78899 94.68582 93.44635
#
# Poissons Ratio (x) = 0.03023 -0.01135
# Poissons Ratio (y) = 0.02260 0.47754
# Poissons Ratio (z) = -0.00860 0.48387
#
# Static dielectric constant tensor:
#      x y z
#    x 1.949670 0.000000 0.000000 
#    y 0.000000 1.823240 0.000000 
#    z 0.000000 0.000000 1.854460 
# 
# From -- ./inp_files/21288.got.cif
#   From: 2010.05.17/outbox.cif.g08.bks.cpg/sg47_11_cif.got.tgz:21288.got - 2010.06.03 20:15:42.
