data_PCOD9381828
_publ_section_title
;
Structure prediction by ZEFSAII (Michael W. Deem and Ramdas Pophale) SiO2 
 PCOD9381828
Probable space group: P M M M
;
_chemical_formula_sum "Si O2"
_cell_formula_units_Z 52
_cell_length_a 12.272929
_cell_length_b 28.960957
_cell_length_c 7.905592
_cell_angle_alpha 90.000000
_cell_angle_beta 90.000000
_cell_angle_gamma 90.000000
_cell_volume 2809.930172
_symmetry_space_group_name_H-M "P M M M"
_symmetry_group_IT_number 47
_symmetry_cell_setting 'orthorhombic'
loop_
_space_group_symop_operation_xyz
x,y,z
-x,-y,z
x,-y,-z
-x,y,-z
-x,-y,-z
x,y,-z
-x,y,z
x,-y,z
loop_
_atom_site_type_symbol
_atom_site_label
_atom_site_fract_x
_atom_site_fract_y
_atom_site_fract_z
Si Si1 0.500000 0.295937 0.793691
Si Si2 0.740596 0.589712 0.707794
Si Si3 0.500000 0.598445 0.697293
Si Si4 0.875830 0.500000 0.706435
Si Si5 0.876977 0.678000 0.700697
Si Si6 0.374466 0.849421 0.300244
Si Si7 0.628011 0.950217 0.796337
Si Si8 0.280395 0.755171 0.800849
O O1 0.500000 0.346260 0.714160
O O2 0.607962 0.268858 0.738766
O O3 0.500000 0.299262 0.000000
O O4 0.736233 0.591182 0.500000
O O5 0.616638 0.583638 0.769607
O O6 0.813472 0.546274 0.757845
O O7 0.796752 0.637516 0.766040
O O8 0.500000 0.584585 0.500000
O O9 0.877128 0.500000 0.500000
O O10 0.000000 0.500000 0.764856
O O11 0.884732 0.669937 0.500000
O O12 0.821087 0.727641 0.725432
O O13 0.000000 0.675460 0.770299
O O14 0.381812 0.843077 0.500000
O O15 0.500000 0.845656 0.230378
O O16 0.330597 0.900961 0.265907
O O17 0.297769 0.809220 0.231083
O O18 0.500000 0.950403 0.747308
O O19 0.674142 0.000000 0.738891
O O20 0.632795 0.949666 0.000000
O O21 0.274223 0.747581 0.000000
#
# Coordination Sequence:
#
# PCOD9381828 Si02
#       8
#     4   8   4   4   8   8   8   8
#     4  10  20  32  47  69  94 125 160 196 237 289
#     4   9  17  28  45  70  97 127 157 191 239 291
#     4  10  18  29  48  72  98 123 153 198 243 288
#     4   9  16  27  43  65  97 131 160 194 239 290
#     4  10  20  34  51  71  96 125 159 198 241 291
#     4  10  19  28  42  66  95 127 163 204 248 294
#     4   8  14  25  40  58  86 127 169 205 242 287
#     4  11  21  33  49  69  95 126 162 202 242 292
#
# _framework density 18.505797999999999
#
# number of rings (size 3 to 8) (size 9 to 14) (size 15 to 20)
#    0.000    2.385    2.308    1.846    0.000    4.000 
#    0.000    3.077    0.000    0.000    0.000    2.692 
#    0.000    4.308    0.000    6.462    0.000    3.077 
#
# Total GULP energy -289887.502019 kJ/mol
# GULP energy per Si atom -5574.759654 kJ/mol
# Density = 1.846368 g / cm^3
# Si number density = 18.505798 Si / 1000 Ang^3
#
#
#
# Elastic Constant Matrix: (Units=GPa)
#
#
# Indices 1 2 3 4 5 6 
#
# 1 129.6774 57.8603 6.3619 0.0000 0.0000 0.0000
# 2 57.8603 113.6869 -7.2739 0.0000 0.0000 0.0000
# 3 6.3619 -7.2739 14.7977 0.0000 0.0000 0.0000
# 4 0.0000 0.0000 0.0000 40.0049 0.0000 0.0000
# 5 0.0000 0.0000 0.0000 0.0000 7.2671 0.0000
# 6 0.0000 0.0000 0.0000 0.0000 0.0000 5.8705
#
#
#
# Elastic Compliance Matrix: (Units=1/GPa)
#
#
# Indices 1 2 3 4 5 6 
#
# 1 0.010734 -0.005945 -0.007537 0.000000 0.000000 0.000000
# 2 -0.005945 0.012375 0.008639 0.000000 0.000000 0.000000
# 3 -0.007537 0.008639 0.075065 0.000000 0.000000 0.000000
# 4 0.000000 0.000000 0.000000 0.024997 0.000000 0.000000
# 5 0.000000 0.000000 0.000000 0.000000 0.137606 0.000000
# 6 0.000000 0.000000 0.000000 0.000000 0.000000 0.170343
#
#
# Mechanical properties :
#
#
# Convention : Reuss Voigt Hill
#
# Bulk Modulus (GPa) = 11.30118 41.33984 26.32051
# Shear Modulus (GPa) = 10.63149 24.04277 17.33713
#
# Velocity S-wave (km/s) = 2.39946 3.60835 3.06412
# Velocity P-wave (km/s) = 3.71438 6.30457 5.17418
#
# Compressibility (1/GPa) = 0.08848633
#
# Stress axis : x y z
#
# Youngs Moduli (GPa) = 93.16305 80.81079 13.32180
#
# Poissons Ratio (x) = 0.48044 0.10041
# Poissons Ratio (y) = 0.55387 -0.11508
# Poissons Ratio (z) = 0.70218 -0.69811
#
# Static dielectric constant tensor:
#      x y z
#    x 1.645080 0.000000 0.000000 
#    y 0.000000 1.649850 0.000000 
#    z 0.000000 0.000000 1.670420 
# 
# From -- ./inp_files/4607.got.cif
#   From: 2010.05.17/outbox.cif.g08.bks.cpg/sg47_3_cif.got.tgz:4607.got - 2010.06.03 20:15:42.
