data_PCOD9381654
_publ_section_title
;
Structure prediction by ZEFSAII (Michael W. Deem and Ramdas Pophale) SiO2 
 PCOD9381654
Probable space group: P M M M
;
_chemical_formula_sum "Si O2"
_cell_formula_units_Z 56
_cell_length_a 19.832682
_cell_length_b 7.606047
_cell_length_c 19.482761
_cell_angle_alpha 90.000000
_cell_angle_beta 90.000000
_cell_angle_gamma 90.000000
_cell_volume 2938.941599
_symmetry_space_group_name_H-M "P M M M"
_symmetry_group_IT_number 47
_symmetry_cell_setting 'orthorhombic'
loop_
_space_group_symop_operation_xyz
x,y,z
-x,-y,z
x,-y,-z
-x,y,-z
-x,-y,-z
x,y,-z
-x,y,z
x,-y,z
loop_
_atom_site_type_symbol
_atom_site_label
_atom_site_fract_x
_atom_site_fract_y
_atom_site_fract_z
Si Si1 0.925333 0.285733 0.852852
Si Si2 0.212675 0.284229 0.922154
Si Si3 0.219710 0.206813 0.665438
Si Si4 0.656439 0.788213 0.576658
Si Si5 0.299548 0.704030 0.797353
Si Si6 0.925924 0.711610 0.306398
Si Si7 0.424629 0.289316 0.288609
O O1 0.924819 0.500000 0.853036
O O2 0.861667 0.228085 0.897082
O O3 0.918015 0.230944 0.773193
O O4 0.000000 0.230969 0.876753
O O5 0.212785 0.500000 0.920390
O O6 0.267051 0.220940 0.866274
O O7 0.225984 0.230480 0.000000
O O8 0.271150 0.271325 0.607036
O O9 0.243236 0.290678 0.737306
O O10 0.140830 0.234349 0.653401
O O11 0.231608 0.000000 0.673623
O O12 0.643700 0.721256 0.500000
O O13 0.601765 0.741406 0.634206
O O14 0.658054 0.000000 0.573105
O O15 0.314202 0.500000 0.812036
O O16 0.367077 0.781461 0.763047
O O17 0.926871 0.500000 0.305882
O O18 0.000000 0.771917 0.330435
O O19 0.500000 0.220159 0.278396
O O20 0.426568 0.500000 0.279560
#
# Coordination Sequence:
#
# PCOD9381654 Si02
#       7
#     8   8   8   8   8   8   8
#     4   8  13  21  34  55  83 111 140 177 219 260
#     4   9  15  22  37  61  85 113 151 190 223 258
#     4  10  18  28  46  68  88 113 149 188 221 261
#     4   9  19  34  49  68  95 123 147 174 215 266
#     4   9  16  29  46  62  87 118 148 184 224 265
#     4   9  16  27  44  64  87 117 152 189 229 268
#     4   9  18  31  48  70  93 119 149 180 217 262
#
# _framework density 19.054479000000001
#
# number of rings (size 3 to 8) (size 9 to 14) (size 15 to 20)
#    0.000    3.000    1.429    1.286    0.000    2.000 
#    0.000    2.857    0.000    1.286    0.000    6.000 
#    0.000    2.286    0.000    7.143    0.000    7.429 
#
# Total GULP energy -312099.259655 kJ/mol
# GULP energy per Si atom -5573.201065 kJ/mol
# Density = 1.901111 g / cm^3
# Si number density = 19.054479 Si / 1000 Ang^3
#
#
#
# Elastic Constant Matrix: (Units=GPa)
#
#
# Indices 1 2 3 4 5 6 
#
# 1 166.3061 2.9088 61.5325 0.0000 0.0000 0.0000
# 2 2.9088 39.7676 6.0541 0.0000 0.0000 0.0000
# 3 61.5325 6.0541 76.6620 0.0000 0.0000 0.0000
# 4 0.0000 0.0000 0.0000 23.1660 0.0000 0.0000
# 5 0.0000 0.0000 0.0000 0.0000 15.6665 0.0000
# 6 0.0000 0.0000 0.0000 0.0000 0.0000 4.5591
#
#
#
# Elastic Compliance Matrix: (Units=1/GPa)
#
#
# Indices 1 2 3 4 5 6 
#
# 1 0.008560 0.000425 -0.006904 0.000000 0.000000 0.000000
# 2 0.000425 0.025473 -0.002353 0.000000 0.000000 0.000000
# 3 -0.006904 -0.002353 0.018772 0.000000 0.000000 0.000000
# 4 0.000000 0.000000 0.000000 0.043167 0.000000 0.000000
# 5 0.000000 0.000000 0.000000 0.000000 0.063830 0.000000
# 6 0.000000 0.000000 0.000000 0.000000 0.000000 0.219344
#
#
# Mechanical properties :
#
#
# Convention : Reuss Voigt Hill
#
# Bulk Modulus (GPa) = 28.45685 47.08073 37.76879
# Shear Modulus (GPa) = 12.23918 22.82766 17.53342
#
# Velocity S-wave (km/s) = 2.53716 3.46500 3.03673
# Velocity P-wave (km/s) = 4.85282 6.38517 5.67099
#
# Compressibility (1/GPa) = 0.03514093
#
# Stress axis : x y z
#
# Youngs Moduli (GPa) = 116.82041 39.25696 53.27137
#
# Poissons Ratio (x) = -0.01668 0.36780
# Poissons Ratio (y) = -0.04964 0.12533
# Poissons Ratio (z) = 0.80657 0.09236
#
# Static dielectric constant tensor:
#      x y z
#    x 1.686100 0.000000 0.000000 
#    y 0.000000 1.720660 0.000000 
#    z 0.000000 0.000000 1.641520 
# 
# From -- ./inp_files/9830.got.cif
#   From: 2010.05.17/outbox.cif.g08.bks.cpg/sg47_5_cif.got.tgz:9830.got - 2010.06.03 20:15:42.
