data_PCOD9381199
_publ_section_title
;
Structure prediction by ZEFSAII (Michael W. Deem and Ramdas Pophale) SiO2 
 PCOD9381199
Probable space group: P M M M
;
_chemical_formula_sum "Si O2"
_cell_formula_units_Z 46
_cell_length_a 8.825668
_cell_length_b 15.020962
_cell_length_c 23.099189
_cell_angle_alpha 90.000000
_cell_angle_beta 90.000000
_cell_angle_gamma 90.000000
_cell_volume 3062.260032
_symmetry_space_group_name_H-M "P M M M"
_symmetry_group_IT_number 47
_symmetry_cell_setting 'orthorhombic'
loop_
_space_group_symop_operation_xyz
x,y,z
-x,-y,z
x,-y,-z
-x,y,-z
-x,-y,-z
x,y,-z
-x,y,z
x,-y,z
loop_
_atom_site_type_symbol
_atom_site_label
_atom_site_fract_x
_atom_site_fract_y
_atom_site_fract_z
Si Si1 0.825376 0.500000 0.134943
Si Si2 0.822143 0.392200 0.563654
Si Si3 0.180527 0.818378 0.889624
Si Si4 0.183747 0.675339 0.799838
Si Si5 0.818970 0.309289 0.000000
Si Si6 0.680610 0.395264 0.684271
Si Si7 0.239230 0.500000 0.000000
Si Si8 0.319077 0.000000 0.932985
O O1 0.760520 0.590336 0.162125
O O2 0.825844 0.500000 0.065607
O O3 0.000000 0.500000 0.153388
O O4 0.769120 0.360961 0.500000
O O5 0.812092 0.500000 0.562596
O O6 0.732910 0.364069 0.620708
O O7 0.000000 0.370039 0.569500
O O8 0.231509 0.765087 0.832589
O O9 0.203643 0.751157 0.943670
O O10 0.260691 0.910936 0.902392
O O11 0.000000 0.834110 0.886101
O O12 0.243472 0.660030 0.735578
O O13 0.000000 0.675630 0.799976
O O14 0.710918 0.395815 0.000000
O O15 0.000000 0.338449 0.000000
O O16 0.500000 0.391230 0.688695
O O17 0.726390 0.500000 0.690979
O O18 0.500000 0.000000 0.933682
O O19 0.264311 0.000000 0.000000
#
# Coordination Sequence:
#
# PCOD9381199 Si02
#       8
#     4   8   8   8   4   8   2   4
#     4  10  17  24  39  63  89 114 142 182 227 272
#     4   8  14  25  41  60  82 112 153 200 240 267
#     4  10  20  33  51  72  89 111 146 192 238 278
#     4  10  19  30  45  66  89 118 153 189 231 273
#     4  10  17  25  42  69  94 113 137 180 233 273
#     4  10  19  28  40  60  88 126 162 191 225 267
#     4  12  17  24  42  70  99 114 141 190 237 276
#     4  11  23  37  53  71  89 115 144 181 238 299
#
# _framework density 15.021585
#
# number of rings (size 3 to 8) (size 9 to 14) (size 15 to 20)
#    0.000    2.174    3.478    2.087    0.000    2.087 
#    0.000    1.739    0.000    0.000    0.000    1.217 
#    0.000    0.000    0.000    0.783    0.000   15.130 
#
# Total GULP energy -256091.114754 kJ/mol
# GULP energy per Si atom -5567.198147 kJ/mol
# Density = 1.498739 g / cm^3
# Si number density = 15.021585 Si / 1000 Ang^3
#
#
#
# Elastic Constant Matrix: (Units=GPa)
#
#
# Indices 1 2 3 4 5 6 
#
# 1 19.9205 28.2237 29.9231 0.0000 0.0000 0.0000
# 2 28.2237 93.6167 51.5865 0.0000 0.0000 0.0000
# 3 29.9231 51.5865 128.3964 0.0000 0.0000 0.0000
# 4 0.0000 0.0000 0.0000 9.3457 0.0000 0.0000
# 5 0.0000 0.0000 0.0000 0.0000 9.7752 0.0000
# 6 0.0000 0.0000 0.0000 0.0000 0.0000 7.6370
#
#
#
# Elastic Compliance Matrix: (Units=1/GPa)
#
#
# Indices 1 2 3 4 5 6 
#
# 1 0.107000 -0.023783 -0.015381 0.000000 0.000000 0.000000
# 2 -0.023783 0.019005 -0.002093 0.000000 0.000000 0.000000
# 3 -0.015381 -0.002093 0.012214 0.000000 0.000000 0.000000
# 4 0.000000 0.000000 0.000000 0.107002 0.000000 0.000000
# 5 0.000000 0.000000 0.000000 0.000000 0.102300 0.000000
# 6 0.000000 0.000000 0.000000 0.000000 0.000000 0.130941
#
#
# Mechanical properties :
#
#
# Convention : Reuss Voigt Hill
#
# Bulk Modulus (GPa) = 17.95174 51.26668 34.60921
# Shear Modulus (GPa) = 8.62745 14.16493 11.39619
#
# Velocity S-wave (km/s) = 2.39913 3.07412 2.75736
# Velocity P-wave (km/s) = 4.43295 6.84127 5.76429
#
# Compressibility (1/GPa) = 0.05570490
#
# Stress axis : x y z
#
# Youngs Moduli (GPa) = 9.34576 52.61665 81.87283
#
# Poissons Ratio (x) = 1.25137 1.25932
# Poissons Ratio (y) = 0.22227 0.17138
# Poissons Ratio (z) = 0.14375 0.11014
#
# Static dielectric constant tensor:
#      x y z
#    x 1.513140 0.000000 0.000000 
#    y 0.000000 1.486100 0.000000 
#    z 0.000000 0.000000 1.506940 
# 
# From -- ./inp_files/29537.got.cif
#   From: 2010.05.17/outbox.cif.g08.bks.cpg/sg47_15_cif.got.tgz:29537.got - 2010.06.03 20:15:42.
