data_PCOD9381987
_publ_section_title
;
Structure prediction by ZEFSAII (Michael W. Deem and Ramdas Pophale) SiO2 
 PCOD9381987
Probable space group: P M M M
;
_chemical_formula_sum "Si O2"
_cell_formula_units_Z 52
_cell_length_a 28.522654
_cell_length_b 7.814998
_cell_length_c 12.930663
_cell_angle_alpha 90.000000
_cell_angle_beta 90.000000
_cell_angle_gamma 90.000000
_cell_volume 2882.302763
_symmetry_space_group_name_H-M "P M M M"
_symmetry_group_IT_number 47
_symmetry_cell_setting 'orthorhombic'
loop_
_space_group_symop_operation_xyz
x,y,z
-x,-y,z
x,-y,-z
-x,y,-z
-x,-y,-z
x,y,-z
-x,y,z
x,-y,z
loop_
_atom_site_type_symbol
_atom_site_label
_atom_site_fract_x
_atom_site_fract_y
_atom_site_fract_z
Si Si1 0.225043 0.806872 0.000000
Si Si2 0.207912 0.290879 0.617872
Si Si3 0.876484 0.690069 0.000000
Si Si4 0.052566 0.798846 0.173679
Si Si5 0.375440 0.702910 0.875607
Si Si6 0.899563 0.707143 0.618045
Si Si7 0.275596 0.700848 0.205366
Si Si8 0.446605 0.000000 0.874641
O O1 0.244674 0.719684 0.102543
O O2 0.168914 0.807566 0.000000
O O3 0.243221 0.000000 0.000000
O O4 0.218487 0.241197 0.500000
O O5 0.207711 0.500000 0.621307
O O6 0.154231 0.239445 0.641198
O O7 0.245594 0.225348 0.699933
O O8 0.909156 0.714692 0.099668
O O9 0.856492 0.500000 0.000000
O O10 0.066885 0.774411 0.292793
O O11 0.000000 0.732237 0.155254
O O12 0.052774 0.000000 0.149129
O O13 0.383918 0.500000 0.854867
O O14 0.327760 0.763780 0.819812
O O15 0.417651 0.829270 0.846250
O O16 0.367857 0.716614 0.000000
O O17 0.910740 0.759538 0.500000
O O18 0.901102 0.500000 0.620730
O O19 0.281638 0.500000 0.226831
O O20 0.500000 0.000000 0.836277
O O21 0.448433 0.000000 0.000000
#
# Coordination Sequence:
#
# PCOD9381987 Si02
#       8
#     4   8   4   8   8   8   8   4
#     4  12  24  33  51  78 104 136 169 204 247 304
#     4   8  15  29  50  74  99 129 164 204 250 297
#     4  12  25  41  58  75 100 130 167 209 250 307
#     4  11  24  40  57  77 102 129 161 207 261 312
#     4   9  17  28  44  68 101 135 173 221 265 309
#     4   9  18  34  56  80 104 132 169 209 247 298
#     4  10  18  30  49  74 104 137 173 211 254 305
#     4   9  18  30  46  66  95 139 183 219 262 314
#
# _framework density 18.041129999999999
#
# number of rings (size 3 to 8) (size 9 to 14) (size 15 to 20)
#    0.000    2.231    0.769    3.923    1.077    4.308 
#    0.000    3.077    0.000    1.385    0.000    0.000 
#    0.000    1.231    0.000    6.000    0.000    0.154 
#
# Total GULP energy -290163.604103 kJ/mol
# GULP energy per Si atom -5580.069310 kJ/mol
# Density = 1.800007 g / cm^3
# Si number density = 18.041130 Si / 1000 Ang^3
#
#
#
# Elastic Constant Matrix: (Units=GPa)
#
#
# Indices 1 2 3 4 5 6 
#
# 1 101.8666 8.7425 24.5707 0.0000 0.0000 0.0000
# 2 8.7425 38.4102 -5.3430 0.0000 0.0000 0.0000
# 3 24.5707 -5.3430 46.8715 0.0000 0.0000 0.0000
# 4 0.0000 0.0000 0.0000 78.6314 0.0000 0.0000
# 5 0.0000 0.0000 0.0000 0.0000 -8.5676 0.0000
# 6 0.0000 0.0000 0.0000 0.0000 0.0000 25.0536
#
#
#
# Elastic Compliance Matrix: (Units=1/GPa)
#
#
# Indices 1 2 3 4 5 6 
#
# 1 0.011701 -0.003573 -0.006541 0.000000 0.000000 0.000000
# 2 -0.003573 0.027545 0.005013 0.000000 0.000000 0.000000
# 3 -0.006541 0.005013 0.025335 0.000000 0.000000 0.000000
# 4 0.000000 0.000000 0.000000 0.012718 0.000000 0.000000
# 5 0.000000 0.000000 0.000000 0.000000 -0.116718 0.000000
# 6 0.000000 0.000000 0.000000 0.000000 0.000000 0.039914
#
#
# Mechanical properties :
#
#
# Convention : Reuss Voigt Hill
#
# Bulk Modulus (GPa) = 18.38934 27.00984 22.69959
# Shear Modulus (GPa) = 173.46235 29.63535 101.54885
#
# Velocity S-wave (km/s) = 9.81616 4.05736 7.51063
# Velocity P-wave (km/s) = 11.77672 6.07893 9.37135
#
# Compressibility (1/GPa) = 0.05437933
#
# Stress axis : x y z
#
# Youngs Moduli (GPa) = 85.46133 36.30369 39.47045
#
# Poissons Ratio (x) = 0.12972 0.25819
# Poissons Ratio (y) = 0.30537 -0.19787
# Poissons Ratio (z) = 0.55902 -0.18199
#
# Static dielectric constant tensor:
#      x y z
#    x 1.610650 0.000000 0.000000 
#    y 0.000000 1.680250 0.000000 
#    z 0.000000 0.000000 1.516400 
# 
# From -- ./inp_files/19876.got.cif
#   From: 2010.05.17/outbox.cif.g08.bks.cpg/sg47_10_cif.got.tgz:19876.got - 2010.06.03 20:15:42.
