data_PCOD9381210
_publ_section_title
;
Structure prediction by ZEFSAII (Michael W. Deem and Ramdas Pophale) SiO2 
 PCOD9381210
Probable space group: P M M M
;
_chemical_formula_sum "Si O2"
_cell_formula_units_Z 64
_cell_length_a 15.530437
_cell_length_b 7.431562
_cell_length_c 29.098594
_cell_angle_alpha 90.000000
_cell_angle_beta 90.000000
_cell_angle_gamma 90.000000
_cell_volume 3358.426025
_symmetry_space_group_name_H-M "P M M M"
_symmetry_group_IT_number 47
_symmetry_cell_setting 'orthorhombic'
loop_
_space_group_symop_operation_xyz
x,y,z
-x,-y,z
x,-y,-z
-x,y,-z
-x,-y,-z
x,y,-z
-x,y,z
x,-y,z
loop_
_atom_site_type_symbol
_atom_site_label
_atom_site_fract_x
_atom_site_fract_y
_atom_site_fract_z
Si Si1 0.404871 0.780829 0.416748
Si Si2 0.724155 0.210367 0.233539
Si Si3 0.404061 0.219456 0.310132
Si Si4 0.903456 0.219237 0.262444
Si Si5 0.600314 0.216464 0.950665
Si Si6 0.902028 0.781220 0.368308
Si Si7 0.778482 0.780080 0.449748
Si Si8 0.598404 0.709459 0.848555
O O1 0.500000 0.721398 0.432103
O O2 0.393325 0.729064 0.363217
O O3 0.320591 0.722904 0.443754
O O4 0.405946 0.000000 0.418171
O O5 0.668108 0.287271 0.275560
O O6 0.821805 0.280756 0.232525
O O7 0.666302 0.219604 0.188109
O O8 0.733993 0.000000 0.244426
O O9 0.500000 0.273384 0.294723
O O10 0.402582 0.000000 0.309610
O O11 0.884447 0.270554 0.315560
O O12 0.000000 0.282436 0.250482
O O13 0.908070 0.000000 0.261018
O O14 0.500000 0.273855 0.950665
O O15 0.632775 0.271690 0.900736
O O16 0.601797 0.000000 0.951044
O O17 0.637810 0.277252 0.000000
O O18 0.835304 0.718787 0.406692
O O19 0.000000 0.727908 0.379360
O O20 0.899387 0.000000 0.368579
O O21 0.811256 0.726016 0.500000
O O22 0.779187 0.000000 0.448536
O O23 0.500000 0.786468 0.845887
O O24 0.590698 0.500000 0.838608
#
# Coordination Sequence:
#
# PCOD9381210 Si02
#       8
#     8   8   8   8   8   8   8   8
#     4   8  13  20  27  35  51  75 105 146 191 228
#     4  10  17  25  41  60  78 103 136 175 213 248
#     4   8  13  20  31  48  66  85 116 159 201 237
#     4   8  14  24  38  56  74  92 121 166 216 256
#     4   8  14  26  44  63  83 112 152 191 216 234
#     4   8  13  21  31  42  59  82 108 145 194 242
#     4   9  15  19  23  33  50  76 112 149 184 228
#     4  10  20  30  39  57  89 123 148 172 207 250
#
# _framework density 19.056546000000001
#
# number of rings (size 3 to 8) (size 9 to 14) (size 15 to 20)
#    0.000    3.375    0.000    3.375    0.000    5.000 
#    0.000    3.750    0.000    0.375    0.000    0.000 
#    0.000    0.500    0.000    5.750    0.000   11.875 
#
# Total GULP energy -356613.421401 kJ/mol
# GULP energy per Si atom -5572.084709 kJ/mol
# Density = 1.901317 g / cm^3
# Si number density = 19.056546 Si / 1000 Ang^3
#
#
#
# Elastic Constant Matrix: (Units=GPa)
#
#
# Indices 1 2 3 4 5 6 
#
# 1 116.8028 4.1688 61.7286 0.0000 0.0000 0.0000
# 2 4.1688 55.5345 -5.7513 0.0000 0.0000 0.0000
# 3 61.7286 -5.7513 64.8298 0.0000 0.0000 0.0000
# 4 0.0000 0.0000 0.0000 -411.0358 0.0000 0.0000
# 5 0.0000 0.0000 0.0000 0.0000 15.2586 0.0000
# 6 0.0000 0.0000 0.0000 0.0000 0.0000 -8.8959
#
#
#
# Elastic Compliance Matrix: (Units=1/GPa)
#
#
# Indices 1 2 3 4 5 6 
#
# 1 0.017750 -0.003111 -0.017177 0.000000 0.000000 0.000000
# 2 -0.003111 0.018719 0.004623 0.000000 0.000000 0.000000
# 3 -0.017177 0.004623 0.032191 0.000000 0.000000 0.000000
# 4 0.000000 0.000000 0.000000 -0.002433 0.000000 0.000000
# 5 0.000000 0.000000 0.000000 0.000000 0.065537 0.000000
# 6 0.000000 0.000000 0.000000 0.000000 0.000000 -0.112411
#
#
# Mechanical properties :
#
#
# Convention : Reuss Voigt Hill
#
# Bulk Modulus (GPa) = 26.78859 39.71769 33.25314
# Shear Modulus (GPa) = 79.20483 -69.13321 5.03581
#
# Velocity S-wave (km/s) = 6.45394 -6.02965 1.62736
# Velocity P-wave (km/s) = 8.34420 5.25246 4.58461
#
# Compressibility (1/GPa) = 0.03732933
#
# Stress axis : x y z
#
# Youngs Moduli (GPa) = 56.33654 53.42118 31.06476
#
# Poissons Ratio (x) = 0.16621 0.53361
# Poissons Ratio (y) = 0.17529 -0.14362
# Poissons Ratio (z) = 0.96771 -0.24698
#
# Static dielectric constant tensor:
#      x y z
#    x 1.676660 0.000000 0.000000 
#    y 0.000000 1.768020 0.000000 
#    z 0.000000 0.000000 1.660350 
# 
# From -- ./inp_files/22167.got.cif
#   From: 2010.05.17/outbox.cif.g08.bks.cpg/sg47_12_cif.got.tgz:22167.got - 2010.06.03 20:15:42.
