data_PCOD9381310
_publ_section_title
;
Structure prediction by ZEFSAII (Michael W. Deem and Ramdas Pophale) SiO2 
 PCOD9381310
Probable space group: P M M M
;
_chemical_formula_sum "Si O2"
_cell_formula_units_Z 52
_cell_length_a 24.060191
_cell_length_b 7.446144
_cell_length_c 14.738716
_cell_angle_alpha 90.000000
_cell_angle_beta 90.000000
_cell_angle_gamma 90.000000
_cell_volume 2640.524199
_symmetry_space_group_name_H-M "P M M M"
_symmetry_group_IT_number 47
_symmetry_cell_setting 'orthorhombic'
loop_
_space_group_symop_operation_xyz
x,y,z
-x,-y,z
x,-y,-z
-x,y,-z
-x,-y,-z
x,y,-z
-x,y,z
x,-y,z
loop_
_atom_site_type_symbol
_atom_site_label
_atom_site_fract_x
_atom_site_fract_y
_atom_site_fract_z
Si Si1 0.721652 0.714082 0.601315
Si Si2 0.331102 0.212931 0.787898
Si Si3 0.850229 0.209970 0.399034
Si Si4 0.437290 0.781006 0.104642
Si Si5 0.888914 0.779987 0.208561
Si Si6 0.222688 0.219431 0.895302
Si Si7 0.000000 0.219358 0.104776
O O1 0.706582 0.778464 0.500000
O O2 0.725228 0.500000 0.598703
O O3 0.679974 0.762229 0.681535
O O4 0.784168 0.780644 0.621581
O O5 0.388702 0.282924 0.828933
O O6 0.277026 0.282956 0.841303
O O7 0.331872 0.000000 0.804763
O O8 0.858596 0.288262 0.500000
O O9 0.882733 0.283390 0.312379
O O10 0.864689 0.000000 0.404708
O O11 0.500000 0.722064 0.127281
O O12 0.438068 0.000000 0.106784
O O13 0.425294 0.730970 0.000000
O O14 0.833949 0.724417 0.153780
O O15 0.944626 0.723731 0.157577
O O16 0.888756 0.000000 0.209958
O O17 0.222929 0.000000 0.893730
O O18 0.224147 0.274187 0.000000
O O19 0.000000 0.000000 0.104051
O O20 0.000000 0.276836 0.000000
#
# Coordination Sequence:
#
# PCOD9381310 Si02
#       7
#     8   8   8   8   8   8   4
#     4  10  20  32  46  66  92 120 150 187 232 279
#     4  10  17  27  46  71  94 119 151 185 225 268
#     4   9  16  28  46  66  88 114 146 186 231 277
#     4   8  14  25  43  70 101 127 152 185 223 264
#     4   9  15  24  37  58  87 119 150 181 218 263
#     4   9  15  22  36  61  89 114 144 182 219 258
#     4   9  16  24  35  55  88 125 153 179 216 264
#
# _framework density 19.693059999999999
#
# number of rings (size 3 to 8) (size 9 to 14) (size 15 to 20)
#    0.000    2.846    1.538    1.846    0.000    4.615 
#    0.000    0.385    0.000    5.077    0.000    4.846 
#    0.000    3.077    0.000    0.000    0.000    0.000 
#
# Total GULP energy -290147.042978 kJ/mol
# GULP energy per Si atom -5579.750827 kJ/mol
# Density = 1.964824 g / cm^3
# Si number density = 19.693060 Si / 1000 Ang^3
#
#
#
# Elastic Constant Matrix: (Units=GPa)
#
#
# Indices 1 2 3 4 5 6 
#
# 1 157.3430 6.2122 122.1865 0.0000 0.0000 0.0000
# 2 6.2122 58.5712 -0.0138 0.0000 0.0000 0.0000
# 3 122.1865 -0.0138 190.8258 0.0000 0.0000 0.0000
# 4 0.0000 0.0000 0.0000 -53.7708 0.0000 0.0000
# 5 0.0000 0.0000 0.0000 0.0000 49.1290 0.0000
# 6 0.0000 0.0000 0.0000 0.0000 0.0000 -76.0246
#
#
#
# Elastic Compliance Matrix: (Units=1/GPa)
#
#
# Indices 1 2 3 4 5 6 
#
# 1 0.012748 -0.001354 -0.008162 0.000000 0.000000 0.000000
# 2 -0.001354 0.017217 0.000868 0.000000 0.000000 0.000000
# 3 -0.008162 0.000868 0.010467 0.000000 0.000000 0.000000
# 4 0.000000 0.000000 0.000000 -0.018597 0.000000 0.000000
# 5 0.000000 0.000000 0.000000 0.000000 0.020355 0.000000
# 6 0.000000 0.000000 0.000000 0.000000 0.000000 -0.013154
#
#
# Mechanical properties :
#
#
# Convention : Reuss Voigt Hill
#
# Bulk Modulus (GPa) = 43.22432 73.72330 58.47381
# Shear Modulus (GPa) = 92.51844 2.42374 47.47109
#
# Velocity S-wave (km/s) = 6.86165 1.11060 4.91506
# Velocity P-wave (km/s) = 9.20722 6.25796 7.87194
#
# Compressibility (1/GPa) = 0.02313512
#
# Stress axis : x y z
#
# Youngs Moduli (GPa) = 78.44576 58.08199 95.53917
#
# Poissons Ratio (x) = 0.07864 0.77984
# Poissons Ratio (y) = 0.10621 -0.08295
# Poissons Ratio (z) = 0.64031 -0.05043
#
# Static dielectric constant tensor:
#      x y z
#    x 1.657120 0.000000 0.000000 
#    y 0.000000 1.748850 0.000000 
#    z 0.000000 0.000000 1.826050 
# 
# From -- ./inp_files/12537.got.cif
#   From: 2010.05.17/outbox.cif.g08.bks.cpg/sg47_7_cif.got.tgz:12537.got - 2010.06.03 20:15:42.
