data_PCOD9381876
_publ_section_title
;
Structure prediction by ZEFSAII (Michael W. Deem and Ramdas Pophale) SiO2 
 PCOD9381876
Probable space group: P M M M
;
_chemical_formula_sum "Si O2"
_cell_formula_units_Z 52
_cell_length_a 23.723553
_cell_length_b 8.750228
_cell_length_c 14.526046
_cell_angle_alpha 90.000000
_cell_angle_beta 90.000000
_cell_angle_gamma 90.000000
_cell_volume 3015.411015
_symmetry_space_group_name_H-M "P M M M"
_symmetry_group_IT_number 47
_symmetry_cell_setting 'orthorhombic'
loop_
_space_group_symop_operation_xyz
x,y,z
-x,-y,z
x,-y,-z
-x,y,-z
-x,-y,-z
x,y,-z
-x,y,z
x,-y,z
loop_
_atom_site_type_symbol
_atom_site_label
_atom_site_fract_x
_atom_site_fract_y
_atom_site_fract_z
Si Si1 0.273012 0.818566 0.894519
Si Si2 0.851736 0.317309 0.105278
Si Si3 0.328857 0.315646 0.720738
Si Si4 0.892176 0.818393 0.289139
Si Si5 0.000000 0.683378 0.607431
Si Si6 0.563610 0.313794 0.606041
Si Si7 0.216010 0.316405 0.391911
O O1 0.212812 0.736507 0.880371
O O2 0.316148 0.757163 0.819244
O O3 0.264706 0.000000 0.883556
O O4 0.290599 0.788872 0.000000
O O5 0.854225 0.500000 0.114459
O O6 0.888587 0.240663 0.184353
O O7 0.867162 0.276068 0.000000
O O8 0.330414 0.500000 0.729583
O O9 0.386676 0.263220 0.673135
O O10 0.275631 0.278313 0.655172
O O11 0.834958 0.764513 0.339496
O O12 0.944753 0.746536 0.342437
O O13 0.895950 0.000000 0.290659
O O14 0.000000 0.500000 0.611827
O O15 0.000000 0.728697 0.500000
O O16 0.574431 0.268010 0.500000
O O17 0.500000 0.265952 0.631159
O O18 0.564233 0.500000 0.606653
O O19 0.216222 0.278210 0.500000
O O20 0.208211 0.500000 0.383626
#
# Coordination Sequence:
#
# PCOD9381876 Si02
#       7
#     8   8   8   8   4   8   8
#     4  10  20  33  50  75 107 140 174 217 272 328
#     4  10  20  36  59  84 110 142 180 221 267 323
#     4  10  18  29  50  78 106 138 178 222 269 322
#     4  12  24  38  58  84 114 145 179 223 272 322
#     4  11  25  45  66  83 106 147 193 230 266 315
#     4   8  14  26  46  74 107 141 178 221 268 317
#     4  10  20  33  50  75 108 143 179 220 267 320
#
# _framework density 17.244745000000002
#
# number of rings (size 3 to 8) (size 9 to 14) (size 15 to 20)
#    0.000    1.923    1.538    3.923    0.000    6.462 
#    0.000    0.385    0.000    4.615    0.000    4.308 
#    0.000    0.000    0.000    0.000    0.000    0.000 
#
# Total GULP energy -290345.784654 kJ/mol
# GULP energy per Si atom -5583.572782 kJ/mol
# Density = 1.720550 g / cm^3
# Si number density = 17.244745 Si / 1000 Ang^3
#
#
#
# Elastic Constant Matrix: (Units=GPa)
#
#
# Indices 1 2 3 4 5 6 
#
# 1 117.1658 43.4540 84.2556 0.0000 0.0000 0.0000
# 2 43.4540 45.4824 53.7045 0.0000 0.0000 0.0000
# 3 84.2556 53.7045 151.6251 0.0000 0.0000 0.0000
# 4 0.0000 0.0000 0.0000 11.5118 0.0000 0.0000
# 5 0.0000 0.0000 0.0000 0.0000 31.8005 0.0000
# 6 0.0000 0.0000 0.0000 0.0000 0.0000 -26.8289
#
#
#
# Elastic Compliance Matrix: (Units=1/GPa)
#
#
# Indices 1 2 3 4 5 6 
#
# 1 0.015787 -0.008121 -0.005896 0.000000 0.000000 0.000000
# 2 -0.008121 0.041969 -0.010353 0.000000 0.000000 0.000000
# 3 -0.005896 -0.010353 0.013538 0.000000 0.000000 0.000000
# 4 0.000000 0.000000 0.000000 0.086868 0.000000 0.000000
# 5 0.000000 0.000000 0.000000 0.000000 0.031446 0.000000
# 6 0.000000 0.000000 0.000000 0.000000 0.000000 -0.037273
#
#
# Mechanical properties :
#
#
# Convention : Reuss Voigt Hill
#
# Bulk Modulus (GPa) = 44.33522 75.23350 59.78436
# Shear Modulus (GPa) = 23.97025 12.15396 18.06210
#
# Velocity S-wave (km/s) = 3.73232 2.65767 3.23986
# Velocity P-wave (km/s) = 6.65874 7.28967 6.98134
#
# Compressibility (1/GPa) = 0.02255543
#
# Stress axis : x y z
#
# Youngs Moduli (GPa) = 63.34482 23.82703 73.86378
#
# Poissons Ratio (x) = 0.19349 0.43551
# Poissons Ratio (y) = 0.51440 0.76469
# Poissons Ratio (z) = 0.37349 0.24667
#
# Static dielectric constant tensor:
#      x y z
#    x 1.560380 0.000000 0.000000 
#    y 0.000000 1.576040 0.000000 
#    z 0.000000 0.000000 1.587100 
# 
# From -- ./inp_files/25010.got.cif
#   From: 2010.05.17/outbox.cif.g08.bks.cpg/sg47_13_cif.got.tgz:25010.got - 2010.06.03 20:15:42.
