data_PCOD9381803
_publ_section_title
;
Structure prediction by ZEFSAII (Michael W. Deem and Ramdas Pophale) SiO2 
 PCOD9381803
Probable space group: P M M M
;
_chemical_formula_sum "Si O2"
_cell_formula_units_Z 52
_cell_length_a 9.643235
_cell_length_b 28.709580
_cell_length_c 11.923708
_cell_angle_alpha 90.000000
_cell_angle_beta 90.000000
_cell_angle_gamma 90.000000
_cell_volume 3301.117034
_symmetry_space_group_name_H-M "P M M M"
_symmetry_group_IT_number 47
_symmetry_cell_setting 'orthorhombic'
loop_
_space_group_symop_operation_xyz
x,y,z
-x,-y,z
x,-y,-z
-x,y,-z
-x,-y,-z
x,y,-z
-x,y,z
x,-y,z
loop_
_atom_site_type_symbol
_atom_site_label
_atom_site_fract_x
_atom_site_fract_y
_atom_site_fract_z
Si Si1 0.166620 0.193574 0.632500
Si Si2 0.834476 0.576715 0.500000
Si Si3 0.336037 0.634754 0.866420
Si Si4 0.158656 0.087419 0.363798
Si Si5 0.659307 0.000000 0.363031
Si Si6 0.660163 0.275338 0.271407
Si Si7 0.166996 0.448095 0.750225
Si Si8 0.347184 0.666350 0.500000
O O1 0.204186 0.200113 0.500000
O O2 0.200226 0.140220 0.665020
O O3 0.244157 0.230667 0.709838
O O4 0.000000 0.198842 0.639207
O O5 0.795803 0.553506 0.617901
O O6 0.769472 0.627720 0.500000
O O7 0.000000 0.579094 0.500000
O O8 0.500000 0.628840 0.838218
O O9 0.295051 0.685472 0.818009
O O10 0.247658 0.593494 0.810811
O O11 0.321135 0.633497 0.000000
O O12 0.156574 0.086421 0.500000
O O13 0.000000 0.079100 0.327000
O O14 0.259702 0.046409 0.326317
O O15 0.500000 0.000000 0.327383
O O16 0.660720 0.000000 0.500000
O O17 0.500000 0.262109 0.248047
O O18 0.662859 0.302307 0.390107
O O19 0.200012 0.500000 0.794028
O O20 0.000000 0.441568 0.759786
O O21 0.500000 0.643539 0.500000
#
# Coordination Sequence:
#
# PCOD9381803 Si02
#       8
#     8   4   8   8   4   8   8   4
#     4   9  17  27  41  63  89 116 149 186 226 274
#     4  10  19  32  52  76 100 124 147 177 221 274
#     4  10  22  39  55  70  91 122 159 193 226 271
#     4   8  14  24  35  49  74 111 150 185 220 261
#     4   9  15  21  31  49  73 107 152 195 226 255
#     4  10  19  31  47  67  91 116 144 185 234 275
#     4  10  21  36  54  76 100 123 148 183 227 273
#     4  10  18  29  47  71  94 117 149 186 227 276
#
# _framework density 15.752243
#
# number of rings (size 3 to 8) (size 9 to 14) (size 15 to 20)
#    0.000    2.538    2.308    1.385    0.000    4.615 
#    0.000    3.077    0.000    1.385    0.000    0.000 
#    0.000    0.000    0.000    0.692    0.000   14.077 
#
# Total GULP energy -289660.779089 kJ/mol
# GULP energy per Si atom -5570.399598 kJ/mol
# Density = 1.571639 g / cm^3
# Si number density = 15.752243 Si / 1000 Ang^3
#
#
#
# Elastic Constant Matrix: (Units=GPa)
#
#
# Indices 1 2 3 4 5 6 
#
# 1 51.6243 77.0279 28.9121 0.0000 0.0000 0.0000
# 2 77.0279 152.7447 37.8909 0.0000 0.0000 0.0000
# 3 28.9121 37.8909 45.1319 0.0000 0.0000 0.0000
# 4 0.0000 0.0000 0.0000 -17.7861 0.0000 0.0000
# 5 0.0000 0.0000 0.0000 0.0000 13.9280 0.0000
# 6 0.0000 0.0000 0.0000 0.0000 0.0000 -58.2104
#
#
#
# Elastic Compliance Matrix: (Units=1/GPa)
#
#
# Indices 1 2 3 4 5 6 
#
# 1 0.099110 -0.043235 -0.027193 0.000000 0.000000 0.000000
# 2 -0.043235 0.027129 0.004920 0.000000 0.000000 0.000000
# 3 -0.027193 0.004920 0.035447 0.000000 0.000000 0.000000
# 4 0.000000 0.000000 0.000000 -0.056224 0.000000 0.000000
# 5 0.000000 0.000000 0.000000 0.000000 0.071798 0.000000
# 6 0.000000 0.000000 0.000000 0.000000 0.000000 -0.017179
#
#
# Mechanical properties :
#
#
# Convention : Reuss Voigt Hill
#
# Bulk Modulus (GPa) = 32.60439 59.68474 46.14456
# Shear Modulus (GPa) = 16.59368 -5.36904 5.61232
#
# Velocity S-wave (km/s) = 3.24916 -1.84820 1.88960
# Velocity P-wave (km/s) = 5.90078 5.78079 5.84109
#
# Compressibility (1/GPa) = 0.03067072
#
# Stress axis : x y z
#
# Youngs Moduli (GPa) = 10.08983 36.86067 28.21127
#
# Poissons Ratio (x) = 1.59365 0.76715
# Poissons Ratio (y) = 0.43623 -0.13880
# Poissons Ratio (z) = 0.27437 -0.18136
#
# Static dielectric constant tensor:
#      x y z
#    x 1.531850 0.000000 0.000000 
#    y 0.000000 1.530320 0.000000 
#    z 0.000000 0.000000 1.510480 
# 
# From -- ./inp_files/15531.got.cif
#   From: 2010.05.17/outbox.cif.g08.bks.cpg/sg47_8_cif.got.tgz:15531.got - 2010.06.03 20:15:42.
