data_PCOD9381257
_publ_section_title
;
Structure prediction by ZEFSAII (Michael W. Deem and Ramdas Pophale) SiO2 
 PCOD9381257
Probable space group: P M M M
;
_chemical_formula_sum "Si O2"
_cell_formula_units_Z 52
_cell_length_a 7.438007
_cell_length_b 14.592646
_cell_length_c 24.714601
_cell_angle_alpha 90.000000
_cell_angle_beta 90.000000
_cell_angle_gamma 90.000000
_cell_volume 2682.527812
_symmetry_space_group_name_H-M "P M M M"
_symmetry_group_IT_number 47
_symmetry_cell_setting 'orthorhombic'
loop_
_space_group_symop_operation_xyz
x,y,z
-x,-y,z
x,-y,-z
-x,y,-z
-x,-y,-z
x,y,-z
-x,y,z
x,-y,z
loop_
_atom_site_type_symbol
_atom_site_label
_atom_site_fract_x
_atom_site_fract_y
_atom_site_fract_z
Si Si1 0.717245 0.397256 0.895642
Si Si2 0.220181 0.893283 0.381935
Si Si3 0.209992 0.796194 0.058785
Si Si4 0.716485 0.602141 0.770936
Si Si5 0.210881 0.793793 0.275122
Si Si6 0.219839 0.893474 0.167063
Si Si7 0.209582 0.111310 0.500000
O O1 0.500000 0.396611 0.896315
O O2 0.774550 0.500000 0.911695
O O3 0.779246 0.312749 0.931321
O O4 0.775619 0.381569 0.833202
O O5 0.283187 0.833377 0.331305
O O6 0.284461 0.861606 0.441399
O O7 0.000000 0.891114 0.383986
O O8 0.269132 0.000000 0.373786
O O9 0.285271 0.845317 0.112075
O O10 0.000000 0.821701 0.056980
O O11 0.288549 0.819068 0.000000
O O12 0.500000 0.601373 0.772038
O O13 0.776772 0.500000 0.755126
O O14 0.772632 0.685365 0.733261
O O15 0.284732 0.841660 0.220893
O O16 0.000000 0.817102 0.275936
O O17 0.000000 0.887851 0.166949
O O18 0.267930 0.000000 0.168518
O O19 0.000000 0.138804 0.500000
O O20 0.214509 0.000000 0.500000
#
# Coordination Sequence:
#
# PCOD9381257 Si02
#       7
#     8   8   8   8   8   8   4
#     4   9  18  33  51  67  84 110 142 175 217 270
#     4   8  13  21  36  62  95 126 152 178 211 254
#     4  10  20  32  46  66  89 113 144 179 215 256
#     4   9  18  32  48  65  87 115 143 174 219 271
#     4  10  17  26  45  71  92 112 143 183 220 253
#     4   9  17  29  44  63  88 115 142 175 214 252
#     4   7  10  18  32  54  90 129 154 174 207 251
#
# _framework density 19.384702000000001
#
# number of rings (size 3 to 8) (size 9 to 14) (size 15 to 20)
#    0.000    3.000    1.538    2.308    0.000    3.385 
#    0.000    4.615    0.000    3.231    0.000    2.154 
#    0.000    6.154    0.000    0.000    0.000    0.000 
#
# Total GULP energy -290000.318736 kJ/mol
# GULP energy per Si atom -5576.929206 kJ/mol
# Density = 1.934058 g / cm^3
# Si number density = 19.384702 Si / 1000 Ang^3
#
#
#
# Elastic Constant Matrix: (Units=GPa)
#
#
# Indices 1 2 3 4 5 6 
#
# 1 58.5719 -6.3626 10.4817 0.0000 0.0000 0.0000
# 2 -6.3626 95.1902 85.2111 0.0000 0.0000 0.0000
# 3 10.4817 85.2111 191.2876 0.0000 0.0000 0.0000
# 4 0.0000 0.0000 0.0000 22.4939 0.0000 0.0000
# 5 0.0000 0.0000 0.0000 0.0000 -6.9326 0.0000
# 6 0.0000 0.0000 0.0000 0.0000 0.0000 26.6179
#
#
#
# Elastic Compliance Matrix: (Units=1/GPa)
#
#
# Indices 1 2 3 4 5 6 
#
# 1 0.017898 0.003450 -0.002518 0.000000 0.000000 0.000000
# 2 0.003450 0.018138 -0.008269 0.000000 0.000000 0.000000
# 3 -0.002518 -0.008269 0.009049 0.000000 0.000000 0.000000
# 4 0.000000 0.000000 0.000000 0.044457 0.000000 0.000000
# 5 0.000000 0.000000 0.000000 0.000000 -0.144246 0.000000
# 6 0.000000 0.000000 0.000000 0.000000 0.000000 0.037569
#
#
# Mechanical properties :
#
#
# Convention : Reuss Voigt Hill
#
# Bulk Modulus (GPa) = 32.88109 58.19000 45.53555
# Shear Modulus (GPa) = 651.54120 25.48379 338.51250
#
# Velocity S-wave (km/s) = 18.35322 3.62972 13.22905
# Velocity P-wave (km/s) = 21.58982 6.90291 16.02764
#
# Compressibility (1/GPa) = 0.03041262
#
# Stress axis : x y z
#
# Youngs Moduli (GPa) = 55.87105 55.13362 110.50867
#
# Poissons Ratio (x) = -0.19021 0.27822
# Poissons Ratio (y) = -0.19276 0.91376
# Poissons Ratio (z) = 0.14066 0.45588
#
# Static dielectric constant tensor:
#      x y z
#    x 1.739850 0.000000 0.000000 
#    y 0.000000 1.649590 0.000000 
#    z 0.000000 0.000000 1.699770 
# 
# From -- ./inp_files/21737.got.cif
#   From: 2010.05.17/outbox.cif.g08.bks.cpg/sg47_11_cif.got.tgz:21737.got - 2010.06.03 20:15:42.
