data_PCOD9381488
_publ_section_title
;
Structure prediction by ZEFSAII (Michael W. Deem and Ramdas Pophale) SiO2 
 PCOD9381488
Probable space group: P M M M
;
_chemical_formula_sum "Si O2"
_cell_formula_units_Z 60
_cell_length_a 9.246501
_cell_length_b 18.710159
_cell_length_c 24.332706
_cell_angle_alpha 90.000000
_cell_angle_beta 90.000000
_cell_angle_gamma 90.000000
_cell_volume 4209.643397
_symmetry_space_group_name_H-M "P M M M"
_symmetry_group_IT_number 47
_symmetry_cell_setting 'orthorhombic'
loop_
_space_group_symop_operation_xyz
x,y,z
-x,-y,z
x,-y,-z
-x,y,-z
-x,-y,-z
x,y,-z
-x,y,z
x,-y,z
loop_
_atom_site_type_symbol
_atom_site_label
_atom_site_fract_x
_atom_site_fract_y
_atom_site_fract_z
Si Si1 0.827959 0.086205 0.879214
Si Si2 0.672494 0.839815 0.777772
Si Si3 0.326293 0.582880 0.673668
Si Si4 0.326982 0.340136 0.439321
Si Si5 0.165460 0.209265 0.608720
Si Si6 0.327281 0.082965 0.661784
Si Si7 0.824407 0.082986 0.000000
Si Si8 0.166217 0.710500 0.272873
O O1 0.739943 0.122911 0.830864
O O2 0.000000 0.099822 0.872593
O O3 0.809573 0.000000 0.877247
O O4 0.781508 0.112268 0.940350
O O5 0.500000 0.832799 0.782337
O O6 0.702673 0.888314 0.723570
O O7 0.745994 0.763199 0.766789
O O8 0.500000 0.591257 0.679576
O O9 0.289835 0.500000 0.681225
O O10 0.288382 0.608442 0.611550
O O11 0.245238 0.635878 0.715106
O O12 0.290880 0.368509 0.500000
O O13 0.500000 0.329911 0.436635
O O14 0.250561 0.264108 0.429890
O O15 0.244976 0.134591 0.619681
O O16 0.165599 0.248797 0.668179
O O17 0.000000 0.199685 0.591255
O O18 0.500000 0.089582 0.653465
O O19 0.286724 0.000000 0.657120
O O20 0.000000 0.083072 0.000000
O O21 0.779027 0.000000 0.000000
O O22 0.000000 0.701450 0.255573
#
# Coordination Sequence:
#
# PCOD9381488 Si02
#       8
#     8   8   8   8   8   8   4   8
#     4   9  16  26  40  57  79 110 148 185 217 249
#     4  10  18  27  40  59  83 108 136 172 212 249
#     4   9  17  29  45  65  88 111 133 159 193 232
#     4   9  17  29  45  63  82 106 134 160 188 228
#     4   9  17  28  42  59  78 101 129 162 199 237
#     4   9  17  28  41  57  78 103 129 160 202 250
#     4   7  12  24  39  53  73 107 148 183 214 249
#     4   9  17  29  43  59  80 107 138 166 196 239
#
# _framework density 14.252988999999999
#
# number of rings (size 3 to 8) (size 9 to 14) (size 15 to 20)
#    0.000    3.000    0.000    2.400    0.000    5.600 
#    0.000    1.667    0.000    1.600    0.000    6.533 
#    0.000    0.000    0.000    0.600    0.000   11.600 
#
# Total GULP energy -334053.754055 kJ/mol
# GULP energy per Si atom -5567.562568 kJ/mol
# Density = 1.422055 g / cm^3
# Si number density = 14.252989 Si / 1000 Ang^3
#
#
#
# Elastic Constant Matrix: (Units=GPa)
#
#
# Indices 1 2 3 4 5 6 
#
# 1 39.9170 39.3874 19.1547 0.0000 0.0000 0.0000
# 2 39.3874 96.8989 15.9621 0.0000 0.0000 0.0000
# 3 19.1547 15.9621 32.4290 0.0000 0.0000 0.0000
# 4 0.0000 0.0000 0.0000 12.5052 0.0000 0.0000
# 5 0.0000 0.0000 0.0000 0.0000 17.7300 0.0000
# 6 0.0000 0.0000 0.0000 0.0000 0.0000 18.3210
#
#
#
# Elastic Compliance Matrix: (Units=1/GPa)
#
#
# Indices 1 2 3 4 5 6 
#
# 1 0.053987 -0.018165 -0.022948 0.000000 0.000000 0.000000
# 2 -0.018165 0.017342 0.002193 0.000000 0.000000 0.000000
# 3 -0.022948 0.002193 0.043311 0.000000 0.000000 0.000000
# 4 0.000000 0.000000 0.000000 0.079967 0.000000 0.000000
# 5 0.000000 0.000000 0.000000 0.000000 0.056402 0.000000
# 6 0.000000 0.000000 0.000000 0.000000 0.000000 0.054582
#
#
# Mechanical properties :
#
#
# Convention : Reuss Voigt Hill
#
# Bulk Modulus (GPa) = 27.17181 35.36150 31.26665
# Shear Modulus (GPa) = 12.63593 16.02730 14.33161
#
# Velocity S-wave (km/s) = 2.98072 3.35697 3.17443
# Velocity P-wave (km/s) = 5.56342 6.31581 5.95151
#
# Compressibility (1/GPa) = 0.03680285
#
# Stress axis : x y z
#
# Youngs Moduli (GPa) = 18.52287 57.66239 23.08858
#
# Poissons Ratio (x) = 1.04741 0.52983
# Poissons Ratio (y) = 0.33646 -0.05063
# Poissons Ratio (z) = 0.42505 -0.12646
#
# Static dielectric constant tensor:
#      x y z
#    x 1.476730 0.000000 0.000000 
#    y 0.000000 1.450150 0.000000 
#    z 0.000000 0.000000 1.468860 
# 
# From -- ./inp_files/12889.got.cif
#   From: 2010.05.17/outbox.cif.g08.bks.cpg/sg47_7_cif.got.tgz:12889.got - 2010.06.03 20:15:42.
