data_PCOD9381273
_publ_section_title
;
Structure prediction by ZEFSAII (Michael W. Deem and Ramdas Pophale) SiO2 
 PCOD9381273
Probable space group: P M M M
;
_chemical_formula_sum "Si O2"
_cell_formula_units_Z 60
_cell_length_a 23.326344
_cell_length_b 18.379432
_cell_length_c 8.299992
_cell_angle_alpha 90.000000
_cell_angle_beta 90.000000
_cell_angle_gamma 90.000000
_cell_volume 3558.413683
_symmetry_space_group_name_H-M "P M M M"
_symmetry_group_IT_number 47
_symmetry_cell_setting 'orthorhombic'
loop_
_space_group_symop_operation_xyz
x,y,z
-x,-y,z
x,-y,-z
-x,y,-z
-x,-y,-z
x,y,-z
-x,y,z
x,-y,z
loop_
_atom_site_type_symbol
_atom_site_label
_atom_site_fract_x
_atom_site_fract_y
_atom_site_fract_z
Si Si1 0.378395 0.419010 0.694214
Si Si2 0.438929 0.882069 0.689001
Si Si3 0.871963 0.414810 0.823591
Si Si4 0.275370 0.230707 0.182705
Si Si5 0.589246 0.731197 0.817690
Si Si6 0.752220 0.379609 0.313297
Si Si7 0.311900 0.080752 0.305172
Si Si8 0.067277 0.588464 0.500000
O O1 0.380696 0.415112 0.500000
O O2 0.395968 0.500000 0.745511
O O3 0.414938 0.351924 0.761648
O O4 0.311046 0.406913 0.737501
O O5 0.439155 0.900806 0.500000
O O6 0.500000 0.907432 0.758831
O O7 0.436662 0.794594 0.708894
O O8 0.378165 0.910535 0.754186
O O9 0.887673 0.500000 0.829924
O O10 0.804046 0.409742 0.791149
O O11 0.902987 0.384154 0.664440
O O12 0.885699 0.382947 0.000000
O O13 0.342773 0.251616 0.183999
O O14 0.247283 0.292079 0.293527
O O15 0.274878 0.147534 0.239351
O O16 0.254166 0.238219 0.000000
O O17 0.568475 0.739839 0.000000
O O18 0.760393 0.400380 0.500000
O O19 0.313298 0.086986 0.500000
O O20 0.291730 0.000000 0.262255
O O21 0.073826 0.500000 0.500000
O O22 0.000000 0.604542 0.500000
#
# Coordination Sequence:
#
# PCOD9381273 Si02
#       8
#     8   8   8   8   8   8   8   4
#     4   9  17  27  41  60  81 106 132 161 202 253
#     4   9  17  29  45  62  78  99 128 163 204 246
#     4  10  19  29  43  64  89 118 155 199 241 276
#     4   9  17  28  41  59  82 109 140 168 201 250
#     4   9  17  28  41  57  78 102 128 160 197 243
#     4  10  17  27  43  62  87 114 142 178 220 262
#     4   9  17  29  44  62  84 108 135 166 200 244
#     4   9  18  32  46  60  84 120 161 203 242 277
#
# _framework density 16.861446000000001
#
# number of rings (size 3 to 8) (size 9 to 14) (size 15 to 20)
#    0.000    2.733    0.667    1.600    0.000    5.600 
#    0.000    2.667    0.000    0.400    0.000    6.533 
#    0.000    0.000    0.000    0.000    0.000    1.333 
#
# Total GULP energy -334217.571974 kJ/mol
# GULP energy per Si atom -5570.292866 kJ/mol
# Density = 1.682307 g / cm^3
# Si number density = 16.861446 Si / 1000 Ang^3
#
#
#
# Elastic Constant Matrix: (Units=GPa)
#
#
# Indices 1 2 3 4 5 6 
#
# 1 16.8027 -13.4092 12.3730 0.0000 0.0000 0.0000
# 2 -13.4092 81.8991 1.5501 0.0000 0.0000 0.0000
# 3 12.3730 1.5501 55.6440 0.0000 0.0000 0.0000
# 4 0.0000 0.0000 0.0000 9.9704 0.0000 0.0000
# 5 0.0000 0.0000 0.0000 0.0000 -0.1678 0.0000
# 6 0.0000 0.0000 0.0000 0.0000 0.0000 14.6935
#
#
#
# Elastic Compliance Matrix: (Units=1/GPa)
#
#
# Indices 1 2 3 4 5 6 
#
# 1 0.085175 0.014312 -0.019338 0.000000 0.000000 0.000000
# 2 0.014312 0.014621 -0.003590 0.000000 0.000000 0.000000
# 3 -0.019338 -0.003590 0.022371 0.000000 0.000000 0.000000
# 4 0.000000 0.000000 0.000000 0.100297 0.000000 0.000000
# 5 0.000000 0.000000 0.000000 0.000000 -5.957940 0.000000
# 6 0.000000 0.000000 0.000000 0.000000 0.000000 0.068057
#
#
# Mechanical properties :
#
#
# Convention : Reuss Voigt Hill
#
# Bulk Modulus (GPa) = 9.52967 17.26374 13.39671
# Shear Modulus (GPa) = -0.89044 15.15467 7.13212
#
# Velocity S-wave (km/s) = -0.72749 3.00121 2.05889
# Velocity P-wave (km/s) = 2.22674 4.71916 3.68978
#
# Compressibility (1/GPa) = 0.10493544
#
# Stress axis : x y z
#
# Youngs Moduli (GPa) = 11.74049 68.39339 44.69988
#
# Poissons Ratio (x) = -0.97882 0.86442
# Poissons Ratio (y) = -0.16803 0.16046
# Poissons Ratio (z) = 0.22704 0.24551
#
# Static dielectric constant tensor:
#      x y z
#    x 1.568160 0.000000 0.000000 
#    y 0.000000 1.589960 0.000000 
#    z 0.000000 0.000000 1.614080 
# 
# From -- ./inp_files/12885.got.cif
#   From: 2010.05.17/outbox.cif.g08.bks.cpg/sg47_7_cif.got.tgz:12885.got - 2010.06.03 20:15:42.
