data_PCOD9381476
_publ_section_title
;
Structure prediction by ZEFSAII (Michael W. Deem and Ramdas Pophale) SiO2 
 PCOD9381476
Probable space group: P M M M
;
_chemical_formula_sum "Si O2"
_cell_formula_units_Z 60
_cell_length_a 16.971618
_cell_length_b 7.269521
_cell_length_c 21.173370
_cell_angle_alpha 90.000000
_cell_angle_beta 90.000000
_cell_angle_gamma 90.000000
_cell_volume 2612.275819
_symmetry_space_group_name_H-M "P M M M"
_symmetry_group_IT_number 47
_symmetry_cell_setting 'orthorhombic'
loop_
_space_group_symop_operation_xyz
x,y,z
-x,-y,z
x,-y,-z
-x,y,-z
-x,-y,-z
x,y,-z
-x,y,z
x,-y,z
loop_
_atom_site_type_symbol
_atom_site_label
_atom_site_fract_x
_atom_site_fract_y
_atom_site_fract_z
Si Si1 0.289075 0.289734 0.823485
Si Si2 0.586864 0.221662 0.072683
Si Si3 0.089386 0.276490 0.330230
Si Si4 0.116400 0.723886 0.183492
Si Si5 0.417169 0.722214 0.735317
Si Si6 0.227981 0.722775 0.429086
Si Si7 0.000000 0.723531 0.926633
Si Si8 0.411186 0.279479 0.412440
O O1 0.274051 0.500000 0.803636
O O2 0.342387 0.289985 0.885157
O O3 0.204167 0.209969 0.829027
O O4 0.342712 0.201929 0.770393
O O5 0.500000 0.283995 0.094017
O O6 0.587551 0.000000 0.075332
O O7 0.595889 0.275344 0.000000
O O8 0.092115 0.500000 0.331014
O O9 0.095545 0.220996 0.255782
O O10 0.164279 0.218070 0.374821
O O11 0.000000 0.224392 0.351919
O O12 0.108117 0.500000 0.184291
O O13 0.070353 0.780157 0.120377
O O14 0.500000 0.790788 0.761285
O O15 0.417141 0.500000 0.743003
O O16 0.413814 0.756185 0.661851
O O17 0.198246 0.766213 0.500000
O O18 0.232218 0.500000 0.422922
O O19 0.321312 0.783304 0.428596
O O20 0.000000 0.500000 0.930617
O O21 0.000000 0.786552 0.000000
O O22 0.500000 0.216400 0.434378
O O23 0.411384 0.500000 0.424404
#
# Coordination Sequence:
#
# PCOD9381476 Si02
#       8
#     8   8   8   8   8   8   4   8
#     4  10  18  26  43  69  90 106 137 190 236 262
#     4   9  19  35  49  60  83 122 157 178 208 266
#     4   9  15  24  37  48  68 104 139 171 215 274
#     4   9  16  26  39  58  82 107 134 167 217 279
#     4   8  13  21  33  52  77 100 124 161 213 264
#     4   9  16  22  28  42  62  89 136 191 226 249
#     4   9  16  26  38  52  76 106 128 154 205 272
#     4   8  13  21  31  42  63  97 130 164 215 272
#
# _framework density 22.96848
#
# number of rings (size 3 to 8) (size 9 to 14) (size 15 to 20)
#    0.000    3.133    0.667    2.400    0.000    5.333 
#    0.000    4.667    0.000    0.000    0.000    0.467 
#    0.000    1.600    0.000    0.000    0.000   10.667 
#
# Total GULP energy -334126.882233 kJ/mol
# GULP energy per Si atom -5568.781371 kJ/mol
# Density = 2.291620 g / cm^3
# Si number density = 22.968480 Si / 1000 Ang^3
#
#
#
# Elastic Constant Matrix: (Units=GPa)
#
#
# Indices 1 2 3 4 5 6 
#
# 1 231.7419 6.5021 112.3254 0.0000 0.0000 0.0000
# 2 6.5021 96.8949 3.8792 0.0000 0.0000 0.0000
# 3 112.3254 3.8792 174.1628 0.0000 0.0000 0.0000
# 4 0.0000 0.0000 0.0000 138.5087 0.0000 0.0000
# 5 0.0000 0.0000 0.0000 0.0000 26.5301 0.0000
# 6 0.0000 0.0000 0.0000 0.0000 0.0000 -25.5439
#
#
#
# Elastic Compliance Matrix: (Units=1/GPa)
#
#
# Indices 1 2 3 4 5 6 
#
# 1 0.006284 -0.000260 -0.004047 0.000000 0.000000 0.000000
# 2 -0.000260 0.010340 -0.000063 0.000000 0.000000 0.000000
# 3 -0.004047 -0.000063 0.008353 0.000000 0.000000 0.000000
# 4 0.000000 0.000000 0.000000 0.007220 0.000000 0.000000
# 5 0.000000 0.000000 0.000000 0.000000 0.037693 0.000000
# 6 0.000000 0.000000 0.000000 0.000000 0.000000 -0.039148
#
#
# Mechanical properties :
#
#
# Convention : Reuss Voigt Hill
#
# Bulk Modulus (GPa) = 61.58180 83.13477 72.35828
# Shear Modulus (GPa) = 111.37268 53.23851 82.30559
#
# Velocity S-wave (km/s) = 6.97098 4.81967 5.99266
# Velocity P-wave (km/s) = 9.57405 8.20037 8.91371
#
# Compressibility (1/GPa) = 0.01623856
#
# Stress axis : x y z
#
# Youngs Moduli (GPa) = 159.13297 96.70807 119.71316
#
# Poissons Ratio (x) = 0.02511 0.48449
# Poissons Ratio (y) = 0.04132 0.00752
# Poissons Ratio (z) = 0.64402 0.00608
#
# Static dielectric constant tensor:
#      x y z
#    x 1.866340 0.000000 0.000000 
#    y 0.000000 1.993360 0.000000 
#    z 0.000000 0.000000 1.829660 
# 
# From -- ./inp_files/31181.got.cif
#   From: 2010.05.17/outbox.cif.g08.bks.cpg/sg47_16_cif.got.tgz:31181.got - 2010.06.03 20:15:42.
