data_PCOD9381487
_publ_section_title
;
Structure prediction by ZEFSAII (Michael W. Deem and Ramdas Pophale) SiO2 
 PCOD9381487
Probable space group: P M M M
;
_chemical_formula_sum "Si O2"
_cell_formula_units_Z 64
_cell_length_a 19.230820
_cell_length_b 27.352453
_cell_length_c 7.998182
_cell_angle_alpha 90.000000
_cell_angle_beta 90.000000
_cell_angle_gamma 90.000000
_cell_volume 4207.124515
_symmetry_space_group_name_H-M "P M M M"
_symmetry_group_IT_number 47
_symmetry_cell_setting 'orthorhombic'
loop_
_space_group_symop_operation_xyz
x,y,z
-x,-y,z
x,-y,-z
-x,y,-z
-x,-y,-z
x,y,-z
-x,y,z
x,-y,z
loop_
_atom_site_type_symbol
_atom_site_label
_atom_site_fract_x
_atom_site_fract_y
_atom_site_fract_z
Si Si1 0.579241 0.245660 0.797790
Si Si2 0.336978 0.850563 0.798783
Si Si3 0.420751 0.055133 0.298430
Si Si4 0.078785 0.444233 0.701722
Si Si5 0.920507 0.258624 0.205068
Si Si6 0.203975 0.198364 0.807677
Si Si7 0.713789 0.290868 0.306966
Si Si8 0.832042 0.352938 0.198537
O O1 0.500000 0.250834 0.739855
O O2 0.612456 0.193660 0.741458
O O3 0.632909 0.287149 0.738093
O O4 0.578880 0.245681 0.000000
O O5 0.369154 0.902523 0.756223
O O6 0.258896 0.839981 0.732761
O O7 0.333479 0.846495 0.000000
O O8 0.421817 0.054628 0.500000
O O9 0.500000 0.065770 0.241413
O O10 0.402756 0.000000 0.242235
O O11 0.078158 0.444198 0.500000
O O12 0.093040 0.500000 0.756434
O O13 0.134214 0.404616 0.759122
O O14 0.000000 0.431269 0.758005
O O15 0.870074 0.214791 0.265051
O O16 0.884885 0.309825 0.256611
O O17 0.000000 0.255184 0.259576
O O18 0.919827 0.257944 0.000000
O O19 0.248052 0.249055 0.802274
O O20 0.191255 0.184179 0.000000
O O21 0.722426 0.277079 0.500000
O O22 0.756867 0.340057 0.274515
O O23 0.825687 0.348803 0.000000
#
# Coordination Sequence:
#
# PCOD9381487 Si02
#       8
#     8   8   8   8   8   8   8   8
#     4   9  17  29  43  59  82 109 134 163 200 239
#     4   9  16  26  40  57  77 103 132 159 192 234
#     4   9  18  30  40  52  73  99 127 162 200 232
#     4   9  18  31  44  60  85 113 139 172 213 249
#     4   8  13  22  38  58  77 100 131 163 193 228
#     4   8  15  27  39  54  79 105 129 161 198 235
#     4  10  18  27  40  58  80 106 137 169 201 239
#     4  10  18  28  42  59  81 109 142 175 204 238
#
# _framework density 15.212291
#
# number of rings (size 3 to 8) (size 9 to 14) (size 15 to 20)
#    0.000    3.000    0.000    4.500    0.000    4.250 
#    0.000    1.250    0.000    3.375    0.000    0.000 
#    0.000    1.000    0.000   11.500    0.000    3.250 
#
# Total GULP energy -356272.032944 kJ/mol
# GULP energy per Si atom -5566.750515 kJ/mol
# Density = 1.517767 g / cm^3
# Si number density = 15.212291 Si / 1000 Ang^3
#
#
#
# Elastic Constant Matrix: (Units=GPa)
#
#
# Indices 1 2 3 4 5 6 
#
# 1 125.2717 60.6520 10.4889 0.0000 0.0000 0.0000
# 2 60.6520 83.1577 6.4303 0.0000 0.0000 0.0000
# 3 10.4889 6.4303 21.4505 0.0000 0.0000 0.0000
# 4 0.0000 0.0000 0.0000 21.0341 0.0000 0.0000
# 5 0.0000 0.0000 0.0000 0.0000 11.6734 0.0000
# 6 0.0000 0.0000 0.0000 0.0000 0.0000 29.1168
#
#
#
# Elastic Compliance Matrix: (Units=1/GPa)
#
#
# Indices 1 2 3 4 5 6 
#
# 1 0.012590 -0.008913 -0.003484 0.000000 0.000000 0.000000
# 2 -0.008913 0.018621 -0.001224 0.000000 0.000000 0.000000
# 3 -0.003484 -0.001224 0.048689 0.000000 0.000000 0.000000
# 4 0.000000 0.000000 0.000000 0.047542 0.000000 0.000000
# 5 0.000000 0.000000 0.000000 0.000000 0.085665 0.000000
# 6 0.000000 0.000000 0.000000 0.000000 0.000000 0.034344
#
#
# Mechanical properties :
#
#
# Convention : Reuss Voigt Hill
#
# Bulk Modulus (GPa) = 18.99045 42.78025 30.88535
# Shear Modulus (GPa) = 17.10888 22.51878 19.81383
#
# Velocity S-wave (km/s) = 3.35726 3.85164 3.61292
# Velocity P-wave (km/s) = 5.24776 6.92556 6.14420
#
# Compressibility (1/GPa) = 0.05265806
#
# Stress axis : x y z
#
# Youngs Moduli (GPa) = 79.42960 53.70336 20.53831
#
# Poissons Ratio (x) = 0.47866 0.07156
# Poissons Ratio (y) = 0.70796 0.02513
# Poissons Ratio (z) = 0.27675 0.06572
#
# Static dielectric constant tensor:
#      x y z
#    x 1.533780 0.000000 0.000000 
#    y 0.000000 1.495320 0.000000 
#    z 0.000000 0.000000 1.547620 
# 
# From -- ./inp_files/10265.got.cif
#   From: 2010.05.17/outbox.cif.g08.bks.cpg/sg47_6_cif.got.tgz:10265.got - 2010.06.03 20:15:42.
