data_PCOD9381979
_publ_section_title
;
Structure prediction by ZEFSAII (Michael W. Deem and Ramdas Pophale) SiO2 
 PCOD9381979
Probable space group: P M M M
;
_chemical_formula_sum "Si O2"
_cell_formula_units_Z 40
_cell_length_a 7.603870
_cell_length_b 13.093253
_cell_length_c 19.692098
_cell_angle_alpha 90.000000
_cell_angle_beta 90.000000
_cell_angle_gamma 90.000000
_cell_volume 1960.533337
_symmetry_space_group_name_H-M "P M M M"
_symmetry_group_IT_number 47
_symmetry_cell_setting 'orthorhombic'
loop_
_space_group_symop_operation_xyz
x,y,z
-x,-y,z
x,-y,-z
-x,y,-z
-x,-y,-z
x,y,-z
-x,y,z
x,-y,z
loop_
_atom_site_type_symbol
_atom_site_label
_atom_site_fract_x
_atom_site_fract_y
_atom_site_fract_z
Si Si1 0.787908 0.194693 0.835431
Si Si2 0.209185 0.500000 0.577391
Si Si3 0.289828 0.883672 0.686367
Si Si4 0.214650 0.616144 0.077620
Si Si5 0.290416 0.723319 0.422587
Si Si6 0.784858 0.000000 0.922169
O O1 0.740154 0.170869 0.758263
O O2 0.724601 0.300366 0.868338
O O3 0.000000 0.196162 0.838675
O O4 0.727137 0.100398 0.881930
O O5 0.282582 0.500000 0.500000
O O6 0.261849 0.390620 0.607070
O O7 0.000000 0.500000 0.574193
O O8 0.500000 0.890841 0.677267
O O9 0.219755 0.811891 0.626038
O O10 0.220288 0.000000 0.687339
O O11 0.271154 0.500000 0.091570
O O12 0.000000 0.616072 0.078443
O O13 0.265431 0.642884 0.000000
O O14 0.219432 0.726301 0.500000
O O15 0.500000 0.736848 0.427202
O O16 0.000000 0.000000 0.922219
O O17 0.727969 0.000000 0.000000
#
# Coordination Sequence:
#
# PCOD9381979 Si02
#       6
#     8   4   8   8   8   4
#     4  10  18  30  49  72  99 131 165 204 249 300
#     4   9  17  31  53  81 109 131 156 201 256 301
#     4  10  21  36  52  71 101 137 169 209 259 302
#     4   8  14  26  46  72  99 125 158 204 250 290
#     4   9  18  34  56  78 100 132 174 212 247 296
#     4   9  16  26  45  73  96 121 166 214 249 287
#
# _framework density 20.402611
#
# number of rings (size 3 to 8) (size 9 to 14) (size 15 to 20)
#    0.000    2.800    1.000    1.500    0.000    4.800 
#    1.800    2.000    0.000    3.000    0.000    5.600 
#    0.000    0.000    0.000    0.000    0.000    0.000 
#
# Total GULP energy -223121.870686 kJ/mol
# GULP energy per Si atom -5578.046767 kJ/mol
# Density = 2.035617 g / cm^3
# Si number density = 20.402611 Si / 1000 Ang^3
#
#
#
# Elastic Constant Matrix: (Units=GPa)
#
#
# Indices 1 2 3 4 5 6 
#
# 1 43.9520 6.6497 2.7678 0.0000 0.0000 0.0000
# 2 6.6497 194.4010 109.1169 0.0000 0.0000 0.0000
# 3 2.7678 109.1169 133.2848 0.0000 0.0000 0.0000
# 4 0.0000 0.0000 0.0000 22.8104 0.0000 0.0000
# 5 0.0000 0.0000 0.0000 0.0000 19.3427 0.0000
# 6 0.0000 0.0000 0.0000 0.0000 0.0000 -2.6826
#
#
#
# Elastic Compliance Matrix: (Units=1/GPa)
#
#
# Indices 1 2 3 4 5 6 
#
# 1 0.022877 -0.000955 0.000306 0.000000 0.000000 0.000000
# 2 -0.000955 0.009557 -0.007805 0.000000 0.000000 0.000000
# 3 0.000306 -0.007805 0.013886 0.000000 0.000000 0.000000
# 4 0.000000 0.000000 0.000000 0.043840 0.000000 0.000000
# 5 0.000000 0.000000 0.000000 0.000000 0.051699 0.000000
# 6 0.000000 0.000000 0.000000 0.000000 0.000000 -0.372776
#
#
# Mechanical properties :
#
#
# Convention : Reuss Voigt Hill
#
# Bulk Modulus (GPa) = 33.99635 67.63408 50.81521
# Shear Modulus (GPa) = -24.48501 24.76765 0.14132
#
# Velocity S-wave (km/s) = -3.46799 3.48795 0.26347
# Velocity P-wave (km/s) = 0.81422 7.03155 5.00528
#
# Compressibility (1/GPa) = 0.02941492
#
# Stress axis : x y z
#
# Youngs Moduli (GPa) = 43.71166 104.63194 72.01644
#
# Poissons Ratio (x) = 0.09987 -0.02206
# Poissons Ratio (y) = 0.04172 0.56205
# Poissons Ratio (z) = -0.01339 0.81660
#
# Static dielectric constant tensor:
#      x y z
#    x 1.778760 0.000000 0.000000 
#    y 0.000000 1.733760 0.000000 
#    z 0.000000 0.000000 1.698950 
# 
# From -- ./inp_files/10709.got.cif
#   From: 2010.05.17/outbox.cif.g08.bks.cpg/sg47_6_cif.got.tgz:10709.got - 2010.06.03 20:15:42.
