data_PCOD9381533
_publ_section_title
;
Structure prediction by ZEFSAII (Michael W. Deem and Ramdas Pophale) SiO2 
 PCOD9381533
Probable space group: P M M M
;
_chemical_formula_sum "Si O2"
_cell_formula_units_Z 64
_cell_length_a 14.814339
_cell_length_b 30.200885
_cell_length_c 7.549726
_cell_angle_alpha 90.000000
_cell_angle_beta 90.000000
_cell_angle_gamma 90.000000
_cell_volume 3377.793832
_symmetry_space_group_name_H-M "P M M M"
_symmetry_group_IT_number 47
_symmetry_cell_setting 'orthorhombic'
loop_
_space_group_symop_operation_xyz
x,y,z
-x,-y,z
x,-y,-z
-x,y,-z
-x,-y,-z
x,y,-z
-x,y,z
x,-y,z
loop_
_atom_site_type_symbol
_atom_site_label
_atom_site_fract_x
_atom_site_fract_y
_atom_site_fract_z
Si Si1 0.397403 0.588248 0.785737
Si Si2 0.102152 0.268584 0.712768
Si Si3 0.396715 0.855202 0.210737
Si Si4 0.395839 0.311535 0.215451
Si Si5 0.212613 0.451913 0.291903
Si Si6 0.894239 0.367280 0.714939
Si Si7 0.284025 0.227947 0.788598
Si Si8 0.604859 0.047595 0.287119
O O1 0.500000 0.578280 0.729076
O O2 0.374154 0.638503 0.726149
O O3 0.319489 0.555930 0.723534
O O4 0.397255 0.587917 0.000000
O O5 0.098069 0.271075 0.500000
O O6 0.130831 0.317834 0.777856
O O7 0.177864 0.233059 0.757869
O O8 0.000000 0.259783 0.775723
O O9 0.500000 0.853173 0.282279
O O10 0.333552 0.815940 0.280629
O O11 0.357611 0.904559 0.236990
O O12 0.404010 0.849141 0.000000
O O13 0.500000 0.302302 0.262695
O O14 0.332119 0.272501 0.281485
O O15 0.391934 0.312199 0.000000
O O16 0.189164 0.453092 0.500000
O O17 0.188206 0.500000 0.215972
O O18 0.163770 0.408389 0.216271
O O19 0.885787 0.366563 0.500000
O O20 0.000000 0.373705 0.755136
O O21 0.297278 0.228208 0.000000
O O22 0.604286 0.046639 0.500000
O O23 0.500000 0.048442 0.226807
O O24 0.643528 0.000000 0.226457
#
# Coordination Sequence:
#
# PCOD9381533 Si02
#       8
#     8   8   8   8   8   8   8   8
#     4   9  18  32  48  63  80 109 147 177 202 240
#     4   9  18  32  48  64  83 110 142 174 211 255
#     4   9  17  27  39  60  91 123 152 181 216 258
#     4   8  14  26  44  64  85 110 141 174 206 244
#     4  10  20  31  45  67  89 107 131 167 211 253
#     4   8  15  30  50  68  86 108 134 166 206 255
#     4  10  18  27  43  66  90 115 142 175 215 255
#     4   8  14  25  40  57  80 115 158 197 226 250
#
# _framework density 18.947277
#
# number of rings (size 3 to 8) (size 9 to 14) (size 15 to 20)
#    0.000    3.125    0.000    3.000    0.000    3.500 
#    0.000    3.750    0.000    3.000    0.000    0.875 
#    0.000    0.500    0.000    5.500    0.000    4.250 
#
# Total GULP energy -356746.858341 kJ/mol
# GULP energy per Si atom -5574.169662 kJ/mol
# Density = 1.890415 g / cm^3
# Si number density = 18.947277 Si / 1000 Ang^3
#
#
#
# Elastic Constant Matrix: (Units=GPa)
#
#
# Indices 1 2 3 4 5 6 
#
# 1 63.6144 66.3013 -2.8024 0.0000 0.0000 0.0000
# 2 66.3013 115.7370 3.0912 0.0000 0.0000 0.0000
# 3 -2.8024 3.0912 44.6492 0.0000 0.0000 0.0000
# 4 0.0000 0.0000 0.0000 2.2855 0.0000 0.0000
# 5 0.0000 0.0000 0.0000 0.0000 12.7737 0.0000
# 6 0.0000 0.0000 0.0000 0.0000 0.0000 17.0664
#
#
#
# Elastic Compliance Matrix: (Units=1/GPa)
#
#
# Indices 1 2 3 4 5 6 
#
# 1 0.039740 -0.022874 0.004078 0.000000 0.000000 0.000000
# 2 -0.022874 0.021823 -0.002947 0.000000 0.000000 0.000000
# 3 0.004078 -0.002947 0.022857 0.000000 0.000000 0.000000
# 4 0.000000 0.000000 0.000000 0.437534 0.000000 0.000000
# 5 0.000000 0.000000 0.000000 0.000000 0.078286 0.000000
# 6 0.000000 0.000000 0.000000 0.000000 0.000000 0.058595
#
#
# Mechanical properties :
#
#
# Convention : Reuss Voigt Hill
#
# Bulk Modulus (GPa) = 24.42990 39.68675 32.05832
# Shear Modulus (GPa) = 6.98359 16.91918 11.95138
#
# Velocity S-wave (km/s) = 1.92193 2.99149 2.51424
# Velocity P-wave (km/s) = 4.22453 5.73789 5.03835
#
# Compressibility (1/GPa) = 0.04093344
#
# Stress axis : x y z
#
# Youngs Moduli (GPa) = 25.16364 45.82354 43.75075
#
# Poissons Ratio (x) = 1.04819 -0.17841
# Poissons Ratio (y) = 0.57560 0.12891
# Poissons Ratio (z) = -0.10262 0.13502
#
# Static dielectric constant tensor:
#      x y z
#    x 1.644920 0.000000 0.000000 
#    y 0.000000 1.692840 0.000000 
#    z 0.000000 0.000000 1.728900 
# 
# From -- ./inp_files/8297.got.cif
#   From: 2010.05.17/outbox.cif.g08.bks.cpg/sg47_5_cif.got.tgz:8297.got - 2010.06.03 20:15:42.
