data_PCOD9381642
_publ_section_title
;
Structure prediction by ZEFSAII (Michael W. Deem and Ramdas Pophale) SiO2 
 PCOD9381642
Probable space group: P M M M
;
_chemical_formula_sum "Si O2"
_cell_formula_units_Z 64
_cell_length_a 8.609503
_cell_length_b 21.063589
_cell_length_c 20.535436
_cell_angle_alpha 90.000000
_cell_angle_beta 90.000000
_cell_angle_gamma 90.000000
_cell_volume 3724.040384
_symmetry_space_group_name_H-M "P M M M"
_symmetry_group_IT_number 47
_symmetry_cell_setting 'orthorhombic'
loop_
_space_group_symop_operation_xyz
x,y,z
-x,-y,z
x,-y,-z
-x,y,-z
-x,-y,-z
x,y,-z
-x,y,z
x,-y,z
loop_
_atom_site_type_symbol
_atom_site_label
_atom_site_fract_x
_atom_site_fract_y
_atom_site_fract_z
Si Si1 0.186817 0.744400 0.789942
Si Si2 0.814685 0.745092 0.930672
Si Si3 0.685912 0.690844 0.658587
Si Si4 0.689251 0.572084 0.425389
Si Si5 0.312816 0.929963 0.649204
Si Si6 0.814644 0.192169 0.575988
Si Si7 0.183703 0.101314 0.928654
Si Si8 0.314736 0.112305 0.792260
O O1 0.243926 0.721159 0.861161
O O2 0.246829 0.703793 0.729894
O O3 0.243926 0.817146 0.783978
O O4 0.000000 0.745311 0.789709
O O5 0.798048 0.821794 0.929280
O O6 0.000000 0.733059 0.931889
O O7 0.748470 0.722558 0.000000
O O8 0.500000 0.689289 0.662788
O O9 0.741713 0.626075 0.624297
O O10 0.735270 0.749863 0.613630
O O11 0.736555 0.586486 0.500000
O O12 0.500000 0.572554 0.424981
O O13 0.738079 0.500000 0.409778
O O14 0.500000 0.923716 0.644057
O O15 0.235739 0.873261 0.609740
O O16 0.274033 0.923944 0.725932
O O17 0.268107 0.000000 0.625591
O O18 0.771040 0.192318 0.500000
O O19 0.000000 0.199307 0.581230
O O20 0.258489 0.081825 0.860277
O O21 0.000000 0.087639 0.926061
O O22 0.241757 0.078783 0.000000
O O23 0.500000 0.118107 0.795629
#
# Coordination Sequence:
#
# PCOD9381642 Si02
#       8
#     8   8   8   8   8   8   8   8
#     4  10  18  28  45  68  98 131 161 199 245 293
#     4   7  11  21  37  58  85 120 159 193 229 276
#     4  11  20  31  51  78 105 133 165 201 242 291
#     4   8  15  29  49  73 100 131 168 206 241 281
#     4  10  22  39  56  73  95 125 161 204 255 308
#     4  11  24  39  55  76 100 126 159 201 248 299
#     4   8  14  25  42  64  91 124 158 193 239 293
#     4  10  18  29  47  70  94 121 159 204 247 295
#
# _framework density 17.185635999999999
#
# number of rings (size 3 to 8) (size 9 to 14) (size 15 to 20)
#    0.000    2.625    1.250    3.750    0.000    2.750 
#    0.000    1.250    0.000    3.000    0.000    7.000 
#    0.000    0.500    0.000    6.250    0.000    0.125 
#
# Total GULP energy -356682.956439 kJ/mol
# GULP energy per Si atom -5573.171194 kJ/mol
# Density = 1.714652 g / cm^3
# Si number density = 17.185636 Si / 1000 Ang^3
#
#
#
# Elastic Constant Matrix: (Units=GPa)
#
#
# Indices 1 2 3 4 5 6 
#
# 1 25.1472 13.0428 31.0868 0.0000 0.0000 0.0000
# 2 13.0428 78.4743 56.4219 0.0000 0.0000 0.0000
# 3 31.0868 56.4219 147.2596 0.0000 0.0000 0.0000
# 4 0.0000 0.0000 0.0000 76.9555 0.0000 0.0000
# 5 0.0000 0.0000 0.0000 0.0000 5.4360 0.0000
# 6 0.0000 0.0000 0.0000 0.0000 0.0000 -19.7978
#
#
#
# Elastic Compliance Matrix: (Units=1/GPa)
#
#
# Indices 1 2 3 4 5 6 
#
# 1 0.053873 -0.001073 -0.010962 0.000000 0.000000 0.000000
# 2 -0.001073 0.017610 -0.006521 0.000000 0.000000 0.000000
# 3 -0.010962 -0.006521 0.011603 0.000000 0.000000 0.000000
# 4 0.000000 0.000000 0.000000 0.012995 0.000000 0.000000
# 5 0.000000 0.000000 0.000000 0.000000 0.183959 0.000000
# 6 0.000000 0.000000 0.000000 0.000000 0.000000 -0.050511
#
#
# Mechanical properties :
#
#
# Convention : Reuss Voigt Hill
#
# Bulk Modulus (GPa) = 21.75061 50.22046 35.98553
# Shear Modulus (GPa) = 17.73276 22.54071 20.13673
#
# Velocity S-wave (km/s) = 3.21571 3.62553 3.42675
# Velocity P-wave (km/s) = 5.14504 6.84191 6.05323
#
# Compressibility (1/GPa) = 0.04597573
#
# Stress axis : x y z
#
# Youngs Moduli (GPa) = 18.56217 56.78752 86.18384
#
# Poissons Ratio (x) = 0.06091 0.94472
# Poissons Ratio (y) = 0.01991 0.56197
# Poissons Ratio (z) = 0.20347 0.37029
#
# Static dielectric constant tensor:
#      x y z
#    x 1.583080 0.000000 0.000000 
#    y 0.000000 1.564060 0.000000 
#    z 0.000000 0.000000 1.628910 
# 
# From -- ./inp_files/30175.got.cif
#   From: 2010.05.17/outbox.cif.g08.bks.cpg/sg47_16_cif.got.tgz:30175.got - 2010.06.03 20:15:42.
