data_PCOD9381176
_publ_section_title
;
Structure prediction by ZEFSAII (Michael W. Deem and Ramdas Pophale) SiO2 
 PCOD9381176
Probable space group: P M M M
;
_chemical_formula_sum "Si O2"
_cell_formula_units_Z 52
_cell_length_a 7.458268
_cell_length_b 14.706036
_cell_length_c 26.406935
_cell_angle_alpha 90.000000
_cell_angle_beta 90.000000
_cell_angle_gamma 90.000000
_cell_volume 2896.353765
_symmetry_space_group_name_H-M "P M M M"
_symmetry_group_IT_number 47
_symmetry_cell_setting 'orthorhombic'
loop_
_space_group_symop_operation_xyz
x,y,z
-x,-y,z
x,-y,-z
-x,y,-z
-x,-y,-z
x,y,-z
-x,y,z
x,-y,z
loop_
_atom_site_type_symbol
_atom_site_label
_atom_site_fract_x
_atom_site_fract_y
_atom_site_fract_z
Si Si1 0.290139 0.703838 0.554913
Si Si2 0.711534 0.602593 0.150411
Si Si3 0.784086 0.899115 0.711742
Si Si4 0.719375 0.605652 0.343905
Si Si5 0.216682 0.898319 0.405169
Si Si6 0.279884 0.500000 0.942443
Si Si7 0.711071 0.709241 0.243945
O O1 0.212085 0.679846 0.500000
O O2 0.500000 0.679517 0.553418
O O3 0.216094 0.654788 0.604841
O O4 0.277899 0.812272 0.563072
O O5 0.500000 0.622213 0.144575
O O6 0.727811 0.500000 0.173185
O O7 0.777941 0.585422 0.092984
O O8 0.787748 0.672504 0.190956
O O9 0.725337 0.884369 0.653401
O O10 0.727649 0.816127 0.746538
O O11 0.000000 0.899629 0.710717
O O12 0.723946 0.000000 0.727286
O O13 0.500000 0.610382 0.343903
O O14 0.768780 0.500000 0.342844
O O15 0.783304 0.658263 0.293777
O O16 0.000000 0.898016 0.406001
O O17 0.274150 0.000000 0.421037
O O18 0.500000 0.500000 0.943107
O O19 0.218793 0.500000 0.000000
O O20 0.500000 0.686530 0.242493
#
# Coordination Sequence:
#
# PCOD9381176 Si02
#       7
#     8   8   8   8   8   4   8
#     4  10  20  32  45  64  85 103 131 171 209 246
#     4   7  12  20  33  58  88 117 146 175 201 233
#     4   9  18  31  45  61  83 110 136 166 210 261
#     4   9  17  28  43  62  82 107 134 163 204 247
#     4   9  18  33  50  64  79 103 134 165 204 259
#     4   7  10  18  32  54  91 131 154 170 201 242
#     4  10  16  25  44  66  86 107 138 176 209 242
#
# _framework density 17.953607999999999
#
# number of rings (size 3 to 8) (size 9 to 14) (size 15 to 20)
#    0.462    2.692    1.538    1.385    0.000    3.385 
#    0.000    4.615    0.000    3.231    0.000    1.077 
#    0.000    1.846    0.000    7.692    0.000    1.231 
#
# Total GULP energy -289540.399187 kJ/mol
# GULP energy per Si atom -5568.084600 kJ/mol
# Density = 1.791274 g / cm^3
# Si number density = 17.953608 Si / 1000 Ang^3
#
#
#
# Elastic Constant Matrix: (Units=GPa)
#
#
# Indices 1 2 3 4 5 6 
#
# 1 51.3266 -4.9686 8.1091 0.0000 0.0000 0.0000
# 2 -4.9686 82.9322 73.9811 0.0000 0.0000 0.0000
# 3 8.1091 73.9811 156.6458 0.0000 0.0000 0.0000
# 4 0.0000 0.0000 0.0000 19.4977 0.0000 0.0000
# 5 0.0000 0.0000 0.0000 0.0000 -5.1222 0.0000
# 6 0.0000 0.0000 0.0000 0.0000 0.0000 26.0053
#
#
#
# Elastic Compliance Matrix: (Units=1/GPa)
#
#
# Indices 1 2 3 4 5 6 
#
# 1 0.020287 0.003719 -0.002807 0.000000 0.000000 0.000000
# 2 0.003719 0.021519 -0.010355 0.000000 0.000000 0.000000
# 3 -0.002807 -0.010355 0.011420 0.000000 0.000000 0.000000
# 4 0.000000 0.000000 0.000000 0.051288 0.000000 0.000000
# 5 0.000000 0.000000 0.000000 0.000000 -0.195229 0.000000
# 6 0.000000 0.000000 0.000000 0.000000 0.000000 0.038454
#
#
# Mechanical properties :
#
#
# Convention : Reuss Voigt Hill
#
# Bulk Modulus (GPa) = 29.12136 49.46086 39.29111
# Shear Modulus (GPa) = -227.99096 22.32837 -102.83129
#
# Velocity S-wave (km/s) = -11.28116 3.53040 -7.57631
# Velocity P-wave (km/s) = 12.38671 6.65036 7.38929
#
# Compressibility (1/GPa) = 0.03433905
#
# Stress axis : x y z
#
# Youngs Moduli (GPa) = 49.29384 46.47151 87.56731
#
# Poissons Ratio (x) = -0.17283 0.24577
# Poissons Ratio (y) = -0.18333 0.90679
# Poissons Ratio (z) = 0.13835 0.48123
#
# Static dielectric constant tensor:
#      x y z
#    x 1.680580 0.000000 0.000000 
#    y 0.000000 1.607160 0.000000 
#    z 0.000000 0.000000 1.627960 
# 
# From -- ./inp_files/33701.got.cif
#   From: 2010.05.17/outbox.cif.g08.bks.cpg/sg47_17_cif.got.tgz:33701.got - 2010.06.03 20:15:42.
