data_PCOD9381562
_publ_section_title
;
Structure prediction by ZEFSAII (Michael W. Deem and Ramdas Pophale) SiO2 
 PCOD9381562
Probable space group: P M M M
;
_chemical_formula_sum "Si O2"
_cell_formula_units_Z 48
_cell_length_a 22.685803
_cell_length_b 9.152438
_cell_length_c 18.768496
_cell_angle_alpha 90.000000
_cell_angle_beta 90.000000
_cell_angle_gamma 90.000000
_cell_volume 3896.910434
_symmetry_space_group_name_H-M "P M M M"
_symmetry_group_IT_number 47
_symmetry_cell_setting 'orthorhombic'
loop_
_space_group_symop_operation_xyz
x,y,z
-x,-y,z
x,-y,-z
-x,y,-z
-x,-y,-z
x,y,-z
-x,y,z
x,-y,z
loop_
_atom_site_type_symbol
_atom_site_label
_atom_site_fract_x
_atom_site_fract_y
_atom_site_fract_z
Si Si1 0.356929 0.176845 0.861978
Si Si2 0.428567 0.671102 0.578355
Si Si3 0.432835 0.177438 0.000000
Si Si4 0.240483 0.674212 0.085038
Si Si5 0.568682 0.175594 0.723000
Si Si6 0.880956 0.168372 0.913390
Si Si7 0.000000 0.330979 0.913109
O O1 0.397680 0.219946 0.929209
O O2 0.294206 0.252423 0.873155
O O3 0.390648 0.217645 0.789527
O O4 0.350210 0.000000 0.863444
O O5 0.408258 0.723336 0.500000
O O6 0.500000 0.680310 0.577506
O O7 0.413479 0.500000 0.584932
O O8 0.409848 0.758008 0.648268
O O9 0.500000 0.230569 0.000000
O O10 0.434935 0.000000 0.000000
O O11 0.239256 0.500000 0.094511
O O12 0.178109 0.745007 0.106433
O O13 0.248911 0.703439 0.000000
O O14 0.500000 0.219700 0.734975
O O15 0.569112 0.000000 0.718214
O O16 0.940698 0.248516 0.889845
O O17 0.879074 0.000000 0.890026
O O18 0.882376 0.167803 0.000000
O O19 0.000000 0.500000 0.891181
O O20 0.000000 0.329449 0.000000
#
# Coordination Sequence:
#
# PCOD9381562 Si02
#       7
#     8   8   4   8   8   8   4
#     4  10  18  28  41  54  69  91 121 153 187 227
#     4   8  14  25  40  56  73  93 114 134 165 216
#     4   9  16  26  41  55  65  84 117 154 189 225
#     4  10  19  29  39  51  68  90 119 154 190 223
#     4   9  17  27  39  57  76  91 113 148 187 224
#     4   9  16  25  38  53  69  89 115 144 177 217
#     4   9  15  23  35  53  75  93 109 135 176 217
#
# _framework density 12.317449999999999
#
# number of rings (size 3 to 8) (size 9 to 14) (size 15 to 20)
#    0.000    2.833    0.833    2.250    0.000    6.667 
#    0.000    1.667    0.000    2.000    0.000    0.000 
#    0.000    0.000    0.000    0.000    0.000    0.000 
#
# Total GULP energy -267266.042488 kJ/mol
# GULP energy per Si atom -5568.042552 kJ/mol
# Density = 1.228942 g / cm^3
# Si number density = 12.317450 Si / 1000 Ang^3
#
#
#
# Elastic Constant Matrix: (Units=GPa)
#
#
# Indices 1 2 3 4 5 6 
#
# 1 103.4928 43.6804 44.9784 0.0000 0.0000 0.0000
# 2 43.6804 47.6229 33.4913 0.0000 0.0000 0.0000
# 3 44.9784 33.4913 83.6891 0.0000 0.0000 0.0000
# 4 0.0000 0.0000 0.0000 14.3975 0.0000 0.0000
# 5 0.0000 0.0000 0.0000 0.0000 2.9247 0.0000
# 6 0.0000 0.0000 0.0000 0.0000 0.0000 14.5457
#
#
#
# Elastic Compliance Matrix: (Units=1/GPa)
#
#
# Indices 1 2 3 4 5 6 
#
# 1 0.016654 -0.012498 -0.003949 0.000000 0.000000 0.000000
# 2 -0.012498 0.038602 -0.008731 0.000000 0.000000 0.000000
# 3 -0.003949 -0.008731 0.017565 0.000000 0.000000 0.000000
# 4 0.000000 0.000000 0.000000 0.069456 0.000000 0.000000
# 5 0.000000 0.000000 0.000000 0.000000 0.341915 0.000000
# 6 0.000000 0.000000 0.000000 0.000000 0.000000 0.068749
#
#
# Mechanical properties :
#
#
# Convention : Reuss Voigt Hill
#
# Bulk Modulus (GPa) = 44.51342 53.23387 48.87365
# Shear Modulus (GPa) = 8.18620 13.88391 11.03505
#
# Velocity S-wave (km/s) = 2.58078 3.36098 2.99639
# Velocity P-wave (km/s) = 6.71547 7.64027 7.19275
#
# Compressibility (1/GPa) = 0.02246514
#
# Stress axis : x y z
#
# Youngs Moduli (GPa) = 60.04716 25.90569 56.93028
#
# Poissons Ratio (x) = 0.32376 0.22482
# Poissons Ratio (y) = 0.75045 0.49706
# Poissons Ratio (z) = 0.23712 0.22618
#
# Static dielectric constant tensor:
#      x y z
#    x 1.387810 0.000000 0.000000 
#    y 0.000000 1.411290 0.000000 
#    z 0.000000 0.000000 1.386160 
# 
# From -- ./inp_files/9749.got.cif
#   From: 2010.05.17/outbox.cif.g08.bks.cpg/sg47_5_cif.got.tgz:9749.got - 2010.06.03 20:15:42.
