data_PCOD9381931
_publ_section_title
;
Structure prediction by ZEFSAII (Michael W. Deem and Ramdas Pophale) SiO2 
 PCOD9381931
Probable space group: P M M M
;
_chemical_formula_sum "Si O2"
_cell_formula_units_Z 64
_cell_length_a 7.438464
_cell_length_b 20.255253
_cell_length_c 21.392320
_cell_angle_alpha 90.000000
_cell_angle_beta 90.000000
_cell_angle_gamma 90.000000
_cell_volume 3223.137433
_symmetry_space_group_name_H-M "P M M M"
_symmetry_group_IT_number 47
_symmetry_cell_setting 'orthorhombic'
loop_
_space_group_symop_operation_xyz
x,y,z
-x,-y,z
x,-y,-z
-x,y,-z
-x,-y,-z
x,y,-z
-x,y,z
x,-y,z
loop_
_atom_site_type_symbol
_atom_site_label
_atom_site_fract_x
_atom_site_fract_y
_atom_site_fract_z
Si Si1 0.708147 0.285000 0.193739
Si Si2 0.709729 0.072250 0.101678
Si Si3 0.218022 0.073344 0.248596
Si Si4 0.793304 0.796742 0.685659
Si Si5 0.216791 0.572891 0.236105
Si Si6 0.220078 0.713072 0.569323
Si Si7 0.279863 0.784197 0.067912
Si Si8 0.781139 0.572764 0.618138
O O1 0.500000 0.265523 0.197731
O O2 0.794020 0.252750 0.255207
O O3 0.721251 0.363773 0.198093
O O4 0.780524 0.255886 0.128844
O O5 0.500000 0.070006 0.083892
O O6 0.720867 0.079918 0.176813
O O7 0.782631 0.139881 0.073810
O O8 0.787626 0.000000 0.085907
O O9 0.285200 0.134214 0.289927
O O10 0.000000 0.076237 0.246759
O O11 0.270003 0.000000 0.270499
O O12 0.715235 0.759432 0.625712
O O13 0.000000 0.811300 0.669137
O O14 0.275712 0.500000 0.214755
O O15 0.270743 0.580119 0.308925
O O16 0.000000 0.573694 0.235364
O O17 0.272689 0.734583 0.500000
O O18 0.277860 0.637536 0.581601
O O19 0.000000 0.712344 0.571764
O O20 0.500000 0.784436 0.069498
O O21 0.226637 0.757601 0.000000
O O22 0.722518 0.500000 0.596254
O O23 0.000000 0.572312 0.616468
#
# Coordination Sequence:
#
# PCOD9381931 Si02
#       8
#     8   8   8   8   8   8   8   8
#     4  11  20  30  49  74  96 121 156 195 232 276
#     4   9  16  27  45  68  93 121 154 190 227 272
#     4   9  17  28  44  66  91 121 155 192 236 281
#     4  10  18  30  48  67  92 124 157 196 237 278
#     4   9  17  31  51  72  95 123 155 192 235 278
#     4   9  16  25  40  64  91 120 155 193 231 271
#     4   9  18  31  45  66  97 127 155 191 234 277
#     4   8  13  22  38  62  90 117 146 179 216 263
#
# _framework density 19.856428000000001
#
# number of rings (size 3 to 8) (size 9 to 14) (size 15 to 20)
#    0.000    2.750    2.500    1.125    0.000    0.750 
#    0.000    2.500    0.000    4.500    0.000    7.000 
#    0.000    2.000    0.000    4.250    0.000    4.500 
#
# Total GULP energy -357016.287175 kJ/mol
# GULP energy per Si atom -5578.379487 kJ/mol
# Density = 1.981123 g / cm^3
# Si number density = 19.856428 Si / 1000 Ang^3
#
#
#
# Elastic Constant Matrix: (Units=GPa)
#
#
# Indices 1 2 3 4 5 6 
#
# 1 61.2107 -3.8766 -1.2456 0.0000 0.0000 0.0000
# 2 -3.8766 128.6465 69.6551 0.0000 0.0000 0.0000
# 3 -1.2456 69.6551 126.7919 0.0000 0.0000 0.0000
# 4 0.0000 0.0000 0.0000 21.4834 0.0000 0.0000
# 5 0.0000 0.0000 0.0000 0.0000 5.4725 0.0000
# 6 0.0000 0.0000 0.0000 0.0000 0.0000 5.2991
#
#
#
# Elastic Compliance Matrix: (Units=1/GPa)
#
#
# Indices 1 2 3 4 5 6 
#
# 1 0.016370 0.000578 -0.000157 0.000000 0.000000 0.000000
# 2 0.000578 0.011085 -0.006084 0.000000 0.000000 0.000000
# 3 -0.000157 -0.006084 0.011228 0.000000 0.000000 0.000000
# 4 0.000000 0.000000 0.000000 0.046548 0.000000 0.000000
# 5 0.000000 0.000000 0.000000 0.000000 0.182732 0.000000
# 6 0.000000 0.000000 0.000000 0.000000 0.000000 0.188710
#
#
# Mechanical properties :
#
#
# Convention : Reuss Voigt Hill
#
# Bulk Modulus (GPa) = 36.55259 49.52388 43.03823
# Shear Modulus (GPa) = 10.47963 23.25875 16.86919
#
# Velocity S-wave (km/s) = 2.29982 3.42621 2.91788
# Velocity P-wave (km/s) = 5.04981 6.37550 5.75098
#
# Compressibility (1/GPa) = 0.02735784
#
# Stress axis : x y z
#
# Youngs Moduli (GPa) = 61.08574 90.21385 89.06549
#
# Poissons Ratio (x) = -0.05216 0.01397
# Poissons Ratio (y) = -0.03532 0.54187
# Poissons Ratio (z) = 0.00958 0.54885
#
# Static dielectric constant tensor:
#      x y z
#    x 1.791550 0.000000 0.000000 
#    y 0.000000 1.711380 0.000000 
#    z 0.000000 0.000000 1.678100 
# 
# From -- ./inp_files/30115.got.cif
#   From: 2010.05.17/outbox.cif.g08.bks.cpg/sg47_16_cif.got.tgz:30115.got - 2010.06.03 20:15:42.
