data_PCOD9381661
_publ_section_title
;
Structure prediction by ZEFSAII (Michael W. Deem and Ramdas Pophale) SiO2 
 PCOD9381661
Probable space group: P M M M
;
_chemical_formula_sum "Si O2"
_cell_formula_units_Z 64
_cell_length_a 21.803208
_cell_length_b 17.139826
_cell_length_c 9.305459
_cell_angle_alpha 90.000000
_cell_angle_beta 90.000000
_cell_angle_gamma 90.000000
_cell_volume 3477.479725
_symmetry_space_group_name_H-M "P M M M"
_symmetry_group_IT_number 47
_symmetry_cell_setting 'orthorhombic'
loop_
_space_group_symop_operation_xyz
x,y,z
-x,-y,z
x,-y,-z
-x,y,-z
-x,-y,-z
x,y,-z
-x,y,z
x,-y,z
loop_
_atom_site_type_symbol
_atom_site_label
_atom_site_fract_x
_atom_site_fract_y
_atom_site_fract_z
Si Si1 0.689617 0.817233 0.826693
Si Si2 0.567437 0.090894 0.174323
Si Si3 0.568652 0.593204 0.838435
Si Si4 0.813245 0.373631 0.334826
Si Si5 0.681634 0.651527 0.328139
Si Si6 0.932807 0.376776 0.832873
Si Si7 0.811448 0.182641 0.333324
Si Si8 0.068308 0.186839 0.832504
O O1 0.628519 0.863902 0.781560
O O2 0.682867 0.731305 0.761185
O O3 0.753303 0.846780 0.757667
O O4 0.693992 0.816283 0.000000
O O5 0.500000 0.120701 0.222250
O O6 0.571732 0.000000 0.215353
O O7 0.566947 0.093733 0.000000
O O8 0.500000 0.623051 0.805822
O O9 0.565038 0.500000 0.846847
O O10 0.619197 0.612184 0.721281
O O11 0.585556 0.621912 0.000000
O O12 0.822131 0.395750 0.500000
O O13 0.744055 0.395410 0.290047
O O14 0.871206 0.402768 0.245740
O O15 0.811964 0.278197 0.327423
O O16 0.683902 0.665379 0.500000
O O17 0.932079 0.281815 0.826198
O O18 0.000000 0.401447 0.775644
O O19 0.930068 0.398572 0.000000
O O20 0.806107 0.161138 0.500000
O O21 0.875851 0.157948 0.263872
O O22 0.000000 0.161075 0.788414
O O23 0.077754 0.166660 0.000000
#
# Coordination Sequence:
#
# PCOD9381661 Si02
#       8
#     8   8   8   8   8   8   8   8
#     4  10  18  28  46  69  92 121 154 189 231 275
#     4   8  15  29  48  69  91 114 145 188 233 274
#     4   9  19  36  55  73  93 118 151 190 228 269
#     4   8  15  25  35  51  78 112 146 178 213 255
#     4  10  20  32  46  68  97 125 154 188 227 273
#     4   8  13  20  31  49  73 103 140 179 217 257
#     4   9  16  25  36  53  82 116 148 184 224 268
#     4   8  13  21  33  50  74 106 145 185 222 264
#
# _framework density 18.404133000000002
#
# number of rings (size 3 to 8) (size 9 to 14) (size 15 to 20)
#    0.000    3.250    0.000    3.375    0.000    5.000 
#    0.000    4.375    0.000    2.625    0.000    3.500 
#    0.000    1.000    0.000   11.250    0.000   14.875 
#
# Total GULP energy -356270.167735 kJ/mol
# GULP energy per Si atom -5566.721371 kJ/mol
# Density = 1.836224 g / cm^3
# Si number density = 18.404133 Si / 1000 Ang^3
#
#
#
# Elastic Constant Matrix: (Units=GPa)
#
#
# Indices 1 2 3 4 5 6 
#
# 1 197.7687 31.8924 84.2353 0.0000 0.0000 0.0000
# 2 31.8924 14.2030 14.8829 0.0000 0.0000 0.0000
# 3 84.2353 14.8829 74.1458 0.0000 0.0000 0.0000
# 4 0.0000 0.0000 0.0000 -2.3242 0.0000 0.0000
# 5 0.0000 0.0000 0.0000 0.0000 20.1932 0.0000
# 6 0.0000 0.0000 0.0000 0.0000 0.0000 -257.7474
#
#
#
# Elastic Compliance Matrix: (Units=1/GPa)
#
#
# Indices 1 2 3 4 5 6 
#
# 1 0.012187 -0.016282 -0.010577 0.000000 0.000000 0.000000
# 2 -0.016282 0.110915 -0.003765 0.000000 0.000000 0.000000
# 3 -0.010577 -0.003765 0.026260 0.000000 0.000000 0.000000
# 4 0.000000 0.000000 0.000000 -0.430251 0.000000 0.000000
# 5 0.000000 0.000000 0.000000 0.000000 0.049522 0.000000
# 6 0.000000 0.000000 0.000000 0.000000 0.000000 -0.003880
#
#
# Mechanical properties :
#
#
# Convention : Reuss Voigt Hill
#
# Bulk Modulus (GPa) = 11.34929 60.90429 36.12679
# Shear Modulus (GPa) = -34.57190 -37.63522 -36.10356
#
# Velocity S-wave (km/s) = -4.33885 -4.52700 -4.43392
# Velocity P-wave (km/s) = 4.34980 2.41653 2.55746
#
# Compressibility (1/GPa) = 0.08811122
#
# Stress axis : x y z
#
# Youngs Moduli (GPa) = 82.05202 9.01593 38.08139
#
# Poissons Ratio (x) = 0.14680 0.40281
# Poissons Ratio (y) = 1.33601 0.14339
# Poissons Ratio (z) = 0.86790 0.03395
#
# Static dielectric constant tensor:
#      x y z
#    x 1.683310 0.000000 0.000000 
#    y 0.000000 1.642640 0.000000 
#    z 0.000000 0.000000 1.613670 
# 
# From -- ./inp_files/11816.got.cif
#   From: 2010.05.17/outbox.cif.g08.bks.cpg/sg47_6_cif.got.tgz:11816.got - 2010.06.03 20:15:42.
