data_PCOD9381981
_publ_section_title
;
Structure prediction by ZEFSAII (Michael W. Deem and Ramdas Pophale) SiO2 
 PCOD9381981
Probable space group: P M M M
;
_chemical_formula_sum "Si O2"
_cell_formula_units_Z 60
_cell_length_a 21.550905
_cell_length_b 19.547955
_cell_length_c 8.685006
_cell_angle_alpha 90.000000
_cell_angle_beta 90.000000
_cell_angle_gamma 90.000000
_cell_volume 3658.785640
_symmetry_space_group_name_H-M "P M M M"
_symmetry_group_IT_number 47
_symmetry_cell_setting 'orthorhombic'
loop_
_space_group_symop_operation_xyz
x,y,z
-x,-y,z
x,-y,-z
-x,y,-z
-x,-y,-z
x,y,-z
-x,y,z
x,-y,z
loop_
_atom_site_type_symbol
_atom_site_label
_atom_site_fract_x
_atom_site_fract_y
_atom_site_fract_z
Si Si1 0.632490 0.077324 0.185302
Si Si2 0.878688 0.346202 0.184668
Si Si3 0.778083 0.077458 0.814430
Si Si4 0.813823 0.782306 0.684293
Si Si5 0.430355 0.790133 0.685771
Si Si6 0.312859 0.295169 0.685415
Si Si7 0.751306 0.577808 0.814560
Si Si8 0.000000 0.579968 0.684812
O O1 0.705173 0.085945 0.228194
O O2 0.591039 0.134977 0.261514
O O3 0.614120 0.000000 0.227569
O O4 0.628915 0.083135 0.000000
O O5 0.863857 0.270084 0.245927
O O6 0.818707 0.391974 0.229376
O O7 0.939525 0.380994 0.253207
O O8 0.882802 0.344815 0.000000
O O9 0.815815 0.139991 0.742695
O O10 0.796501 0.000000 0.768904
O O11 0.781528 0.081287 0.000000
O O12 0.817583 0.780454 0.500000
O O13 0.746168 0.751740 0.731918
O O14 0.430289 0.788248 0.500000
O O15 0.500000 0.774722 0.739711
O O16 0.376907 0.738166 0.740143
O O17 0.313254 0.297053 0.500000
O O18 0.299122 0.370224 0.748568
O O19 0.744429 0.500000 0.761647
O O20 0.748333 0.578952 0.000000
O O21 0.000000 0.500000 0.734206
O O22 0.000000 0.581424 0.500000
#
# Coordination Sequence:
#
# PCOD9381981 Si02
#       8
#     8   8   8   8   8   8   8   4
#     4   9  18  31  46  65  91 123 160 201 244 293
#     4  10  20  34  53  76 104 139 173 203 238 286
#     4   9  17  29  46  69  97 129 164 204 251 299
#     4  10  18  30  49  73 100 128 165 210 253 295
#     4  10  20  33  47  64  89 122 161 202 245 298
#     4   9  18  31  46  67  92 120 154 196 246 294
#     4   9  18  32  51  75  98 121 154 196 239 285
#     4  11  23  37  53  77 112 147 176 207 241 279
#
# _framework density 16.398883999999999
#
# number of rings (size 3 to 8) (size 9 to 14) (size 15 to 20)
#    0.000    2.467    1.333    2.200    0.000    4.000 
#    0.000    2.667    0.000    0.400    0.000    3.267 
#    0.000    3.733    0.000    0.000    0.000    0.000 
#
# Total GULP energy -334587.436387 kJ/mol
# GULP energy per Si atom -5576.457273 kJ/mol
# Density = 1.636156 g / cm^3
# Si number density = 16.398884 Si / 1000 Ang^3
#
#
#
# Elastic Constant Matrix: (Units=GPa)
#
#
# Indices 1 2 3 4 5 6 
#
# 1 103.0759 74.5085 26.5984 0.0000 0.0000 0.0000
# 2 74.5085 150.0762 30.4196 0.0000 0.0000 0.0000
# 3 26.5984 30.4196 18.1485 0.0000 0.0000 0.0000
# 4 0.0000 0.0000 0.0000 27.6563 0.0000 0.0000
# 5 0.0000 0.0000 0.0000 0.0000 20.6013 0.0000
# 6 0.0000 0.0000 0.0000 0.0000 0.0000 23.3184
#
#
#
# Elastic Compliance Matrix: (Units=1/GPa)
#
#
# Indices 1 2 3 4 5 6 
#
# 1 0.018163 -0.005486 -0.017426 0.000000 0.000000 0.000000
# 2 -0.005486 0.011749 -0.011653 0.000000 0.000000 0.000000
# 3 -0.017426 -0.011653 0.100172 0.000000 0.000000 0.000000
# 4 0.000000 0.000000 0.000000 0.036158 0.000000 0.000000
# 5 0.000000 0.000000 0.000000 0.000000 0.048541 0.000000
# 6 0.000000 0.000000 0.000000 0.000000 0.000000 0.042885
#
#
# Mechanical properties :
#
#
# Convention : Reuss Voigt Hill
#
# Bulk Modulus (GPa) = 16.40532 59.37262 37.88897
# Shear Modulus (GPa) = 14.40445 23.63346 19.01896
#
# Velocity S-wave (km/s) = 2.96696 3.80038 3.40924
# Velocity P-wave (km/s) = 4.66506 7.45259 6.21707
#
# Compressibility (1/GPa) = 0.06095585
#
# Stress axis : x y z
#
# Youngs Moduli (GPa) = 55.05556 85.11604 9.98281
#
# Poissons Ratio (x) = 0.46691 0.17396
# Poissons Ratio (y) = 0.30201 0.11633
# Poissons Ratio (z) = 0.95939 0.99185
#
# Static dielectric constant tensor:
#      x y z
#    x 1.540220 0.000000 0.000000 
#    y 0.000000 1.549300 0.000000 
#    z 0.000000 0.000000 1.553750 
# 
# From -- ./inp_files/11597.got.cif
#   From: 2010.05.17/outbox.cif.g08.bks.cpg/sg47_6_cif.got.tgz:11597.got - 2010.06.03 20:15:42.
