data_PCOD9381219
_publ_section_title
;
Structure prediction by ZEFSAII (Michael W. Deem and Ramdas Pophale) SiO2 
 PCOD9381219
Probable space group: P M M M
;
_chemical_formula_sum "Si O2"
_cell_formula_units_Z 52
_cell_length_a 24.833096
_cell_length_b 7.360593
_cell_length_c 14.205037
_cell_angle_alpha 90.000000
_cell_angle_beta 90.000000
_cell_angle_gamma 90.000000
_cell_volume 2596.486333
_symmetry_space_group_name_H-M "P M M M"
_symmetry_group_IT_number 47
_symmetry_cell_setting 'orthorhombic'
loop_
_space_group_symop_operation_xyz
x,y,z
-x,-y,z
x,-y,-z
-x,y,-z
-x,-y,-z
x,y,-z
-x,y,z
x,-y,z
loop_
_atom_site_type_symbol
_atom_site_label
_atom_site_fract_x
_atom_site_fract_y
_atom_site_fract_z
Si Si1 0.269064 0.721283 0.604415
Si Si2 0.666095 0.716520 0.782977
Si Si3 0.122043 0.720921 0.192108
Si Si4 0.560534 0.216810 0.894505
Si Si5 0.232996 0.278955 0.104906
Si Si6 0.856695 0.278688 0.394416
Si Si7 0.937391 0.278842 0.000000
O O1 0.285773 0.776908 0.500000
O O2 0.268410 0.500000 0.606987
O O3 0.310284 0.784788 0.684121
O O4 0.206418 0.773892 0.617100
O O5 0.671672 0.500000 0.779259
O O6 0.605834 0.748119 0.817247
O O7 0.709047 0.783157 0.860136
O O8 0.118160 0.500000 0.191946
O O9 0.183937 0.771805 0.171483
O O10 0.111285 0.779231 0.300095
O O11 0.089246 0.781496 0.099224
O O12 0.500000 0.283693 0.873196
O O13 0.557235 0.000000 0.900777
O O14 0.575903 0.283436 0.000000
O O15 0.233383 0.500000 0.103895
O O16 0.221293 0.217573 0.000000
O O17 0.873947 0.220827 0.500000
O O18 0.857798 0.500000 0.394903
O O19 0.932594 0.500000 0.000000
O O20 0.000000 0.231243 0.000000
#
# Coordination Sequence:
#
# PCOD9381219 Si02
#       7
#     8   8   8   8   8   8   4
#     4   8  13  21  34  56  86 109 123 151 203 260
#     4  10  17  25  42  67  87 102 130 173 215 250
#     4   9  13  19  29  41  63  92 120 156 197 239
#     4   9  19  35  49  59  78 112 145 166 195 247
#     4   9  14  19  29  51  79  98 111 146 208 255
#     4   8  12  18  29  45  66  94 123 150 192 251
#     4   9  16  22  28  38  56  94 142 173 196 238
#
# _framework density 20.027065
#
# number of rings (size 3 to 8) (size 9 to 14) (size 15 to 20)
#    0.000    3.154    2.308    1.846    0.000    1.231 
#    0.000    0.769    0.000    1.385    0.000    6.462 
#    0.000    0.000    0.000    0.000    0.000    1.538 
#
# Total GULP energy -289682.884331 kJ/mol
# GULP energy per Si atom -5570.824699 kJ/mol
# Density = 1.998148 g / cm^3
# Si number density = 20.027065 Si / 1000 Ang^3
#
#
#
# Elastic Constant Matrix: (Units=GPa)
#
#
# Indices 1 2 3 4 5 6 
#
# 1 68.2192 -1.5729 56.4156 0.0000 0.0000 0.0000
# 2 -1.5729 69.4195 4.1336 0.0000 0.0000 0.0000
# 3 56.4156 4.1336 195.7225 0.0000 0.0000 0.0000
# 4 0.0000 0.0000 0.0000 -0.8267 0.0000 0.0000
# 5 0.0000 0.0000 0.0000 0.0000 17.5876 0.0000
# 6 0.0000 0.0000 0.0000 0.0000 0.0000 10.8625
#
#
#
# Elastic Compliance Matrix: (Units=1/GPa)
#
#
# Indices 1 2 3 4 5 6 
#
# 1 0.019287 0.000769 -0.005576 0.000000 0.000000 0.000000
# 2 0.000769 0.014454 -0.000527 0.000000 0.000000 0.000000
# 3 -0.005576 -0.000527 0.006728 0.000000 0.000000 0.000000
# 4 0.000000 0.000000 0.000000 -1.209587 0.000000 0.000000
# 5 0.000000 0.000000 0.000000 0.000000 0.056858 0.000000
# 6 0.000000 0.000000 0.000000 0.000000 0.000000 0.092060
#
#
# Mechanical properties :
#
#
# Convention : Reuss Voigt Hill
#
# Bulk Modulus (GPa) = 33.55516 50.14595 41.85055
# Shear Modulus (GPa) = -5.00200 23.81702 9.40751
#
# Velocity S-wave (km/s) = -1.58210 3.45228 2.16970
# Velocity P-wave (km/s) = 3.66795 6.40191 5.21720
#
# Compressibility (1/GPa) = 0.02980168
#
# Stress axis : x y z
#
# Youngs Moduli (GPa) = 51.84763 69.18512 148.64256
#
# Poissons Ratio (x) = -0.05320 0.82878
# Poissons Ratio (y) = -0.03987 0.07832
# Poissons Ratio (z) = 0.28908 0.03646
#
# Static dielectric constant tensor:
#      x y z
#    x 1.674380 0.000000 0.000000 
#    y 0.000000 1.783680 0.000000 
#    z 0.000000 0.000000 1.749370 
# 
# From -- ./inp_files/21770.got.cif
#   From: 2010.05.17/outbox.cif.g08.bks.cpg/sg47_11_cif.got.tgz:21770.got - 2010.06.03 20:15:42.
