data_PCOD9381687
_publ_section_title
;
Structure prediction by ZEFSAII (Michael W. Deem and Ramdas Pophale) SiO2 
 PCOD9381687
Probable space group: P M M M
;
_chemical_formula_sum "Si O2"
_cell_formula_units_Z 64
_cell_length_a 29.344244
_cell_length_b 14.602823
_cell_length_c 7.721129
_cell_angle_alpha 90.000000
_cell_angle_beta 90.000000
_cell_angle_gamma 90.000000
_cell_volume 3308.571732
_symmetry_space_group_name_H-M "P M M M"
_symmetry_group_IT_number 47
_symmetry_cell_setting 'orthorhombic'
loop_
_space_group_symop_operation_xyz
x,y,z
-x,-y,z
x,-y,-z
-x,y,-z
-x,-y,-z
x,y,-z
-x,y,z
x,-y,z
loop_
_atom_site_type_symbol
_atom_site_label
_atom_site_fract_x
_atom_site_fract_y
_atom_site_fract_z
Si Si1 0.862448 0.783107 0.200325
Si Si2 0.190381 0.603693 0.291505
Si Si3 0.623631 0.749932 0.300276
Si Si4 0.779033 0.898765 0.701013
Si Si5 0.052379 0.896692 0.290934
Si Si6 0.551108 0.106474 0.288512
Si Si7 0.274944 0.275568 0.712907
Si Si8 0.449671 0.607328 0.791390
O O1 0.848025 0.679810 0.249226
O O2 0.829046 0.854163 0.295410
O O3 0.913457 0.817725 0.232017
O O4 0.851749 0.793528 0.000000
O O5 0.192132 0.599567 0.500000
O O6 0.182822 0.500000 0.227324
O O7 0.238986 0.646309 0.231703
O O8 0.632396 0.776506 0.500000
O O9 0.592474 0.831050 0.222749
O O10 0.672870 0.722670 0.227480
O O11 0.590379 0.663623 0.292782
O O12 0.765935 0.907047 0.500000
O O13 0.746102 0.820965 0.774026
O O14 0.777925 0.000000 0.779045
O O15 0.052849 0.897197 0.500000
O O16 0.000000 0.882752 0.235415
O O17 0.066481 0.000000 0.234141
O O18 0.550890 0.112378 0.500000
O O19 0.500000 0.134612 0.231045
O O20 0.557270 0.000000 0.243759
O O21 0.274120 0.278947 0.500000
O O22 0.500000 0.638993 0.735017
O O23 0.446174 0.500000 0.752828
O O24 0.447103 0.617544 0.000000
#
# Coordination Sequence:
#
# PCOD9381687 Si02
#       8
#     8   8   8   8   8   8   8   8
#     4  11  21  31  48  76 107 134 164 208 257 298
#     4   9  18  35  56  71  89 125 170 210 248 297
#     4  10  18  28  47  73  96 116 144 188 238 284
#     4   9  17  31  50  68  92 131 173 205 233 277
#     4   9  18  33  53  77 107 144 181 211 240 283
#     4   8  14  24  38  60  91 122 149 179 219 269
#     4   8  16  29  45  71  99 118 146 193 245 289
#     4   9  19  35  50  63  84 116 150 182 222 277
#
# _framework density 19.343692999999998
#
# number of rings (size 3 to 8) (size 9 to 14) (size 15 to 20)
#    0.000    2.875    0.000    3.750    0.000    4.500 
#    0.000    7.500    0.000    0.750    0.000    4.375 
#    0.000    0.000    0.000    0.000    0.000    0.000 
#
# Total GULP energy -356674.313280 kJ/mol
# GULP energy per Si atom -5573.036145 kJ/mol
# Density = 1.929967 g / cm^3
# Si number density = 19.343693 Si / 1000 Ang^3
#
#
#
# Elastic Constant Matrix: (Units=GPa)
#
#
# Indices 1 2 3 4 5 6 
#
# 1 133.8540 75.1181 1.1578 0.0000 0.0000 0.0000
# 2 75.1181 136.0983 5.2068 0.0000 0.0000 0.0000
# 3 1.1578 5.2068 31.5548 0.0000 0.0000 0.0000
# 4 0.0000 0.0000 0.0000 -105.0108 0.0000 0.0000
# 5 0.0000 0.0000 0.0000 0.0000 12.8841 0.0000
# 6 0.0000 0.0000 0.0000 0.0000 0.0000 25.4290
#
#
#
# Elastic Compliance Matrix: (Units=1/GPa)
#
#
# Indices 1 2 3 4 5 6 
#
# 1 0.010834 -0.006003 0.000593 0.000000 0.000000 0.000000
# 2 -0.006003 0.010720 -0.001549 0.000000 0.000000 0.000000
# 3 0.000593 -0.001549 0.031925 0.000000 0.000000 0.000000
# 4 0.000000 0.000000 0.000000 -0.009523 0.000000 0.000000
# 5 0.000000 0.000000 0.000000 0.000000 0.077615 0.000000
# 6 0.000000 0.000000 0.000000 0.000000 0.000000 0.039325
#
#
# Mechanical properties :
#
#
# Convention : Reuss Voigt Hill
#
# Bulk Modulus (GPa) = 25.27651 51.60803 38.44227
# Shear Modulus (GPa) = 26.59566 1.32874 13.96220
#
# Velocity S-wave (km/s) = 3.71199 0.82970 2.68954
# Velocity P-wave (km/s) = 5.60957 5.25883 5.43703
#
# Compressibility (1/GPa) = 0.03956242
#
# Stress axis : x y z
#
# Youngs Moduli (GPa) = 92.29933 93.28406 31.32373
#
# Poissons Ratio (x) = 0.55994 -0.01857
# Poissons Ratio (y) = 0.55403 0.04851
# Poissons Ratio (z) = -0.05473 0.14446
#
# Static dielectric constant tensor:
#      x y z
#    x 1.680480 0.000000 0.000000 
#    y 0.000000 1.683680 0.000000 
#    z 0.000000 0.000000 1.727380 
# 
# From -- ./inp_files/14307.got.cif
#   From: 2010.05.17/outbox.cif.g08.bks.cpg/sg47_8_cif.got.tgz:14307.got - 2010.06.03 20:15:42.
