data_PCOD9381194
_publ_section_title
;
Structure prediction by ZEFSAII (Michael W. Deem and Ramdas Pophale) SiO2 
 PCOD9381194
Probable space group: P M M M
;
_chemical_formula_sum "Si O2"
_cell_formula_units_Z 64
_cell_length_a 22.296495
_cell_length_b 7.403923
_cell_length_c 19.426273
_cell_angle_alpha 90.000000
_cell_angle_beta 90.000000
_cell_angle_gamma 90.000000
_cell_volume 3206.918911
_symmetry_space_group_name_H-M "P M M M"
_symmetry_group_IT_number 47
_symmetry_cell_setting 'orthorhombic'
loop_
_space_group_symop_operation_xyz
x,y,z
-x,-y,z
x,-y,-z
-x,y,-z
-x,-y,-z
x,y,-z
-x,y,z
x,-y,z
loop_
_atom_site_type_symbol
_atom_site_label
_atom_site_fract_x
_atom_site_fract_y
_atom_site_fract_z
Si Si1 0.935530 0.291546 0.121040
Si Si2 0.569783 0.279789 0.577284
Si Si3 0.764111 0.280808 0.222026
Si Si4 0.664710 0.298341 0.315432
Si Si5 0.098197 0.219185 0.424258
Si Si6 0.807790 0.279196 0.925027
Si Si7 0.239457 0.783766 0.424285
Si Si8 0.102633 0.788405 0.726713
O O1 0.937773 0.500000 0.098959
O O2 0.876151 0.215058 0.086406
O O3 0.924564 0.291410 0.203597
O O4 0.000000 0.208509 0.105944
O O5 0.587722 0.220586 0.500000
O O6 0.500000 0.233265 0.586855
O O7 0.573907 0.500000 0.577308
O O8 0.611675 0.213867 0.639355
O O9 0.762814 0.500000 0.224420
O O10 0.701136 0.212829 0.252431
O O11 0.773208 0.222684 0.143412
O O12 0.824704 0.228702 0.264079
O O13 0.644751 0.500000 0.294864
O O14 0.719660 0.309615 0.369164
O O15 0.074921 0.279974 0.500000
O O16 0.169260 0.260738 0.423568
O O17 0.079456 0.281275 0.347623
O O18 0.091504 0.000000 0.424396
O O19 0.808404 0.500000 0.923524
O O20 0.785522 0.223812 0.000000
O O21 0.262615 0.739658 0.500000
O O22 0.243350 0.000000 0.414067
O O23 0.088500 0.000000 0.728406
#
# Coordination Sequence:
#
# PCOD9381194 Si02
#       8
#     8   8   8   8   8   8   8   8
#     4   9  18  31  46  64  85 106 129 163 202 232
#     4   8  14  24  36  51  75 109 146 178 206 237
#     4   9  17  27  39  60  86 105 126 162 206 245
#     4  10  17  24  38  58  80 103 133 175 212 243
#     4   8  14  24  37  54  76 101 129 160 192 228
#     4   8  14  26  44  63  83 107 132 156 187 235
#     4   9  16  25  36  52  77 106 133 161 196 238
#     4  10  17  27  45  62  80 107 136 165 198 241
#
# _framework density 19.956851
#
# number of rings (size 3 to 8) (size 9 to 14) (size 15 to 20)
#    0.000    3.125    1.250    2.625    0.000    1.250 
#    0.000    1.250    0.000    8.250    0.000    7.875 
#    0.000    0.500    0.000    7.000    0.000    0.000 
#
# Total GULP energy -356643.110924 kJ/mol
# GULP energy per Si atom -5572.548608 kJ/mol
# Density = 1.991143 g / cm^3
# Si number density = 19.956851 Si / 1000 Ang^3
#
#
#
# Elastic Constant Matrix: (Units=GPa)
#
#
# Indices 1 2 3 4 5 6 
#
# 1 80.6881 -0.9603 34.9213 0.0000 0.0000 0.0000
# 2 -0.9603 65.4287 -0.4675 0.0000 0.0000 0.0000
# 3 34.9213 -0.4675 137.8173 0.0000 0.0000 0.0000
# 4 0.0000 0.0000 0.0000 6.5628 0.0000 0.0000
# 5 0.0000 0.0000 0.0000 0.0000 -28.8087 0.0000
# 6 0.0000 0.0000 0.0000 0.0000 0.0000 -0.4574
#
#
#
# Elastic Compliance Matrix: (Units=1/GPa)
#
#
# Indices 1 2 3 4 5 6 
#
# 1 0.013922 0.000179 -0.003527 0.000000 0.000000 0.000000
# 2 0.000179 0.015286 0.000006 0.000000 0.000000 0.000000
# 3 -0.003527 0.000006 0.008150 0.000000 0.000000 0.000000
# 4 0.000000 0.000000 0.000000 0.152373 0.000000 0.000000
# 5 0.000000 0.000000 0.000000 0.000000 -0.034712 0.000000
# 6 0.000000 0.000000 0.000000 0.000000 0.000000 -2.186474
#
#
# Mechanical properties :
#
#
# Convention : Reuss Voigt Hill
#
# Bulk Modulus (GPa) = 32.59952 38.99122 35.79537
# Shear Modulus (GPa) = -2.48195 12.15539 4.83672
#
# Velocity S-wave (km/s) = -1.11640 2.47064 1.55848
# Velocity P-wave (km/s) = 3.83519 5.26488 4.60584
#
# Compressibility (1/GPa) = 0.03067530
#
# Stress axis : x y z
#
# Youngs Moduli (GPa) = 71.82865 65.41726 122.70358
#
# Poissons Ratio (x) = -0.01172 0.43278
# Poissons Ratio (y) = -0.01287 -0.00079
# Poissons Ratio (z) = 0.25334 -0.00042
#
# Static dielectric constant tensor:
#      x y z
#    x 1.707340 0.000000 0.000000 
#    y 0.000000 1.737760 0.000000 
#    z 0.000000 0.000000 1.757350 
# 
# From -- ./inp_files/31581.got.cif
#   From: 2010.05.17/outbox.cif.g08.bks.cpg/sg47_16_cif.got.tgz:31581.got - 2010.06.03 20:15:42.
