data_PCOD9381354
_publ_section_title
;
Structure prediction by ZEFSAII (Michael W. Deem and Ramdas Pophale) SiO2 
 PCOD9381354
Probable space group: P M M M
;
_chemical_formula_sum "Si O2"
_cell_formula_units_Z 52
_cell_length_a 10.345251
_cell_length_b 14.723471
_cell_length_c 21.441908
_cell_angle_alpha 90.000000
_cell_angle_beta 90.000000
_cell_angle_gamma 90.000000
_cell_volume 3265.988609
_symmetry_space_group_name_H-M "P M M M"
_symmetry_group_IT_number 47
_symmetry_cell_setting 'orthorhombic'
loop_
_space_group_symop_operation_xyz
x,y,z
-x,-y,z
x,-y,-z
-x,y,-z
-x,-y,-z
x,y,-z
-x,y,z
x,-y,z
loop_
_atom_site_type_symbol
_atom_site_label
_atom_site_fract_x
_atom_site_fract_y
_atom_site_fract_z
Si Si1 0.848440 0.603910 0.864582
Si Si2 0.343615 0.709360 0.627339
Si Si3 0.750015 0.218757 0.075267
Si Si4 0.000000 0.895993 0.075812
Si Si5 0.500000 0.895219 0.924075
Si Si6 0.343220 0.101248 0.572051
Si Si7 0.148339 0.393362 0.285141
Si Si8 0.655997 0.396977 0.500000
O O1 0.812892 0.500000 0.880746
O O2 0.764247 0.681214 0.896802
O O3 0.840672 0.613289 0.789772
O O4 0.000000 0.616591 0.882208
O O5 0.500000 0.702011 0.637597
O O6 0.308097 0.814510 0.615312
O O7 0.257369 0.664998 0.680919
O O8 0.311249 0.656597 0.562939
O O9 0.625101 0.161821 0.094947
O O10 0.874105 0.159716 0.094756
O O11 0.749503 0.225304 0.000000
O O12 0.000000 0.000000 0.097592
O O13 0.000000 0.898974 0.000000
O O14 0.500000 0.000000 0.902689
O O15 0.500000 0.898738 0.000000
O O16 0.302658 0.116867 0.500000
O O17 0.500000 0.100768 0.570851
O O18 0.300627 0.000000 0.590942
O O19 0.164999 0.500000 0.301297
O O20 0.000000 0.367660 0.301855
O O21 0.706588 0.500000 0.500000
O O22 0.500000 0.401531 0.500000
#
# Coordination Sequence:
#
# PCOD9381354 Si02
#       8
#     8   8   8   4   4   8   8   4
#     4   9  18  34  53  72  96 130 169 206 248 295
#     4  10  17  28  48  74  96 121 159 197 239 279
#     4  10  18  30  50  77 102 128 164 202 249 298
#     4   9  16  26  45  75 103 123 158 209 245 282
#     4   9  18  32  49  71 105 141 162 187 243 310
#     4   8  13  23  42  69  97 122 152 188 229 281
#     4   9  19  35  51  66  91 130 166 194 234 292
#     4   9  16  24  38  66 102 123 139 189 250 283
#
# _framework density 15.921673
#
# number of rings (size 3 to 8) (size 9 to 14) (size 15 to 20)
#    0.000    2.846    1.538    2.308    0.000    3.077 
#    1.385    1.538    0.000    5.077    0.000    1.077 
#    0.000    0.000    0.000    0.000    0.000    0.000 
#
# Total GULP energy -289524.302250 kJ/mol
# GULP energy per Si atom -5567.775043 kJ/mol
# Density = 1.588543 g / cm^3
# Si number density = 15.921673 Si / 1000 Ang^3
#
#
#
# Elastic Constant Matrix: (Units=GPa)
#
#
# Indices 1 2 3 4 5 6 
#
# 1 90.4705 67.9020 26.0310 0.0000 0.0000 0.0000
# 2 67.9020 152.4473 36.1546 0.0000 0.0000 0.0000
# 3 26.0310 36.1546 21.0550 0.0000 0.0000 0.0000
# 4 0.0000 0.0000 0.0000 0.7585 0.0000 0.0000
# 5 0.0000 0.0000 0.0000 0.0000 13.2663 0.0000
# 6 0.0000 0.0000 0.0000 0.0000 0.0000 19.6737
#
#
#
# Elastic Compliance Matrix: (Units=1/GPa)
#
#
# Indices 1 2 3 4 5 6 
#
# 1 0.019110 -0.004907 -0.015200 0.000000 0.000000 0.000000
# 2 -0.004907 0.012326 -0.015100 0.000000 0.000000 0.000000
# 3 -0.015200 -0.015100 0.092215 0.000000 0.000000 0.000000
# 4 0.000000 0.000000 0.000000 1.318396 0.000000 0.000000
# 5 0.000000 0.000000 0.000000 0.000000 0.075379 0.000000
# 6 0.000000 0.000000 0.000000 0.000000 0.000000 0.050829
#
#
# Mechanical properties :
#
#
# Convention : Reuss Voigt Hill
#
# Bulk Modulus (GPa) = 18.78357 58.23868 38.51113
# Shear Modulus (GPa) = 3.01857 15.66538 9.34198
#
# Velocity S-wave (km/s) = 1.37841 3.14013 2.42491
# Velocity P-wave (km/s) = 3.78899 7.05725 5.66398
#
# Compressibility (1/GPa) = 0.05323801
#
# Stress axis : x y z
#
# Youngs Moduli (GPa) = 52.32979 81.12791 10.84423
#
# Poissons Ratio (x) = 0.39808 0.16483
# Poissons Ratio (y) = 0.25677 0.16374
# Poissons Ratio (z) = 0.79542 1.22499
#
# Static dielectric constant tensor:
#      x y z
#    x 1.527260 0.000000 0.000000 
#    y 0.000000 1.547220 0.000000 
#    z 0.000000 0.000000 1.516550 
# 
# From -- ./inp_files/29668.got.cif
#   From: 2010.05.17/outbox.cif.g08.bks.cpg/sg47_15_cif.got.tgz:29668.got - 2010.06.03 20:15:42.
