data_PCOD9381281
_publ_section_title
;
Structure prediction by ZEFSAII (Michael W. Deem and Ramdas Pophale) SiO2 
 PCOD9381281
Probable space group: P M M M
;
_chemical_formula_sum "Si O2"
_cell_formula_units_Z 52
_cell_length_a 18.655354
_cell_length_b 8.696333
_cell_length_c 18.421599
_cell_angle_alpha 90.000000
_cell_angle_beta 90.000000
_cell_angle_gamma 90.000000
_cell_volume 2988.594414
_symmetry_space_group_name_H-M "P M M M"
_symmetry_group_IT_number 47
_symmetry_cell_setting 'orthorhombic'
loop_
_space_group_symop_operation_xyz
x,y,z
-x,-y,z
x,-y,-z
-x,y,-z
-x,-y,-z
x,y,-z
-x,y,z
x,-y,z
loop_
_atom_site_type_symbol
_atom_site_label
_atom_site_fract_x
_atom_site_fract_y
_atom_site_fract_z
Si Si1 0.576500 0.316906 0.118399
Si Si2 0.918289 0.687466 0.500000
Si Si3 0.264228 0.685725 0.919751
Si Si4 0.346216 0.813915 0.419377
Si Si5 0.388764 0.176994 0.267395
Si Si6 0.780530 0.824396 0.227538
Si Si7 0.808972 0.683865 0.623772
O O1 0.500000 0.256348 0.089939
O O2 0.576609 0.500000 0.106578
O O3 0.652482 0.259621 0.087643
O O4 0.578996 0.279675 0.204105
O O5 0.919815 0.500000 0.500000
O O6 0.872935 0.734121 0.570775
O O7 0.000000 0.742013 0.500000
O O8 0.265081 0.500000 0.914467
O O9 0.219945 0.749944 0.851993
O O10 0.238106 0.728631 0.000000
O O11 0.370622 0.768847 0.500000
O O12 0.394523 0.767285 0.350347
O O13 0.265972 0.751474 0.406228
O O14 0.342921 0.000000 0.416147
O O15 0.303415 0.176032 0.251145
O O16 0.413858 0.000000 0.261081
O O17 0.818797 0.736726 0.293227
O O18 0.804775 0.000000 0.224344
O O19 0.803413 0.500000 0.621462
#
# Coordination Sequence:
#
# PCOD9381281 Si02
#       7
#     8   4   8   8   8   8   8
#     4   9  17  28  41  57  78 107 140 173 213 261
#     4   9  18  30  43  65  99 133 160 187 216 245
#     4   9  17  29  45  66  90 113 140 179 224 269
#     4   9  16  26  41  60  83 106 133 177 227 267
#     4   8  15  26  39  56  75 100 134 173 217 261
#     4   9  17  29  44  62  86 116 146 181 224 264
#     4  10  17  27  44  65  88 118 156 187 213 251
#
# _framework density 17.399481999999999
#
# number of rings (size 3 to 8) (size 9 to 14) (size 15 to 20)
#    0.000    3.000    0.769    1.846    0.000    4.615 
#    0.000    1.538    0.000    4.154    0.000    7.538 
#    0.000    0.615    0.000    7.077    0.000    2.000 
#
# Total GULP energy -289526.415966 kJ/mol
# GULP energy per Si atom -5567.815692 kJ/mol
# Density = 1.735988 g / cm^3
# Si number density = 17.399482 Si / 1000 Ang^3
#
#
#
# Elastic Constant Matrix: (Units=GPa)
#
#
# Indices 1 2 3 4 5 6 
#
# 1 35.4819 1.9801 14.1950 0.0000 0.0000 0.0000
# 2 1.9801 11.3283 15.4408 0.0000 0.0000 0.0000
# 3 14.1950 15.4408 144.3501 0.0000 0.0000 0.0000
# 4 0.0000 0.0000 0.0000 18.5651 0.0000 0.0000
# 5 0.0000 0.0000 0.0000 0.0000 -89.9157 0.0000
# 6 0.0000 0.0000 0.0000 0.0000 0.0000 -3.1987
#
#
#
# Elastic Compliance Matrix: (Units=1/GPa)
#
#
# Indices 1 2 3 4 5 6 
#
# 1 0.029357 -0.001401 -0.002737 0.000000 0.000000 0.000000
# 2 -0.001401 0.103408 -0.010924 0.000000 0.000000 0.000000
# 3 -0.002737 -0.010924 0.008365 0.000000 0.000000 0.000000
# 4 0.000000 0.000000 0.000000 0.053864 0.000000 0.000000
# 5 0.000000 0.000000 0.000000 0.000000 -0.011122 0.000000
# 6 0.000000 0.000000 0.000000 0.000000 0.000000 -0.312628
#
#
# Mechanical properties :
#
#
# Convention : Reuss Voigt Hill
#
# Bulk Modulus (GPa) = 9.00838 28.26579 18.63708
# Shear Modulus (GPa) = -81.13013 -4.27355 -42.70184
#
# Velocity S-wave (km/s) = -6.83587 -1.56891 -4.95936
# Velocity P-wave (km/s) = 7.55757 3.60534 4.69672
#
# Compressibility (1/GPa) = 0.11100781
#
# Stress axis : x y z
#
# Youngs Moduli (GPa) = 34.06400 9.67039 119.54240
#
# Poissons Ratio (x) = 0.01354 0.32719
# Poissons Ratio (y) = 0.04771 1.30584
# Poissons Ratio (z) = 0.09323 0.10564
#
# Static dielectric constant tensor:
#      x y z
#    x 1.587040 0.000000 0.000000 
#    y 0.000000 1.592080 0.000000 
#    z 0.000000 0.000000 1.638470 
# 
# From -- ./inp_files/9516.got.cif
#   From: 2010.05.17/outbox.cif.g08.bks.cpg/sg47_5_cif.got.tgz:9516.got - 2010.06.03 20:15:42.
