data_PCOD9381761
_publ_section_title
;
Structure prediction by ZEFSAII (Michael W. Deem and Ramdas Pophale) SiO2 
 PCOD9381761
Probable space group: P M M M
;
_chemical_formula_sum "Si O2"
_cell_formula_units_Z 44
_cell_length_a 12.855411
_cell_length_b 9.599340
_cell_length_c 25.388910
_cell_angle_alpha 90.000000
_cell_angle_beta 90.000000
_cell_angle_gamma 90.000000
_cell_volume 3133.079366
_symmetry_space_group_name_H-M "P M M M"
_symmetry_group_IT_number 47
_symmetry_cell_setting 'orthorhombic'
loop_
_space_group_symop_operation_xyz
x,y,z
-x,-y,z
x,-y,-z
-x,y,-z
-x,-y,-z
x,y,-z
-x,y,z
x,-y,z
loop_
_atom_site_type_symbol
_atom_site_label
_atom_site_fract_x
_atom_site_fract_y
_atom_site_fract_z
Si Si1 0.293070 0.667513 0.376201
Si Si2 0.122611 0.834226 0.438656
Si Si3 0.375963 0.335725 0.261281
Si Si4 0.500000 0.669223 0.439667
Si Si5 0.626726 0.160115 0.158964
Si Si6 0.373506 0.338716 0.940731
O O1 0.281434 0.500000 0.381543
O O2 0.195244 0.746302 0.400445
O O3 0.315581 0.697340 0.314939
O O4 0.395952 0.710701 0.408913
O O5 0.146260 0.800702 0.500000
O O6 0.000000 0.807083 0.430290
O O7 0.139291 0.000000 0.431756
O O8 0.500000 0.314987 0.270784
O O9 0.362645 0.500000 0.249368
O O10 0.343670 0.243614 0.211528
O O11 0.500000 0.500000 0.440057
O O12 0.500000 0.717614 0.500000
O O13 0.500000 0.161048 0.157955
O O14 0.662219 0.239814 0.106316
O O15 0.660476 0.000000 0.160074
O O16 0.500000 0.335670 0.940459
O O17 0.343929 0.500000 0.931657
O O18 0.340883 0.298014 0.000000
#
# Coordination Sequence:
#
# PCOD9381761 Si02
#       6
#     8   8   8   4   8   8
#     4  10  18  29  46  67  85 106 137 171 206 245
#     4   9  19  35  50  63  83 110 136 165 206 253
#     4   9  16  27  40  54  77 106 134 162 198 245
#     4   9  16  26  41  63  89 109 126 159 208 251
#     4   9  16  23  32  48  69  95 129 166 202 236
#     4   8  13  21  32  45  62  88 124 164 205 244
#
# _framework density 14.043691000000001
#
# number of rings (size 3 to 8) (size 9 to 14) (size 15 to 20)
#    0.000    3.000    0.909    2.182    0.000    4.727 
#    0.000    3.182    0.000    1.636    0.000    0.000 
#    0.000    0.000    0.000    0.000    0.000    0.909 
#
# Total GULP energy -244990.782054 kJ/mol
# GULP energy per Si atom -5567.972319 kJ/mol
# Density = 1.401173 g / cm^3
# Si number density = 14.043691 Si / 1000 Ang^3
#
#
#
# Elastic Constant Matrix: (Units=GPa)
#
#
# Indices 1 2 3 4 5 6 
#
# 1 36.5099 33.8126 44.8915 0.0000 0.0000 0.0000
# 2 33.8126 72.3866 88.2873 0.0000 0.0000 0.0000
# 3 44.8915 88.2873 152.7961 0.0000 0.0000 0.0000
# 4 0.0000 0.0000 0.0000 18.5420 0.0000 0.0000
# 5 0.0000 0.0000 0.0000 0.0000 9.5276 0.0000
# 6 0.0000 0.0000 0.0000 0.0000 0.0000 15.9641
#
#
#
# Elastic Compliance Matrix: (Units=1/GPa)
#
#
# Indices 1 2 3 4 5 6 
#
# 1 0.048971 -0.018041 -0.003964 0.000000 0.000000 0.000000
# 2 -0.018041 0.053434 -0.025574 0.000000 0.000000 0.000000
# 3 -0.003964 -0.025574 0.022486 0.000000 0.000000 0.000000
# 4 0.000000 0.000000 0.000000 0.053932 0.000000 0.000000
# 5 0.000000 0.000000 0.000000 0.000000 0.104959 0.000000
# 6 0.000000 0.000000 0.000000 0.000000 0.000000 0.062641
#
#
# Mechanical properties :
#
#
# Convention : Reuss Voigt Hill
#
# Bulk Modulus (GPa) = 33.63153 66.18618 49.90885
# Shear Modulus (GPa) = 11.07442 15.12013 13.09728
#
# Velocity S-wave (km/s) = 2.81119 3.28479 3.05718
# Velocity P-wave (km/s) = 5.87681 7.84969 6.93377
#
# Compressibility (1/GPa) = 0.02973400
#
# Stress axis : x y z
#
# Youngs Moduli (GPa) = 20.42013 18.71475 44.47158
#
# Poissons Ratio (x) = 0.33763 0.17627
# Poissons Ratio (y) = 0.36840 1.13733
# Poissons Ratio (z) = 0.08094 0.47862
#
# Static dielectric constant tensor:
#      x y z
#    x 1.428840 0.000000 0.000000 
#    y 0.000000 1.464100 0.000000 
#    z 0.000000 0.000000 1.467000 
# 
# From -- ./inp_files/4332.got.cif
#   From: 2010.05.17/outbox.cif.g08.bks.cpg/sg47_3_cif.got.tgz:4332.got - 2010.06.03 20:15:42.
