data_PCOD9381818
_publ_section_title
;
Structure prediction by ZEFSAII (Michael W. Deem and Ramdas Pophale) SiO2 
 PCOD9381818
Probable space group: P M M M
;
_chemical_formula_sum "Si O2"
_cell_formula_units_Z 64
_cell_length_a 20.702855
_cell_length_b 7.409157
_cell_length_c 20.903460
_cell_angle_alpha 90.000000
_cell_angle_beta 90.000000
_cell_angle_gamma 90.000000
_cell_volume 3206.396425
_symmetry_space_group_name_H-M "P M M M"
_symmetry_group_IT_number 47
_symmetry_cell_setting 'orthorhombic'
loop_
_space_group_symop_operation_xyz
x,y,z
-x,-y,z
x,-y,-z
-x,y,-z
-x,-y,-z
x,y,-z
-x,y,z
x,-y,z
loop_
_atom_site_type_symbol
_atom_site_label
_atom_site_fract_x
_atom_site_fract_y
_atom_site_fract_z
Si Si1 0.569721 0.217882 0.113581
Si Si2 0.391147 0.780434 0.746533
Si Si3 0.286729 0.779602 0.569356
Si Si4 0.711680 0.287415 0.069071
Si Si5 0.815716 0.283596 0.832107
Si Si6 0.569518 0.780561 0.394244
Si Si7 0.250377 0.785786 0.292909
Si Si8 0.074349 0.280075 0.927812
O O1 0.500000 0.279236 0.088465
O O2 0.578090 0.279192 0.187206
O O3 0.635220 0.270086 0.078530
O O4 0.568937 0.000000 0.113010
O O5 0.425908 0.730795 0.680741
O O6 0.317076 0.717753 0.739135
O O7 0.391777 0.000000 0.748388
O O8 0.261942 0.720806 0.500000
O O9 0.362216 0.724207 0.575973
O O10 0.249921 0.719173 0.633778
O O11 0.286104 0.000000 0.569389
O O12 0.726182 0.500000 0.067034
O O13 0.753059 0.214711 0.128313
O O14 0.730211 0.210556 0.000000
O O15 0.816886 0.500000 0.835051
O O16 0.806745 0.243032 0.757336
O O17 0.877682 0.218836 0.872008
O O18 0.500000 0.719994 0.420154
O O19 0.569796 0.000000 0.398218
O O20 0.258350 0.000000 0.298095
O O21 0.075103 0.500000 0.927556
O O22 0.000000 0.224774 0.918318
O O23 0.094558 0.226205 0.000000
#
# Coordination Sequence:
#
# PCOD9381818 Si02
#       8
#     8   8   8   8   8   8   8   8
#     4  10  19  30  45  61  77 101 138 185 230 269
#     4   8  13  23  37  54  76 102 132 168 213 262
#     4   8  14  23  35  54  81 112 143 175 213 260
#     4  10  21  34  45  59  82 111 140 174 219 265
#     4  10  18  29  48  71  91 113 145 182 212 248
#     4   8  12  17  28  48  74 102 130 164 212 265
#     4   9  16  27  44  63  86 116 146 178 217 258
#     4   8  14  26  46  72  99 124 149 177 211 254
#
# _framework density 19.960103
#
# number of rings (size 3 to 8) (size 9 to 14) (size 15 to 20)
#    0.000    3.125    1.250    2.625    0.000    4.000 
#    0.000    2.500    0.000    1.875    0.000    0.875 
#    0.000    0.500    0.000    9.500    0.000    3.750 
#
# Total GULP energy -356841.933022 kJ/mol
# GULP energy per Si atom -5575.655203 kJ/mol
# Density = 1.991467 g / cm^3
# Si number density = 19.960103 Si / 1000 Ang^3
#
#
#
# Elastic Constant Matrix: (Units=GPa)
#
#
# Indices 1 2 3 4 5 6 
#
# 1 80.8363 -2.5471 62.9074 0.0000 0.0000 0.0000
# 2 -2.5471 62.8592 2.8736 0.0000 0.0000 0.0000
# 3 62.9074 2.8736 156.7882 0.0000 0.0000 0.0000
# 4 0.0000 0.0000 0.0000 5.9744 0.0000 0.0000
# 5 0.0000 0.0000 0.0000 0.0000 8.8061 0.0000
# 6 0.0000 0.0000 0.0000 0.0000 0.0000 3.1976
#
#
#
# Elastic Compliance Matrix: (Units=1/GPa)
#
#
# Indices 1 2 3 4 5 6 
#
# 1 0.018058 0.001064 -0.007265 0.000000 0.000000 0.000000
# 2 0.001064 0.015985 -0.000720 0.000000 0.000000 0.000000
# 3 -0.007265 -0.000720 0.009306 0.000000 0.000000 0.000000
# 4 0.000000 0.000000 0.000000 0.167381 0.000000 0.000000
# 5 0.000000 0.000000 0.000000 0.000000 0.113557 0.000000
# 6 0.000000 0.000000 0.000000 0.000000 0.000000 0.312735
#
#
# Mechanical properties :
#
#
# Convention : Reuss Voigt Hill
#
# Bulk Modulus (GPa) = 33.89037 47.43904 40.66471
# Shear Modulus (GPa) = 7.56775 19.41228 13.49001
#
# Velocity S-wave (km/s) = 1.94927 3.12196 2.60253
# Velocity P-wave (km/s) = 4.69916 6.06746 5.42661
#
# Compressibility (1/GPa) = 0.02950690
#
# Stress axis : x y z
#
# Youngs Moduli (GPa) = 55.37822 62.56029 107.45755
#
# Poissons Ratio (x) = -0.06655 0.78065
# Poissons Ratio (y) = -0.05891 0.07735
# Poissons Ratio (z) = 0.40231 0.04503
#
# Static dielectric constant tensor:
#      x y z
#    x 1.691080 0.000000 0.000000 
#    y 0.000000 1.802350 0.000000 
#    z 0.000000 0.000000 1.744240 
# 
# From -- ./inp_files/31532.got.cif
#   From: 2010.05.17/outbox.cif.g08.bks.cpg/sg47_16_cif.got.tgz:31532.got - 2010.06.03 20:15:42.
