data_PCOD9381191
_publ_section_title
;
Structure prediction by ZEFSAII (Michael W. Deem and Ramdas Pophale) SiO2 
 PCOD9381191
Probable space group: P M M M
;
_chemical_formula_sum "Si O2"
_cell_formula_units_Z 52
_cell_length_a 7.510033
_cell_length_b 14.917588
_cell_length_c 21.420374
_cell_angle_alpha 90.000000
_cell_angle_beta 90.000000
_cell_angle_gamma 90.000000
_cell_volume 2399.758304
_symmetry_space_group_name_H-M "P M M M"
_symmetry_group_IT_number 47
_symmetry_cell_setting 'orthorhombic'
loop_
_space_group_symop_operation_xyz
x,y,z
-x,-y,z
x,-y,-z
-x,y,-z
-x,-y,-z
x,y,-z
-x,y,z
x,-y,z
loop_
_atom_site_type_symbol
_atom_site_label
_atom_site_fract_x
_atom_site_fract_y
_atom_site_fract_z
Si Si1 0.298997 0.162914 0.500000
Si Si2 0.293230 0.596737 0.360668
Si Si3 0.282007 0.896943 0.000000
Si Si4 0.211307 0.899691 0.242265
Si Si5 0.716831 0.599188 0.926988
Si Si6 0.290701 0.798879 0.632228
Si Si7 0.286777 0.214337 0.120302
Si Si8 0.784593 0.369968 0.500000
O O1 0.500000 0.124522 0.500000
O O2 0.217801 0.150665 0.430265
O O3 0.293838 0.270659 0.500000
O O4 0.500000 0.599534 0.340418
O O5 0.219515 0.500000 0.336617
O O6 0.217357 0.698336 0.351496
O O7 0.280312 0.590057 0.435521
O O8 0.222298 0.845146 0.937983
O O9 0.500000 0.896599 0.000000
O O10 0.225258 0.000000 0.000000
O O11 0.277880 0.859616 0.307146
O O12 0.250020 0.833862 0.185070
O O13 0.000000 0.905176 0.247748
O O14 0.281701 0.000000 0.230100
O O15 0.500000 0.597640 0.924860
O O16 0.778041 0.500000 0.907904
O O17 0.779483 0.683917 0.887317
O O18 0.763471 0.613104 0.000000
O O19 0.500000 0.784539 0.618000
O O20 0.500000 0.218758 0.113902
O O21 0.000000 0.369159 0.500000
#
# Coordination Sequence:
#
# PCOD9381191 Si02
#       8
#     4   8   4   8   8   8   8   4
#     4   8  16  33  56  81 107 132 167 219 281 337
#     4   9  17  30  48  71 102 137 169 207 258 313
#     4   9  16  26  46  80 112 133 169 229 278 303
#     4  11  25  42  56  73 103 143 182 221 273 333
#     4   8  13  24  47  82 119 147 175 217 265 311
#     4   9  18  35  59  83 104 133 175 222 270 325
#     4  10  18  32  56  84 110 142 182 223 266 313
#     4  10  17  23  38  70 108 142 176 208 243 299
#
# _framework density 21.668848000000001
#
# number of rings (size 3 to 8) (size 9 to 14) (size 15 to 20)
#    0.000    2.692    0.769    3.231    0.000    5.538 
#    0.000    1.538    0.000    8.769    0.000    1.077 
#    0.000    0.000    0.000    0.000    0.000    0.000 
#
# Total GULP energy -289650.640781 kJ/mol
# GULP energy per Si atom -5570.204630 kJ/mol
# Density = 2.161953 g / cm^3
# Si number density = 21.668848 Si / 1000 Ang^3
#
#
#
# Elastic Constant Matrix: (Units=GPa)
#
#
# Indices 1 2 3 4 5 6 
#
# 1 62.8415 3.4257 -2.4477 0.0000 0.0000 0.0000
# 2 3.4257 156.3223 81.0317 0.0000 0.0000 0.0000
# 3 -2.4477 81.0317 136.5915 0.0000 0.0000 0.0000
# 4 0.0000 0.0000 0.0000 94.2559 0.0000 0.0000
# 5 0.0000 0.0000 0.0000 0.0000 139.8422 0.0000
# 6 0.0000 0.0000 0.0000 0.0000 0.0000 15.4002
#
#
#
# Elastic Compliance Matrix: (Units=1/GPa)
#
#
# Indices 1 2 3 4 5 6 
#
# 1 0.015980 -0.000720 0.000714 0.000000 0.000000 0.000000
# 2 -0.000720 0.009270 -0.005512 0.000000 0.000000 0.000000
# 3 0.000714 -0.005512 0.010604 0.000000 0.000000 0.000000
# 4 0.000000 0.000000 0.000000 0.010609 0.000000 0.000000
# 5 0.000000 0.000000 0.000000 0.000000 0.007151 0.000000
# 6 0.000000 0.000000 0.000000 0.000000 0.000000 0.064934
#
#
# Mechanical properties :
#
#
# Convention : Reuss Voigt Hill
#
# Bulk Modulus (GPa) = 40.29568 57.75276 49.02422
# Shear Modulus (GPa) = 36.26898 68.14937 52.20917
#
# Velocity S-wave (km/s) = 4.09563 5.61415 4.91390
# Velocity P-wave (km/s) = 6.40329 8.29067 7.40734
#
# Compressibility (1/GPa) = 0.02481656
#
# Stress axis : x y z
#
# Youngs Moduli (GPa) = 62.57781 107.87205 94.30348
#
# Poissons Ratio (x) = 0.07767 -0.06729
# Poissons Ratio (y) = 0.04506 0.51984
# Poissons Ratio (z) = -0.04465 0.59463
#
# Static dielectric constant tensor:
#      x y z
#    x 1.832850 0.000000 0.000000 
#    y 0.000000 1.818960 0.000000 
#    z 0.000000 0.000000 1.784040 
# 
# From -- ./inp_files/29672.got.cif
#   From: 2010.05.17/outbox.cif.g08.bks.cpg/sg47_15_cif.got.tgz:29672.got - 2010.06.03 20:15:42.
