data_PCOD9381747
_publ_section_title
;
Structure prediction by ZEFSAII (Michael W. Deem and Ramdas Pophale) SiO2 
 PCOD9381747
Probable space group: P M M M
;
_chemical_formula_sum "Si O2"
_cell_formula_units_Z 36
_cell_length_a 12.877591
_cell_length_b 9.548597
_cell_length_c 20.250816
_cell_angle_alpha 90.000000
_cell_angle_beta 90.000000
_cell_angle_gamma 90.000000
_cell_volume 2490.099605
_symmetry_space_group_name_H-M "P M M M"
_symmetry_group_IT_number 47
_symmetry_cell_setting 'orthorhombic'
loop_
_space_group_symop_operation_xyz
x,y,z
-x,-y,z
x,-y,-z
-x,y,-z
-x,-y,-z
x,y,-z
-x,y,z
x,-y,z
loop_
_atom_site_type_symbol
_atom_site_label
_atom_site_fract_x
_atom_site_fract_y
_atom_site_fract_z
Si Si1 0.500000 0.170079 0.924416
Si Si2 0.376881 0.166897 0.701206
Si Si3 0.877715 0.333277 0.923017
Si Si4 0.293740 0.830987 0.844073
Si Si5 0.373952 0.663270 0.573238
O O1 0.603835 0.211273 0.885660
O O2 0.500000 0.000000 0.925243
O O3 0.500000 0.219334 0.000000
O O4 0.500000 0.197373 0.711708
O O5 0.315812 0.204443 0.767710
O O6 0.339963 0.246595 0.635776
O O7 0.368761 0.000000 0.691500
O O8 0.861274 0.500000 0.914328
O O9 0.804538 0.245160 0.875408
O O10 0.000000 0.305575 0.912194
O O11 0.854584 0.299891 0.000000
O O12 0.283378 0.000000 0.848785
O O13 0.339403 0.710519 0.500000
O O14 0.500000 0.670080 0.572847
O O15 0.346059 0.500000 0.580997
#
# Coordination Sequence:
#
# PCOD9381747 Si02
#       5
#     4   8   8   8   8
#     4   9  16  26  41  61  86 115 142 172 213 255
#     4   9  16  26  39  58  87 117 143 173 211 254
#     4   9  19  35  50  63  83 111 143 184 231 268
#     4  10  18  29  45  66  89 114 146 180 214 259
#     4   8  14  24  37  54  78 110 148 183 209 240
#
# _framework density 14.457252
#
# number of rings (size 3 to 8) (size 9 to 14) (size 15 to 20)
#    0.000    3.000    1.111    2.000    0.000    3.111 
#    0.000    3.889    0.000    2.000    0.000    0.000 
#    0.000    0.889    0.000    9.778    0.000    7.556 
#
# Total GULP energy -200442.176701 kJ/mol
# GULP energy per Si atom -5567.838242 kJ/mol
# Density = 1.442435 g / cm^3
# Si number density = 14.457252 Si / 1000 Ang^3
#
#
#
# Elastic Constant Matrix: (Units=GPa)
#
#
# Indices 1 2 3 4 5 6 
#
# 1 52.5540 33.7756 60.3325 0.0000 0.0000 0.0000
# 2 33.7756 33.9964 64.7095 0.0000 0.0000 0.0000
# 3 60.3325 64.7095 167.9144 0.0000 0.0000 0.0000
# 4 0.0000 0.0000 0.0000 28.3066 0.0000 0.0000
# 5 0.0000 0.0000 0.0000 0.0000 14.4181 0.0000
# 6 0.0000 0.0000 0.0000 0.0000 0.0000 19.4984
#
#
#
# Elastic Compliance Matrix: (Units=1/GPa)
#
#
# Indices 1 2 3 4 5 6 
#
# 1 0.053625 -0.062303 0.004742 0.000000 0.000000 0.000000
# 2 -0.062303 0.182769 -0.048049 0.000000 0.000000 0.000000
# 3 0.004742 -0.048049 0.022768 0.000000 0.000000 0.000000
# 4 0.000000 0.000000 0.000000 0.035328 0.000000 0.000000
# 5 0.000000 0.000000 0.000000 0.000000 0.069357 0.000000
# 6 0.000000 0.000000 0.000000 0.000000 0.000000 0.051286
#
#
# Mechanical properties :
#
#
# Convention : Reuss Voigt Hill
#
# Bulk Modulus (GPa) = 20.85757 63.56666 42.21212
# Shear Modulus (GPa) = 7.78412 18.82109 13.30261
#
# Velocity S-wave (km/s) = 2.32291 3.61202 3.03666
# Velocity P-wave (km/s) = 4.65327 7.83963 6.44642
#
# Compressibility (1/GPa) = 0.04794423
#
# Stress axis : x y z
#
# Youngs Moduli (GPa) = 18.64797 5.47137 43.92081
#
# Poissons Ratio (x) = 0.34088 -0.20827
# Poissons Ratio (y) = 1.16182 2.11034
# Poissons Ratio (z) = -0.08843 0.26289
#
# Static dielectric constant tensor:
#      x y z
#    x 1.451330 0.000000 0.000000 
#    y 0.000000 1.476580 0.000000 
#    z 0.000000 0.000000 1.485810 
# 
# From -- ./inp_files/3887.got.cif
#   From: 2010.05.17/outbox.cif.g08.bks.cpg/sg47_2_cif.got.tgz:3887.got - 2010.06.03 20:15:42.
