data_PCOD9381701
_publ_section_title
;
Structure prediction by ZEFSAII (Michael W. Deem and Ramdas Pophale) SiO2 
 PCOD9381701
Probable space group: P M M M
;
_chemical_formula_sum "Si O2"
_cell_formula_units_Z 56
_cell_length_a 7.898712
_cell_length_b 24.096337
_cell_length_c 14.950367
_cell_angle_alpha 90.000000
_cell_angle_beta 90.000000
_cell_angle_gamma 90.000000
_cell_volume 2845.503743
_symmetry_space_group_name_H-M "P M M M"
_symmetry_group_IT_number 47
_symmetry_cell_setting 'orthorhombic'
loop_
_space_group_symop_operation_xyz
x,y,z
-x,-y,z
x,-y,-z
-x,y,-z
-x,-y,-z
x,y,-z
-x,y,z
x,-y,z
loop_
_atom_site_type_symbol
_atom_site_label
_atom_site_fract_x
_atom_site_fract_y
_atom_site_fract_z
Si Si1 0.301049 0.439784 0.286176
Si Si2 0.702486 0.271456 0.895836
Si Si3 0.706763 0.062682 0.103095
Si Si4 0.701026 0.833338 0.784845
Si Si5 0.296348 0.335304 0.604294
Si Si6 0.800672 0.790171 0.399155
Si Si7 0.198076 0.397614 0.100588
O O1 0.500000 0.441156 0.309636
O O2 0.227447 0.500000 0.310027
O O3 0.229283 0.385834 0.336127
O O4 0.285429 0.430012 0.180452
O O5 0.500000 0.278397 0.881161
O O6 0.768331 0.222200 0.833387
O O7 0.782053 0.331758 0.881418
O O8 0.727261 0.256131 0.000000
O O9 0.500000 0.062104 0.105536
O O10 0.767787 0.110776 0.169186
O O11 0.762517 0.000000 0.125202
O O12 0.753766 0.074742 0.000000
O O13 0.500000 0.832716 0.802351
O O14 0.727288 0.827690 0.679335
O O15 0.260011 0.346307 0.500000
O O16 0.500000 0.331640 0.615351
O O17 0.228080 0.274366 0.625959
O O18 0.730288 0.797808 0.500000
O O19 0.000000 0.800182 0.402582
O O20 0.000000 0.411758 0.101734
O O21 0.264535 0.407722 0.000000
#
# Coordination Sequence:
#
# PCOD9381701 Si02
#       7
#     8   8   8   8   8   8   8
#     4  10  21  35  51  72  95 120 153 191 232 282
#     4   9  17  29  46  70  99 126 152 187 234 287
#     4   8  14  26  46  74 107 138 166 198 237 281
#     4  10  18  28  48  76 101 127 162 201 238 279
#     4   9  18  34  55  76  98 123 151 188 237 290
#     4  10  21  35  50  70  97 128 161 198 242 290
#     4  10  21  35  49  66  91 124 160 197 237 280
#
# _framework density 19.680171000000001
#
# number of rings (size 3 to 8) (size 9 to 14) (size 15 to 20)
#    0.000    2.571    0.000    2.571    0.000    8.857 
#    0.000    2.857    0.000    2.143    0.000    7.000 
#    0.000    0.000    0.000    0.000    0.000    0.000 
#
# Total GULP energy -312493.105959 kJ/mol
# GULP energy per Si atom -5580.234035 kJ/mol
# Density = 1.963538 g / cm^3
# Si number density = 19.680171 Si / 1000 Ang^3
#
#
#
# Elastic Constant Matrix: (Units=GPa)
#
#
# Indices 1 2 3 4 5 6 
#
# 1 14.8697 -6.8524 -6.8130 0.0000 0.0000 0.0000
# 2 -6.8524 29.7763 22.3017 0.0000 0.0000 0.0000
# 3 -6.8130 22.3017 47.8346 0.0000 0.0000 0.0000
# 4 0.0000 0.0000 0.0000 17.4516 0.0000 0.0000
# 5 0.0000 0.0000 0.0000 0.0000 6.8787 0.0000
# 6 0.0000 0.0000 0.0000 0.0000 0.0000 234.4986
#
#
#
# Elastic Compliance Matrix: (Units=1/GPa)
#
#
# Indices 1 2 3 4 5 6 
#
# 1 0.075746 0.014369 0.004089 0.000000 0.000000 0.000000
# 2 0.014369 0.054329 -0.023283 0.000000 0.000000 0.000000
# 3 0.004089 -0.023283 0.032343 0.000000 0.000000 0.000000
# 4 0.000000 0.000000 0.000000 0.057301 0.000000 0.000000
# 5 0.000000 0.000000 0.000000 0.000000 0.145375 0.000000
# 6 0.000000 0.000000 0.000000 0.000000 0.000000 0.004264
#
#
# Mechanical properties :
#
#
# Convention : Reuss Voigt Hill
#
# Bulk Modulus (GPa) = 6.54590 12.19481 9.37035
# Shear Modulus (GPa) = 11.62976 57.35542 34.49259
#
# Velocity S-wave (km/s) = 2.43356 5.40435 4.19102
# Velocity P-wave (km/s) = 3.35107 6.71957 5.30953
#
# Compressibility (1/GPa) = 0.15276730
#
# Stress axis : x y z
#
# Youngs Moduli (GPa) = 13.20206 18.40642 30.91866
#
# Poissons Ratio (x) = -0.26447 -0.12644
# Poissons Ratio (y) = -0.18969 0.71988
# Poissons Ratio (z) = -0.05399 0.42856
#
# Static dielectric constant tensor:
#      x y z
#    x 1.715870 0.000000 0.000000 
#    y 0.000000 1.692700 0.000000 
#    z 0.000000 0.000000 1.697540 
# 
# From -- ./inp_files/7255.got.cif
#   From: 2010.05.17/outbox.cif.g08.bks.cpg/sg47_4_cif.got.tgz:7255.got - 2010.06.03 20:15:42.
