data_PCOD9381189
_publ_section_title
;
Structure prediction by ZEFSAII (Michael W. Deem and Ramdas Pophale) SiO2 
 PCOD9381189
Probable space group: P M M M
;
_chemical_formula_sum "Si O2"
_cell_formula_units_Z 48
_cell_length_a 16.354223
_cell_length_b 7.678147
_cell_length_c 17.524415
_cell_angle_alpha 90.000000
_cell_angle_beta 90.000000
_cell_angle_gamma 90.000000
_cell_volume 2200.543039
_symmetry_space_group_name_H-M "P M M M"
_symmetry_group_IT_number 47
_symmetry_cell_setting 'orthorhombic'
loop_
_space_group_symop_operation_xyz
x,y,z
-x,-y,z
x,-y,-z
-x,y,-z
-x,-y,-z
x,y,-z
-x,y,z
x,-y,z
loop_
_atom_site_type_symbol
_atom_site_label
_atom_site_fract_x
_atom_site_fract_y
_atom_site_fract_z
Si Si1 0.775346 0.784936 0.665557
Si Si2 0.676472 0.710658 0.911736
Si Si3 0.412576 0.205752 0.329822
Si Si4 0.159950 0.796221 0.820971
Si Si5 0.500000 0.293659 0.093303
Si Si6 0.619820 0.290496 0.500000
Si Si7 0.000000 0.704166 0.915616
Si Si8 0.196477 0.804761 0.500000
O O1 0.680799 0.728351 0.683695
O O2 0.829319 0.722576 0.736217
O O3 0.813784 0.724961 0.584572
O O4 0.772688 0.000000 0.661048
O O5 0.672960 0.500000 0.911840
O O6 0.755563 0.763734 0.865334
O O7 0.588302 0.776416 0.881063
O O8 0.684845 0.766611 0.000000
O O9 0.500000 0.275705 0.296937
O O10 0.418908 0.235878 0.420695
O O11 0.410990 0.000000 0.312828
O O12 0.081992 0.742558 0.869285
O O13 0.151428 0.000000 0.810055
O O14 0.500000 0.500000 0.109948
O O15 0.500000 0.278484 0.000000
O O16 0.630132 0.500000 0.500000
O O17 0.705309 0.190854 0.500000
O O18 0.000000 0.500000 0.925757
O O19 0.000000 0.787783 0.000000
O O20 0.160686 0.000000 0.500000
#
# Coordination Sequence:
#
# PCOD9381189 Si02
#       8
#     8   8   8   8   4   4   4   4
#     4   8  16  31  51  77 104 136 180 227 269 315
#     4   9  17  32  54  78 107 148 193 227 258 314
#     4   9  16  28  45  62  88 135 188 223 254 311
#     4  11  22  36  56  87 120 141 168 223 292 338
#     4   7  12  26  49  73  99 140 193 232 252 291
#     4  10  17  23  36  63  97 128 168 232 292 319
#     4  11  25  45  67  88 109 142 186 219 253 323
#     4   8  14  31  55  71  93 138 191 223 251 317
#
# _framework density 21.812797
#
# number of rings (size 3 to 8) (size 9 to 14) (size 15 to 20)
#    0.000    2.833    0.000    4.250    0.000    4.333 
#    1.500    7.083    0.000    2.000    0.000    3.500 
#    0.000    0.000    0.000    0.000    0.000    0.000 
#
# Total GULP energy -267310.475375 kJ/mol
# GULP energy per Si atom -5568.968237 kJ/mol
# Density = 2.176315 g / cm^3
# Si number density = 21.812797 Si / 1000 Ang^3
#
#
#
# Elastic Constant Matrix: (Units=GPa)
#
#
# Indices 1 2 3 4 5 6 
#
# 1 135.6461 4.3467 89.4423 0.0000 0.0000 0.0000
# 2 4.3467 42.2184 5.9050 0.0000 0.0000 0.0000
# 3 89.4423 5.9050 139.1066 0.0000 0.0000 0.0000
# 4 0.0000 0.0000 0.0000 18.7579 0.0000 0.0000
# 5 0.0000 0.0000 0.0000 0.0000 11.3592 0.0000
# 6 0.0000 0.0000 0.0000 0.0000 0.0000 25.6580
#
#
#
# Elastic Compliance Matrix: (Units=1/GPa)
#
#
# Indices 1 2 3 4 5 6 
#
# 1 0.012799 -0.000168 -0.008222 0.000000 0.000000 0.000000
# 2 -0.000168 0.023830 -0.000904 0.000000 0.000000 0.000000
# 3 -0.008222 -0.000904 0.012514 0.000000 0.000000 0.000000
# 4 0.000000 0.000000 0.000000 0.053311 0.000000 0.000000
# 5 0.000000 0.000000 0.000000 0.000000 0.088035 0.000000
# 6 0.000000 0.000000 0.000000 0.000000 0.000000 0.038974
#
#
# Mechanical properties :
#
#
# Convention : Reuss Voigt Hill
#
# Bulk Modulus (GPa) = 32.72749 57.37324 45.05036
# Shear Modulus (GPa) = 19.36214 25.64014 22.50114
#
# Velocity S-wave (km/s) = 2.98258 3.43222 3.21527
# Velocity P-wave (km/s) = 5.18627 6.48587 5.87213
#
# Compressibility (1/GPa) = 0.03055535
#
# Stress axis : x y z
#
# Youngs Moduli (GPa) = 78.12957 41.96384 79.91072
#
# Poissons Ratio (x) = 0.00704 0.65707
# Poissons Ratio (y) = 0.01310 0.07222
# Poissons Ratio (z) = 0.64242 0.03792
#
# Static dielectric constant tensor:
#      x y z
#    x 1.707420 0.000000 0.000000 
#    y 0.000000 1.819130 0.000000 
#    z 0.000000 0.000000 1.934340 
# 
# From -- ./inp_files/28101.got.cif
#   From: 2010.05.17/outbox.cif.g08.bks.cpg/sg47_15_cif.got.tgz:28101.got - 2010.06.03 20:15:42.
