data_PCOD9381294
_publ_section_title
;
Structure prediction by ZEFSAII (Michael W. Deem and Ramdas Pophale) SiO2 
 PCOD9381294
Probable space group: P M M M
;
_chemical_formula_sum "Si O2"
_cell_formula_units_Z 64
_cell_length_a 32.483399
_cell_length_b 14.840011
_cell_length_c 7.585963
_cell_angle_alpha 90.000000
_cell_angle_beta 90.000000
_cell_angle_gamma 90.000000
_cell_volume 3656.843796
_symmetry_space_group_name_H-M "P M M M"
_symmetry_group_IT_number 47
_symmetry_cell_setting 'orthorhombic'
loop_
_space_group_symop_operation_xyz
x,y,z
-x,-y,z
x,-y,-z
-x,y,-z
-x,-y,-z
x,y,-z
-x,y,z
x,-y,z
loop_
_atom_site_type_symbol
_atom_site_label
_atom_site_fract_x
_atom_site_fract_y
_atom_site_fract_z
Si Si1 0.044274 0.895407 0.711776
Si Si2 0.786199 0.792958 0.790295
Si Si3 0.704648 0.103932 0.786670
Si Si4 0.546538 0.896416 0.715376
Si Si5 0.623136 0.782620 0.290730
Si Si6 0.243094 0.400191 0.712029
Si Si7 0.865824 0.897034 0.210308
Si Si8 0.338093 0.600747 0.715429
O O1 0.043255 0.896568 0.500000
O O2 0.088641 0.856692 0.760534
O O3 0.000000 0.856966 0.772280
O O4 0.045238 0.000000 0.772937
O O5 0.744734 0.841361 0.721603
O O6 0.783175 0.686214 0.762944
O O7 0.827819 0.838565 0.720129
O O8 0.785843 0.808072 0.000000
O O9 0.662876 0.153899 0.733261
O O10 0.705520 0.000000 0.727740
O O11 0.705621 0.103659 0.000000
O O12 0.547169 0.895804 0.500000
O O13 0.500000 0.872217 0.768877
O O14 0.582412 0.831001 0.780215
O O15 0.554549 0.000000 0.768355
O O16 0.616715 0.772110 0.500000
O O17 0.634716 0.683859 0.220361
O O18 0.243898 0.402598 0.500000
O O19 0.229934 0.500000 0.773423
O O20 0.290501 0.385823 0.770624
O O21 0.864579 0.000000 0.280879
O O22 0.861043 0.903454 0.000000
O O23 0.338087 0.602362 0.500000
O O24 0.350887 0.500000 0.768765
#
# Coordination Sequence:
#
# PCOD9381294 Si02
#       8
#     8   8   8   8   8   8   8   8
#     4   8  14  25  40  58  81 109 143 184 224 254
#     4  10  19  30  43  60  85 116 146 174 206 248
#     4  10  20  31  41  57  86 118 140 166 208 248
#     4   8  14  24  38  59  85 107 130 168 214 250
#     4  10  17  27  46  65  79 103 143 178 202 243
#     4   9  17  30  46  62  82 108 138 174 217 257
#     4   9  17  28  41  58  83 117 152 179 207 249
#     4   8  14  25  41  61  83 104 128 166 215 253
#
# _framework density 17.501432000000001
#
# number of rings (size 3 to 8) (size 9 to 14) (size 15 to 20)
#    0.000    3.000    1.250    2.250    0.000    3.250 
#    0.000    1.250    0.000    3.375    0.000    4.375 
#    0.000    0.500    0.000    6.625    0.000    5.625 
#
# Total GULP energy -356612.398865 kJ/mol
# GULP energy per Si atom -5572.068732 kJ/mol
# Density = 1.746160 g / cm^3
# Si number density = 17.501432 Si / 1000 Ang^3
#
#
#
# Elastic Constant Matrix: (Units=GPa)
#
#
# Indices 1 2 3 4 5 6 
#
# 1 153.7071 85.5453 2.0137 0.0000 0.0000 0.0000
# 2 85.5453 121.0523 -0.7000 0.0000 0.0000 0.0000
# 3 2.0137 -0.7000 35.8234 0.0000 0.0000 0.0000
# 4 0.0000 0.0000 0.0000 11.3622 0.0000 0.0000
# 5 0.0000 0.0000 0.0000 0.0000 13.5004 0.0000
# 6 0.0000 0.0000 0.0000 0.0000 0.0000 8.9268
#
#
#
# Elastic Compliance Matrix: (Units=1/GPa)
#
#
# Indices 1 2 3 4 5 6 
#
# 1 0.010744 -0.007597 -0.000752 0.000000 0.000000 0.000000
# 2 -0.007597 0.013633 0.000693 0.000000 0.000000 0.000000
# 3 -0.000752 0.000693 0.027971 0.000000 0.000000 0.000000
# 4 0.000000 0.000000 0.000000 0.088011 0.000000 0.000000
# 5 0.000000 0.000000 0.000000 0.000000 0.074072 0.000000
# 6 0.000000 0.000000 0.000000 0.000000 0.000000 0.112022
#
#
# Mechanical properties :
#
#
# Convention : Reuss Voigt Hill
#
# Bulk Modulus (GPa) = 27.00051 53.81119 40.40585
# Shear Modulus (GPa) = 14.11994 21.67280 17.89637
#
# Velocity S-wave (km/s) = 2.84348 3.52283 3.20123
# Velocity P-wave (km/s) = 5.12266 6.88190 6.06639
#
# Compressibility (1/GPa) = 0.03703633
#
# Stress axis : x y z
#
# Youngs Moduli (GPa) = 93.07816 73.34957 35.75187
#
# Poissons Ratio (x) = 0.55721 0.02690
# Poissons Ratio (y) = 0.70709 -0.02479
# Poissons Ratio (z) = 0.07003 -0.05086
#
# Static dielectric constant tensor:
#      x y z
#    x 1.608760 0.000000 0.000000 
#    y 0.000000 1.592940 0.000000 
#    z 0.000000 0.000000 1.665880 
# 
# From -- ./inp_files/14313.got.cif
#   From: 2010.05.17/outbox.cif.g08.bks.cpg/sg47_8_cif.got.tgz:14313.got - 2010.06.03 20:15:42.
