data_PCOD9381935
_publ_section_title
;
Structure prediction by ZEFSAII (Michael W. Deem and Ramdas Pophale) SiO2 
 PCOD9381935
Probable space group: P M M M
;
_chemical_formula_sum "Si O2"
_cell_formula_units_Z 52
_cell_length_a 18.560083
_cell_length_b 7.386801
_cell_length_c 17.817353
_cell_angle_alpha 90.000000
_cell_angle_beta 90.000000
_cell_angle_gamma 90.000000
_cell_volume 2442.752676
_symmetry_space_group_name_H-M "P M M M"
_symmetry_group_IT_number 47
_symmetry_cell_setting 'orthorhombic'
loop_
_space_group_symop_operation_xyz
x,y,z
-x,-y,z
x,-y,-z
-x,y,-z
-x,-y,-z
x,y,-z
-x,y,z
x,-y,z
loop_
_atom_site_type_symbol
_atom_site_label
_atom_site_fract_x
_atom_site_fract_y
_atom_site_fract_z
Si Si1 0.184280 0.210010 0.337787
Si Si2 0.420583 0.785300 0.820939
Si Si3 0.201964 0.221889 0.500000
Si Si4 0.283831 0.778780 0.086302
Si Si5 0.371839 0.706177 0.500000
Si Si6 0.353972 0.283252 0.660762
Si Si7 0.858071 0.778332 0.176850
Si Si8 0.000000 0.220932 0.913183
O O1 0.168401 0.282864 0.421108
O O2 0.271505 0.217765 0.329181
O O3 0.148587 0.286262 0.262765
O O4 0.163272 0.000000 0.340193
O O5 0.500000 0.710426 0.835572
O O6 0.355826 0.714565 0.872087
O O7 0.399055 0.761526 0.734170
O O8 0.423488 0.000000 0.835162
O O9 0.284284 0.290452 0.500000
O O10 0.205483 0.000000 0.500000
O O11 0.213431 0.722582 0.132229
O O12 0.284072 0.000000 0.087317
O O13 0.280774 0.722771 0.000000
O O14 0.600549 0.500000 0.500000
O O15 0.387718 0.786074 0.417875
O O16 0.349500 0.500000 0.654001
O O17 0.928895 0.722417 0.131896
O O18 0.857904 0.000000 0.178473
O O19 0.000000 0.000000 0.914386
O O20 0.000000 0.279323 0.000000
#
# Coordination Sequence:
#
# PCOD9381935 Si02
#       8
#     8   8   4   8   4   8   8   4
#     4   9  15  26  44  66  93 122 154 190 230 274
#     4  10  20  33  48  67  93 122 153 192 235 278
#     4   8  14  22  38  64  89 118 153 187 224 271
#     4   9  16  27  45  67  89 115 150 191 232 271
#     4   8  16  28  43  65  91 118 150 190 232 272
#     4  10  18  30  48  69  93 121 155 193 233 276
#     4   9  15  24  41  64  94 125 151 185 227 271
#     4   9  16  24  36  63 100 128 151 185 233 279
#
# _framework density 21.287458000000001
#
# number of rings (size 3 to 8) (size 9 to 14) (size 15 to 20)
#    0.000    2.846    1.538    0.923    0.000    3.077 
#    0.000    1.923    0.000    3.231    0.000    4.846 
#    0.000    0.615    0.000   11.308    0.000    7.846 
#
# Total GULP energy -290098.136536 kJ/mol
# GULP energy per Si atom -5578.810318 kJ/mol
# Density = 2.123901 g / cm^3
# Si number density = 21.287458 Si / 1000 Ang^3
#
#
#
# Elastic Constant Matrix: (Units=GPa)
#
#
# Indices 1 2 3 4 5 6 
#
# 1 123.9539 1.9970 111.5805 0.0000 0.0000 0.0000
# 2 1.9970 77.7388 5.3808 0.0000 0.0000 0.0000
# 3 111.5805 5.3808 212.4355 0.0000 0.0000 0.0000
# 4 0.0000 0.0000 0.0000 -64.7588 0.0000 0.0000
# 5 0.0000 0.0000 0.0000 0.0000 -12.5371 0.0000
# 6 0.0000 0.0000 0.0000 0.0000 0.0000 119.5050
#
#
#
# Elastic Compliance Matrix: (Units=1/GPa)
#
#
# Indices 1 2 3 4 5 6 
#
# 1 0.015305 0.000164 -0.008043 0.000000 0.000000 0.000000
# 2 0.000164 0.012888 -0.000412 0.000000 0.000000 0.000000
# 3 -0.008043 -0.000412 0.008942 0.000000 0.000000 0.000000
# 4 0.000000 0.000000 0.000000 -0.015442 0.000000 0.000000
# 5 0.000000 0.000000 0.000000 0.000000 -0.079763 0.000000
# 6 0.000000 0.000000 0.000000 0.000000 0.000000 0.008368
#
#
# Mechanical properties :
#
#
# Convention : Reuss Voigt Hill
#
# Bulk Modulus (GPa) = 48.65792 72.44941 60.55367
# Shear Modulus (GPa) = -190.34588 28.11982 -81.11303
#
# Velocity S-wave (km/s) = -9.46631 3.63844 -6.17951
# Velocity P-wave (km/s) = 9.82722 7.19435 4.73368
#
# Compressibility (1/GPa) = 0.02055164
#
# Stress axis : x y z
#
# Youngs Moduli (GPa) = 65.33793 77.59197 111.82789
#
# Poissons Ratio (x) = -0.01269 0.89944
# Poissons Ratio (y) = -0.01069 0.04611
# Poissons Ratio (z) = 0.52552 0.03199
#
# Static dielectric constant tensor:
#      x y z
#    x 1.715340 0.000000 0.000000 
#    y 0.000000 1.682540 0.000000 
#    z 0.000000 0.000000 1.787960 
# 
# From -- ./inp_files/28565.got.cif
#   From: 2010.05.17/outbox.cif.g08.bks.cpg/sg47_15_cif.got.tgz:28565.got - 2010.06.03 20:15:42.
