data_PCOD9381289
_publ_section_title
;
Structure prediction by ZEFSAII (Michael W. Deem and Ramdas Pophale) SiO2 
 PCOD9381289
Probable space group: P M M M
;
_chemical_formula_sum "Si O2"
_cell_formula_units_Z 52
_cell_length_a 7.484664
_cell_length_b 15.417257
_cell_length_c 23.742117
_cell_angle_alpha 90.000000
_cell_angle_beta 90.000000
_cell_angle_gamma 90.000000
_cell_volume 2739.673833
_symmetry_space_group_name_H-M "P M M M"
_symmetry_group_IT_number 47
_symmetry_cell_setting 'orthorhombic'
loop_
_space_group_symop_operation_xyz
x,y,z
-x,-y,z
x,-y,-z
-x,y,-z
-x,-y,-z
x,y,-z
-x,y,z
x,-y,z
loop_
_atom_site_type_symbol
_atom_site_label
_atom_site_fract_x
_atom_site_fract_y
_atom_site_fract_z
Si Si1 0.217584 0.600386 0.336091
Si Si2 0.214987 0.599078 0.790136
Si Si3 0.791563 0.717485 0.564039
Si Si4 0.717160 0.096563 0.933667
Si Si5 0.711877 0.717725 0.895902
Si Si6 0.281046 0.399666 0.000000
Si Si7 0.715038 0.092175 0.433847
O O1 0.261503 0.500000 0.344694
O O2 0.277008 0.623729 0.272845
O O3 0.287002 0.656092 0.388204
O O4 0.000000 0.607518 0.335838
O O5 0.277248 0.500000 0.803075
O O6 0.262541 0.669016 0.837043
O O7 0.000000 0.594894 0.788452
O O8 0.715767 0.713819 0.500000
O O9 0.781596 0.815861 0.586781
O O10 0.000000 0.694895 0.558575
O O11 0.500000 0.094552 0.930141
O O12 0.780598 0.183470 0.901912
O O13 0.778745 0.000000 0.915502
O O14 0.761080 0.106683 0.000000
O O15 0.500000 0.724577 0.905615
O O16 0.779336 0.654024 0.945235
O O17 0.223269 0.500000 0.000000
O O18 0.500000 0.401389 0.000000
O O19 0.765217 0.090823 0.500000
O O20 0.500000 0.093899 0.431159
O O21 0.775627 0.000000 0.408957
#
# Coordination Sequence:
#
# PCOD9381289 Si02
#       7
#     8   8   8   8   8   4   8
#     4   8  15  29  46  62  84 115 146 174 211 263
#     4   9  18  32  47  61  82 117 153 178 207 255
#     4   9  16  25  42  69  91 106 135 183 228 258
#     4   8  13  23  41  65  90 113 140 174 211 255
#     4  10  17  27  45  68  89 112 143 179 219 254
#     4   9  16  24  36  60  92 115 131 165 218 261
#     4   8  14  25  40  58  84 118 146 165 199 257
#
# _framework density 18.980360999999998
#
# number of rings (size 3 to 8) (size 9 to 14) (size 15 to 20)
#    0.000    3.308    0.769    2.308    0.000    1.538 
#    0.000    4.231    0.000    4.154    0.000    7.538 
#    0.000    0.000    0.000    0.000    0.000    0.000 
#
# Total GULP energy -289545.666430 kJ/mol
# GULP energy per Si atom -5568.185893 kJ/mol
# Density = 1.893716 g / cm^3
# Si number density = 18.980361 Si / 1000 Ang^3
#
#
#
# Elastic Constant Matrix: (Units=GPa)
#
#
# Indices 1 2 3 4 5 6 
#
# 1 47.8222 4.9797 0.9538 0.0000 0.0000 0.0000
# 2 4.9797 180.6196 112.6209 0.0000 0.0000 0.0000
# 3 0.9538 112.6209 117.1711 0.0000 0.0000 0.0000
# 4 0.0000 0.0000 0.0000 7.9017 0.0000 0.0000
# 5 0.0000 0.0000 0.0000 0.0000 10.2100 0.0000
# 6 0.0000 0.0000 0.0000 0.0000 0.0000 10.6184
#
#
#
# Elastic Compliance Matrix: (Units=1/GPa)
#
#
# Indices 1 2 3 4 5 6 
#
# 1 0.021014 -0.001180 0.000963 0.000000 0.000000 0.000000
# 2 -0.001180 0.013884 -0.013335 0.000000 0.000000 0.000000
# 3 0.000963 -0.013335 0.021344 0.000000 0.000000 0.000000
# 4 0.000000 0.000000 0.000000 0.126555 0.000000 0.000000
# 5 0.000000 0.000000 0.000000 0.000000 0.097943 0.000000
# 6 0.000000 0.000000 0.000000 0.000000 0.000000 0.094176
#
#
# Mechanical properties :
#
#
# Convention : Reuss Voigt Hill
#
# Bulk Modulus (GPa) = 34.31913 64.74686 49.53299
# Shear Modulus (GPa) = 12.14380 20.88325 16.51352
#
# Velocity S-wave (km/s) = 2.53219 3.32061 2.95283
# Velocity P-wave (km/s) = 5.16430 6.99203 6.14648
#
# Compressibility (1/GPa) = 0.02913827
#
# Stress axis : x y z
#
# Youngs Moduli (GPa) = 47.58636 72.02697 46.85208
#
# Poissons Ratio (x) = 0.08497 -0.04511
# Poissons Ratio (y) = 0.05614 0.62477
# Poissons Ratio (z) = -0.04582 0.96047
#
# Static dielectric constant tensor:
#      x y z
#    x 1.735630 0.000000 0.000000 
#    y 0.000000 1.623200 0.000000 
#    z 0.000000 0.000000 1.643100 
# 
# From -- ./inp_files/7690.got.cif
#   From: 2010.05.17/outbox.cif.g08.bks.cpg/sg47_4_cif.got.tgz:7690.got - 2010.06.03 20:15:42.
