data_PCOD9381538
_publ_section_title
;
Structure prediction by ZEFSAII (Michael W. Deem and Ramdas Pophale) SiO2 
 PCOD9381538
Probable space group: P M M M
;
_chemical_formula_sum "Si O2"
_cell_formula_units_Z 44
_cell_length_a 18.306162
_cell_length_b 17.881463
_cell_length_c 7.900937
_cell_angle_alpha 90.000000
_cell_angle_beta 90.000000
_cell_angle_gamma 90.000000
_cell_volume 2586.300290
_symmetry_space_group_name_H-M "P M M M"
_symmetry_group_IT_number 47
_symmetry_cell_setting 'orthorhombic'
loop_
_space_group_symop_operation_xyz
x,y,z
-x,-y,z
x,-y,-z
-x,y,-z
-x,-y,-z
x,y,-z
-x,y,z
x,-y,z
loop_
_atom_site_type_symbol
_atom_site_label
_atom_site_fract_x
_atom_site_fract_y
_atom_site_fract_z
Si Si1 0.216498 0.814815 0.306845
Si Si2 0.578910 0.825107 0.000000
Si Si3 0.626072 0.268208 0.314845
Si Si4 0.302056 0.584931 0.799317
Si Si5 0.000000 0.413624 0.706963
Si Si6 0.150480 0.661684 0.295214
Si Si7 0.733144 0.088899 0.000000
O O1 0.200167 0.839711 0.500000
O O2 0.294260 0.771557 0.313817
O O3 0.161218 0.748983 0.251555
O O4 0.226939 0.878088 0.166575
O O5 0.584570 0.771488 0.163075
O O6 0.500000 0.864085 0.000000
O O7 0.649957 0.878496 0.000000
O O8 0.593211 0.256944 0.500000
O O9 0.643677 0.355123 0.283524
O O10 0.309113 0.500000 0.737007
O O11 0.219579 0.614540 0.769903
O O12 0.315457 0.586205 0.000000
O O13 0.926026 0.372644 0.762118
O O14 0.000000 0.500000 0.759826
O O15 0.000000 0.412597 0.500000
O O16 0.153825 0.658098 0.500000
O O17 0.732109 0.000000 0.000000
#
# Coordination Sequence:
#
# PCOD9381538 Si02
#       7
#     8   4   8   8   4   8   4
#     4   8  16  30  49  72  96 125 164 204 237 280
#     4  10  20  35  53  74 103 129 151 183 223 285
#     4   9  17  31  50  70  93 126 167 204 237 275
#     4  10  18  27  43  67  94 124 163 215 261 287
#     4   9  16  26  41  65 101 138 174 215 252 292
#     4   9  17  28  44  66  93 132 174 207 247 296
#     4  10  20  33  54  80 102 125 149 185 241 293
#
# _framework density 17.012719000000001
#
# number of rings (size 3 to 8) (size 9 to 14) (size 15 to 20)
#    0.000    2.818    0.909    2.182    3.818    3.091 
#    0.000    0.455    0.000    2.727    0.000    7.636 
#    0.000    3.636    0.000    0.000    0.000    0.000 
#
# Total GULP energy -245180.485278 kJ/mol
# GULP energy per Si atom -5572.283756 kJ/mol
# Density = 1.697400 g / cm^3
# Si number density = 17.012719 Si / 1000 Ang^3
#
#
#
# Elastic Constant Matrix: (Units=GPa)
#
#
# Indices 1 2 3 4 5 6 
#
# 1 53.4392 29.3733 17.5721 0.0000 0.0000 0.0000
# 2 29.3733 133.4798 58.6804 0.0000 0.0000 0.0000
# 3 17.5721 58.6804 89.5642 0.0000 0.0000 0.0000
# 4 0.0000 0.0000 0.0000 19.4121 0.0000 0.0000
# 5 0.0000 0.0000 0.0000 0.0000 14.6451 0.0000
# 6 0.0000 0.0000 0.0000 0.0000 0.0000 11.4512
#
#
#
# Elastic Compliance Matrix: (Units=1/GPa)
#
#
# Indices 1 2 3 4 5 6 
#
# 1 0.021443 -0.004030 -0.001567 0.000000 0.000000 0.000000
# 2 -0.004030 0.011280 -0.006600 0.000000 0.000000 0.000000
# 3 -0.001567 -0.006600 0.015797 0.000000 0.000000 0.000000
# 4 0.000000 0.000000 0.000000 0.051514 0.000000 0.000000
# 5 0.000000 0.000000 0.000000 0.000000 0.068282 0.000000
# 6 0.000000 0.000000 0.000000 0.000000 0.000000 0.087327
#
#
# Mechanical properties :
#
#
# Convention : Reuss Voigt Hill
#
# Bulk Modulus (GPa) = 41.44762 54.19276 47.82019
# Shear Modulus (GPa) = 17.35640 20.49217 18.92428
#
# Velocity S-wave (km/s) = 3.19752 3.47439 3.33883
# Velocity P-wave (km/s) = 6.16829 6.92954 6.55997
#
# Compressibility (1/GPa) = 0.02412684
#
# Stress axis : x y z
#
# Youngs Moduli (GPa) = 46.63502 88.65279 63.30502
#
# Poissons Ratio (x) = 0.35727 0.09918
# Poissons Ratio (y) = 0.18794 0.41779
# Poissons Ratio (z) = 0.07306 0.58508
#
# Static dielectric constant tensor:
#      x y z
#    x 1.567740 0.000000 0.000000 
#    y 0.000000 1.554880 0.000000 
#    z 0.000000 0.000000 1.606400 
# 
# From -- ./inp_files/9094.got.cif
#   From: 2010.05.17/outbox.cif.g08.bks.cpg/sg47_5_cif.got.tgz:9094.got - 2010.06.03 20:15:42.
