data_PCOD9381347
_publ_section_title
;
Structure prediction by ZEFSAII (Michael W. Deem and Ramdas Pophale) SiO2 
 PCOD9381347
Probable space group: P M M M
;
_chemical_formula_sum "Si O2"
_cell_formula_units_Z 64
_cell_length_a 20.600014
_cell_length_b 7.307609
_cell_length_c 20.991781
_cell_angle_alpha 90.000000
_cell_angle_beta 90.000000
_cell_angle_gamma 90.000000
_cell_volume 3160.036539
_symmetry_space_group_name_H-M "P M M M"
_symmetry_group_IT_number 47
_symmetry_cell_setting 'orthorhombic'
loop_
_space_group_symop_operation_xyz
x,y,z
-x,-y,z
x,-y,-z
-x,y,-z
-x,-y,-z
x,y,-z
-x,y,z
x,-y,z
loop_
_atom_site_type_symbol
_atom_site_label
_atom_site_fract_x
_atom_site_fract_y
_atom_site_fract_z
Si Si1 0.750723 0.279524 0.395906
Si Si2 0.105041 0.209666 0.568917
Si Si3 0.429673 0.276993 0.290777
Si Si4 0.927675 0.778680 0.290785
Si Si5 0.926866 0.723091 0.926559
Si Si6 0.288668 0.723329 0.745933
Si Si7 0.393187 0.277561 0.568161
Si Si8 0.171020 0.289507 0.821488
O O1 0.754637 0.500000 0.398644
O O2 0.816738 0.208852 0.425650
O O3 0.742593 0.224665 0.322135
O O4 0.682948 0.227881 0.428189
O O5 0.087088 0.290629 0.500000
O O6 0.082107 0.287858 0.636559
O O7 0.081863 0.000000 0.568268
O O8 0.500000 0.219715 0.265632
O O9 0.428477 0.500000 0.290655
O O10 0.363783 0.218575 0.255539
O O11 0.423673 0.219412 0.364976
O O12 0.873699 0.712354 0.241797
O O13 0.000000 0.728255 0.269040
O O14 0.922955 0.000000 0.291777
O O15 0.927038 0.500000 0.924274
O O16 0.872488 0.790605 0.877881
O O17 0.000000 0.780807 0.908549
O O18 0.915370 0.774531 0.000000
O O19 0.288484 0.500000 0.746734
O O20 0.240577 0.788692 0.801013
O O21 0.420100 0.216899 0.500000
O O22 0.396856 0.500000 0.568835
O O23 0.183196 0.500000 0.839388
#
# Coordination Sequence:
#
# PCOD9381347 Si02
#       8
#     8   8   8   8   8   8   8   8
#     4   9  15  26  41  56  75  98 123 159 209 254
#     4  10  20  31  42  56  74  98 132 173 213 251
#     4   8  13  20  29  44  73 107 129 154 198 244
#     4  10  21  34  45  59  81 107 136 173 213 250
#     4   8  14  24  39  63  92 115 135 162 198 239
#     4   8  14  23  37  58  79  99 131 169 200 235
#     4   8  13  19  29  47  68  92 124 157 192 239
#     4  10  17  28  48  68  85 108 138 171 203 239
#
# _framework density 20.252931
#
# number of rings (size 3 to 8) (size 9 to 14) (size 15 to 20)
#    0.000    3.125    1.250    2.625    0.000    2.000 
#    0.000    2.500    0.000    0.375    0.000    3.500 
#    0.000   13.000    0.000   34.500    0.000   23.000 
#
# Total GULP energy -357106.960508 kJ/mol
# GULP energy per Si atom -5579.796258 kJ/mol
# Density = 2.020683 g / cm^3
# Si number density = 20.252931 Si / 1000 Ang^3
#
#
#
# Elastic Constant Matrix: (Units=GPa)
#
#
# Indices 1 2 3 4 5 6 
#
# 1 153.9203 0.8438 63.9850 0.0000 0.0000 0.0000
# 2 0.8438 82.4730 1.9116 0.0000 0.0000 0.0000
# 3 63.9850 1.9116 96.3978 0.0000 0.0000 0.0000
# 4 0.0000 0.0000 0.0000 -0.9792 0.0000 0.0000
# 5 0.0000 0.0000 0.0000 0.0000 63.4673 0.0000
# 6 0.0000 0.0000 0.0000 0.0000 0.0000 1.2987
#
#
#
# Elastic Compliance Matrix: (Units=1/GPa)
#
#
# Indices 1 2 3 4 5 6 
#
# 1 0.008973 0.000046 -0.005957 0.000000 0.000000 0.000000
# 2 0.000046 0.012131 -0.000271 0.000000 0.000000 0.000000
# 3 -0.005957 -0.000271 0.014333 0.000000 0.000000 0.000000
# 4 0.000000 0.000000 0.000000 -1.021255 0.000000 0.000000
# 5 0.000000 0.000000 0.000000 0.000000 0.015756 0.000000
# 6 0.000000 0.000000 0.000000 0.000000 0.000000 0.769986
#
#
# Mechanical properties :
#
#
# Convention : Reuss Voigt Hill
#
# Bulk Modulus (GPa) = 43.34019 51.80798 47.57409
# Shear Modulus (GPa) = -27.77455 30.49409 1.35977
#
# Velocity S-wave (km/s) = -3.70724 3.88450 0.82028
# Velocity P-wave (km/s) = 1.76667 6.76425 4.94349
#
# Compressibility (1/GPa) = 0.02307327
#
# Stress axis : x y z
#
# Youngs Moduli (GPa) = 111.44751 82.43345 69.76961
#
# Poissons Ratio (x) = -0.00381 0.41560
# Poissons Ratio (y) = -0.00516 0.01893
# Poissons Ratio (z) = 0.66386 0.02236
#
# Static dielectric constant tensor:
#      x y z
#    x 1.730380 0.000000 0.000000 
#    y 0.000000 1.774360 0.000000 
#    z 0.000000 0.000000 1.698950 
# 
# From -- ./inp_files/11877.got.cif
#   From: 2010.05.17/outbox.cif.g08.bks.cpg/sg47_6_cif.got.tgz:11877.got - 2010.06.03 20:15:42.
