data_PCOD9381207
_publ_section_title
;
Structure prediction by ZEFSAII (Michael W. Deem and Ramdas Pophale) SiO2 
 PCOD9381207
Probable space group: P M M M
;
_chemical_formula_sum "Si O2"
_cell_formula_units_Z 48
_cell_length_a 7.359252
_cell_length_b 26.474188
_cell_length_c 12.250433
_cell_angle_alpha 90.000000
_cell_angle_beta 90.000000
_cell_angle_gamma 90.000000
_cell_volume 2386.754569
_symmetry_space_group_name_H-M "P M M M"
_symmetry_group_IT_number 47
_symmetry_cell_setting 'orthorhombic'
loop_
_space_group_symop_operation_xyz
x,y,z
-x,-y,z
x,-y,-z
-x,y,-z
-x,-y,-z
x,y,-z
-x,y,z
x,-y,z
loop_
_atom_site_type_symbol
_atom_site_label
_atom_site_fract_x
_atom_site_fract_y
_atom_site_fract_z
Si Si1 0.782767 0.609824 0.875383
Si Si2 0.720839 0.115825 0.000000
Si Si3 0.278100 0.197929 0.375034
Si Si4 0.721783 0.901641 0.758348
Si Si5 0.283397 0.714668 0.779059
Si Si6 0.208689 0.500000 0.867415
Si Si7 0.278187 0.000000 0.374842
Si Si8 0.278367 0.766928 0.000000
O O1 0.749417 0.655284 0.792256
O O2 0.711329 0.554760 0.839388
O O3 0.000000 0.604629 0.884202
O O4 0.716858 0.621640 0.000000
O O5 0.781019 0.093841 0.884101
O O6 0.771463 0.174712 0.000000
O O7 0.500000 0.113130 0.000000
O O8 0.218771 0.191874 0.500000
O O9 0.500000 0.197188 0.376511
O O10 0.222637 0.151021 0.298275
O O11 0.218740 0.250977 0.321206
O O12 0.500000 0.900921 0.759059
O O13 0.779208 0.949480 0.687452
O O14 0.500000 0.720786 0.779219
O O15 0.213986 0.739488 0.891201
O O16 0.000000 0.500000 0.827641
O O17 0.205328 0.500000 0.000000
O O18 0.500000 0.000000 0.374750
O O19 0.219685 0.000000 0.500000
O O20 0.500000 0.765195 0.000000
#
# Coordination Sequence:
#
# PCOD9381207 Si02
#       8
#     8   4   8   8   8   4   4   4
#     4   9  16  26  41  61  85 112 139 165 197 243
#     4   9  14  21  32  46  66  94 126 160 203 252
#     4   9  16  25  37  53  73 100 135 170 203 244
#     4   9  15  22  32  45  65  94 129 168 206 246
#     4  10  17  25  40  60  82 108 136 170 207 243
#     4   7  12  24  39  55  80 113 140 160 191 240
#     4   9  16  23  29  39  59  92 134 175 208 238
#     4   9  14  22  34  52  77 101 127 158 199 248
#
# _framework density 20.110990999999999
#
# number of rings (size 3 to 8) (size 9 to 14) (size 15 to 20)
#    0.000    3.000    2.500    1.500    0.000    2.333 
#    0.000    2.083    0.000    2.000    0.000    0.583 
#    0.000    4.667    0.000    0.750    0.000   10.333 
#
# Total GULP energy -267685.447915 kJ/mol
# GULP energy per Si atom -5576.780165 kJ/mol
# Density = 2.006522 g / cm^3
# Si number density = 20.110991 Si / 1000 Ang^3
#
#
#
# Elastic Constant Matrix: (Units=GPa)
#
#
# Indices 1 2 3 4 5 6 
#
# 1 72.6814 0.4079 5.2544 0.0000 0.0000 0.0000
# 2 0.4079 169.4352 89.3132 0.0000 0.0000 0.0000
# 3 5.2544 89.3132 153.4433 0.0000 0.0000 0.0000
# 4 0.0000 0.0000 0.0000 17.0681 0.0000 0.0000
# 5 0.0000 0.0000 0.0000 0.0000 -6.2539 0.0000
# 6 0.0000 0.0000 0.0000 0.0000 0.0000 10.9272
#
#
#
# Elastic Compliance Matrix: (Units=1/GPa)
#
#
# Indices 1 2 3 4 5 6 
#
# 1 0.013804 0.000312 -0.000654 0.000000 0.000000 0.000000
# 2 0.000312 0.008521 -0.004971 0.000000 0.000000 0.000000
# 3 -0.000654 -0.004971 0.009433 0.000000 0.000000 0.000000
# 4 0.000000 0.000000 0.000000 0.058589 0.000000 0.000000
# 5 0.000000 0.000000 0.000000 0.000000 -0.159900 0.000000
# 6 0.000000 0.000000 0.000000 0.000000 0.000000 0.091515
#
#
# Mechanical properties :
#
#
# Convention : Reuss Voigt Hill
#
# Bulk Modulus (GPa) = 47.32164 65.05678 56.18921
# Shear Modulus (GPa) = 126.16071 24.38724 75.27397
#
# Velocity S-wave (km/s) = 7.92896 3.48607 6.12458
# Velocity P-wave (km/s) = 10.36368 6.97299 8.83257
#
# Compressibility (1/GPa) = 0.02113198
#
# Stress axis : x y z
#
# Youngs Moduli (GPa) = 72.44169 117.35270 106.01483
#
# Poissons Ratio (x) = -0.03656 0.06934
# Poissons Ratio (y) = -0.02257 0.52696
# Poissons Ratio (z) = 0.04738 0.58331
#
# Static dielectric constant tensor:
#      x y z
#    x 1.808790 0.000000 0.000000 
#    y 0.000000 1.726700 0.000000 
#    z 0.000000 0.000000 1.678220 
# 
# From -- ./inp_files/16691.got.cif
#   From: 2010.05.17/outbox.cif.g08.bks.cpg/sg47_9_cif.got.tgz:16691.got - 2010.06.03 20:15:42.
