data_PCOD9381039
_publ_section_title
;
Structure prediction by ZEFSAII (Michael W. Deem and Ramdas Pophale) SiO2 
 PCOD9381039
Probable space group: I M A 2
;
_chemical_formula_sum "Si O2"
_cell_formula_units_Z 40
_cell_length_a 26.261314
_cell_length_b 7.128810
_cell_length_c 9.147949
_cell_angle_alpha 90.000000
_cell_angle_beta 90.000000
_cell_angle_gamma 90.000000
_cell_volume 1712.605077
_symmetry_space_group_name_H-M "I M A 2"
_symmetry_group_IT_number 46
_symmetry_cell_setting 'orthorhombic'
loop_
_space_group_symop_operation_xyz
x,y,z
-x,-y,z
1/2-x,y,z
1/2+x,-y,z
1/2+x,1/2+y,1/2+z
1/2-x,1/2-y,1/2+z
-x,1/2+y,1/2+z
x,1/2-y,1/2+z
loop_
_atom_site_type_symbol
_atom_site_label
_atom_site_fract_x
_atom_site_fract_y
_atom_site_fract_z
Si Si1 0.194124 0.991404 0.000000
Si Si2 0.927968 0.401561 0.185480
Si Si3 0.840020 0.352934 0.797597
Si Si4 0.609133 0.812628 0.481069
Si Si5 0.996092 0.191051 0.964523
O O1 0.250000 0.069506 0.959082
O O2 0.194779 0.936357 0.170613
O O3 0.183919 0.805712 0.902423
O O4 0.147700 0.137959 0.981479
O O5 0.962129 0.374373 0.328186
O O6 0.883673 0.252113 0.205822
O O7 0.902612 0.599463 0.142381
O O8 0.963802 0.341576 0.052016
O O9 0.864938 0.519261 0.891425
O O10 0.552560 0.758884 0.427549
O O11 0.000000 0.000000 0.060401
#
# Coordination Sequence:
#
# PCOD9381039 Si02
#       5
#     8   8   8   8   8
#     4  12  30  53  83 112 149 203 260 330 396 452
#     4  12  25  47  71 111 157 206 242 308 378 458
#     4  12  26  53  79 113 158 196 259 324 385 462
#     4  12  28  49  78 114 158 200 267 311 382 466
#     4  12  26  41  74 111 156 202 251 302 380 460
#
# _framework density 23.356231999999999
#
# number of rings (size 3 to 8) (size 9 to 14) (size 15 to 20)
#    0.000    0.000    4.000    4.800   11.200    1.600 
#    0.000    0.000    0.000    0.000    0.000    0.000 
#    0.000    0.000    0.000    0.000    0.000    0.000 
#
# Total GULP energy -111948.613858 kJ/mol
# GULP energy per Si atom -5597.430693 kJ/mol
# Density = 2.330307 g / cm^3
# Si number density = 23.356232 Si / 1000 Ang^3
#
#
#
# Elastic Constant Matrix: (Units=GPa)
#
#
# Indices 1 2 3 4 5 6 
#
# 1 152.8445 32.5498 28.4692 0.0000 0.0000 0.0000
# 2 32.5498 101.2979 27.3718 0.0000 0.0000 0.0000
# 3 28.4692 27.3718 95.9951 0.0000 0.0000 0.0000
# 4 0.0000 0.0000 0.0000 40.3727 0.0000 0.0000
# 5 0.0000 0.0000 0.0000 0.0000 20.2527 0.0000
# 6 0.0000 0.0000 0.0000 0.0000 0.0000 20.3258
#
#
#
# Elastic Compliance Matrix: (Units=1/GPa)
#
#
# Indices 1 2 3 4 5 6 
#
# 1 0.007246 -0.001893 -0.001609 0.000000 0.000000 0.000000
# 2 -0.001893 0.011191 -0.002629 0.000000 0.000000 0.000000
# 3 -0.001609 -0.002629 0.011644 0.000000 0.000000 0.000000
# 4 0.000000 0.000000 0.000000 0.024769 0.000000 0.000000
# 5 0.000000 0.000000 0.000000 0.000000 0.049376 0.000000
# 6 0.000000 0.000000 0.000000 0.000000 0.000000 0.049199
#
#
# Mechanical properties :
#
#
# Convention : Reuss Voigt Hill
#
# Bulk Modulus (GPa) = 56.12636 58.54655 57.33646
# Shear Modulus (GPa) = 29.13299 33.64000 31.38650
#
# Velocity S-wave (km/s) = 3.53559 3.79925 3.66979
# Velocity P-wave (km/s) = 6.38357 6.66085 6.52368
#
# Compressibility (1/GPa) = 0.01781694
#
# Stress axis : x y z
#
# Youngs Moduli (GPa) = 138.01663 89.35933 85.88050
#
# Poissons Ratio (x) = 0.16920 0.13817
# Poissons Ratio (y) = 0.26133 0.22581
# Poissons Ratio (z) = 0.22206 0.23496
#
# Static dielectric constant tensor:
#      x y z
#    x 1.864500 0.000000 0.000000 
#    y 0.000000 1.954050 0.000000 
#    z 0.000000 0.000000 1.921390 
# 
# From -- ./inp_files/8106.got.cif
#   From: 2010.05.17/outbox.cif.g08.bks.cpg/sg46_5_cif.got.tgz:8106.got - 2010.06.03 19:58:25.
