data_PCOD9381976
_publ_section_title
;
Structure prediction by ZEFSAII (Michael W. Deem and Ramdas Pophale) SiO2 
 PCOD9381976
Probable space group: P M M M
;
_chemical_formula_sum "Si O2"
_cell_formula_units_Z 52
_cell_length_a 17.911307
_cell_length_b 7.420359
_cell_length_c 16.893088
_cell_angle_alpha 90.000000
_cell_angle_beta 90.000000
_cell_angle_gamma 90.000000
_cell_volume 2245.232083
_symmetry_space_group_name_H-M "P M M M"
_symmetry_group_IT_number 47
_symmetry_cell_setting 'orthorhombic'
loop_
_space_group_symop_operation_xyz
x,y,z
-x,-y,z
x,-y,-z
-x,y,-z
-x,-y,-z
x,y,-z
-x,y,z
x,-y,z
loop_
_atom_site_type_symbol
_atom_site_label
_atom_site_fract_x
_atom_site_fract_y
_atom_site_fract_z
Si Si1 0.916857 0.718581 0.000000
Si Si2 0.634163 0.793102 0.910967
Si Si3 0.311784 0.715676 0.411561
Si Si4 0.080756 0.280285 0.748155
Si Si5 0.583169 0.784469 0.739487
Si Si6 0.198763 0.282801 0.133230
Si Si7 0.139992 0.719786 0.413373
O O1 0.867442 0.768326 0.925735
O O2 0.921077 0.500000 0.000000
O O3 0.000000 0.788686 0.000000
O O4 0.603246 0.713477 0.828045
O O5 0.723159 0.793405 0.895284
O O6 0.607658 0.000000 0.914952
O O7 0.620277 0.715773 0.000000
O O8 0.338042 0.778663 0.500000
O O9 0.309322 0.500000 0.416239
O O10 0.360753 0.752529 0.333534
O O11 0.226146 0.777449 0.401571
O O12 0.080386 0.500000 0.755535
O O13 0.160399 0.226013 0.785268
O O14 0.087254 0.225798 0.657543
O O15 0.000000 0.221905 0.781889
O O16 0.500000 0.721757 0.718192
O O17 0.582129 0.000000 0.748211
O O18 0.208748 0.500000 0.132323
O O19 0.115567 0.777273 0.500000
O O20 0.140832 0.500000 0.412197
#
# Coordination Sequence:
#
# PCOD9381976 Si02
#       7
#     4   8   8   8   8   8   8
#     4   9  16  26  43  69  98 125 156 200 251 299
#     4  10  21  37  56  76 100 132 172 218 264 312
#     4   9  18  34  56  81 109 140 172 207 252 308
#     4   9  16  24  38  64  95 127 164 204 246 291
#     4  10  22  38  55  78 106 135 169 211 260 312
#     4  10  18  30  49  72  97 127 164 207 251 300
#     4   8  14  25  41  63  93 128 164 201 240 285
#
# _framework density 23.16019
#
# number of rings (size 3 to 8) (size 9 to 14) (size 15 to 20)
#    0.000    2.692    0.769    2.308    0.000    5.231 
#    0.000    4.615    0.000    2.308    0.000    2.154 
#    0.000    0.000    0.000   13.231    0.000   10.769 
#
# Total GULP energy -289903.032658 kJ/mol
# GULP energy per Si atom -5575.058320 kJ/mol
# Density = 2.310748 g / cm^3
# Si number density = 23.160190 Si / 1000 Ang^3
#
#
#
# Elastic Constant Matrix: (Units=GPa)
#
#
# Indices 1 2 3 4 5 6 
#
# 1 41.2034 -2.9436 15.7493 0.0000 0.0000 0.0000
# 2 -2.9436 73.0068 4.0492 0.0000 0.0000 0.0000
# 3 15.7493 4.0492 133.3942 0.0000 0.0000 0.0000
# 4 0.0000 0.0000 0.0000 9.9898 0.0000 0.0000
# 5 0.0000 0.0000 0.0000 0.0000 57.9754 0.0000
# 6 0.0000 0.0000 0.0000 0.0000 0.0000 9.2927
#
#
#
# Elastic Compliance Matrix: (Units=1/GPa)
#
#
# Indices 1 2 3 4 5 6 
#
# 1 0.025521 0.001198 -0.003050 0.000000 0.000000 0.000000
# 2 0.001198 0.013777 -0.000560 0.000000 0.000000 0.000000
# 3 -0.003050 -0.000560 0.007874 0.000000 0.000000 0.000000
# 4 0.000000 0.000000 0.000000 0.100102 0.000000 0.000000
# 5 0.000000 0.000000 0.000000 0.000000 0.017249 0.000000
# 6 0.000000 0.000000 0.000000 0.000000 0.000000 0.107612
#
#
# Mechanical properties :
#
#
# Convention : Reuss Voigt Hill
#
# Bulk Modulus (GPa) = 23.61317 31.25713 27.43515
# Shear Modulus (GPa) = 17.17788 30.83487 24.00637
#
# Velocity S-wave (km/s) = 2.72637 3.65276 3.22302
# Velocity P-wave (km/s) = 4.48648 5.59603 5.07169
#
# Compressibility (1/GPa) = 0.04234926
#
# Stress axis : x y z
#
# Youngs Moduli (GPa) = 39.18332 72.58627 127.00650
#
# Poissons Ratio (x) = -0.08697 0.38731
# Poissons Ratio (y) = -0.04695 0.07108
# Poissons Ratio (z) = 0.11949 0.04062
#
# Static dielectric constant tensor:
#      x y z
#    x 1.817920 0.000000 0.000000 
#    y 0.000000 1.947540 0.000000 
#    z 0.000000 0.000000 2.036050 
# 
# From -- ./inp_files/28525.got.cif
#   From: 2010.05.17/outbox.cif.g08.bks.cpg/sg47_15_cif.got.tgz:28525.got - 2010.06.03 20:15:42.
