data_PCOD9381522
_publ_section_title
;
Structure prediction by ZEFSAII (Michael W. Deem and Ramdas Pophale) SiO2 
 PCOD9381522
Probable space group: P M M M
;
_chemical_formula_sum "Si O2"
_cell_formula_units_Z 44
_cell_length_a 12.666186
_cell_length_b 14.863144
_cell_length_c 14.282293
_cell_angle_alpha 90.000000
_cell_angle_beta 90.000000
_cell_angle_gamma 90.000000
_cell_volume 2688.775146
_symmetry_space_group_name_H-M "P M M M"
_symmetry_group_IT_number 47
_symmetry_cell_setting 'orthorhombic'
loop_
_space_group_symop_operation_xyz
x,y,z
-x,-y,z
x,-y,-z
-x,y,-z
-x,-y,-z
x,y,-z
-x,y,z
x,-y,z
loop_
_atom_site_type_symbol
_atom_site_label
_atom_site_fract_x
_atom_site_fract_y
_atom_site_fract_z
Si Si1 0.184068 0.602284 0.896158
Si Si2 0.792264 0.894008 0.609583
Si Si3 0.619393 0.753196 0.612119
Si Si4 0.000000 0.893261 0.267795
Si Si5 0.000000 0.251178 0.896177
Si Si6 0.770728 0.395218 0.688170
Si Si7 0.000000 0.390780 0.390732
O O1 0.137718 0.500000 0.891532
O O2 0.098239 0.680599 0.890321
O O3 0.247594 0.611083 0.799915
O O4 0.234834 0.608751 0.000000
O O5 0.812885 0.872598 0.500000
O O6 0.693483 0.835578 0.643598
O O7 0.896440 0.876289 0.669633
O O8 0.768617 0.000000 0.615181
O O9 0.612863 0.759689 0.500000
O O10 0.500000 0.754490 0.649360
O O11 0.684070 0.664194 0.637512
O O12 0.000000 0.825468 0.181231
O O13 0.000000 0.000000 0.242241
O O14 0.000000 0.209906 0.000000
O O15 0.763908 0.500000 0.660980
O O16 0.890490 0.364069 0.660473
O O17 0.000000 0.500000 0.389593
O O18 0.000000 0.361958 0.500000
#
# Coordination Sequence:
#
# PCOD9381522 Si02
#       7
#     8   8   8   4   4   8   4
#     4   9  17  29  46  68  92 120 159 202 239 278
#     4   9  18  33  52  72  94 121 154 194 237 276
#     4  10  21  34  48  69  95 125 162 196 228 276
#     4  10  19  31  49  73 100 126 152 185 230 286
#     4  10  18  27  42  65  97 133 158 182 225 277
#     4  10  19  31  48  69  96 128 158 193 237 281
#     4   9  17  28  42  63  91 123 159 191 220 264
#
# _framework density 16.364329000000001
#
# number of rings (size 3 to 8) (size 9 to 14) (size 15 to 20)
#    0.000    2.455    0.000    2.727    0.000    6.364 
#    0.000    3.636    0.000    0.545    0.000    2.545 
#    0.000    0.000    0.000   15.636    0.000    0.364 
#
# Total GULP energy -245139.189486 kJ/mol
# GULP energy per Si atom -5571.345216 kJ/mol
# Density = 1.632708 g / cm^3
# Si number density = 16.364329 Si / 1000 Ang^3
#
#
#
# Elastic Constant Matrix: (Units=GPa)
#
#
# Indices 1 2 3 4 5 6 
#
# 1 111.8416 51.3877 28.7822 0.0000 0.0000 0.0000
# 2 51.3877 72.3084 31.1648 0.0000 0.0000 0.0000
# 3 28.7822 31.1648 56.8760 0.0000 0.0000 0.0000
# 4 0.0000 0.0000 0.0000 28.3951 0.0000 0.0000
# 5 0.0000 0.0000 0.0000 0.0000 3.4109 0.0000
# 6 0.0000 0.0000 0.0000 0.0000 0.0000 9.5216
#
#
#
# Elastic Compliance Matrix: (Units=1/GPa)
#
#
# Indices 1 2 3 4 5 6 
#
# 1 0.013457 -0.008678 -0.002055 0.000000 0.000000 0.000000
# 2 -0.008678 0.023702 -0.008596 0.000000 0.000000 0.000000
# 3 -0.002055 -0.008596 0.023332 0.000000 0.000000 0.000000
# 4 0.000000 0.000000 0.000000 0.035217 0.000000 0.000000
# 5 0.000000 0.000000 0.000000 0.000000 0.293180 0.000000
# 6 0.000000 0.000000 0.000000 0.000000 0.000000 0.105025
#
#
# Mechanical properties :
#
#
# Convention : Reuss Voigt Hill
#
# Bulk Modulus (GPa) = 45.80108 51.52172 48.66140
# Shear Modulus (GPa) = 9.26186 16.91160 13.08673
#
# Velocity S-wave (km/s) = 2.38161 3.21821 2.83098
# Velocity P-wave (km/s) = 5.96757 6.73511 6.36292
#
# Compressibility (1/GPa) = 0.02183355
#
# Stress axis : x y z
#
# Youngs Moduli (GPa) = 74.30866 42.19125 42.85971
#
# Poissons Ratio (x) = 0.36614 0.08808
# Poissons Ratio (y) = 0.64486 0.36840
# Poissons Ratio (z) = 0.15271 0.36266
#
# Static dielectric constant tensor:
#      x y z
#    x 1.538870 0.000000 0.000000 
#    y 0.000000 1.561310 0.000000 
#    z 0.000000 0.000000 1.573500 
# 
# From -- ./inp_files/22670.got.cif
#   From: 2010.05.17/outbox.cif.g08.bks.cpg/sg47_12_cif.got.tgz:22670.got - 2010.06.03 20:15:42.
