data_PCOD9381599
_publ_section_title
;
Structure prediction by ZEFSAII (Michael W. Deem and Ramdas Pophale) SiO2 
 PCOD9381599
Probable space group: P M M M
;
_chemical_formula_sum "Si O2"
_cell_formula_units_Z 56
_cell_length_a 9.280909
_cell_length_b 14.603509
_cell_length_c 31.968375
_cell_angle_alpha 90.000000
_cell_angle_beta 90.000000
_cell_angle_gamma 90.000000
_cell_volume 4332.796562
_symmetry_space_group_name_H-M "P M M M"
_symmetry_group_IT_number 47
_symmetry_cell_setting 'orthorhombic'
loop_
_space_group_symop_operation_xyz
x,y,z
-x,-y,z
x,-y,-z
-x,y,-z
-x,-y,-z
x,y,-z
-x,y,z
x,-y,z
loop_
_atom_site_type_symbol
_atom_site_label
_atom_site_fract_x
_atom_site_fract_y
_atom_site_fract_z
Si Si1 0.834109 0.111370 0.750715
Si Si2 0.333445 0.888409 0.500000
Si Si3 0.827317 0.605056 0.950714
Si Si4 0.833491 0.888422 0.416286
Si Si5 0.327746 0.892127 0.835555
Si Si6 0.324741 0.895138 0.000000
Si Si7 0.666479 0.111635 0.667449
Si Si8 0.326334 0.220565 0.081509
O O1 0.755786 0.136874 0.793798
O O2 0.747063 0.141572 0.709648
O O3 0.000000 0.141310 0.749502
O O4 0.833883 0.000000 0.749809
O O5 0.500000 0.859455 0.500000
O O6 0.250369 0.859403 0.541924
O O7 0.333318 0.000000 0.500000
O O8 0.789830 0.500000 0.940030
O O9 0.746487 0.681127 0.924007
O O10 0.000000 0.614665 0.946717
O O11 0.791787 0.618625 0.000000
O O12 0.751304 0.859534 0.374208
O O13 0.000000 0.859403 0.416536
O O14 0.833409 0.000000 0.416325
O O15 0.500000 0.884863 0.828625
O O16 0.289102 0.831821 0.875774
O O17 0.297429 0.000000 0.843710
O O18 0.281103 0.841163 0.041694
O O19 0.500000 0.897399 0.000000
O O20 0.274417 0.000000 0.000000
O O21 0.500000 0.140431 0.666692
O O22 0.666996 0.000000 0.667560
O O23 0.500000 0.229582 0.080047
#
# Coordination Sequence:
#
# PCOD9381599 Si02
#       8
#     8   4   8   8   8   4   8   8
#     4   9  16  25  36  49  64  84 111 141 170 201
#     4   9  15  21  27  35  49  69  93 121 157 203
#     4   9  18  32  47  61  79 102 123 146 181 219
#     4   9  15  21  28  38  52  70  93 123 160 203
#     4   9  17  28  40  55  76 100 122 144 174 213
#     4   9  16  26  40  59  82 104 125 149 176 207
#     4   9  15  22  32  44  57  74  98 130 167 205
#     4  10  18  28  44  64  80  98 125 153 178 207
#
# _framework density 12.924678999999999
#
# number of rings (size 3 to 8) (size 9 to 14) (size 15 to 20)
#    0.000    2.857    0.714    2.357    0.000    8.571 
#    0.000    0.714    0.000    1.714    0.000    0.000 
#    0.000    0.000    0.000    0.000    0.000    0.000 
#
# Total GULP energy -311853.334575 kJ/mol
# GULP energy per Si atom -5568.809546 kJ/mol
# Density = 1.289526 g / cm^3
# Si number density = 12.924679 Si / 1000 Ang^3
#
#
#
# Elastic Constant Matrix: (Units=GPa)
#
#
# Indices 1 2 3 4 5 6 
#
# 1 84.9869 26.7240 75.8582 0.0000 0.0000 0.0000
# 2 26.7240 42.9787 37.3316 0.0000 0.0000 0.0000
# 3 75.8582 37.3316 142.8603 0.0000 0.0000 0.0000
# 4 0.0000 0.0000 0.0000 1.4061 0.0000 0.0000
# 5 0.0000 0.0000 0.0000 0.0000 20.7495 0.0000
# 6 0.0000 0.0000 0.0000 0.0000 0.0000 10.5527
#
#
#
# Elastic Compliance Matrix: (Units=1/GPa)
#
#
# Indices 1 2 3 4 5 6 
#
# 1 0.023109 -0.004800 -0.011016 0.000000 0.000000 0.000000
# 2 -0.004800 0.031096 -0.005577 0.000000 0.000000 0.000000
# 3 -0.011016 -0.005577 0.014307 0.000000 0.000000 0.000000
# 4 0.000000 0.000000 0.000000 0.711184 0.000000 0.000000
# 5 0.000000 0.000000 0.000000 0.000000 0.048194 0.000000
# 6 0.000000 0.000000 0.000000 0.000000 0.000000 0.094762
#
#
# Mechanical properties :
#
#
# Convention : Reuss Voigt Hill
#
# Bulk Modulus (GPa) = 38.87280 61.18372 50.02826
# Shear Modulus (GPa) = 5.13339 15.26914 10.20126
#
# Velocity S-wave (km/s) = 1.99509 3.44087 2.81247
# Velocity P-wave (km/s) = 5.95390 7.95158 7.02412
#
# Compressibility (1/GPa) = 0.02572493
#
# Stress axis : x y z
#
# Youngs Moduli (GPa) = 43.27307 32.15805 69.89631
#
# Poissons Ratio (x) = 0.15436 0.77001
# Poissons Ratio (y) = 0.20772 0.38982
# Poissons Ratio (z) = 0.47672 0.17935
#
# Static dielectric constant tensor:
#      x y z
#    x 1.432340 0.000000 0.000000 
#    y 0.000000 1.379790 0.000000 
#    z 0.000000 0.000000 1.420690 
# 
# From -- ./inp_files/34391.got.cif
#   From: 2010.05.17/outbox.cif.g08.bks.cpg/sg47_18_cif.got.tgz:34391.got - 2010.06.03 20:15:42.
