data_PCOD9381796
_publ_section_title
;
Structure prediction by ZEFSAII (Michael W. Deem and Ramdas Pophale) SiO2 
 PCOD9381796
Probable space group: P M M M
;
_chemical_formula_sum "Si O2"
_cell_formula_units_Z 48
_cell_length_a 26.121171
_cell_length_b 7.355169
_cell_length_c 12.319742
_cell_angle_alpha 90.000000
_cell_angle_beta 90.000000
_cell_angle_gamma 90.000000
_cell_volume 2366.938158
_symmetry_space_group_name_H-M "P M M M"
_symmetry_group_IT_number 47
_symmetry_cell_setting 'orthorhombic'
loop_
_space_group_symop_operation_xyz
x,y,z
-x,-y,z
x,-y,-z
-x,y,-z
-x,-y,-z
x,y,-z
-x,y,z
x,-y,z
loop_
_atom_site_type_symbol
_atom_site_label
_atom_site_fract_x
_atom_site_fract_y
_atom_site_fract_z
Si Si1 0.154483 0.785425 0.232791
Si Si2 0.308596 0.778518 0.000000
Si Si3 0.249194 0.222084 0.624249
Si Si4 0.811117 0.777848 0.000000
Si Si5 0.558351 0.221419 0.376075
Si Si6 0.652950 0.221732 0.766536
Si Si7 0.941960 0.281776 0.621822
O O1 0.198489 0.714438 0.313159
O O2 0.099544 0.764415 0.288105
O O3 0.164288 0.000000 0.225036
O O4 0.162030 0.714872 0.110871
O O5 0.248774 0.725274 0.000000
O O6 0.336140 0.719546 0.889470
O O7 0.308586 0.000000 0.000000
O O8 0.250456 0.282237 0.500000
O O9 0.299241 0.275846 0.691477
O O10 0.248785 0.000000 0.622543
O O11 0.812155 0.000000 0.000000
O O12 0.571403 0.275271 0.500000
O O13 0.500000 0.278150 0.353215
O O14 0.600450 0.281924 0.289800
O O15 0.558629 0.000000 0.375365
O O16 0.652282 0.000000 0.767703
O O17 0.927029 0.218463 0.500000
O O18 0.943709 0.500000 0.617578
O O19 0.000000 0.218355 0.643839
#
# Coordination Sequence:
#
# PCOD9381796 Si02
#       7
#     8   4   8   4   8   8   8
#     4  10  18  29  47  70  93 117 150 188 225 264
#     4   9  14  22  33  46  69 105 136 162 211 272
#     4   9  15  21  33  56  81 100 126 173 224 263
#     4   9  16  28  42  61  91 121 142 174 227 274
#     4   8  13  20  28  38  56  87 129 176 221 260
#     4   9  14  20  30  44  65  95 131 168 213 265
#     4   9  19  36  54  70  92 122 150 178 220 271
#
# _framework density 20.279364999999999
#
# number of rings (size 3 to 8) (size 9 to 14) (size 15 to 20)
#    0.000    3.000    1.667    2.000    0.000    3.333 
#    0.000    2.083    0.000    5.000    0.000    0.000 
#    0.000    0.000    0.000    0.000    0.000    0.833 
#
# Total GULP energy -267921.101145 kJ/mol
# GULP energy per Si atom -5581.689607 kJ/mol
# Density = 2.023321 g / cm^3
# Si number density = 20.279365 Si / 1000 Ang^3
#
#
#
# Elastic Constant Matrix: (Units=GPa)
#
#
# Indices 1 2 3 4 5 6 
#
# 1 156.0248 -1.9048 138.0724 0.0000 0.0000 0.0000
# 2 -1.9048 72.3054 7.2855 0.0000 0.0000 0.0000
# 3 138.0724 7.2855 242.0513 0.0000 0.0000 0.0000
# 4 0.0000 0.0000 0.0000 -2.0554 0.0000 0.0000
# 5 0.0000 0.0000 0.0000 0.0000 26.3053 0.0000
# 6 0.0000 0.0000 0.0000 0.0000 0.0000 82.4987
#
#
#
# Elastic Compliance Matrix: (Units=1/GPa)
#
#
# Indices 1 2 3 4 5 6 
#
# 1 0.013028 0.001095 -0.007465 0.000000 0.000000 0.000000
# 2 0.001095 0.013964 -0.001045 0.000000 0.000000 0.000000
# 3 -0.007465 -0.001045 0.008421 0.000000 0.000000 0.000000
# 4 0.000000 0.000000 0.000000 -0.486513 0.000000 0.000000
# 5 0.000000 0.000000 0.000000 0.000000 0.038015 0.000000
# 6 0.000000 0.000000 0.000000 0.000000 0.000000 0.012121
#
#
# Mechanical properties :
#
#
# Convention : Reuss Voigt Hill
#
# Bulk Modulus (GPa) = 48.57972 84.14306 66.36139
# Shear Modulus (GPa) = -13.18314 43.14493 14.98089
#
# Velocity S-wave (km/s) = -2.55243 4.61752 2.72090
# Velocity P-wave (km/s) = 3.91417 8.36724 6.53190
#
# Compressibility (1/GPa) = 0.02058472
#
# Stress axis : x y z
#
# Youngs Moduli (GPa) = 76.75517 71.61070 118.75225
#
# Poissons Ratio (x) = -0.07844 0.88645
# Poissons Ratio (y) = -0.08408 0.12411
# Poissons Ratio (z) = 0.57296 0.07484
#
# Static dielectric constant tensor:
#      x y z
#    x 1.681510 0.000000 0.000000 
#    y 0.000000 1.834810 0.000000 
#    z 0.000000 0.000000 1.696070 
# 
# From -- ./inp_files/19109.got.cif
#   From: 2010.05.17/outbox.cif.g08.bks.cpg/sg47_10_cif.got.tgz:19109.got - 2010.06.03 20:15:42.
