data_PCOD9381566
_publ_section_title
;
Structure prediction by ZEFSAII (Michael W. Deem and Ramdas Pophale) SiO2 
 PCOD9381566
Probable space group: P M M M
;
_chemical_formula_sum "Si O2"
_cell_formula_units_Z 48
_cell_length_a 21.169188
_cell_length_b 20.058563
_cell_length_c 9.288817
_cell_angle_alpha 90.000000
_cell_angle_beta 90.000000
_cell_angle_gamma 90.000000
_cell_volume 3944.249903
_symmetry_space_group_name_H-M "P M M M"
_symmetry_group_IT_number 47
_symmetry_cell_setting 'orthorhombic'
loop_
_space_group_symop_operation_xyz
x,y,z
-x,-y,z
x,-y,-z
-x,y,-z
-x,-y,-z
x,y,-z
-x,y,z
x,-y,z
loop_
_atom_site_type_symbol
_atom_site_label
_atom_site_fract_x
_atom_site_fract_y
_atom_site_fract_z
Si Si1 0.746355 0.578302 0.328002
Si Si2 0.874450 0.418952 0.834474
Si Si3 0.621700 0.337596 0.326487
Si Si4 0.423380 0.925665 0.667165
Si Si5 0.000000 0.581317 0.666224
Si Si6 0.424496 0.792258 0.828712
Si Si7 0.500000 0.575904 0.674862
O O1 0.757342 0.582345 0.500000
O O2 0.733005 0.500000 0.295761
O O3 0.809450 0.599181 0.244479
O O4 0.686408 0.623948 0.292337
O O5 0.875990 0.500000 0.834656
O O6 0.936643 0.396935 0.748309
O O7 0.875846 0.396880 0.000000
O O8 0.618861 0.328530 0.500000
O O9 0.612226 0.267440 0.248523
O O10 0.562676 0.384286 0.282995
O O11 0.405450 0.915109 0.500000
O O12 0.500000 0.926826 0.670864
O O13 0.404092 0.863739 0.764975
O O14 0.402089 0.000000 0.711676
O O15 0.000000 0.500000 0.667287
O O16 0.000000 0.602150 0.500000
O O17 0.500000 0.784094 0.797938
O O18 0.416458 0.790283 0.000000
O O19 0.500000 0.500000 0.727322
O O20 0.500000 0.573503 0.500000
#
# Coordination Sequence:
#
# PCOD9381566 Si02
#       7
#     8   8   8   8   4   8   4
#     4   9  17  28  40  54  70  89 118 156 194 228
#     4   9  16  25  37  53  72  93 114 138 174 221
#     4  10  18  28  42  55  68  90 120 156 193 229
#     4   8  14  25  41  58  73  89 110 136 168 210
#     4   9  15  23  37  55  73  91 111 139 172 207
#     4  10  19  28  38  53  74  95 115 143 180 223
#     4   9  16  26  41  57  66  79 114 161 201 232
#
# _framework density 12.169615
#
# number of rings (size 3 to 8) (size 9 to 14) (size 15 to 20)
#    0.000    2.833    0.833    2.250    0.000    6.667 
#    0.000    1.667    0.000    2.000    0.000    0.000 
#    0.000    0.000    0.000    0.000    0.000    0.000 
#
# Total GULP energy -267292.564129 kJ/mol
# GULP energy per Si atom -5568.595086 kJ/mol
# Density = 1.214192 g / cm^3
# Si number density = 12.169615 Si / 1000 Ang^3
#
#
#
# Elastic Constant Matrix: (Units=GPa)
#
#
# Indices 1 2 3 4 5 6 
#
# 1 93.8435 42.3148 53.2154 0.0000 0.0000 0.0000
# 2 42.3148 82.0753 42.9869 0.0000 0.0000 0.0000
# 3 53.2154 42.9869 59.0626 0.0000 0.0000 0.0000
# 4 0.0000 0.0000 0.0000 8.5599 0.0000 0.0000
# 5 0.0000 0.0000 0.0000 0.0000 12.6959 0.0000
# 6 0.0000 0.0000 0.0000 0.0000 0.0000 2.1698
#
#
#
# Elastic Compliance Matrix: (Units=1/GPa)
#
#
# Indices 1 2 3 4 5 6 
#
# 1 0.021909 -0.001546 -0.018615 0.000000 0.000000 0.000000
# 2 -0.001546 0.019799 -0.013017 0.000000 0.000000 0.000000
# 3 -0.018615 -0.013017 0.043177 0.000000 0.000000 0.000000
# 4 0.000000 0.000000 0.000000 0.116823 0.000000 0.000000
# 5 0.000000 0.000000 0.000000 0.000000 0.078765 0.000000
# 6 0.000000 0.000000 0.000000 0.000000 0.000000 0.460868
#
#
# Mechanical properties :
#
#
# Convention : Reuss Voigt Hill
#
# Bulk Modulus (GPa) = 53.96850 56.89064 55.42957
# Shear Modulus (GPa) = 6.14346 11.11609 8.62977
#
# Velocity S-wave (km/s) = 2.24926 3.02558 2.66583
# Velocity P-wave (km/s) = 7.15463 7.68473 7.42441
#
# Compressibility (1/GPa) = 0.01852933
#
# Stress axis : x y z
#
# Youngs Moduli (GPa) = 45.64352 50.50879 23.16039
#
# Poissons Ratio (x) = 0.07808 0.43113
# Poissons Ratio (y) = 0.07056 0.30148
# Poissons Ratio (z) = 0.84965 0.65747
#
# Static dielectric constant tensor:
#      x y z
#    x 1.378360 0.000000 0.000000 
#    y 0.000000 1.380020 0.000000 
#    z 0.000000 0.000000 1.402920 
# 
# From -- ./inp_files/9718.got.cif
#   From: 2010.05.17/outbox.cif.g08.bks.cpg/sg47_5_cif.got.tgz:9718.got - 2010.06.03 20:15:42.
