data_PCOD9381307
_publ_section_title
;
Structure prediction by ZEFSAII (Michael W. Deem and Ramdas Pophale) SiO2 
 PCOD9381307
Probable space group: P M M M
;
_chemical_formula_sum "Si O2"
_cell_formula_units_Z 64
_cell_length_a 13.059366
_cell_length_b 22.027921
_cell_length_c 14.146115
_cell_angle_alpha 90.000000
_cell_angle_beta 90.000000
_cell_angle_gamma 90.000000
_cell_volume 4069.422558
_symmetry_space_group_name_H-M "P M M M"
_symmetry_group_IT_number 47
_symmetry_cell_setting 'orthorhombic'
loop_
_space_group_symop_operation_xyz
x,y,z
-x,-y,z
x,-y,-z
-x,y,-z
-x,-y,-z
x,y,-z
-x,y,z
x,-y,z
loop_
_atom_site_type_symbol
_atom_site_label
_atom_site_fract_x
_atom_site_fract_y
_atom_site_fract_z
Si Si1 0.383916 0.807864 0.612370
Si Si2 0.244707 0.360659 0.110001
Si Si3 0.880574 0.704305 0.265655
Si Si4 0.617415 0.430362 0.244464
Si Si5 0.229591 0.830919 0.236147
Si Si6 0.689997 0.328729 0.388136
Si Si7 0.384330 0.757982 0.889939
Si Si8 0.122933 0.928662 0.891935
O O1 0.374589 0.816388 0.500000
O O2 0.500000 0.824451 0.640462
O O3 0.293074 0.841561 0.667761
O O4 0.366076 0.735717 0.630888
O O5 0.151505 0.334354 0.172522
O O6 0.300380 0.416008 0.162528
O O7 0.329061 0.306853 0.117015
O O8 0.220569 0.370847 0.000000
O O9 0.849294 0.774814 0.249581
O O10 0.804889 0.680579 0.347935
O O11 0.000000 0.698537 0.286010
O O12 0.500000 0.421989 0.211160
O O13 0.627995 0.500000 0.276206
O O14 0.639740 0.382585 0.328052
O O15 0.316891 0.805139 0.166828
O O16 0.176048 0.887270 0.186227
O O17 0.687714 0.339857 0.500000
O O18 0.500000 0.754276 0.854664
O O19 0.385661 0.774577 0.000000
O O20 0.000000 0.922328 0.885071
O O21 0.147081 0.000000 0.880862
O O22 0.151595 0.910579 0.000000
#
# Coordination Sequence:
#
# PCOD9381307 Si02
#       8
#     8   8   8   8   8   8   8   8
#     4   9  17  29  47  71  96 122 152 185 224 273
#     4   9  18  31  45  62  88 121 153 185 224 271
#     4   9  18  30  46  71  96 115 144 189 235 275
#     4  10  20  31  45  68  94 118 147 183 221 266
#     4  10  17  27  46  70  95 122 151 186 227 266
#     4   9  18  32  49  68  92 121 149 181 227 279
#     4   9  16  25  40  64  91 118 148 182 224 275
#     4   9  18  32  49  69  94 125 158 188 220 263
#
# _framework density 15.727047000000001
#
# number of rings (size 3 to 8) (size 9 to 14) (size 15 to 20)
#    0.000    2.750    0.000    3.000    0.000    3.000 
#    0.000    1.250    0.000    9.000    0.000   13.125 
#    0.000    0.000    0.000    0.000    0.000    0.000 
#
# Total GULP energy -356599.628466 kJ/mol
# GULP energy per Si atom -5571.869195 kJ/mol
# Density = 1.569125 g / cm^3
# Si number density = 15.727047 Si / 1000 Ang^3
#
#
#
# Elastic Constant Matrix: (Units=GPa)
#
#
# Indices 1 2 3 4 5 6 
#
# 1 73.1575 15.3043 10.1228 0.0000 0.0000 0.0000
# 2 15.3043 48.1423 23.5618 0.0000 0.0000 0.0000
# 3 10.1228 23.5618 65.2666 0.0000 0.0000 0.0000
# 4 0.0000 0.0000 0.0000 20.6447 0.0000 0.0000
# 5 0.0000 0.0000 0.0000 0.0000 20.9504 0.0000
# 6 0.0000 0.0000 0.0000 0.0000 0.0000 18.0002
#
#
#
# Elastic Compliance Matrix: (Units=1/GPa)
#
#
# Indices 1 2 3 4 5 6 
#
# 1 0.014671 -0.004312 -0.000719 0.000000 0.000000 0.000000
# 2 -0.004312 0.026497 -0.008897 0.000000 0.000000 0.000000
# 3 -0.000719 -0.008897 0.018645 0.000000 0.000000 0.000000
# 4 0.000000 0.000000 0.000000 0.048438 0.000000 0.000000
# 5 0.000000 0.000000 0.000000 0.000000 0.047732 0.000000
# 6 0.000000 0.000000 0.000000 0.000000 0.000000 0.055555
#
#
# Mechanical properties :
#
#
# Convention : Reuss Voigt Hill
#
# Bulk Modulus (GPa) = 31.29158 31.61602 31.45380
# Shear Modulus (GPa) = 19.99637 21.09088 20.54362
#
# Velocity S-wave (km/s) = 3.56963 3.66602 3.61814
# Velocity P-wave (km/s) = 6.07697 6.16978 6.12355
#
# Compressibility (1/GPa) = 0.03195748
#
# Stress axis : x y z
#
# Youngs Moduli (GPa) = 68.16333 37.74043 53.63351
#
# Poissons Ratio (x) = 0.16274 0.03855
# Poissons Ratio (y) = 0.29392 0.47716
# Poissons Ratio (z) = 0.04899 0.33577
#
# Static dielectric constant tensor:
#      x y z
#    x 1.514070 0.000000 0.000000 
#    y 0.000000 1.507640 0.000000 
#    z 0.000000 0.000000 1.554970 
# 
# From -- ./inp_files/22957.got.cif
#   From: 2010.05.17/outbox.cif.g08.bks.cpg/sg47_12_cif.got.tgz:22957.got - 2010.06.03 20:15:42.
