data_PCOD9381453
_publ_section_title
;
Structure prediction by ZEFSAII (Michael W. Deem and Ramdas Pophale) SiO2 
 PCOD9381453
Probable space group: P M M M
;
_chemical_formula_sum "Si O2"
_cell_formula_units_Z 52
_cell_length_a 19.786320
_cell_length_b 12.856534
_cell_length_c 14.511173
_cell_angle_alpha 90.000000
_cell_angle_beta 90.000000
_cell_angle_gamma 90.000000
_cell_volume 3691.402916
_symmetry_space_group_name_H-M "P M M M"
_symmetry_group_IT_number 47
_symmetry_cell_setting 'orthorhombic'
loop_
_space_group_symop_operation_xyz
x,y,z
-x,-y,z
x,-y,-z
-x,y,-z
-x,-y,-z
x,y,-z
-x,y,z
x,-y,z
loop_
_atom_site_type_symbol
_atom_site_label
_atom_site_fract_x
_atom_site_fract_y
_atom_site_fract_z
Si Si1 0.638355 0.373975 0.602030
Si Si2 0.845715 0.694740 0.795547
Si Si3 0.797516 0.374898 0.605363
Si Si4 0.288162 0.623814 0.108977
Si Si5 0.575041 0.373419 0.207671
Si Si6 0.080551 0.877817 0.107180
Si Si7 0.081168 0.500000 0.891534
O O1 0.617437 0.337683 0.500000
O O2 0.634756 0.500000 0.600910
O O3 0.717659 0.349299 0.615892
O O4 0.594318 0.339387 0.688635
O O5 0.839529 0.678236 0.686201
O O6 0.770500 0.682385 0.836858
O O7 0.878800 0.802107 0.826674
O O8 0.888587 0.601409 0.842020
O O9 0.816950 0.349666 0.500000
O O10 0.803093 0.500000 0.616641
O O11 0.280410 0.500000 0.129959
O O12 0.362755 0.655875 0.142199
O O13 0.280599 0.637231 0.000000
O O14 0.500000 0.337900 0.181221
O O15 0.573736 0.500000 0.207376
O O16 0.000000 0.862479 0.118681
O O17 0.094642 0.000000 0.121440
O O18 0.096382 0.852567 0.000000
O O19 0.000000 0.500000 0.886344
O O20 0.100704 0.500000 0.000000
#
# Coordination Sequence:
#
# PCOD9381453 Si02
#       7
#     8   8   8   8   8   8   4
#     4   8  13  22  35  51  74 107 148 188 222 255
#     4  12  18  29  49  68  90 119 150 186 225 267
#     4   9  16  27  43  64  90 121 154 185 223 271
#     4  10  18  26  37  57  85 116 150 183 220 265
#     4   9  16  24  33  48  77 116 153 185 214 254
#     4   9  19  35  52  70  93 120 148 179 221 273
#     4  11  22  30  41  69  98 116 138 175 225 273
#
# _framework density 14.086785000000001
#
# number of rings (size 3 to 8) (size 9 to 14) (size 15 to 20)
#    0.000    2.385    3.077    3.231    0.000    1.846 
#    0.000    3.077    0.000    2.769    0.000    1.077 
#    0.000    0.615    0.000    3.231    0.000    5.077 
#
# Total GULP energy -289704.791164 kJ/mol
# GULP energy per Si atom -5571.245984 kJ/mol
# Density = 1.405472 g / cm^3
# Si number density = 14.086785 Si / 1000 Ang^3
#
#
#
# Elastic Constant Matrix: (Units=GPa)
#
#
# Indices 1 2 3 4 5 6 
#
# 1 67.0636 26.9308 45.6564 0.0000 0.0000 0.0000
# 2 26.9308 32.7030 30.7188 0.0000 0.0000 0.0000
# 3 45.6564 30.7188 79.6392 0.0000 0.0000 0.0000
# 4 0.0000 0.0000 0.0000 14.6513 0.0000 0.0000
# 5 0.0000 0.0000 0.0000 0.0000 21.9518 0.0000
# 6 0.0000 0.0000 0.0000 0.0000 0.0000 8.3656
#
#
#
# Elastic Compliance Matrix: (Units=1/GPa)
#
#
# Indices 1 2 3 4 5 6 
#
# 1 0.027230 -0.012170 -0.010917 0.000000 0.000000 0.000000
# 2 -0.012170 0.053391 -0.013618 0.000000 0.000000 0.000000
# 3 -0.010917 -0.013618 0.024068 0.000000 0.000000 0.000000
# 4 0.000000 0.000000 0.000000 0.068253 0.000000 0.000000
# 5 0.000000 0.000000 0.000000 0.000000 0.045554 0.000000
# 6 0.000000 0.000000 0.000000 0.000000 0.000000 0.119538
#
#
# Mechanical properties :
#
#
# Convention : Reuss Voigt Hill
#
# Bulk Modulus (GPa) = 31.96799 42.89088 37.42943
# Shear Modulus (GPa) = 11.85202 14.06707 12.95954
#
# Velocity S-wave (km/s) = 2.90376 3.16349 3.03641
# Velocity P-wave (km/s) = 5.82969 6.62248 6.23869
#
# Compressibility (1/GPa) = 0.03128129
#
# Stress axis : x y z
#
# Youngs Moduli (GPa) = 36.72394 18.72968 41.54950
#
# Poissons Ratio (x) = 0.22793 0.45358
# Poissons Ratio (y) = 0.44692 0.56580
# Poissons Ratio (z) = 0.40090 0.25505
#
# Static dielectric constant tensor:
#      x y z
#    x 1.475630 0.000000 0.000000 
#    y 0.000000 1.431450 0.000000 
#    z 0.000000 0.000000 1.483100 
# 
# From -- ./inp_files/18554.got.cif
#   From: 2010.05.17/outbox.cif.g08.bks.cpg/sg47_10_cif.got.tgz:18554.got - 2010.06.03 20:15:42.
