data_PCOD9381668
_publ_section_title
;
Structure prediction by ZEFSAII (Michael W. Deem and Ramdas Pophale) SiO2 
 PCOD9381668
Probable space group: P M M M
;
_chemical_formula_sum "Si O2"
_cell_formula_units_Z 52
_cell_length_a 14.772211
_cell_length_b 21.778940
_cell_length_c 7.629751
_cell_angle_alpha 90.000000
_cell_angle_beta 90.000000
_cell_angle_gamma 90.000000
_cell_volume 2454.667121
_symmetry_space_group_name_H-M "P M M M"
_symmetry_group_IT_number 47
_symmetry_cell_setting 'orthorhombic'
loop_
_space_group_symop_operation_xyz
x,y,z
-x,-y,z
x,-y,-z
-x,y,-z
-x,-y,-z
x,y,-z
-x,y,z
x,-y,z
loop_
_atom_site_type_symbol
_atom_site_label
_atom_site_fract_x
_atom_site_fract_y
_atom_site_fract_z
Si Si1 0.103442 0.757139 0.208901
Si Si2 0.750819 0.666095 0.198220
Si Si3 0.602353 0.571639 0.786396
Si Si4 0.790897 0.881584 0.700995
Si Si5 0.893111 0.000000 0.202594
Si Si6 0.597313 0.101850 0.704927
Si Si7 0.597249 0.249356 0.705001
O O1 0.160662 0.698555 0.279852
O O2 0.160157 0.820241 0.231674
O O3 0.000000 0.762531 0.275775
O O4 0.098121 0.747896 0.000000
O O5 0.686633 0.612866 0.277619
O O6 0.679801 0.722353 0.193233
O O7 0.774070 0.646219 0.000000
O O8 0.500000 0.588667 0.726635
O O9 0.615442 0.500000 0.744059
O O10 0.601547 0.577089 0.000000
O O11 0.768041 0.866307 0.500000
O O12 0.696989 0.908095 0.782172
O O13 0.858196 0.938213 0.710358
O O14 0.000000 0.000000 0.206364
O O15 0.863466 0.000000 0.000000
O O16 0.597291 0.081695 0.500000
O O17 0.500000 0.080546 0.779493
O O18 0.595341 0.176064 0.710785
O O19 0.606004 0.266198 0.500000
O O20 0.500000 0.271460 0.772037
#
# Coordination Sequence:
#
# PCOD9381668 Si02
#       7
#     8   8   8   8   4   8   8
#     4  10  21  35  49  69 102 137 164 203 267 321
#     4  10  18  28  46  70  95 128 172 212 246 296
#     4   8  14  25  42  67  99 131 164 207 256 300
#     4  11  21  36  60  84 103 129 171 215 247 291
#     4  11  25  43  60  77 104 140 171 207 262 313
#     4   8  15  29  49  74 104 133 157 187 237 297
#     4   9  16  27  44  68 100 132 157 188 238 295
#
# _framework density 21.184137
#
# number of rings (size 3 to 8) (size 9 to 14) (size 15 to 20)
#    0.000    2.538    1.538    3.000    0.000    3.692 
#    0.000    0.385    0.000    5.077    0.000    5.385 
#    0.000    0.000    0.000    2.769    0.000    3.231 
#
# Total GULP energy -289637.556319 kJ/mol
# GULP energy per Si atom -5569.953006 kJ/mol
# Density = 2.113592 g / cm^3
# Si number density = 21.184137 Si / 1000 Ang^3
#
#
#
# Elastic Constant Matrix: (Units=GPa)
#
#
# Indices 1 2 3 4 5 6 
#
# 1 158.9386 47.7968 15.4722 0.0000 0.0000 0.0000
# 2 47.7968 96.4017 -1.8130 0.0000 0.0000 0.0000
# 3 15.4722 -1.8130 42.1937 0.0000 0.0000 0.0000
# 4 0.0000 0.0000 0.0000 28.2448 0.0000 0.0000
# 5 0.0000 0.0000 0.0000 0.0000 40.6119 0.0000
# 6 0.0000 0.0000 0.0000 0.0000 0.0000 -45.9928
#
#
#
# Elastic Compliance Matrix: (Units=1/GPa)
#
#
# Indices 1 2 3 4 5 6 
#
# 1 0.007759 -0.003904 -0.003013 0.000000 0.000000 0.000000
# 2 -0.003904 0.012346 0.001962 0.000000 0.000000 0.000000
# 3 -0.003013 0.001962 0.024889 0.000000 0.000000 0.000000
# 4 0.000000 0.000000 0.000000 0.035405 0.000000 0.000000
# 5 0.000000 0.000000 0.000000 0.000000 0.024623 0.000000
# 6 0.000000 0.000000 0.000000 0.000000 0.000000 -0.021743
#
#
# Mechanical properties :
#
#
# Convention : Reuss Voigt Hill
#
# Bulk Modulus (GPa) = 28.50248 46.71620 37.60934
# Shear Modulus (GPa) = 47.67193 20.31131 33.99162
#
# Velocity S-wave (km/s) = 4.74894 3.09981 4.01007
# Velocity P-wave (km/s) = 6.59953 5.90864 6.26362
#
# Compressibility (1/GPa) = 0.03508467
#
# Stress axis : x y z
#
# Youngs Moduli (GPa) = 128.88345 81.00051 40.17789
#
# Poissons Ratio (x) = 0.31619 0.12105
# Poissons Ratio (y) = 0.50311 -0.07883
# Poissons Ratio (z) = 0.38831 -0.15892
#
# Static dielectric constant tensor:
#      x y z
#    x 1.846730 0.000000 0.000000 
#    y 0.000000 1.755290 0.000000 
#    z 0.000000 0.000000 1.850670 
# 
# From -- ./inp_files/7051.got.cif
#   From: 2010.05.17/outbox.cif.g08.bks.cpg/sg47_4_cif.got.tgz:7051.got - 2010.06.03 20:15:42.
