data_PCOD9381339
_publ_section_title
;
Structure prediction by ZEFSAII (Michael W. Deem and Ramdas Pophale) SiO2 
 PCOD9381339
Probable space group: P M M M
;
_chemical_formula_sum "Si O2"
_cell_formula_units_Z 52
_cell_length_a 12.185699
_cell_length_b 29.546382
_cell_length_c 7.769267
_cell_angle_alpha 90.000000
_cell_angle_beta 90.000000
_cell_angle_gamma 90.000000
_cell_volume 2797.272666
_symmetry_space_group_name_H-M "P M M M"
_symmetry_group_IT_number 47
_symmetry_cell_setting 'orthorhombic'
loop_
_space_group_symop_operation_xyz
x,y,z
-x,-y,z
x,-y,-z
-x,y,-z
-x,-y,-z
x,y,-z
-x,y,z
x,-y,z
loop_
_atom_site_type_symbol
_atom_site_label
_atom_site_fract_x
_atom_site_fract_y
_atom_site_fract_z
Si Si1 0.500000 0.762523 0.208623
Si Si2 0.874996 0.450048 0.206880
Si Si3 0.500000 0.659798 0.203306
Si Si4 0.633174 0.000000 0.300902
Si Si5 0.127355 0.727213 0.711352
Si Si6 0.371856 0.900855 0.711720
Si Si7 0.741529 0.638884 0.702384
Si Si8 0.727360 0.809763 0.297570
O O1 0.500000 0.710941 0.272847
O O2 0.609228 0.786140 0.276083
O O3 0.500000 0.764168 0.000000
O O4 0.837396 0.500000 0.267024
O O5 0.801844 0.407412 0.252097
O O6 0.000000 0.443288 0.269344
O O7 0.878958 0.451780 0.000000
O O8 0.386208 0.636914 0.252283
O O9 0.500000 0.663871 0.000000
O O10 0.663034 0.049063 0.227349
O O11 0.500000 0.000000 0.302777
O O12 0.670126 0.000000 0.500000
O O13 0.130546 0.727552 0.500000
O O14 0.197713 0.683826 0.774580
O O15 0.183893 0.773989 0.771819
O O16 0.000000 0.723408 0.761176
O O17 0.371807 0.901294 0.500000
O O18 0.500000 0.892790 0.760838
O O19 0.293674 0.860272 0.772069
O O20 0.749015 0.644287 0.500000
O O21 0.751839 0.814936 0.500000
#
# Coordination Sequence:
#
# PCOD9381339 Si02
#       8
#     4   8   4   4   8   8   8   8
#     4  11  21  31  45  67  97 125 156 196 236 279
#     4   9  19  37  59  81 107 140 174 206 244 290
#     4  11  23  37  52  72 102 136 169 197 238 303
#     4   7  10  16  26  50  85 111 139 190 239 270
#     4   9  18  30  45  69  98 124 153 193 239 283
#     4   8  12  18  33  57  84 113 149 191 233 277
#     4  11  21  34  55  79 104 131 164 207 251 288
#     4  10  17  28  47  66  89 123 161 193 230 284
#
# _framework density 18.589535000000001
#
# number of rings (size 3 to 8) (size 9 to 14) (size 15 to 20)
#    0.000    2.538    2.308    2.769    0.000    1.846 
#    0.000    1.154    0.000    3.692    0.000    1.615 
#    0.000    4.308    0.000    0.000    0.000    1.538 
#
# Total GULP energy -289819.468004 kJ/mol
# GULP energy per Si atom -5573.451308 kJ/mol
# Density = 1.854722 g / cm^3
# Si number density = 18.589535 Si / 1000 Ang^3
#
#
#
# Elastic Constant Matrix: (Units=GPa)
#
#
# Indices 1 2 3 4 5 6 
#
# 1 108.7225 93.4150 1.4975 0.0000 0.0000 0.0000
# 2 93.4150 183.2809 10.9526 0.0000 0.0000 0.0000
# 3 1.4975 10.9526 24.9483 0.0000 0.0000 0.0000
# 4 0.0000 0.0000 0.0000 -11.9645 0.0000 0.0000
# 5 0.0000 0.0000 0.0000 0.0000 -2.4035 0.0000
# 6 0.0000 0.0000 0.0000 0.0000 0.0000 -23.8248
#
#
#
# Elastic Compliance Matrix: (Units=1/GPa)
#
#
# Indices 1 2 3 4 5 6 
#
# 1 0.016550 -0.008601 0.002783 0.000000 0.000000 0.000000
# 2 -0.008601 0.010074 -0.003906 0.000000 0.000000 0.000000
# 3 0.002783 -0.003906 0.041631 0.000000 0.000000 0.000000
# 4 0.000000 0.000000 0.000000 -0.083580 0.000000 0.000000
# 5 0.000000 0.000000 0.000000 0.000000 -0.416065 0.000000
# 6 0.000000 0.000000 0.000000 0.000000 0.000000 -0.041973
#
#
# Mechanical properties :
#
#
# Convention : Reuss Voigt Hill
#
# Bulk Modulus (GPa) = 20.48996 58.74242 39.61619
# Shear Modulus (GPa) = -11.42473 6.43388 -2.49542
#
# Velocity S-wave (km/s) = -2.48176 1.86240 -1.15987
# Velocity P-wave (km/s) = 1.68347 6.02437 4.42307
#
# Compressibility (1/GPa) = 0.04880440
#
# Stress axis : x y z
#
# Youngs Moduli (GPa) = 60.42379 99.27027 24.02077
#
# Poissons Ratio (x) = 0.85386 -0.06684
# Poissons Ratio (y) = 0.51973 0.09383
# Poissons Ratio (z) = -0.16814 0.38776
#
# Static dielectric constant tensor:
#      x y z
#    x 1.615750 0.000000 0.000000 
#    y 0.000000 1.749170 0.000000 
#    z 0.000000 0.000000 1.679890 
# 
# From -- ./inp_files/4595.got.cif
#   From: 2010.05.17/outbox.cif.g08.bks.cpg/sg47_3_cif.got.tgz:4595.got - 2010.06.03 20:15:42.
