data_PCOD9381658
_publ_section_title
;
Structure prediction by ZEFSAII (Michael W. Deem and Ramdas Pophale) SiO2 
 PCOD9381658
Probable space group: P M M M
;
_chemical_formula_sum "Si O2"
_cell_formula_units_Z 52
_cell_length_a 21.049585
_cell_length_b 7.316984
_cell_length_c 15.265176
_cell_angle_alpha 90.000000
_cell_angle_beta 90.000000
_cell_angle_gamma 90.000000
_cell_volume 2351.134419
_symmetry_space_group_name_H-M "P M M M"
_symmetry_group_IT_number 47
_symmetry_cell_setting 'orthorhombic'
loop_
_space_group_symop_operation_xyz
x,y,z
-x,-y,z
x,-y,-z
-x,y,-z
-x,-y,-z
x,y,-z
-x,y,z
x,-y,z
loop_
_atom_site_type_symbol
_atom_site_label
_atom_site_fract_x
_atom_site_fract_y
_atom_site_fract_z
Si Si1 0.401151 0.779106 0.094922
Si Si2 0.749073 0.779073 0.094009
Si Si3 0.077370 0.285596 0.000000
Si Si4 0.692296 0.776656 0.600430
Si Si5 0.430966 0.222769 0.289162
Si Si6 0.928087 0.718692 0.191830
Si Si7 0.196522 0.783096 0.724575
O O1 0.325942 0.740060 0.096895
O O2 0.427612 0.716390 0.187793
O O3 0.408792 0.000000 0.094490
O O4 0.425408 0.714616 0.000000
O O5 0.779396 0.707171 0.182347
O O6 0.754421 0.000000 0.094198
O O7 0.774658 0.714698 0.000000
O O8 0.095526 0.209539 0.904004
O O9 0.093163 0.500000 0.000000
O O10 0.000000 0.272990 0.000000
O O11 0.688623 0.717723 0.500000
O O12 0.630822 0.718641 0.656714
O O13 0.757603 0.716551 0.647664
O O14 0.691566 0.000000 0.600034
O O15 0.500000 0.275015 0.326038
O O16 0.428629 0.000000 0.288124
O O17 0.931232 0.500000 0.182836
O O18 0.878844 0.756681 0.269486
O O19 0.000000 0.783910 0.207031
O O20 0.206998 0.000000 0.726306
#
# Coordination Sequence:
#
# PCOD9381658 Si02
#       7
#     8   8   4   8   8   8   8
#     4   8  12  19  30  45  73 112 148 181 219 265
#     4   8  13  21  34  54  82 113 144 181 224 264
#     4   7  12  26  45  63  89 127 158 173 202 262
#     4   9  17  29  42  58  83 113 148 192 240 282
#     4   9  15  22  33  51  78 114 154 188 220 267
#     4   9  18  32  48  67  95 127 153 180 219 267
#     4  10  18  28  46  68  89 118 156 193 229 269
#
# _framework density 22.116983999999999
#
# number of rings (size 3 to 8) (size 9 to 14) (size 15 to 20)
#    0.000    3.308    1.538    1.846    1.077    0.923 
#    0.000    3.077    0.000    2.308    0.000    3.231 
#    0.000    0.615    0.000    1.385    0.000   12.000 
#
# Total GULP energy -290083.545894 kJ/mol
# GULP energy per Si atom -5578.529729 kJ/mol
# Density = 2.206664 g / cm^3
# Si number density = 22.116984 Si / 1000 Ang^3
#
#
#
# Elastic Constant Matrix: (Units=GPa)
#
#
# Indices 1 2 3 4 5 6 
#
# 1 148.7107 1.2295 94.4201 0.0000 0.0000 0.0000
# 2 1.2295 87.7463 5.9335 0.0000 0.0000 0.0000
# 3 94.4201 5.9335 154.1693 0.0000 0.0000 0.0000
# 4 0.0000 0.0000 0.0000 -17.9162 0.0000 0.0000
# 5 0.0000 0.0000 0.0000 0.0000 -0.7347 0.0000
# 6 0.0000 0.0000 0.0000 0.0000 0.0000 14.4993
#
#
#
# Elastic Compliance Matrix: (Units=1/GPa)
#
#
# Indices 1 2 3 4 5 6 
#
# 1 0.011011 0.000303 -0.006755 0.000000 0.000000 0.000000
# 2 0.000303 0.011435 -0.000625 0.000000 0.000000 0.000000
# 3 -0.006755 -0.000625 0.010648 0.000000 0.000000 0.000000
# 4 0.000000 0.000000 0.000000 -0.055815 0.000000 0.000000
# 5 0.000000 0.000000 0.000000 0.000000 -1.361119 0.000000
# 6 0.000000 0.000000 0.000000 0.000000 0.000000 0.068969
#
#
# Mechanical properties :
#
#
# Convention : Reuss Voigt Hill
#
# Bulk Modulus (GPa) = 52.80664 65.97695 59.39180
# Shear Modulus (GPa) = -3.86278 18.43923 7.28822
#
# Velocity S-wave (km/s) = -1.32299 2.89054 1.81727
# Velocity P-wave (km/s) = 4.64695 6.40593 5.59599
#
# Compressibility (1/GPa) = 0.01893701
#
# Stress axis : x y z
#
# Youngs Moduli (GPa) = 90.81757 87.45430 93.91697
#
# Poissons Ratio (x) = -0.02646 0.63444
# Poissons Ratio (y) = -0.02747 0.05873
# Poissons Ratio (z) = 0.61350 0.05469
#
# Static dielectric constant tensor:
#      x y z
#    x 1.853480 0.000000 0.000000 
#    y 0.000000 1.874970 0.000000 
#    z 0.000000 0.000000 1.791860 
# 
# From -- ./inp_files/25286.got.cif
#   From: 2010.05.17/outbox.cif.g08.bks.cpg/sg47_13_cif.got.tgz:25286.got - 2010.06.03 20:15:42.
