data_PCOD9381372
_publ_section_title
;
Structure prediction by ZEFSAII (Michael W. Deem and Ramdas Pophale) SiO2 
 PCOD9381372
Probable space group: P M M M
;
_chemical_formula_sum "Si O2"
_cell_formula_units_Z 52
_cell_length_a 21.269629
_cell_length_b 16.843260
_cell_length_c 8.648456
_cell_angle_alpha 90.000000
_cell_angle_beta 90.000000
_cell_angle_gamma 90.000000
_cell_volume 3098.308422
_symmetry_space_group_name_H-M "P M M M"
_symmetry_group_IT_number 47
_symmetry_cell_setting 'orthorhombic'
loop_
_space_group_symop_operation_xyz
x,y,z
-x,-y,z
x,-y,-z
-x,y,-z
-x,-y,-z
x,y,-z
-x,y,z
x,-y,z
loop_
_atom_site_type_symbol
_atom_site_label
_atom_site_fract_x
_atom_site_fract_y
_atom_site_fract_z
Si Si1 0.194477 0.410094 0.684846
Si Si2 0.500000 0.907067 0.311276
Si Si3 0.142245 0.000000 0.315311
Si Si4 0.071179 0.332965 0.186468
Si Si5 0.866455 0.832400 0.185514
Si Si6 0.286668 0.000000 0.312163
Si Si7 0.259803 0.742991 0.815191
Si Si8 0.634913 0.154322 0.686795
O O1 0.198566 0.404903 0.500000
O O2 0.209209 0.500000 0.733123
O O3 0.123985 0.387303 0.737060
O O4 0.239199 0.343550 0.758111
O O5 0.500000 0.909079 0.500000
O O6 0.563466 0.862070 0.263110
O O7 0.500000 0.000000 0.262647
O O8 0.115058 0.916750 0.256064
O O9 0.141405 0.000000 0.500000
O O10 0.215031 0.000000 0.258561
O O11 0.088331 0.241407 0.224628
O O12 0.000000 0.351822 0.231510
O O13 0.076698 0.340215 0.000000
O O14 0.796605 0.803042 0.237325
O O15 0.865359 0.840215 0.000000
O O16 0.324733 0.077477 0.263647
O O17 0.285635 0.000000 0.500000
O O18 0.326502 0.771676 0.751571
O O19 0.259907 0.744426 0.000000
O O20 0.635399 0.158035 0.500000
#
# Coordination Sequence:
#
# PCOD9381372 Si02
#       8
#     8   4   4   8   8   4   8   8
#     4  10  21  36  55  80 105 126 153 195 246 298
#     4   9  16  26  45  71 102 141 182 217 247 286
#     4  11  19  27  43  68  91 121 166 212 254 289
#     4   9  19  36  55  74  99 132 165 195 235 292
#     4   9  18  31  46  66  92 123 162 206 246 285
#     4   9  16  24  41  67  94 127 167 209 249 286
#     4  10  20  33  50  72  98 130 166 204 248 298
#     4  10  17  29  47  70 100 136 176 213 248 287
#
# _framework density 16.783353000000002
#
# number of rings (size 3 to 8) (size 9 to 14) (size 15 to 20)
#    0.000    2.385    2.308    2.077    0.000    4.308 
#    0.000    2.692    0.000    2.769    0.000    0.538 
#    0.000    4.308    0.000    0.000    0.000    0.000 
#
# Total GULP energy -289980.255689 kJ/mol
# GULP energy per Si atom -5576.543379 kJ/mol
# Density = 1.674515 g / cm^3
# Si number density = 16.783353 Si / 1000 Ang^3
#
#
#
# Elastic Constant Matrix: (Units=GPa)
#
#
# Indices 1 2 3 4 5 6 
#
# 1 81.3772 31.4970 14.3978 0.0000 0.0000 0.0000
# 2 31.4970 108.3381 22.5659 0.0000 0.0000 0.0000
# 3 14.3978 22.5659 17.6828 0.0000 0.0000 0.0000
# 4 0.0000 0.0000 0.0000 20.5460 0.0000 0.0000
# 5 0.0000 0.0000 0.0000 0.0000 18.8652 0.0000
# 6 0.0000 0.0000 0.0000 0.0000 0.0000 13.6524
#
#
#
# Elastic Compliance Matrix: (Units=1/GPa)
#
#
# Indices 1 2 3 4 5 6 
#
# 1 0.014817 -0.002445 -0.008945 0.000000 0.000000 0.000000
# 2 -0.002445 0.012976 -0.014568 0.000000 0.000000 0.000000
# 3 -0.008945 -0.014568 0.082427 0.000000 0.000000 0.000000
# 4 0.000000 0.000000 0.000000 0.048671 0.000000 0.000000
# 5 0.000000 0.000000 0.000000 0.000000 0.053008 0.000000
# 6 0.000000 0.000000 0.000000 0.000000 0.000000 0.073247
#
#
# Mechanical properties :
#
#
# Convention : Reuss Voigt Hill
#
# Bulk Modulus (GPa) = 17.15150 38.25770 27.70460
# Shear Modulus (GPa) = 14.02543 19.87523 16.95033
#
# Velocity S-wave (km/s) = 2.89394 3.44499 3.18142
# Velocity P-wave (km/s) = 4.62689 6.21839 5.48072
#
# Compressibility (1/GPa) = 0.05830393
#
# Stress axis : x y z
#
# Youngs Moduli (GPa) = 67.48899 77.06804 12.13201
#
# Poissons Ratio (x) = 0.18841 0.10852
# Poissons Ratio (y) = 0.16499 0.17674
# Poissons Ratio (z) = 0.60367 1.12275
#
# Static dielectric constant tensor:
#      x y z
#    x 1.569030 0.000000 0.000000 
#    y 0.000000 1.564420 0.000000 
#    z 0.000000 0.000000 1.568190 
# 
# From -- ./inp_files/7129.got.cif
#   From: 2010.05.17/outbox.cif.g08.bks.cpg/sg47_4_cif.got.tgz:7129.got - 2010.06.03 20:15:42.
