data_PCOD9381198
_publ_section_title
;
Structure prediction by ZEFSAII (Michael W. Deem and Ramdas Pophale) SiO2 
 PCOD9381198
Probable space group: P M M M
;
_chemical_formula_sum "Si O2"
_cell_formula_units_Z 36
_cell_length_a 13.475167
_cell_length_b 7.639698
_cell_length_c 23.079816
_cell_angle_alpha 90.000000
_cell_angle_beta 90.000000
_cell_angle_gamma 90.000000
_cell_volume 2375.979501
_symmetry_space_group_name_H-M "P M M M"
_symmetry_group_IT_number 47
_symmetry_cell_setting 'orthorhombic'
loop_
_space_group_symop_operation_xyz
x,y,z
-x,-y,z
x,-y,-z
-x,y,-z
-x,-y,-z
x,y,-z
-x,y,z
x,-y,z
loop_
_atom_site_type_symbol
_atom_site_label
_atom_site_fract_x
_atom_site_fract_y
_atom_site_fract_z
Si Si1 0.814687 0.500000 0.714838
Si Si2 0.879500 0.799217 0.934767
Si Si3 0.389664 0.500000 0.348512
Si Si4 0.879448 0.500000 0.153521
Si Si5 0.314523 0.206362 0.566921
Si Si6 0.112128 0.795072 0.370177
O O1 0.698658 0.500000 0.698049
O O2 0.835585 0.500000 0.782531
O O3 0.862871 0.668560 0.683260
O O4 0.848680 0.667961 0.884528
O O5 0.000000 0.796745 0.935095
O O6 0.848870 0.000000 0.925134
O O7 0.848721 0.745741 0.000000
O O8 0.500000 0.500000 0.324100
O O9 0.373243 0.668533 0.389762
O O10 0.000000 0.500000 0.158331
O O11 0.333723 0.249233 0.500000
O O12 0.198025 0.234282 0.582425
O O13 0.335918 0.000000 0.575703
O O14 0.000000 0.760233 0.390726
O O15 0.117710 0.000000 0.353486
#
# Coordination Sequence:
#
# PCOD9381198 Si02
#       6
#     4   8   4   4   8   8
#     4  10  20  32  43  60  85 110 146 188 213 243
#     4   8  14  24  37  56  85 118 146 168 192 227
#     4  10  21  36  50  61  79 110 141 175 226 272
#     4  10  17  24  39  61  84 113 143 170 201 235
#     4   9  18  31  47  69  90 105 132 174 213 257
#     4   9  17  29  44  61  86 119 144 165 202 250
#
# _framework density 15.151646
#
# number of rings (size 3 to 8) (size 9 to 14) (size 15 to 20)
#    0.000    2.889    0.000    2.333    0.000    4.000 
#    0.000    5.556    0.000    4.000    0.000    0.000 
#    0.000    1.778    0.000    2.444    0.000    0.222 
#
# Total GULP energy -200549.357056 kJ/mol
# GULP energy per Si atom -5570.815474 kJ/mol
# Density = 1.511716 g / cm^3
# Si number density = 15.151646 Si / 1000 Ang^3
#
#
#
# Elastic Constant Matrix: (Units=GPa)
#
#
# Indices 1 2 3 4 5 6 
#
# 1 51.6183 8.7924 -3.2422 0.0000 0.0000 0.0000
# 2 8.7924 46.6852 29.7047 0.0000 0.0000 0.0000
# 3 -3.2422 29.7047 75.5841 0.0000 0.0000 0.0000
# 4 0.0000 0.0000 0.0000 -5.3571 0.0000 0.0000
# 5 0.0000 0.0000 0.0000 0.0000 5.7510 0.0000
# 6 0.0000 0.0000 0.0000 0.0000 0.0000 9.8651
#
#
#
# Elastic Compliance Matrix: (Units=1/GPa)
#
#
# Indices 1 2 3 4 5 6 
#
# 1 0.020583 -0.005918 0.003209 0.000000 0.000000 0.000000
# 2 -0.005918 0.030264 -0.012148 0.000000 0.000000 0.000000
# 3 0.003209 -0.012148 0.018142 0.000000 0.000000 0.000000
# 4 0.000000 0.000000 0.000000 -0.186670 0.000000 0.000000
# 5 0.000000 0.000000 0.000000 0.000000 0.173883 0.000000
# 6 0.000000 0.000000 0.000000 0.000000 0.000000 0.101368
#
#
# Mechanical properties :
#
#
# Convention : Reuss Voigt Hill
#
# Bulk Modulus (GPa) = 25.46179 27.15527 26.30853
# Shear Modulus (GPa) = 24.95332 11.29399 18.12365
#
# Velocity S-wave (km/s) = 4.06261 2.73316 3.46229
# Velocity P-wave (km/s) = 6.23278 5.28407 5.77793
#
# Compressibility (1/GPa) = 0.03927454
#
# Stress axis : x y z
#
# Youngs Moduli (GPa) = 48.58485 33.04269 55.12081
#
# Poissons Ratio (x) = 0.19555 -0.17686
# Poissons Ratio (y) = 0.28752 0.66959
# Poissons Ratio (z) = -0.15589 0.40139
#
# Static dielectric constant tensor:
#      x y z
#    x 1.499640 0.000000 0.000000 
#    y 0.000000 1.533490 0.000000 
#    z 0.000000 0.000000 1.472890 
# 
# From -- ./inp_files/29310.got.cif
#   From: 2010.05.17/outbox.cif.g08.bks.cpg/sg47_15_cif.got.tgz:29310.got - 2010.06.03 20:15:42.
