data_PCOD9381346
_publ_section_title
;
Structure prediction by ZEFSAII (Michael W. Deem and Ramdas Pophale) SiO2 
 PCOD9381346
Probable space group: P M M M
;
_chemical_formula_sum "Si O2"
_cell_formula_units_Z 64
_cell_length_a 14.998286
_cell_length_b 31.908962
_cell_length_c 7.819847
_cell_angle_alpha 90.000000
_cell_angle_beta 90.000000
_cell_angle_gamma 90.000000
_cell_volume 3742.420329
_symmetry_space_group_name_H-M "P M M M"
_symmetry_group_IT_number 47
_symmetry_cell_setting 'orthorhombic'
loop_
_space_group_symop_operation_xyz
x,y,z
-x,-y,z
x,-y,-z
-x,y,-z
-x,-y,-z
x,y,-z
-x,y,z
x,-y,z
loop_
_atom_site_type_symbol
_atom_site_label
_atom_site_fract_x
_atom_site_fract_y
_atom_site_fract_z
Si Si1 0.220536 0.376701 0.700804
Si Si2 0.897490 0.136651 0.798116
Si Si3 0.101699 0.701118 0.200250
Si Si4 0.401439 0.660843 0.291283
Si Si5 0.598358 0.241084 0.291853
Si Si6 0.897914 0.547587 0.290843
Si Si7 0.209870 0.782460 0.700198
Si Si8 0.104603 0.954777 0.706040
O O1 0.234152 0.385468 0.500000
O O2 0.158850 0.335548 0.714229
O O3 0.317329 0.365158 0.773994
O O4 0.168558 0.416695 0.773146
O O5 0.837581 0.173071 0.721236
O O6 0.860263 0.089791 0.768415
O O7 0.000000 0.138350 0.730672
O O8 0.901602 0.144011 0.000000
O O9 0.150683 0.745640 0.219202
O O10 0.000000 0.703345 0.265840
O O11 0.098395 0.690888 0.000000
O O12 0.399944 0.659909 0.500000
O O13 0.500000 0.646798 0.236710
O O14 0.391293 0.709854 0.245591
O O15 0.595976 0.238826 0.500000
O O16 0.500000 0.226963 0.231815
O O17 0.688261 0.218170 0.233378
O O18 0.897683 0.548491 0.500000
O O19 0.875266 0.500000 0.240053
O O20 0.000000 0.556418 0.238568
O O21 0.214030 0.771862 0.500000
O O22 0.107855 0.954219 0.500000
O O23 0.000000 0.954919 0.756966
O O24 0.142414 0.000000 0.763259
#
# Coordination Sequence:
#
# PCOD9381346 Si02
#       8
#     8   8   8   8   8   8   8   8
#     4  10  17  28  48  68  82 107 149 182 206 251
#     4  10  20  31  42  60  91 128 157 183 223 268
#     4  11  23  34  42  58  89 121 143 173 219 259
#     4   8  13  23  41  65  88 106 132 175 222 260
#     4   8  14  26  44  65  86 106 135 179 225 262
#     4   8  14  24  39  62  89 111 135 176 222 253
#     4  11  20  31  48  66  84 114 154 186 212 254
#     4   8  14  26  44  64  85 112 152 199 234 259
#
# _framework density 17.101233000000001
#
# number of rings (size 3 to 8) (size 9 to 14) (size 15 to 20)
#    0.000    2.750    1.250    3.375    0.000    4.000 
#    0.000    1.250    0.000    3.375    0.000    4.375 
#    0.000    0.500    0.000    6.875    0.000    3.250 
#
# Total GULP energy -356597.765031 kJ/mol
# GULP energy per Si atom -5571.840079 kJ/mol
# Density = 1.706231 g / cm^3
# Si number density = 17.101233 Si / 1000 Ang^3
#
#
#
# Elastic Constant Matrix: (Units=GPa)
#
#
# Indices 1 2 3 4 5 6 
#
# 1 136.2023 67.2434 0.5702 0.0000 0.0000 0.0000
# 2 67.2434 97.4702 -8.2427 0.0000 0.0000 0.0000
# 3 0.5702 -8.2427 19.2429 0.0000 0.0000 0.0000
# 4 0.0000 0.0000 0.0000 -23.2952 0.0000 0.0000
# 5 0.0000 0.0000 0.0000 0.0000 -11.0876 0.0000
# 6 0.0000 0.0000 0.0000 0.0000 0.0000 6.2185
#
#
#
# Elastic Compliance Matrix: (Units=1/GPa)
#
#
# Indices 1 2 3 4 5 6 
#
# 1 0.011402 -0.008192 -0.003847 0.000000 0.000000 0.000000
# 2 -0.008192 0.016530 0.007323 0.000000 0.000000 0.000000
# 3 -0.003847 0.007323 0.055218 0.000000 0.000000 0.000000
# 4 0.000000 0.000000 0.000000 -0.042927 0.000000 0.000000
# 5 0.000000 0.000000 0.000000 0.000000 -0.090191 0.000000
# 6 0.000000 0.000000 0.000000 0.000000 0.000000 0.160810
#
#
# Mechanical properties :
#
#
# Convention : Reuss Voigt Hill
#
# Bulk Modulus (GPa) = 13.56469 41.33968 27.45219
# Shear Modulus (GPa) = 34.51944 7.25679 20.88812
#
# Velocity S-wave (km/s) = 4.49769 2.06219 3.49870
# Velocity P-wave (km/s) = 5.90944 5.46774 5.69287
#
# Compressibility (1/GPa) = 0.07372080
#
# Stress axis : x y z
#
# Youngs Moduli (GPa) = 87.70123 60.49548 18.10997
#
# Poissons Ratio (x) = 0.49556 0.06966
# Poissons Ratio (y) = 0.71842 -0.13263
# Poissons Ratio (z) = 0.33737 -0.44303
#
# Static dielectric constant tensor:
#      x y z
#    x 1.599250 0.000000 0.000000 
#    y 0.000000 1.569600 0.000000 
#    z 0.000000 0.000000 1.633170 
# 
# From -- ./inp_files/8349.got.cif
#   From: 2010.05.17/outbox.cif.g08.bks.cpg/sg47_5_cif.got.tgz:8349.got - 2010.06.03 20:15:42.
