data_PCOD9381167
_publ_section_title
;
Structure prediction by ZEFSAII (Michael W. Deem and Ramdas Pophale) SiO2 
 PCOD9381167
Probable space group: P M M M
;
_chemical_formula_sum "Si O2"
_cell_formula_units_Z 48
_cell_length_a 16.736089
_cell_length_b 9.255498
_cell_length_c 15.103207
_cell_angle_alpha 90.000000
_cell_angle_beta 90.000000
_cell_angle_gamma 90.000000
_cell_volume 2339.499425
_symmetry_space_group_name_H-M "P M M M"
_symmetry_group_IT_number 47
_symmetry_cell_setting 'orthorhombic'
loop_
_space_group_symop_operation_xyz
x,y,z
-x,-y,z
x,-y,-z
-x,y,-z
-x,-y,-z
x,y,-z
-x,y,z
x,-y,z
loop_
_atom_site_type_symbol
_atom_site_label
_atom_site_fract_x
_atom_site_fract_y
_atom_site_fract_z
Si Si1 0.657171 0.166719 0.146770
Si Si2 0.163561 0.667196 0.651394
Si Si3 0.500000 0.672463 0.839348
Si Si4 0.814458 0.666250 0.136823
Si Si5 0.906695 0.840320 0.000000
Si Si6 0.323421 0.834562 0.637677
Si Si7 0.500000 0.175074 0.351112
Si Si8 0.000000 0.164693 0.394370
O O1 0.578905 0.255354 0.121488
O O2 0.734080 0.249511 0.112767
O O3 0.666119 0.168498 0.254795
O O4 0.652607 0.000000 0.120078
O O5 0.157020 0.500000 0.622975
O O6 0.173184 0.670371 0.757851
O O7 0.246171 0.738173 0.615291
O O8 0.082066 0.752951 0.630666
O O9 0.500000 0.500000 0.844523
O O10 0.500000 0.727105 0.736974
O O11 0.810247 0.500000 0.110028
O O12 0.882429 0.750576 0.085767
O O13 0.000000 0.856100 0.000000
O O14 0.868736 0.000000 0.000000
O O15 0.413370 0.796926 0.604569
O O16 0.306297 0.000000 0.612166
O O17 0.500000 0.000000 0.329977
O O18 0.000000 0.156405 0.500000
O O19 0.000000 0.000000 0.358223
#
# Coordination Sequence:
#
# PCOD9381167 Si02
#       8
#     8   8   4   8   4   8   4   4
#     4   9  16  28  46  69 101 140 182 225 272 324
#     4  10  21  36  57  85 115 147 184 228 282 337
#     4  10  16  22  38  67 101 137 179 227 274 321
#     4  10  21  37  57  82 111 144 182 228 280 327
#     4  11  25  41  57  80 107 142 187 227 273 329
#     4   8  14  26  45  72 106 145 185 225 268 319
#     4   8  14  24  40  66 104 146 184 225 272 318
#     4  11  25  43  63  86 111 144 185 227 274 331
#
# _framework density 20.517208
#
# number of rings (size 3 to 8) (size 9 to 14) (size 15 to 20)
#    0.000    2.500    0.000    3.750    1.167    7.333 
#    0.000    0.000    0.000    0.500    0.000    4.083 
#    0.000    4.667    0.000    0.000    0.000    0.000 
#
# Total GULP energy -267799.997030 kJ/mol
# GULP energy per Si atom -5579.166605 kJ/mol
# Density = 2.047051 g / cm^3
# Si number density = 20.517208 Si / 1000 Ang^3
#
#
#
# Elastic Constant Matrix: (Units=GPa)
#
#
# Indices 1 2 3 4 5 6 
#
# 1 204.0979 115.2849 13.1210 0.0000 0.0000 0.0000
# 2 115.2849 193.9092 18.4199 0.0000 0.0000 0.0000
# 3 13.1210 18.4199 39.8829 0.0000 0.0000 0.0000
# 4 0.0000 0.0000 0.0000 2.2185 0.0000 0.0000
# 5 0.0000 0.0000 0.0000 0.0000 -23.7963 0.0000
# 6 0.0000 0.0000 0.0000 0.0000 0.0000 -32.9299
#
#
#
# Elastic Compliance Matrix: (Units=1/GPa)
#
#
# Indices 1 2 3 4 5 6 
#
# 1 0.007384 -0.004350 -0.000420 0.000000 0.000000 0.000000
# 2 -0.004350 0.007956 -0.002244 0.000000 0.000000 0.000000
# 3 -0.000420 -0.002244 0.026248 0.000000 0.000000 0.000000
# 4 0.000000 0.000000 0.000000 0.450754 0.000000 0.000000
# 5 0.000000 0.000000 0.000000 0.000000 -0.042023 0.000000
# 6 0.000000 0.000000 0.000000 0.000000 0.000000 -0.030367
#
#
# Mechanical properties :
#
#
# Convention : Reuss Voigt Hill
#
# Bulk Modulus (GPa) = 36.28365 81.28240 58.78302
# Shear Modulus (GPa) = 11.28248 8.50272 9.89260
#
# Velocity S-wave (km/s) = 2.34755 2.03794 2.19820
# Velocity P-wave (km/s) = 5.00708 6.72609 5.92921
#
# Compressibility (1/GPa) = 0.02756062
#
# Stress axis : x y z
#
# Youngs Moduli (GPa) = 135.43413 125.68618 38.09837
#
# Poissons Ratio (x) = 0.54672 0.01601
# Poissons Ratio (y) = 0.58913 0.08548
# Poissons Ratio (z) = 0.05690 0.28199
#
# Static dielectric constant tensor:
#      x y z
#    x 1.739040 0.000000 0.000000 
#    y 0.000000 1.697830 0.000000 
#    z 0.000000 0.000000 1.363530 
# 
# From -- ./inp_files/28106.got.cif
#   From: 2010.05.17/outbox.cif.g08.bks.cpg/sg47_15_cif.got.tgz:28106.got - 2010.06.03 20:15:42.
