data_PCOD9381484
_publ_section_title
;
Structure prediction by ZEFSAII (Michael W. Deem and Ramdas Pophale) SiO2 
 PCOD9381484
Probable space group: P M M M
;
_chemical_formula_sum "Si O2"
_cell_formula_units_Z 64
_cell_length_a 9.299126
_cell_length_b 26.559678
_cell_length_c 18.799753
_cell_angle_alpha 90.000000
_cell_angle_beta 90.000000
_cell_angle_gamma 90.000000
_cell_volume 4643.196690
_symmetry_space_group_name_H-M "P M M M"
_symmetry_group_IT_number 47
_symmetry_cell_setting 'orthorhombic'
loop_
_space_group_symop_operation_xyz
x,y,z
-x,-y,z
x,-y,-z
-x,y,-z
-x,-y,-z
x,y,-z
-x,y,z
x,-y,z
loop_
_atom_site_type_symbol
_atom_site_label
_atom_site_fract_x
_atom_site_fract_y
_atom_site_fract_z
Si Si1 0.167191 0.943849 0.413659
Si Si2 0.171200 0.642428 0.416879
Si Si3 0.829520 0.442885 0.841293
Si Si4 0.664749 0.404255 0.708870
Si Si5 0.335936 0.706199 0.216897
Si Si6 0.170723 0.750233 0.343661
Si Si7 0.672454 0.351936 0.917759
Si Si8 0.331012 0.843722 0.585643
O O1 0.171548 0.944366 0.500000
O O2 0.263760 0.897077 0.390741
O O3 0.000000 0.936283 0.393763
O O4 0.212325 0.000000 0.390091
O O5 0.206436 0.637939 0.500000
O O6 0.259619 0.604827 0.366619
O O7 0.199907 0.699511 0.389778
O O8 0.000000 0.633932 0.407606
O O9 0.808163 0.500000 0.866955
O O10 0.757338 0.437020 0.763617
O O11 0.754785 0.401719 0.891535
O O12 0.000000 0.433020 0.836303
O O13 0.500000 0.421637 0.702841
O O14 0.662231 0.348858 0.745618
O O15 0.500000 0.725494 0.217994
O O16 0.232724 0.739625 0.265083
O O17 0.290273 0.693287 0.136476
O O18 0.248748 0.797529 0.378615
O O19 0.000000 0.757657 0.342298
O O20 0.500000 0.360179 0.909487
O O21 0.702472 0.341339 0.000000
O O22 0.313383 0.840108 0.500000
O O23 0.500000 0.841569 0.601383
#
# Coordination Sequence:
#
# PCOD9381484 Si02
#       8
#     8   8   8   8   8   8   8   8
#     4   8  14  25  39  52  68  95 132 172 212 252
#     4   9  17  28  42  60  81 104 129 160 200 243
#     4  10  20  32  46  64  85 108 132 158 190 227
#     4   9  17  29  45  62  79 102 131 161 193 232
#     4   8  15  28  43  59  80 104 129 156 187 226
#     4  10  18  27  40  57  78 104 134 165 197 236
#     4   9  18  32  49  68  88 109 132 157 186 223
#     4  10  19  27  36  53  77 104 135 174 216 250
#
# _framework density 13.783607
#
# number of rings (size 3 to 8) (size 9 to 14) (size 15 to 20)
#    0.000    2.875    0.000    3.000    0.000    6.750 
#    0.000    2.500    0.000    0.375    0.000    2.625 
#    0.000    0.000    0.000    0.000    0.000    0.625 
#
# Total GULP energy -356448.546463 kJ/mol
# GULP energy per Si atom -5569.508538 kJ/mol
# Density = 1.375224 g / cm^3
# Si number density = 13.783607 Si / 1000 Ang^3
#
#
#
# Elastic Constant Matrix: (Units=GPa)
#
#
# Indices 1 2 3 4 5 6 
#
# 1 53.4923 25.0861 31.2682 0.0000 0.0000 0.0000
# 2 25.0861 28.3311 11.3412 0.0000 0.0000 0.0000
# 3 31.2682 11.3412 81.0428 0.0000 0.0000 0.0000
# 4 0.0000 0.0000 0.0000 9.2378 0.0000 0.0000
# 5 0.0000 0.0000 0.0000 0.0000 17.8664 0.0000
# 6 0.0000 0.0000 0.0000 0.0000 0.0000 18.5259
#
#
#
# Elastic Compliance Matrix: (Units=1/GPa)
#
#
# Indices 1 2 3 4 5 6 
#
# 1 0.039385 -0.030500 -0.010928 0.000000 0.000000 0.000000
# 2 -0.030500 0.061010 0.003230 0.000000 0.000000 0.000000
# 3 -0.010928 0.003230 0.016103 0.000000 0.000000 0.000000
# 4 0.000000 0.000000 0.000000 0.108251 0.000000 0.000000
# 5 0.000000 0.000000 0.000000 0.000000 0.055971 0.000000
# 6 0.000000 0.000000 0.000000 0.000000 0.000000 0.053978
#
#
# Mechanical properties :
#
#
# Convention : Reuss Voigt Hill
#
# Bulk Modulus (GPa) = 24.93539 33.13969 29.03754
# Shear Modulus (GPa) = 11.77960 15.47073 13.62517
#
# Velocity S-wave (km/s) = 2.92654 3.35386 3.14746
# Velocity P-wave (km/s) = 5.43594 6.25243 5.85842
#
# Compressibility (1/GPa) = 0.04010365
#
# Stress axis : x y z
#
# Youngs Moduli (GPa) = 25.39020 16.39065 62.09902
#
# Poissons Ratio (x) = 0.49991 0.67859
# Poissons Ratio (y) = 0.77440 -0.20056
# Poissons Ratio (z) = 0.27745 -0.05294
#
# Static dielectric constant tensor:
#      x y z
#    x 1.462460 0.000000 0.000000 
#    y 0.000000 1.440270 0.000000 
#    z 0.000000 0.000000 1.449930 
# 
# From -- ./inp_files/13499.got.cif
#   From: 2010.05.17/outbox.cif.g08.bks.cpg/sg47_7_cif.got.tgz:13499.got - 2010.06.03 20:15:42.
