data_PCOD9381363
_publ_section_title
;
Structure prediction by ZEFSAII (Michael W. Deem and Ramdas Pophale) SiO2 
 PCOD9381363
Probable space group: P M M M
;
_chemical_formula_sum "Si O2"
_cell_formula_units_Z 52
_cell_length_a 13.487446
_cell_length_b 22.953921
_cell_length_c 8.772021
_cell_angle_alpha 90.000000
_cell_angle_beta 90.000000
_cell_angle_gamma 90.000000
_cell_volume 2715.727964
_symmetry_space_group_name_H-M "P M M M"
_symmetry_group_IT_number 47
_symmetry_cell_setting 'orthorhombic'
loop_
_space_group_symop_operation_xyz
x,y,z
-x,-y,z
x,-y,-z
-x,y,-z
-x,-y,-z
x,y,-z
-x,y,z
x,-y,z
loop_
_atom_site_type_symbol
_atom_site_label
_atom_site_fract_x
_atom_site_fract_y
_atom_site_fract_z
Si Si1 0.384998 0.607128 0.318885
Si Si2 0.380977 0.729746 0.826906
Si Si3 0.681700 0.148265 0.684021
Si Si4 0.500000 0.933023 0.313876
Si Si5 0.194155 0.437401 0.818893
Si Si6 0.886689 0.189738 0.686069
Si Si7 0.118744 0.680658 0.672255
O O1 0.376867 0.599933 0.500000
O O2 0.500000 0.598081 0.276009
O O3 0.354918 0.672856 0.270741
O O4 0.308265 0.566411 0.233081
O O5 0.500000 0.729221 0.835802
O O6 0.352892 0.789630 0.747151
O O7 0.341893 0.725183 0.000000
O O8 0.678311 0.149007 0.500000
O O9 0.600369 0.100759 0.734961
O O10 0.798393 0.145355 0.728339
O O11 0.500000 0.932584 0.500000
O O12 0.500000 0.000000 0.264148
O O13 0.152377 0.500000 0.764823
O O14 0.145635 0.378695 0.755812
O O15 0.187238 0.435971 0.000000
O O16 0.889178 0.192586 0.500000
O O17 0.855938 0.255316 0.738327
O O18 0.000000 0.176902 0.735434
O O19 0.159138 0.677278 0.500000
O O20 0.000000 0.683103 0.663367
#
# Coordination Sequence:
#
# PCOD9381363 Si02
#       7
#     8   8   8   4   8   8   8
#     4  10  21  36  54  74  97 128 168 212 256 312
#     4  10  19  30  47  74 106 131 156 202 264 319
#     4  10  17  28  50  73  99 138 180 217 251 304
#     4   9  18  30  45  73 111 147 184 223 260 295
#     4  11  24  38  51  70  98 132 169 212 264 318
#     4   8  15  28  48  75 100 123 159 211 267 312
#     4   9  18  34  55  76  98 125 161 210 266 321
#
# _framework density 19.147721000000001
#
# number of rings (size 3 to 8) (size 9 to 14) (size 15 to 20)
#    0.000    2.385    0.769    3.231    0.000    4.923 
#    0.000    3.077    0.000    2.769    0.000    3.231 
#    0.000    0.000    0.000    1.385    0.000    1.538 
#
# Total GULP energy -289883.900733 kJ/mol
# GULP energy per Si atom -5574.690399 kJ/mol
# Density = 1.910414 g / cm^3
# Si number density = 19.147721 Si / 1000 Ang^3
#
#
#
# Elastic Constant Matrix: (Units=GPa)
#
#
# Indices 1 2 3 4 5 6 
#
# 1 96.0873 63.6652 13.4822 0.0000 0.0000 0.0000
# 2 63.6652 97.2464 12.8204 0.0000 0.0000 0.0000
# 3 13.4822 12.8204 16.3744 0.0000 0.0000 0.0000
# 4 0.0000 0.0000 0.0000 28.4886 0.0000 0.0000
# 5 0.0000 0.0000 0.0000 0.0000 12.2136 0.0000
# 6 0.0000 0.0000 0.0000 0.0000 0.0000 5.5187
#
#
#
# Elastic Compliance Matrix: (Units=1/GPa)
#
#
# Indices 1 2 3 4 5 6 
#
# 1 0.018996 -0.011568 -0.006583 0.000000 0.000000 0.000000
# 2 -0.011568 0.018512 -0.004969 0.000000 0.000000 0.000000
# 3 -0.006583 -0.004969 0.070382 0.000000 0.000000 0.000000
# 4 0.000000 0.000000 0.000000 0.035102 0.000000 0.000000
# 5 0.000000 0.000000 0.000000 0.000000 0.081876 0.000000
# 6 0.000000 0.000000 0.000000 0.000000 0.000000 0.181201
#
#
# Mechanical properties :
#
#
# Convention : Reuss Voigt Hill
#
# Bulk Modulus (GPa) = 16.22097 43.29375 29.75736
# Shear Modulus (GPa) = 10.57400 17.22688 13.90044
#
# Velocity S-wave (km/s) = 2.35251 3.00273 2.69728
# Velocity P-wave (km/s) = 3.98359 5.88908 5.02744
#
# Compressibility (1/GPa) = 0.06164858
#
# Stress axis : x y z
#
# Youngs Moduli (GPa) = 52.64339 54.01984 14.20825
#
# Poissons Ratio (x) = 0.62491 0.09353
# Poissons Ratio (y) = 0.60899 0.07060
# Poissons Ratio (z) = 0.34656 0.26842
#
# Static dielectric constant tensor:
#      x y z
#    x 1.740970 0.000000 0.000000 
#    y 0.000000 1.663820 0.000000 
#    z 0.000000 0.000000 1.650980 
# 
# From -- ./inp_files/7064.got.cif
#   From: 2010.05.17/outbox.cif.g08.bks.cpg/sg47_4_cif.got.tgz:7064.got - 2010.06.03 20:15:42.
