data_PCOD9381255
_publ_section_title
;
Structure prediction by ZEFSAII (Michael W. Deem and Ramdas Pophale) SiO2 
 PCOD9381255
Probable space group: P M M M
;
_chemical_formula_sum "Si O2"
_cell_formula_units_Z 52
_cell_length_a 14.890821
_cell_length_b 7.573772
_cell_length_c 24.266361
_cell_angle_alpha 90.000000
_cell_angle_beta 90.000000
_cell_angle_gamma 90.000000
_cell_volume 2736.752505
_symmetry_space_group_name_H-M "P M M M"
_symmetry_group_IT_number 47
_symmetry_cell_setting 'orthorhombic'
loop_
_space_group_symop_operation_xyz
x,y,z
-x,-y,z
x,-y,-z
-x,y,-z
-x,-y,-z
x,y,-z
-x,y,z
x,-y,z
loop_
_atom_site_type_symbol
_atom_site_label
_atom_site_fract_x
_atom_site_fract_y
_atom_site_fract_z
Si Si1 0.099328 0.711449 0.435178
Si Si2 0.249028 0.198381 0.645468
Si Si3 0.102022 0.215569 0.270038
Si Si4 0.736911 0.300300 0.063716
Si Si5 0.601139 0.000000 0.933078
Si Si6 0.394980 0.784567 0.437828
Si Si7 0.100623 0.786606 0.142000
O O1 0.105299 0.743116 0.500000
O O2 0.107912 0.500000 0.426577
O O3 0.176373 0.808567 0.403303
O O4 0.000000 0.765751 0.416569
O O5 0.186691 0.279654 0.693776
O O6 0.334514 0.279559 0.613470
O O7 0.274849 0.000000 0.663638
O O8 0.114458 0.262562 0.205949
O O9 0.000000 0.272880 0.286092
O O10 0.101800 0.000000 0.274205
O O11 0.703792 0.500000 0.064646
O O12 0.823647 0.283130 0.101750
O O13 0.659394 0.169012 0.083065
O O14 0.759916 0.255173 0.000000
O O15 0.500000 0.000000 0.911841
O O16 0.596321 0.000000 0.000000
O O17 0.365606 0.728386 0.500000
O O18 0.500000 0.738262 0.431965
O O19 0.389217 0.000000 0.437435
O O20 0.000000 0.730661 0.126037
O O21 0.103547 0.000000 0.139769
#
# Coordination Sequence:
#
# PCOD9381255 Si02
#       7
#     8   8   8   8   4   8   8
#     4   9  18  30  40  54  83 118 143 171 223 286
#     4  10  17  26  45  68  85 111 152 197 239 278
#     4   8  15  27  43  66  93 122 157 198 244 291
#     4  10  20  33  52  81 112 141 179 226 271 318
#     4   9  18  34  55  79 109 143 178 218 266 319
#     4   8  14  24  38  60  90 118 146 188 242 294
#     4   9  17  31  50  69  97 142 180 209 257 319
#
# _framework density 19.000622
#
# number of rings (size 3 to 8) (size 9 to 14) (size 15 to 20)
#    0.000    3.000    0.769    2.769    0.000    2.769 
#    0.000    4.615    0.000    2.308    0.000    2.154 
#    0.000    0.000    0.000    0.000    0.000    0.000 
#
# Total GULP energy -289788.873576 kJ/mol
# GULP energy per Si atom -5572.862953 kJ/mol
# Density = 1.895738 g / cm^3
# Si number density = 19.000622 Si / 1000 Ang^3
#
#
#
# Elastic Constant Matrix: (Units=GPa)
#
#
# Indices 1 2 3 4 5 6 
#
# 1 130.7915 28.7830 62.4339 0.0000 0.0000 0.0000
# 2 28.7830 52.5719 21.1966 0.0000 0.0000 0.0000
# 3 62.4339 21.1966 75.3812 0.0000 0.0000 0.0000
# 4 0.0000 0.0000 0.0000 -3.4930 0.0000 0.0000
# 5 0.0000 0.0000 0.0000 0.0000 36.2969 0.0000
# 6 0.0000 0.0000 0.0000 0.0000 0.0000 -59.5499
#
#
#
# Elastic Compliance Matrix: (Units=1/GPa)
#
#
# Indices 1 2 3 4 5 6 
#
# 1 0.013093 -0.003154 -0.009957 0.000000 0.000000 0.000000
# 2 -0.003154 0.022213 -0.003634 0.000000 0.000000 0.000000
# 3 -0.009957 -0.003634 0.022535 0.000000 0.000000 0.000000
# 4 0.000000 0.000000 0.000000 -0.286286 0.000000 0.000000
# 5 0.000000 0.000000 0.000000 0.000000 0.027551 0.000000
# 6 0.000000 0.000000 0.000000 0.000000 0.000000 -0.016793
#
#
# Mechanical properties :
#
#
# Convention : Reuss Voigt Hill
#
# Bulk Modulus (GPa) = 41.06633 53.73017 47.39825
# Shear Modulus (GPa) = -28.39627 4.40621 -11.99503
#
# Velocity S-wave (km/s) = -3.87006 1.52447 -2.51529
# Velocity P-wave (km/s) = 1.30010 5.60698 4.06992
#
# Compressibility (1/GPa) = 0.02435085
#
# Stress axis : x y z
#
# Youngs Moduli (GPa) = 76.37695 45.01768 44.37554
#
# Poissons Ratio (x) = 0.14197 0.44186
# Poissons Ratio (y) = 0.24087 0.16127
# Poissons Ratio (z) = 0.76051 0.16361
#
# Static dielectric constant tensor:
#      x y z
#    x 1.657640 0.000000 0.000000 
#    y 0.000000 1.728260 0.000000 
#    z 0.000000 0.000000 1.661160 
# 
# From -- ./inp_files/32648.got.cif
#   From: 2010.05.17/outbox.cif.g08.bks.cpg/sg47_17_cif.got.tgz:32648.got - 2010.06.03 20:15:42.
