data_PCOD9381964
_publ_section_title
;
Structure prediction by ZEFSAII (Michael W. Deem and Ramdas Pophale) SiO2 
 PCOD9381964
Probable space group: P M M M
;
_chemical_formula_sum "Si O2"
_cell_formula_units_Z 48
_cell_length_a 17.794165
_cell_length_b 7.378307
_cell_length_c 15.741130
_cell_angle_alpha 90.000000
_cell_angle_beta 90.000000
_cell_angle_gamma 90.000000
_cell_volume 2066.665742
_symmetry_space_group_name_H-M "P M M M"
_symmetry_group_IT_number 47
_symmetry_cell_setting 'orthorhombic'
loop_
_space_group_symop_operation_xyz
x,y,z
-x,-y,z
x,-y,-z
-x,y,-z
-x,-y,-z
x,y,-z
-x,y,z
x,-y,z
loop_
_atom_site_type_symbol
_atom_site_label
_atom_site_fract_x
_atom_site_fract_y
_atom_site_fract_z
Si Si1 0.585397 0.707418 0.367110
Si Si2 0.349244 0.220052 0.184345
Si Si3 0.500000 0.779933 0.093226
Si Si4 0.137324 0.282674 0.278326
Si Si5 0.194455 0.215268 0.902144
Si Si6 0.742007 0.721605 0.409723
Si Si7 0.000000 0.278612 0.400124
O O1 0.500000 0.783612 0.367355
O O2 0.577675 0.500000 0.396248
O O3 0.623637 0.707580 0.274670
O O4 0.656685 0.790740 0.414034
O O5 0.421549 0.274599 0.131289
O O6 0.273039 0.284053 0.138781
O O7 0.345007 0.000000 0.190446
O O8 0.500000 0.000000 0.096649
O O9 0.500000 0.713648 0.000000
O O10 0.137283 0.500000 0.281568
O O11 0.136736 0.239864 0.177484
O O12 0.212959 0.217055 0.326435
O O13 0.070903 0.222778 0.341595
O O14 0.202472 0.000000 0.910851
O O15 0.179959 0.282004 0.000000
O O16 0.780474 0.766060 0.500000
O O17 0.739616 0.500000 0.405610
O O18 0.000000 0.500000 0.403139
O O19 0.000000 0.221032 0.500000
#
# Coordination Sequence:
#
# PCOD9381964 Si02
#       7
#     8   8   4   8   8   8   4
#     4  10  19  30  46  70 102 135 171 218 267 313
#     4  10  18  30  49  70  94 130 176 223 267 311
#     4   9  16  26  43  67  90 119 168 222 265 307
#     4  10  19  34  58  85 111 139 173 217 266 314
#     4  10  21  36  54  78 108 143 182 221 263 314
#     4   9  17  30  50  75 102 135 174 213 259 317
#     4   9  18  34  60  93 120 140 171 219 268 313
#
# _framework density 23.225815999999998
#
# number of rings (size 3 to 8) (size 9 to 14) (size 15 to 20)
#    0.000    2.333    2.500    1.000    0.000    4.667 
#    0.000    2.500    0.000    8.500    0.000    1.167 
#    0.000    0.000    0.000    0.000    0.000    0.000 
#
# Total GULP energy -267283.026965 kJ/mol
# GULP energy per Si atom -5568.396395 kJ/mol
# Density = 2.317295 g / cm^3
# Si number density = 23.225816 Si / 1000 Ang^3
#
#
#
# Elastic Constant Matrix: (Units=GPa)
#
#
# Indices 1 2 3 4 5 6 
#
# 1 125.1448 5.0990 67.3821 0.0000 0.0000 0.0000
# 2 5.0990 83.5762 3.7632 0.0000 0.0000 0.0000
# 3 67.3821 3.7632 230.8752 0.0000 0.0000 0.0000
# 4 0.0000 0.0000 0.0000 -49.2622 0.0000 0.0000
# 5 0.0000 0.0000 0.0000 0.0000 38.3155 0.0000
# 6 0.0000 0.0000 0.0000 0.0000 0.0000 3.9932
#
#
#
# Elastic Compliance Matrix: (Units=1/GPa)
#
#
# Indices 1 2 3 4 5 6 
#
# 1 0.009498 -0.000455 -0.002765 0.000000 0.000000 0.000000
# 2 -0.000455 0.011996 -0.000063 0.000000 0.000000 0.000000
# 3 -0.002765 -0.000063 0.005139 0.000000 0.000000 0.000000
# 4 0.000000 0.000000 0.000000 -0.020300 0.000000 0.000000
# 5 0.000000 0.000000 0.000000 0.000000 0.026099 0.000000
# 6 0.000000 0.000000 0.000000 0.000000 0.000000 0.250425
#
#
# Mechanical properties :
#
#
# Convention : Reuss Voigt Hill
#
# Bulk Modulus (GPa) = 49.83017 65.78721 57.80869
# Shear Modulus (GPa) = 16.88552 22.83275 19.85913
#
# Velocity S-wave (km/s) = 2.69925 3.13881 2.92729
# Velocity P-wave (km/s) = 5.58711 6.44381 6.03069
#
# Compressibility (1/GPa) = 0.02006816
#
# Stress axis : x y z
#
# Youngs Moduli (GPa) = 105.28731 83.36315 194.58203
#
# Poissons Ratio (x) = 0.03793 0.53794
# Poissons Ratio (y) = 0.04790 0.01221
# Poissons Ratio (z) = 0.29107 0.00523
#
# Static dielectric constant tensor:
#      x y z
#    x 1.844770 0.000000 0.000000 
#    y 0.000000 1.898460 0.000000 
#    z 0.000000 0.000000 2.012450 
# 
# From -- ./inp_files/24490.got.cif
#   From: 2010.05.17/outbox.cif.g08.bks.cpg/sg47_13_cif.got.tgz:24490.got - 2010.06.03 20:15:42.
