data_PCOD9381863
_publ_section_title
;
Structure prediction by ZEFSAII (Michael W. Deem and Ramdas Pophale) SiO2 
 PCOD9381863
Probable space group: P M M M
;
_chemical_formula_sum "Si O2"
_cell_formula_units_Z 52
_cell_length_a 23.921225
_cell_length_b 8.463876
_cell_length_c 14.646894
_cell_angle_alpha 90.000000
_cell_angle_beta 90.000000
_cell_angle_gamma 90.000000
_cell_volume 2965.502173
_symmetry_space_group_name_H-M "P M M M"
_symmetry_group_IT_number 47
_symmetry_cell_setting 'orthorhombic'
loop_
_space_group_symop_operation_xyz
x,y,z
-x,-y,z
x,-y,-z
-x,y,-z
-x,-y,-z
x,y,-z
-x,y,z
x,-y,z
loop_
_atom_site_type_symbol
_atom_site_label
_atom_site_fract_x
_atom_site_fract_y
_atom_site_fract_z
Si Si1 0.563081 0.192640 0.894747
Si Si2 0.848801 0.188924 0.396767
Si Si3 0.669902 0.808867 0.782319
Si Si4 0.722954 0.688814 0.396363
Si Si5 0.888707 0.688891 0.789461
Si Si6 0.000000 0.693036 0.105487
Si Si7 0.779531 0.190921 0.105173
O O1 0.500000 0.242975 0.870465
O O2 0.612268 0.246136 0.828193
O O3 0.563391 0.000000 0.893579
O O4 0.574193 0.238810 0.000000
O O5 0.863158 0.242076 0.500000
O O6 0.784504 0.239227 0.379569
O O7 0.885680 0.257879 0.315541
O O8 0.851750 0.000000 0.393869
O O9 0.681218 0.749003 0.680686
O O10 0.722860 0.757889 0.843962
O O11 0.669638 0.000000 0.781351
O O12 0.706648 0.732191 0.500000
O O13 0.727791 0.500000 0.391034
O O14 0.887600 0.500000 0.792665
O O15 0.833753 0.751575 0.840758
O O16 0.944264 0.744700 0.841718
O O17 0.000000 0.500000 0.105266
O O18 0.000000 0.744205 0.000000
O O19 0.779783 0.000000 0.105505
O O20 0.780626 0.244318 0.000000
#
# Coordination Sequence:
#
# PCOD9381863 Si02
#       7
#     8   8   8   8   8   4   8
#     4   8  14  26  46  73 104 138 175 211 248 295
#     4  10  20  35  55  78 105 135 166 206 259 314
#     4  10  18  29  49  76 105 135 168 210 259 305
#     4  10  20  33  50  74 103 134 169 209 255 310
#     4  11  21  35  56  78 102 135 174 215 256 300
#     4   9  20  38  56  75 102 138 177 213 250 297
#     4  10  20  32  47  72 106 137 166 207 259 309
#
# _framework density 17.534973999999998
#
# number of rings (size 3 to 8) (size 9 to 14) (size 15 to 20)
#    0.000    2.231    1.538    2.769    0.000    4.615 
#    0.000    1.923    0.000    7.385    0.000    4.308 
#    0.000    0.000    0.000    0.000    0.000    0.000 
#
# Total GULP energy -290171.988028 kJ/mol
# GULP energy per Si atom -5580.230539 kJ/mol
# Density = 1.749506 g / cm^3
# Si number density = 17.534974 Si / 1000 Ang^3
#
#
#
# Elastic Constant Matrix: (Units=GPa)
#
#
# Indices 1 2 3 4 5 6 
#
# 1 130.7813 15.9726 91.2135 0.0000 0.0000 0.0000
# 2 15.9726 10.2861 17.9202 0.0000 0.0000 0.0000
# 3 91.2135 17.9202 158.0988 0.0000 0.0000 0.0000
# 4 0.0000 0.0000 0.0000 22.1959 0.0000 0.0000
# 5 0.0000 0.0000 0.0000 0.0000 33.0679 0.0000
# 6 0.0000 0.0000 0.0000 0.0000 0.0000 24.8752
#
#
#
# Elastic Compliance Matrix: (Units=1/GPa)
#
#
# Indices 1 2 3 4 5 6 
#
# 1 0.013457 -0.009184 -0.006723 0.000000 0.000000 0.000000
# 2 -0.009184 0.127409 -0.009143 0.000000 0.000000 0.000000
# 3 -0.006723 -0.009143 0.011240 0.000000 0.000000 0.000000
# 4 0.000000 0.000000 0.000000 0.045053 0.000000 0.000000
# 5 0.000000 0.000000 0.000000 0.000000 0.030241 0.000000
# 6 0.000000 0.000000 0.000000 0.000000 0.000000 0.040201
#
#
# Mechanical properties :
#
#
# Convention : Reuss Voigt Hill
#
# Bulk Modulus (GPa) = 9.80330 61.04208 35.42269
# Shear Modulus (GPa) = 14.21656 27.63178 20.92417
#
# Velocity S-wave (km/s) = 2.85046 3.97395 3.45814
# Velocity P-wave (km/s) = 4.05418 7.47955 6.01581
#
# Compressibility (1/GPa) = 0.10200651
#
# Stress axis : x y z
#
# Youngs Moduli (GPa) = 74.31167 7.84874 88.96681
#
# Poissons Ratio (x) = 0.07208 0.59811
# Poissons Ratio (y) = 0.68248 0.81342
# Poissons Ratio (z) = 0.49958 0.07176
#
# Static dielectric constant tensor:
#      x y z
#    x 1.575110 0.000000 0.000000 
#    y 0.000000 1.607620 0.000000 
#    z 0.000000 0.000000 1.603110 
# 
# From -- ./inp_files/21391.got.cif
#   From: 2010.05.17/outbox.cif.g08.bks.cpg/sg47_11_cif.got.tgz:21391.got - 2010.06.03 20:15:42.
