data_PCOD9381552
_publ_section_title
;
Structure prediction by ZEFSAII (Michael W. Deem and Ramdas Pophale) SiO2 
 PCOD9381552
Probable space group: P M M M
;
_chemical_formula_sum "Si O2"
_cell_formula_units_Z 64
_cell_length_a 19.822507
_cell_length_b 7.953453
_cell_length_c 24.568224
_cell_angle_alpha 90.000000
_cell_angle_beta 90.000000
_cell_angle_gamma 90.000000
_cell_volume 3873.361772
_symmetry_space_group_name_H-M "P M M M"
_symmetry_group_IT_number 47
_symmetry_cell_setting 'orthorhombic'
loop_
_space_group_symop_operation_xyz
x,y,z
-x,-y,z
x,-y,-z
-x,y,-z
-x,-y,-z
x,y,-z
-x,y,z
x,-y,z
loop_
_atom_site_type_symbol
_atom_site_label
_atom_site_fract_x
_atom_site_fract_y
_atom_site_fract_z
Si Si1 0.206413 0.703015 0.835816
Si Si2 0.718565 0.699555 0.727105
Si Si3 0.921873 0.205073 0.561091
Si Si4 0.151158 0.199029 0.668423
Si Si5 0.574962 0.205195 0.119070
Si Si6 0.425301 0.202523 0.754720
Si Si7 0.709914 0.797677 0.060907
Si Si8 0.075381 0.299791 0.222573
O O1 0.206209 0.500000 0.834308
O O2 0.255210 0.762499 0.786457
O O3 0.234862 0.755378 0.893774
O O4 0.131689 0.764711 0.819709
O O5 0.726580 0.500000 0.726933
O O6 0.770832 0.768467 0.682793
O O7 0.640084 0.741398 0.721753
O O8 0.903587 0.261431 0.500000
O O9 0.874493 0.263518 0.610156
O O10 0.000000 0.252043 0.571509
O O11 0.919958 0.000000 0.560416
O O12 0.106920 0.273531 0.717642
O O13 0.139659 0.000000 0.669621
O O14 0.500000 0.256718 0.100666
O O15 0.583119 0.257664 0.182148
O O16 0.637467 0.264658 0.083233
O O17 0.575898 0.000000 0.118754
O O18 0.500000 0.259159 0.736501
O O19 0.425694 0.000000 0.755013
O O20 0.705648 0.000000 0.058514
O O21 0.723817 0.735116 0.000000
O O22 0.070993 0.500000 0.214089
O O23 0.000000 0.228623 0.218420
#
# Coordination Sequence:
#
# PCOD9381552 Si02
#       8
#     8   8   8   8   8   8   8   8
#     4   9  18  31  45  61  81 109 140 170 213 264
#     4  10  19  30  44  63  89 120 151 183 223 264
#     4   8  14  25  41  63  93 126 157 188 219 252
#     4  10  18  27  44  69  94 120 153 188 218 254
#     4   8  14  25  41  61  84 108 135 169 208 249
#     4   9  16  27  45  66  87 114 147 182 221 264
#     4  10  19  29  44  64  83 106 138 176 216 259
#     4   9  18  32  48  66  89 113 139 178 225 268
#
# _framework density 16.523116000000002
#
# number of rings (size 3 to 8) (size 9 to 14) (size 15 to 20)
#    0.000    2.875    1.250    3.000    0.000    3.500 
#    0.000    1.250    0.000    2.250    0.000    7.875 
#    0.000    0.500    0.000    5.750    0.000    1.625 
#
# Total GULP energy -356581.249029 kJ/mol
# GULP energy per Si atom -5571.582016 kJ/mol
# Density = 1.648551 g / cm^3
# Si number density = 16.523116 Si / 1000 Ang^3
#
#
#
# Elastic Constant Matrix: (Units=GPa)
#
#
# Indices 1 2 3 4 5 6 
#
# 1 140.3380 2.1714 75.3878 0.0000 0.0000 0.0000
# 2 2.1714 10.3374 0.5347 0.0000 0.0000 0.0000
# 3 75.3878 0.5347 111.3114 0.0000 0.0000 0.0000
# 4 0.0000 0.0000 0.0000 -20.6286 0.0000 0.0000
# 5 0.0000 0.0000 0.0000 0.0000 25.4418 0.0000
# 6 0.0000 0.0000 0.0000 0.0000 0.0000 12.2194
#
#
#
# Elastic Compliance Matrix: (Units=1/GPa)
#
#
# Indices 1 2 3 4 5 6 
#
# 1 0.011241 -0.001968 -0.007603 0.000000 0.000000 0.000000
# 2 -0.001968 0.097105 0.000866 0.000000 0.000000 0.000000
# 3 -0.007603 0.000866 0.014129 0.000000 0.000000 0.000000
# 4 0.000000 0.000000 0.000000 -0.048476 0.000000 0.000000
# 5 0.000000 0.000000 0.000000 0.000000 0.039305 0.000000
# 6 0.000000 0.000000 0.000000 0.000000 0.000000 0.081837
#
#
# Mechanical properties :
#
#
# Convention : Reuss Voigt Hill
#
# Bulk Modulus (GPa) = 9.51792 46.46384 27.99088
# Shear Modulus (GPa) = 20.19607 15.66603 17.93105
#
# Velocity S-wave (km/s) = 3.49992 3.08251 3.29783
# Velocity P-wave (km/s) = 4.70165 6.39146 5.61053
#
# Compressibility (1/GPa) = 0.10506496
#
# Stress axis : x y z
#
# Youngs Moduli (GPa) = 88.96337 10.29812 70.77530
#
# Poissons Ratio (x) = 0.02027 0.53814
# Poissons Ratio (y) = 0.17507 -0.06132
# Poissons Ratio (z) = 0.67643 -0.00892
#
# Static dielectric constant tensor:
#      x y z
#    x 1.580840 0.000000 0.000000 
#    y 0.000000 1.596710 0.000000 
#    z 0.000000 0.000000 1.542890 
# 
# From -- ./inp_files/32268.got.cif
#   From: 2010.05.17/outbox.cif.g08.bks.cpg/sg47_17_cif.got.tgz:32268.got - 2010.06.03 20:15:42.
