data_PCOD9381592
_publ_section_title
;
Structure prediction by ZEFSAII (Michael W. Deem and Ramdas Pophale) SiO2 
 PCOD9381592
Probable space group: P M M M
;
_chemical_formula_sum "Si O2"
_cell_formula_units_Z 64
_cell_length_a 7.357076
_cell_length_b 14.986832
_cell_length_c 32.328279
_cell_angle_alpha 90.000000
_cell_angle_beta 90.000000
_cell_angle_gamma 90.000000
_cell_volume 3564.492185
_symmetry_space_group_name_H-M "P M M M"
_symmetry_group_IT_number 47
_symmetry_cell_setting 'orthorhombic'
loop_
_space_group_symop_operation_xyz
x,y,z
-x,-y,z
x,-y,-z
-x,y,-z
-x,-y,-z
x,y,-z
-x,y,z
x,-y,z
loop_
_atom_site_type_symbol
_atom_site_label
_atom_site_fract_x
_atom_site_fract_y
_atom_site_fract_z
Si Si1 0.713548 0.720452 0.621962
Si Si2 0.221805 0.396182 0.865119
Si Si3 0.219111 0.393517 0.044493
Si Si4 0.214201 0.901534 0.758278
Si Si5 0.280526 0.099160 0.339311
Si Si6 0.721721 0.397974 0.452948
Si Si7 0.780762 0.602374 0.297231
Si Si8 0.222602 0.710597 0.215709
O O1 0.500000 0.733818 0.613863
O O2 0.788543 0.817259 0.634410
O O3 0.787909 0.669887 0.581881
O O4 0.729318 0.656503 0.661805
O O5 0.275575 0.500000 0.860202
O O6 0.281982 0.361829 0.910431
O O7 0.280209 0.337679 0.826304
O O8 0.000000 0.396040 0.865333
O O9 0.254859 0.500000 0.044636
O O10 0.000000 0.383502 0.044136
O O11 0.285942 0.358149 0.000000
O O12 0.500000 0.900488 0.658810
O O13 0.232405 0.888054 0.708881
O O14 0.285740 0.812661 0.779953
O O15 0.290490 0.000000 0.767959
O O16 0.000000 0.094959 0.232432
O O17 0.218455 0.000000 0.351775
O O18 0.775905 0.376559 0.500000
O O19 0.500000 0.397768 0.452196
O O20 0.776856 0.500000 0.443671
O O21 0.717164 0.500000 0.298205
O O22 0.720277 0.654510 0.256088
O O23 0.000000 0.600434 0.295948
O O24 0.000000 0.711104 0.216126
#
# Coordination Sequence:
#
# PCOD9381592 Si02
#       8
#     8   8   8   8   8   8   8   8
#     4  10  18  28  44  62  78  99 129 160 186 218
#     4   8  12  17  26  40  60  89 120 147 180 221
#     4   7   9  13  21  34  53  78 111 150 184 211
#     4   9  16  26  40  55  71  94 126 161 189 215
#     4   9  17  28  41  58  79 100 123 154 192 228
#     4   8  14  25  41  60  79  98 123 155 186 216
#     4  10  19  28  38  55  80 106 128 153 185 220
#     4   9  15  23  33  47  69  95 122 151 182 221
#
# _framework density 17.954871000000001
#
# number of rings (size 3 to 8) (size 9 to 14) (size 15 to 20)
#    0.000    3.250    1.250    2.250    0.000    2.250 
#    0.000    0.000    0.000    0.750    0.000    4.375 
#    0.000    0.500    0.000   11.250    0.000    7.375 
#
# Total GULP energy -356703.595817 kJ/mol
# GULP energy per Si atom -5573.493685 kJ/mol
# Density = 1.791400 g / cm^3
# Si number density = 17.954871 Si / 1000 Ang^3
#
#
#
# Elastic Constant Matrix: (Units=GPa)
#
#
# Indices 1 2 3 4 5 6 
#
# 1 64.4041 3.1608 -2.6605 0.0000 0.0000 0.0000
# 2 3.1608 149.6102 92.3108 0.0000 0.0000 0.0000
# 3 -2.6605 92.3108 147.7128 0.0000 0.0000 0.0000
# 4 0.0000 0.0000 0.0000 8.1347 0.0000 0.0000
# 5 0.0000 0.0000 0.0000 0.0000 4.3139 0.0000
# 6 0.0000 0.0000 0.0000 0.0000 0.0000 -2.4766
#
#
#
# Elastic Compliance Matrix: (Units=1/GPa)
#
#
# Indices 1 2 3 4 5 6 
#
# 1 0.015600 -0.000819 0.000793 0.000000 0.000000 0.000000
# 2 -0.000819 0.010922 -0.006840 0.000000 0.000000 0.000000
# 3 0.000793 -0.006840 0.011059 0.000000 0.000000 0.000000
# 4 0.000000 0.000000 0.000000 0.122931 0.000000 0.000000
# 5 0.000000 0.000000 0.000000 0.000000 0.231807 0.000000
# 6 0.000000 0.000000 0.000000 0.000000 0.000000 -0.403774
#
#
# Mechanical properties :
#
#
# Convention : Reuss Voigt Hill
#
# Bulk Modulus (GPa) = 41.93210 60.81660 51.37435
# Shear Modulus (GPa) = 488.96802 19.92214 254.44508
#
# Velocity S-wave (km/s) = 16.52038 3.33463 11.91727
# Velocity P-wave (km/s) = 19.67999 6.98368 14.76607
#
# Compressibility (1/GPa) = 0.02384808
#
# Stress axis : x y z
#
# Youngs Moduli (GPa) = 64.10310 91.56056 90.42585
#
# Poissons Ratio (x) = 0.07495 -0.07166
# Poissons Ratio (y) = 0.05247 0.61852
# Poissons Ratio (z) = -0.05080 0.62628
#
# Static dielectric constant tensor:
#      x y z
#    x 1.975550 0.000000 0.000000 
#    y 0.000000 1.612180 0.000000 
#    z 0.000000 0.000000 1.609460 
# 
# From -- ./inp_files/34428.got.cif
#   From: 2010.05.17/outbox.cif.g08.bks.cpg/sg47_18_cif.got.tgz:34428.got - 2010.06.03 20:15:42.
