data_PCOD9381815
_publ_section_title
;
Structure prediction by ZEFSAII (Michael W. Deem and Ramdas Pophale) SiO2 
 PCOD9381815
Probable space group: P M M M
;
_chemical_formula_sum "Si O2"
_cell_formula_units_Z 52
_cell_length_a 12.366864
_cell_length_b 8.813535
_cell_length_c 29.313644
_cell_angle_alpha 90.000000
_cell_angle_beta 90.000000
_cell_angle_gamma 90.000000
_cell_volume 3195.063748
_symmetry_space_group_name_H-M "P M M M"
_symmetry_group_IT_number 47
_symmetry_cell_setting 'orthorhombic'
loop_
_space_group_symop_operation_xyz
x,y,z
-x,-y,z
x,-y,-z
-x,y,-z
-x,-y,-z
x,y,-z
-x,y,z
x,-y,z
loop_
_atom_site_type_symbol
_atom_site_label
_atom_site_fract_x
_atom_site_fract_y
_atom_site_fract_z
Si Si1 0.875902 0.184457 0.000000
Si Si2 0.873669 0.316046 0.829998
Si Si3 0.868747 0.675315 0.271650
Si Si4 0.735631 0.816194 0.911953
Si Si5 0.124453 0.817440 0.365513
Si Si6 0.500000 0.328126 0.555172
Si Si7 0.500000 0.815206 0.946686
Si Si8 0.726288 0.182987 0.552300
O O1 0.809396 0.229678 0.955229
O O2 0.000000 0.238126 0.000000
O O3 0.878607 0.000000 0.000000
O O4 0.871886 0.500000 0.830487
O O5 0.839880 0.266484 0.778779
O O6 0.792874 0.251215 0.867506
O O7 0.000000 0.270960 0.838233
O O8 0.835673 0.500000 0.275260
O O9 0.831466 0.761740 0.316785
O O10 0.000000 0.679463 0.271737
O O11 0.611654 0.768840 0.922088
O O12 0.736910 0.000000 0.909173
O O13 0.189099 0.764105 0.409842
O O14 0.000000 0.767357 0.369146
O O15 0.126008 0.000000 0.365414
O O16 0.500000 0.500000 0.572507
O O17 0.500000 0.333940 0.500000
O O18 0.608814 0.240765 0.567151
O O19 0.500000 0.000000 0.947366
O O20 0.500000 0.767320 0.000000
O O21 0.748168 0.233693 0.500000
O O22 0.726527 0.000000 0.551590
#
# Coordination Sequence:
#
# PCOD9381815 Si02
#       8
#     4   8   8   8   8   4   4   8
#     4   9  16  25  40  66  95 117 142 179 220 262
#     4   9  18  32  48  68  95 122 148 184 234 283
#     4   8  15  29  47  64  86 120 155 185 224 276
#     4  10  18  29  48  70  92 120 155 191 223 263
#     4   9  17  28  44  69  97 122 151 187 224 267
#     4   9  17  29  45  64  85 112 153 200 233 260
#     4   9  16  30  49  68  91 124 161 190 220 261
#     4   9  17  29  45  65  92 125 155 185 229 282
#
# _framework density 16.275106000000001
#
# number of rings (size 3 to 8) (size 9 to 14) (size 15 to 20)
#    0.000    3.000    0.769    1.615    0.000    3.385 
#    0.000    3.846    0.000    2.769    0.000    7.538 
#    0.000    0.000    0.000    0.000    0.000    0.000 
#
# Total GULP energy -289469.756881 kJ/mol
# GULP energy per Si atom -5566.726094 kJ/mol
# Density = 1.623806 g / cm^3
# Si number density = 16.275106 Si / 1000 Ang^3
#
#
#
# Elastic Constant Matrix: (Units=GPa)
#
#
# Indices 1 2 3 4 5 6 
#
# 1 112.8905 18.3934 83.6714 0.0000 0.0000 0.0000
# 2 18.3934 4.8367 26.2375 0.0000 0.0000 0.0000
# 3 83.6714 26.2375 155.8793 0.0000 0.0000 0.0000
# 4 0.0000 0.0000 0.0000 2.0565 0.0000 0.0000
# 5 0.0000 0.0000 0.0000 0.0000 1.9364 0.0000
# 6 0.0000 0.0000 0.0000 0.0000 0.0000 12.8333
#
#
#
# Elastic Compliance Matrix: (Units=1/GPa)
#
#
# Indices 1 2 3 4 5 6 
#
# 1 0.042022 -0.430776 0.049952 0.000000 0.000000 0.000000
# 2 -0.430776 6.794505 -0.912420 0.000000 0.000000 0.000000
# 3 0.049952 -0.912420 0.133181 0.000000 0.000000 0.000000
# 4 0.000000 0.000000 0.000000 0.486259 0.000000 0.000000
# 5 0.000000 0.000000 0.000000 0.000000 0.516423 0.000000
# 6 0.000000 0.000000 0.000000 0.000000 0.000000 0.077922
#
#
# Mechanical properties :
#
#
# Convention : Reuss Voigt Hill
#
# Bulk Modulus (GPa) = 0.22814 58.91235 29.57025
# Shear Modulus (GPa) = 0.41330 13.05220 6.73275
#
# Velocity S-wave (km/s) = 0.50447 2.83499 2.03613
# Velocity P-wave (km/s) = 0.69268 6.85511 4.87198
#
# Compressibility (1/GPa) = 4.38321928
#
# Stress axis : x y z
#
# Youngs Moduli (GPa) = 23.79701 0.14718 7.50860
#
# Poissons Ratio (x) = 0.06340 -0.37507
# Poissons Ratio (y) = 10.25118 6.85100
# Poissons Ratio (z) = -1.18870 0.13429
#
# Static dielectric constant tensor:
#      x y z
#    x 1.536840 0.000000 0.000000 
#    y 0.000000 1.553810 0.000000 
#    z 0.000000 0.000000 1.553370 
# 
# From -- ./inp_files/34562.got.cif
#   From: 2010.05.17/outbox.cif.g08.bks.cpg/sg47_18_cif.got.tgz:34562.got - 2010.06.03 20:15:42.
