data_PCOD9381026
_publ_section_title
;
Structure prediction by ZEFSAII (Michael W. Deem and Ramdas Pophale) SiO2 
 PCOD9381026
Probable space group: I M A 2
;
_chemical_formula_sum "Si O2"
_cell_formula_units_Z 48
_cell_length_a 29.674328
_cell_length_b 4.844694
_cell_length_c 15.050739
_cell_angle_alpha 90.000000
_cell_angle_beta 90.000000
_cell_angle_gamma 90.000000
_cell_volume 2163.739975
_symmetry_space_group_name_H-M "I M A 2"
_symmetry_group_IT_number 46
_symmetry_cell_setting 'orthorhombic'
loop_
_space_group_symop_operation_xyz
x,y,z
-x,-y,z
1/2-x,y,z
1/2+x,-y,z
1/2+x,1/2+y,1/2+z
1/2-x,1/2-y,1/2+z
-x,1/2+y,1/2+z
x,1/2-y,1/2+z
loop_
_atom_site_type_symbol
_atom_site_label
_atom_site_fract_x
_atom_site_fract_y
_atom_site_fract_z
Si Si1 0.400767 0.156171 0.192740
Si Si2 0.250000 0.993250 0.346564
Si Si3 0.340981 0.850120 0.640794
Si Si4 0.607168 0.691633 0.895250
Si Si5 0.531664 0.766700 0.044468
Si Si6 0.250000 0.516986 0.231879
Si Si7 0.335135 0.699783 0.438373
O O1 0.377925 0.411100 0.141367
O O2 0.408952 0.236576 0.294698
O O3 0.445276 0.111441 0.134200
O O4 0.364994 0.903124 0.192096
O O5 0.250000 0.843812 0.251957
O O6 0.292740 0.855076 0.394770
O O7 0.250000 0.315092 0.318561
O O8 0.297030 0.002945 0.680569
O O9 0.330336 0.732728 0.543751
O O10 0.622694 0.377570 0.905700
O O11 0.650796 0.889468 0.912831
O O12 0.570452 0.731174 0.971201
O O13 0.500000 0.500000 0.060551
O O14 0.500000 0.000000 0.005768
#
# Coordination Sequence:
#
# PCOD9381026 Si02
#       7
#     8   4   8   8   8   4   8
#     4  12  25  45  72 101 137 184 231 286 357 428
#     4  12  25  40  63 102 141 182 239 285 330 399
#     4  12  23  44  68  99 140 189 234 284 345 414
#     4  12  25  45  72 101 137 184 231 286 357 428
#     4  12  26  46  72 101 138 171 228 300 362 434
#     4  12  25  40  63 102 141 182 239 285 330 399
#     4  12  23  44  68  99 140 189 234 284 345 414
#
# _framework density 22.183810000000001
#
# number of rings (size 3 to 8) (size 9 to 14) (size 15 to 20)
#    0.000    0.000    3.333    8.500    0.000    1.333 
#    0.000    5.000    0.000    0.000    0.000    0.000 
#    0.000    0.000    0.000    0.000    0.000    0.000 
#
# Total GULP energy -134058.094227 kJ/mol
# GULP energy per Si atom -5585.753926 kJ/mol
# Density = 2.213332 g / cm^3
# Si number density = 22.183810 Si / 1000 Ang^3
#
#
#
# Elastic Constant Matrix: (Units=GPa)
#
#
# Indices 1 2 3 4 5 6 
#
# 1 80.4609 2.7519 55.9857 0.0000 0.0000 0.0000
# 2 2.7519 85.6087 -2.3210 0.0000 0.0000 0.0000
# 3 55.9857 -2.3210 118.8324 0.0000 0.0000 0.0000
# 4 0.0000 0.0000 0.0000 18.2593 0.0000 0.0000
# 5 0.0000 0.0000 0.0000 0.0000 70.8699 0.0000
# 6 0.0000 0.0000 0.0000 0.0000 0.0000 102.1891
#
#
#
# Elastic Compliance Matrix: (Units=1/GPa)
#
#
# Indices 1 2 3 4 5 6 
#
# 1 0.018549 -0.000834 -0.008755 0.000000 0.000000 0.000000
# 2 -0.000834 0.011725 0.000622 0.000000 0.000000 0.000000
# 3 -0.008755 0.000622 0.012552 0.000000 0.000000 0.000000
# 4 0.000000 0.000000 0.000000 0.054767 0.000000 0.000000
# 5 0.000000 0.000000 0.000000 0.000000 0.014110 0.000000
# 6 0.000000 0.000000 0.000000 0.000000 0.000000 0.009786
#
#
# Mechanical properties :
#
#
# Convention : Reuss Voigt Hill
#
# Bulk Modulus (GPa) = 40.17423 44.19282 42.18353
# Shear Modulus (GPa) = 33.84778 53.49602 43.67190
#
# Velocity S-wave (km/s) = 3.91037 4.91602 4.44175
# Velocity P-wave (km/s) = 6.20782 7.22409 6.73515
#
# Compressibility (1/GPa) = 0.02489158
#
# Stress axis : x y z
#
# Youngs Moduli (GPa) = 53.91147 85.28997 79.66703
#
# Poissons Ratio (x) = 0.07110 0.69751
# Poissons Ratio (y) = 0.04494 -0.04953
# Poissons Ratio (z) = 0.47201 -0.05303
#
# Static dielectric constant tensor:
#      x y z
#    x 1.521400 0.000000 0.000000 
#    y 0.000000 1.806610 0.000000 
#    z 0.000000 0.000000 1.816230 
# 
# From -- ./inp_files/17562.got.cif
#   From: 2010.05.17/outbox.cif.g08.bks.cpg/sg46_9_cif.got.tgz:17562.got - 2010.06.03 19:58:25.
