data_PCOD9381698
_publ_section_title
;
Structure prediction by ZEFSAII (Michael W. Deem and Ramdas Pophale) SiO2 
 PCOD9381698
Probable space group: P M M M
;
_chemical_formula_sum "Si O2"
_cell_formula_units_Z 56
_cell_length_a 15.548344
_cell_length_b 23.480183
_cell_length_c 7.649545
_cell_angle_alpha 90.000000
_cell_angle_beta 90.000000
_cell_angle_gamma 90.000000
_cell_volume 2792.680302
_symmetry_space_group_name_H-M "P M M M"
_symmetry_group_IT_number 47
_symmetry_cell_setting 'orthorhombic'
loop_
_space_group_symop_operation_xyz
x,y,z
-x,-y,z
x,-y,-z
-x,y,-z
-x,-y,-z
x,y,-z
-x,y,z
x,-y,z
loop_
_atom_site_type_symbol
_atom_site_label
_atom_site_fract_x
_atom_site_fract_y
_atom_site_fract_z
Si Si1 0.275631 0.334712 0.708740
Si Si2 0.596873 0.762808 0.711768
Si Si3 0.774230 0.938156 0.790039
Si Si4 0.405075 0.895004 0.793248
Si Si5 0.095989 0.162739 0.709515
Si Si6 0.097074 0.292871 0.713656
Si Si7 0.595961 0.565063 0.210387
O O1 0.271002 0.327294 0.500000
O O2 0.332735 0.281816 0.776465
O O3 0.177517 0.330822 0.773300
O O4 0.329161 0.391812 0.740122
O O5 0.599467 0.763775 0.500000
O O6 0.500000 0.745380 0.764248
O O7 0.610332 0.827329 0.772978
O O8 0.678097 0.926611 0.720497
O O9 0.835502 0.885264 0.751917
O O10 0.806106 0.000000 0.728217
O O11 0.768409 0.940377 0.000000
O O12 0.500000 0.907699 0.719073
O O13 0.409028 0.907696 0.000000
O O14 0.092479 0.165793 0.500000
O O15 0.115776 0.227303 0.767337
O O16 0.000000 0.147949 0.773936
O O17 0.094828 0.294163 0.500000
O O18 0.000000 0.307612 0.771696
O O19 0.500000 0.583253 0.271661
O O20 0.610186 0.500000 0.270353
O O21 0.593155 0.563923 0.000000
#
# Coordination Sequence:
#
# PCOD9381698 Si02
#       7
#     8   8   8   8   8   8   8
#     4  10  18  28  48  75  98 123 157 195 233 273
#     4   9  17  28  43  67  97 122 146 185 239 289
#     4  10  21  34  47  66  92 121 153 192 239 283
#     4   9  18  32  48  65  87 119 159 196 228 272
#     4   9  18  34  55  74  92 119 154 189 229 281
#     4   8  15  29  49  73  99 124 151 188 235 282
#     4   9  19  35  51  68  96 134 168 195 228 270
#
# _framework density 20.052420000000001
#
# number of rings (size 3 to 8) (size 9 to 14) (size 15 to 20)
#    0.000    2.857    0.000    2.571    0.000    4.571 
#    0.000    5.714    0.000    1.714    0.000    6.000 
#    0.000    0.000    0.000    0.000    0.000    0.000 
#
# Total GULP energy -312331.915536 kJ/mol
# GULP energy per Si atom -5577.355635 kJ/mol
# Density = 2.000678 g / cm^3
# Si number density = 20.052420 Si / 1000 Ang^3
#
#
#
# Elastic Constant Matrix: (Units=GPa)
#
#
# Indices 1 2 3 4 5 6 
#
# 1 166.6914 82.0882 7.7603 0.0000 0.0000 0.0000
# 2 82.0882 64.7469 -2.3319 0.0000 0.0000 0.0000
# 3 7.7603 -2.3319 34.1192 0.0000 0.0000 0.0000
# 4 0.0000 0.0000 0.0000 18.1386 0.0000 0.0000
# 5 0.0000 0.0000 0.0000 0.0000 14.3134 0.0000
# 6 0.0000 0.0000 0.0000 0.0000 0.0000 4.1555
#
#
#
# Elastic Compliance Matrix: (Units=1/GPa)
#
#
# Indices 1 2 3 4 5 6 
#
# 1 0.016880 -0.021592 -0.005315 0.000000 0.000000 0.000000
# 2 -0.021592 0.043103 0.007857 0.000000 0.000000 0.000000
# 3 -0.005315 0.007857 0.031055 0.000000 0.000000 0.000000
# 4 0.000000 0.000000 0.000000 0.055131 0.000000 0.000000
# 5 0.000000 0.000000 0.000000 0.000000 0.069864 0.000000
# 6 0.000000 0.000000 0.000000 0.000000 0.000000 0.240643
#
#
# Mechanical properties :
#
#
# Convention : Reuss Voigt Hill
#
# Bulk Modulus (GPa) = 18.89027 48.95451 33.92239
# Shear Modulus (GPa) = 9.75759 19.19091 14.47425
#
# Velocity S-wave (km/s) = 2.20830 3.09696 2.68959
# Velocity P-wave (km/s) = 3.99287 6.10364 5.15740
#
# Compressibility (1/GPa) = 0.05293730
#
# Stress axis : x y z
#
# Youngs Moduli (GPa) = 59.24289 23.20036 32.20104
#
# Poissons Ratio (x) = 0.50094 0.17115
# Poissons Ratio (y) = 1.27917 -0.25300
# Poissons Ratio (z) = 0.31487 -0.18228
#
# Static dielectric constant tensor:
#      x y z
#    x 1.739570 0.000000 0.000000 
#    y 0.000000 1.683400 0.000000 
#    z 0.000000 0.000000 1.760000 
# 
# From -- ./inp_files/7289.got.cif
#   From: 2010.05.17/outbox.cif.g08.bks.cpg/sg47_4_cif.got.tgz:7289.got - 2010.06.03 20:15:42.
