data_PCOD9381606
_publ_section_title
;
Structure prediction by ZEFSAII (Michael W. Deem and Ramdas Pophale) SiO2 
 PCOD9381606
Probable space group: P M M M
;
_chemical_formula_sum "Si O2"
_cell_formula_units_Z 64
_cell_length_a 21.226113
_cell_length_b 20.605667
_cell_length_c 7.720641
_cell_angle_alpha 90.000000
_cell_angle_beta 90.000000
_cell_angle_gamma 90.000000
_cell_volume 3376.840188
_symmetry_space_group_name_H-M "P M M M"
_symmetry_group_IT_number 47
_symmetry_cell_setting 'orthorhombic'
loop_
_space_group_symop_operation_xyz
x,y,z
-x,-y,z
x,-y,-z
-x,y,-z
-x,-y,-z
x,y,-z
-x,y,z
x,-y,z
loop_
_atom_site_type_symbol
_atom_site_label
_atom_site_fract_x
_atom_site_fract_y
_atom_site_fract_z
Si Si1 0.188372 0.657115 0.293614
Si Si2 0.568257 0.351015 0.208977
Si Si3 0.403707 0.929604 0.200598
Si Si4 0.071571 0.425613 0.288510
Si Si5 0.694469 0.426806 0.707093
Si Si6 0.389149 0.209980 0.787259
Si Si7 0.258292 0.930168 0.705659
Si Si8 0.243628 0.791394 0.204705
O O1 0.187268 0.647340 0.500000
O O2 0.124210 0.624756 0.226561
O O3 0.249384 0.618523 0.223639
O O4 0.200011 0.733073 0.265689
O O5 0.500000 0.375085 0.268840
O O6 0.627305 0.393899 0.262087
O O7 0.577906 0.276393 0.265662
O O8 0.568168 0.350153 0.000000
O O9 0.419284 0.858324 0.273287
O O10 0.327171 0.928160 0.206251
O O11 0.422292 0.000000 0.277632
O O12 0.423828 0.930589 0.000000
O O13 0.070803 0.424320 0.500000
O O14 0.087665 0.500000 0.239907
O O15 0.000000 0.411851 0.231613
O O16 0.702710 0.430501 0.500000
O O17 0.697297 0.500000 0.776323
O O18 0.315936 0.214907 0.728558
O O19 0.389667 0.207324 0.000000
O O20 0.269624 0.929535 0.500000
O O21 0.222700 0.864376 0.751406
O O22 0.229082 0.000000 0.751550
O O23 0.248044 0.785732 0.000000
#
# Coordination Sequence:
#
# PCOD9381606 Si02
#       8
#     8   8   8   8   8   8   8   8
#     4  10  18  29  48  73  98 123 154 192 231 273
#     4  10  20  34  50  65  84 114 154 197 238 283
#     4   8  13  22  38  59  83 113 146 179 220 272
#     4   8  14  26  46  72 100 129 160 192 227 272
#     4  10  21  35  50  69  92 116 144 187 241 288
#     4   8  14  26  42  60  82 110 145 185 226 269
#     4   9  16  25  38  60  91 122 153 191 232 273
#     4  10  18  28  44  64  91 125 157 191 232 277
#
# _framework density 18.952629999999999
#
# number of rings (size 3 to 8) (size 9 to 14) (size 15 to 20)
#    0.000    2.875    1.250    2.250    0.000    3.000 
#    0.000    1.250    0.000    1.875    0.000    3.500 
#    0.000    0.500    0.000   22.625    0.000   17.750 
#
# Total GULP energy -356699.261379 kJ/mol
# GULP energy per Si atom -5573.425959 kJ/mol
# Density = 1.890949 g / cm^3
# Si number density = 18.952630 Si / 1000 Ang^3
#
#
#
# Elastic Constant Matrix: (Units=GPa)
#
#
# Indices 1 2 3 4 5 6 
#
# 1 94.8380 72.1466 7.3863 0.0000 0.0000 0.0000
# 2 72.1466 155.7866 0.3134 0.0000 0.0000 0.0000
# 3 7.3863 0.3134 30.2580 0.0000 0.0000 0.0000
# 4 0.0000 0.0000 0.0000 9.5491 0.0000 0.0000
# 5 0.0000 0.0000 0.0000 0.0000 -9.4175 0.0000
# 6 0.0000 0.0000 0.0000 0.0000 0.0000 15.6289
#
#
#
# Elastic Compliance Matrix: (Units=1/GPa)
#
#
# Indices 1 2 3 4 5 6 
#
# 1 0.016752 -0.007750 -0.004009 0.000000 0.000000 0.000000
# 2 -0.007750 0.010005 0.001788 0.000000 0.000000 0.000000
# 3 -0.004009 0.001788 0.034009 0.000000 0.000000 0.000000
# 4 0.000000 0.000000 0.000000 0.104722 0.000000 0.000000
# 5 0.000000 0.000000 0.000000 0.000000 -0.106186 0.000000
# 6 0.000000 0.000000 0.000000 0.000000 0.000000 0.063984
#
#
# Mechanical properties :
#
#
# Convention : Reuss Voigt Hill
#
# Bulk Modulus (GPa) = 24.49532 48.95281 36.72407
# Shear Modulus (GPa) = 31.88041 16.55454 24.21747
#
# Velocity S-wave (km/s) = 4.10580 2.95866 3.57850
# Velocity P-wave (km/s) = 5.95226 6.12835 6.04094
#
# Compressibility (1/GPa) = 0.04082413
#
# Stress axis : x y z
#
# Youngs Moduli (GPa) = 59.69303 99.95367 29.40379
#
# Poissons Ratio (x) = 0.77466 0.11788
# Poissons Ratio (y) = 0.46263 -0.05258
# Poissons Ratio (z) = 0.23932 -0.17874
#
# Static dielectric constant tensor:
#      x y z
#    x 1.641650 0.000000 0.000000 
#    y 0.000000 1.719320 0.000000 
#    z 0.000000 0.000000 1.726770 
# 
# From -- ./inp_files/10023.got.cif
#   From: 2010.05.17/outbox.cif.g08.bks.cpg/sg47_6_cif.got.tgz:10023.got - 2010.06.03 20:15:42.
