data_PCOD9381840
_publ_section_title
;
Structure prediction by ZEFSAII (Michael W. Deem and Ramdas Pophale) SiO2 
 PCOD9381840
Probable space group: P M M M
;
_chemical_formula_sum "Si O2"
_cell_formula_units_Z 52
_cell_length_a 10.354880
_cell_length_b 15.216098
_cell_length_c 19.323649
_cell_angle_alpha 90.000000
_cell_angle_beta 90.000000
_cell_angle_gamma 90.000000
_cell_volume 3044.650926
_symmetry_space_group_name_H-M "P M M M"
_symmetry_group_IT_number 47
_symmetry_cell_setting 'orthorhombic'
loop_
_space_group_symop_operation_xyz
x,y,z
-x,-y,z
x,-y,-z
-x,y,-z
-x,-y,-z
x,y,-z
-x,y,z
x,-y,z
loop_
_atom_site_type_symbol
_atom_site_label
_atom_site_fract_x
_atom_site_fract_y
_atom_site_fract_z
Si Si1 0.847363 0.146301 0.311147
Si Si2 0.843543 0.000000 0.421133
Si Si3 0.648227 0.257595 0.922556
Si Si4 0.000000 0.894236 0.921904
Si Si5 0.346285 0.397076 0.187210
Si Si6 0.847265 0.353302 0.312161
Si Si7 0.155497 0.500000 0.577589
Si Si8 0.256902 0.103369 0.837947
O O1 0.808201 0.085161 0.375458
O O2 0.836409 0.249474 0.326462
O O3 0.765919 0.122909 0.242747
O O4 0.000000 0.127242 0.296199
O O5 0.794739 0.000000 0.500000
O O6 0.000000 0.000000 0.425157
O O7 0.500000 0.283581 0.931261
O O8 0.703532 0.334849 0.874803
O O9 0.648806 0.168604 0.877589
O O10 0.703750 0.246121 0.000000
O O11 0.124437 0.872132 0.877439
O O12 0.000000 0.000000 0.927209
O O13 0.000000 0.859059 0.000000
O O14 0.500000 0.377931 0.201939
O O15 0.338941 0.500000 0.169601
O O16 0.252201 0.377906 0.251577
O O17 0.812588 0.413876 0.377653
O O18 0.000000 0.370381 0.294615
O O19 0.209149 0.500000 0.500000
O O20 0.000000 0.500000 0.572256
O O21 0.284504 0.000000 0.847232
#
# Coordination Sequence:
#
# PCOD9381840 Si02
#       8
#     8   4   8   4   8   8   4   8
#     4  10  18  29  48  74 103 137 176 213 255 305
#     4   9  18  30  46  72 109 144 173 213 261 306
#     4  10  22  38  53  73 102 133 170 218 265 307
#     4   9  18  28  42  68  97 131 168 205 250 302
#     4  10  20  35  57  80 103 134 176 220 261 313
#     4  10  19  32  54  81 107 139 175 215 263 314
#     4   9  18  32  51  79 112 139 166 208 265 321
#     4  11  19  30  50  72 101 135 171 209 253 307
#
# _framework density 17.079134
#
# number of rings (size 3 to 8) (size 9 to 14) (size 15 to 20)
#    0.000    2.077    3.846    0.462    0.000    2.154 
#    0.000    5.385    0.000    0.923    0.000    1.077 
#    0.000    3.077    0.000    0.000    0.000    0.000 
#
# Total GULP energy -289538.315097 kJ/mol
# GULP energy per Si atom -5568.044521 kJ/mol
# Density = 1.704026 g / cm^3
# Si number density = 17.079134 Si / 1000 Ang^3
#
#
#
# Elastic Constant Matrix: (Units=GPa)
#
#
# Indices 1 2 3 4 5 6 
#
# 1 34.3226 18.7697 29.1221 0.0000 0.0000 0.0000
# 2 18.7697 118.5435 71.6002 0.0000 0.0000 0.0000
# 3 29.1221 71.6002 172.9780 0.0000 0.0000 0.0000
# 4 0.0000 0.0000 0.0000 21.8561 0.0000 0.0000
# 5 0.0000 0.0000 0.0000 0.0000 17.9058 0.0000
# 6 0.0000 0.0000 0.0000 0.0000 0.0000 19.0360
#
#
#
# Elastic Compliance Matrix: (Units=1/GPa)
#
#
# Indices 1 2 3 4 5 6 
#
# 1 0.034587 -0.002612 -0.004742 0.000000 0.000000 0.000000
# 2 -0.002612 0.011445 -0.004298 0.000000 0.000000 0.000000
# 3 -0.004742 -0.004298 0.008358 0.000000 0.000000 0.000000
# 4 0.000000 0.000000 0.000000 0.045754 0.000000 0.000000
# 5 0.000000 0.000000 0.000000 0.000000 0.055848 0.000000
# 6 0.000000 0.000000 0.000000 0.000000 0.000000 0.052532
#
#
# Mechanical properties :
#
#
# Convention : Reuss Voigt Hill
#
# Bulk Modulus (GPa) = 32.16765 62.75868 47.46316
# Shear Modulus (GPa) = 20.64494 25.51638 23.08066
#
# Velocity S-wave (km/s) = 3.48053 3.86943 3.68012
# Velocity P-wave (km/s) = 5.91840 7.53584 6.77556
#
# Compressibility (1/GPa) = 0.03108714
#
# Stress axis : x y z
#
# Youngs Moduli (GPa) = 28.91250 87.37339 119.64194
#
# Poissons Ratio (x) = 0.22826 0.56730
# Poissons Ratio (y) = 0.07553 0.51418
# Poissons Ratio (z) = 0.13709 0.37550
#
# Static dielectric constant tensor:
#      x y z
#    x 1.636030 0.000000 0.000000 
#    y 0.000000 1.576210 0.000000 
#    z 0.000000 0.000000 1.596530 
# 
# From -- ./inp_files/27564.got.cif
#   From: 2010.05.17/outbox.cif.g08.bks.cpg/sg47_14_cif.got.tgz:27564.got - 2010.06.03 20:15:42.
