data_PCOD9381213
_publ_section_title
;
Structure prediction by ZEFSAII (Michael W. Deem and Ramdas Pophale) SiO2 
 PCOD9381213
Probable space group: P M M M
;
_chemical_formula_sum "Si O2"
_cell_formula_units_Z 64
_cell_length_a 22.281977
_cell_length_b 7.816081
_cell_length_c 19.437005
_cell_angle_alpha 90.000000
_cell_angle_beta 90.000000
_cell_angle_gamma 90.000000
_cell_volume 3385.104806
_symmetry_space_group_name_H-M "P M M M"
_symmetry_group_IT_number 47
_symmetry_cell_setting 'orthorhombic'
loop_
_space_group_symop_operation_xyz
x,y,z
-x,-y,z
x,-y,-z
-x,y,-z
-x,-y,-z
x,y,-z
-x,y,z
x,-y,z
loop_
_atom_site_type_symbol
_atom_site_label
_atom_site_fract_x
_atom_site_fract_y
_atom_site_fract_z
Si Si1 0.934602 0.207741 0.126227
Si Si2 0.569720 0.290867 0.577569
Si Si3 0.764696 0.293362 0.221199
Si Si4 0.668359 0.305124 0.320078
Si Si5 0.093649 0.299995 0.425241
Si Si6 0.806582 0.297061 0.925655
Si Si7 0.232988 0.801035 0.421750
Si Si8 0.105710 0.797577 0.724714
O O1 0.877761 0.273037 0.084592
O O2 0.926182 0.266434 0.205780
O O3 0.000000 0.260965 0.100913
O O4 0.932367 0.000000 0.125110
O O5 0.587159 0.235618 0.500000
O O6 0.500000 0.246277 0.587992
O O7 0.573572 0.500000 0.577662
O O8 0.612853 0.226073 0.638243
O O9 0.760210 0.500000 0.219123
O O10 0.703277 0.226221 0.255100
O O11 0.777207 0.226883 0.144319
O O12 0.824411 0.256922 0.266503
O O13 0.651246 0.500000 0.302089
O O14 0.722264 0.304841 0.375390
O O15 0.073316 0.225258 0.500000
O O16 0.080966 0.500000 0.428381
O O17 0.165241 0.266763 0.422968
O O18 0.075651 0.244103 0.348533
O O19 0.794307 0.500000 0.926303
O O20 0.788450 0.225443 0.000000
O O21 0.254953 0.795526 0.500000
O O22 0.231824 0.000000 0.399235
O O23 0.105715 0.000000 0.728882
#
# Coordination Sequence:
#
# PCOD9381213 Si02
#       8
#     8   8   8   8   8   8   8   8
#     4   9  19  34  50  69  91 115 144 176 211 254
#     4   8  14  24  37  55  81 113 149 187 225 262
#     4   9  17  28  42  62  86 111 140 174 214 261
#     4  10  17  25  41  61  81 108 144 185 222 258
#     4  10  19  29  41  58  82 111 141 174 214 258
#     4   9  18  32  48  66  91 119 143 171 210 257
#     4  10  19  27  36  55  83 111 139 173 213 256
#     4  10  18  29  46  64  85 112 140 175 218 260
#
# _framework density 18.906355999999999
#
# number of rings (size 3 to 8) (size 9 to 14) (size 15 to 20)
#    0.000    2.625    1.250    1.875    0.000    3.250 
#    0.000    1.250    0.000    0.750    0.000    4.375 
#    0.000    0.500    0.000    7.000    0.000    0.000 
#
# Total GULP energy -356602.841018 kJ/mol
# GULP energy per Si atom -5571.919391 kJ/mol
# Density = 1.886332 g / cm^3
# Si number density = 18.906356 Si / 1000 Ang^3
#
#
#
# Elastic Constant Matrix: (Units=GPa)
#
#
# Indices 1 2 3 4 5 6 
#
# 1 76.2295 -1.9786 38.2399 0.0000 0.0000 0.0000
# 2 -1.9786 28.0238 4.7272 0.0000 0.0000 0.0000
# 3 38.2399 4.7272 133.5753 0.0000 0.0000 0.0000
# 4 0.0000 0.0000 0.0000 8.0943 0.0000 0.0000
# 5 0.0000 0.0000 0.0000 0.0000 2.8328 0.0000
# 6 0.0000 0.0000 0.0000 0.0000 0.0000 9.1439
#
#
#
# Elastic Compliance Matrix: (Units=1/GPa)
#
#
# Indices 1 2 3 4 5 6 
#
# 1 0.015412 0.001843 -0.004477 0.000000 0.000000 0.000000
# 2 0.001843 0.036119 -0.001806 0.000000 0.000000 0.000000
# 3 -0.004477 -0.001806 0.008832 0.000000 0.000000 0.000000
# 4 0.000000 0.000000 0.000000 0.123544 0.000000 0.000000
# 5 0.000000 0.000000 0.000000 0.000000 0.353006 0.000000
# 6 0.000000 0.000000 0.000000 0.000000 0.000000 0.109362
#
#
# Mechanical properties :
#
#
# Convention : Reuss Voigt Hill
#
# Bulk Modulus (GPa) = 19.42385 35.53396 27.47891
# Shear Modulus (GPa) = 7.43697 17.13688 12.28692
#
# Velocity S-wave (km/s) = 1.98548 3.01393 2.55205
# Velocity P-wave (km/s) = 3.94363 5.56302 4.82179
#
# Compressibility (1/GPa) = 0.05148310
#
# Stress axis : x y z
#
# Youngs Moduli (GPa) = 64.88365 27.68649 113.22294
#
# Poissons Ratio (x) = -0.05104 0.50695
# Poissons Ratio (y) = -0.11961 0.20448
# Poissons Ratio (z) = 0.29051 0.05000
#
# Static dielectric constant tensor:
#      x y z
#    x 1.652480 0.000000 0.000000 
#    y 0.000000 1.681260 0.000000 
#    z 0.000000 0.000000 1.726130 
# 
# From -- ./inp_files/31578.got.cif
#   From: 2010.05.17/outbox.cif.g08.bks.cpg/sg47_16_cif.got.tgz:31578.got - 2010.06.03 20:15:42.
