data_PCOD9381619
_publ_section_title
;
Structure prediction by ZEFSAII (Michael W. Deem and Ramdas Pophale) SiO2 
 PCOD9381619
Probable space group: P M M M
;
_chemical_formula_sum "Si O2"
_cell_formula_units_Z 64
_cell_length_a 32.073824
_cell_length_b 7.676923
_cell_length_c 15.009974
_cell_angle_alpha 90.000000
_cell_angle_beta 90.000000
_cell_angle_gamma 90.000000
_cell_volume 3695.880038
_symmetry_space_group_name_H-M "P M M M"
_symmetry_group_IT_number 47
_symmetry_cell_setting 'orthorhombic'
loop_
_space_group_symop_operation_xyz
x,y,z
-x,-y,z
x,-y,-z
-x,y,-z
-x,-y,-z
x,y,-z
-x,y,z
x,-y,z
loop_
_atom_site_type_symbol
_atom_site_label
_atom_site_fract_x
_atom_site_fract_y
_atom_site_fract_z
Si Si1 0.704094 0.210890 0.398029
Si Si2 0.240255 0.793159 0.098119
Si Si3 0.955123 0.790327 0.396141
Si Si4 0.863871 0.294789 0.601652
Si Si5 0.547525 0.287166 0.398191
Si Si6 0.623361 0.707852 0.280280
Si Si7 0.337731 0.711241 0.099387
Si Si8 0.783513 0.206069 0.713086
O O1 0.702787 0.273002 0.500000
O O2 0.663145 0.261759 0.343431
O O3 0.745405 0.275707 0.346839
O O4 0.705645 0.000000 0.400553
O O5 0.289857 0.768883 0.112031
O O6 0.218092 0.721310 0.186443
O O7 0.231888 0.000000 0.093528
O O8 0.230048 0.719213 0.000000
O O9 0.954749 0.733510 0.500000
O O10 0.910325 0.735070 0.360047
O O11 0.000000 0.731301 0.358024
O O12 0.955442 0.000000 0.395245
O O13 0.861984 0.221308 0.500000
O O14 0.857696 0.500000 0.594984
O O15 0.827057 0.225995 0.662938
O O16 0.557541 0.234681 0.500000
O O17 0.500000 0.234133 0.378266
O O18 0.548115 0.500000 0.397516
O O19 0.582131 0.223524 0.329139
O O20 0.617810 0.500000 0.271519
O O21 0.634761 0.775464 0.181964
O O22 0.337693 0.500000 0.100923
O O23 0.350928 0.766750 0.000000
O O24 0.775408 0.000000 0.721641
#
# Coordination Sequence:
#
# PCOD9381619 Si02
#       8
#     8   8   8   8   8   8   8   8
#     4  10  20  31  42  60  87 116 143 173 211 253
#     4   9  17  30  48  66  82 105 142 183 216 251
#     4   8  14  26  44  63  83 112 151 190 226 264
#     4  10  20  30  41  61  89 121 155 188 219 252
#     4   8  14  25  41  61  83 106 136 175 214 250
#     4  10  18  28  45  65  83 107 142 178 209 250
#     4   9  17  28  42  62  87 110 132 167 217 262
#     4  10  19  31  45  60  84 117 147 175 212 260
#
# _framework density 17.316579000000001
#
# number of rings (size 3 to 8) (size 9 to 14) (size 15 to 20)
#    0.000    2.750    1.250    1.875    0.000    3.250 
#    0.000    1.250    0.000    0.750    0.000    4.375 
#    0.000    0.500    0.000   10.000    0.000    6.500 
#
# Total GULP energy -356631.925280 kJ/mol
# GULP energy per Si atom -5572.373833 kJ/mol
# Density = 1.727717 g / cm^3
# Si number density = 17.316579 Si / 1000 Ang^3
#
#
#
# Elastic Constant Matrix: (Units=GPa)
#
#
# Indices 1 2 3 4 5 6 
#
# 1 111.5991 -10.4098 77.0511 0.0000 0.0000 0.0000
# 2 -10.4098 26.1890 2.6650 0.0000 0.0000 0.0000
# 3 77.0511 2.6650 142.0689 0.0000 0.0000 0.0000
# 4 0.0000 0.0000 0.0000 8.8766 0.0000 0.0000
# 5 0.0000 0.0000 0.0000 0.0000 6.8057 0.0000
# 6 0.0000 0.0000 0.0000 0.0000 0.0000 15.6070
#
#
#
# Elastic Compliance Matrix: (Units=1/GPa)
#
#
# Indices 1 2 3 4 5 6 
#
# 1 0.015520 0.007039 -0.008549 0.000000 0.000000 0.000000
# 2 0.007039 0.041449 -0.004595 0.000000 0.000000 0.000000
# 3 -0.008549 -0.004595 0.011762 0.000000 0.000000 0.000000
# 4 0.000000 0.000000 0.000000 0.112656 0.000000 0.000000
# 5 0.000000 0.000000 0.000000 0.000000 0.146936 0.000000
# 6 0.000000 0.000000 0.000000 0.000000 0.000000 0.064074
#
#
# Mechanical properties :
#
#
# Convention : Reuss Voigt Hill
#
# Bulk Modulus (GPa) = 17.69280 46.49663 32.09471
# Shear Modulus (GPa) = 11.80783 20.29457 16.05120
#
# Velocity S-wave (km/s) = 2.61412 3.42712 3.04785
# Velocity P-wave (km/s) = 4.39897 6.52453 5.56419
#
# Compressibility (1/GPa) = 0.05652017
#
# Stress axis : x y z
#
# Youngs Moduli (GPa) = 64.43362 24.12579 85.02160
#
# Poissons Ratio (x) = -0.16982 0.72687
# Poissons Ratio (y) = -0.45354 0.39068
# Poissons Ratio (z) = 0.55086 0.11086
#
# Static dielectric constant tensor:
#      x y z
#    x 1.579330 0.000000 0.000000 
#    y 0.000000 1.649900 0.000000 
#    z 0.000000 0.000000 1.613730 
# 
# From -- ./inp_files/8239.got.cif
#   From: 2010.05.17/outbox.cif.g08.bks.cpg/sg47_5_cif.got.tgz:8239.got - 2010.06.03 20:15:42.
