data_PCOD9381495
_publ_section_title
;
Structure prediction by ZEFSAII (Michael W. Deem and Ramdas Pophale) SiO2 
 PCOD9381495
Probable space group: P M M M
;
_chemical_formula_sum "Si O2"
_cell_formula_units_Z 52
_cell_length_a 18.522612
_cell_length_b 18.801872
_cell_length_c 8.274294
_cell_angle_alpha 90.000000
_cell_angle_beta 90.000000
_cell_angle_gamma 90.000000
_cell_volume 2881.603808
_symmetry_space_group_name_H-M "P M M M"
_symmetry_group_IT_number 47
_symmetry_cell_setting 'orthorhombic'
loop_
_space_group_symop_operation_xyz
x,y,z
-x,-y,z
x,-y,-z
-x,y,-z
-x,-y,-z
x,y,-z
-x,y,z
x,-y,z
loop_
_atom_site_type_symbol
_atom_site_label
_atom_site_fract_x
_atom_site_fract_y
_atom_site_fract_z
Si Si1 0.420376 0.733629 0.802451
Si Si2 0.000000 0.081511 0.806207
Si Si3 0.374617 0.576053 0.804657
Si Si4 0.080595 0.346094 0.808379
Si Si5 0.730113 0.783627 0.812229
Si Si6 0.770369 0.369441 0.689269
Si Si7 0.119493 0.811145 0.689266
O O1 0.500000 0.757569 0.752726
O O2 0.409346 0.650963 0.751082
O O3 0.352183 0.781180 0.748630
O O4 0.417683 0.733618 0.000000
O O5 0.930271 0.124606 0.746194
O O6 0.000000 0.000000 0.750027
O O7 0.000000 0.082306 0.000000
O O8 0.407813 0.500000 0.755783
O O9 0.292572 0.577939 0.741006
O O10 0.374708 0.578033 0.000000
O O11 0.146853 0.387317 0.726219
O O12 0.093934 0.261857 0.775297
O O13 0.000000 0.364063 0.750709
O O14 0.084030 0.357684 0.000000
O O15 0.752840 0.700874 0.793926
O O16 0.795681 0.823215 0.725019
O O17 0.730142 0.804021 0.000000
O O18 0.763526 0.352077 0.500000
O O19 0.109612 0.799126 0.500000
#
# Coordination Sequence:
#
# PCOD9381495 Si02
#       7
#     8   4   8   8   8   8   8
#     4   8  14  25  43  69  95 117 148 193 239 278
#     4  11  23  37  51  69  99 137 170 197 226 261
#     4   9  17  29  44  60  81 113 150 185 226 282
#     4  10  18  28  45  65  87 112 143 184 229 276
#     4   9  16  28  46  65  90 122 155 191 232 278
#     4  10  18  27  41  60  83 108 141 186 231 275
#     4  11  20  30  47  69  96 126 160 196 227 266
#
# _framework density 18.045507000000001
#
# number of rings (size 3 to 8) (size 9 to 14) (size 15 to 20)
#    0.000    2.385    0.769    6.692    0.000    2.154 
#    0.000    1.538    0.000   12.000    0.000    7.538 
#    0.000    0.615    0.000    7.077    0.000    2.000 
#
# Total GULP energy -289691.388894 kJ/mol
# GULP energy per Si atom -5570.988248 kJ/mol
# Density = 1.800444 g / cm^3
# Si number density = 18.045507 Si / 1000 Ang^3
#
#
#
# Elastic Constant Matrix: (Units=GPa)
#
#
# Indices 1 2 3 4 5 6 
#
# 1 143.5243 18.6581 0.2334 0.0000 0.0000 0.0000
# 2 18.6581 33.0848 -0.4541 0.0000 0.0000 0.0000
# 3 0.2334 -0.4541 22.1780 0.0000 0.0000 0.0000
# 4 0.0000 0.0000 0.0000 159.9556 0.0000 0.0000
# 5 0.0000 0.0000 0.0000 0.0000 -22.9352 0.0000
# 6 0.0000 0.0000 0.0000 0.0000 0.0000 7.6473
#
#
#
# Elastic Compliance Matrix: (Units=1/GPa)
#
#
# Indices 1 2 3 4 5 6 
#
# 1 0.007519 -0.004243 -0.000166 0.000000 0.000000 0.000000
# 2 -0.004243 0.032628 0.000713 0.000000 0.000000 0.000000
# 3 -0.000166 0.000713 0.045106 0.000000 0.000000 0.000000
# 4 0.000000 0.000000 0.000000 0.006252 0.000000 0.000000
# 5 0.000000 0.000000 0.000000 0.000000 -0.043601 0.000000
# 6 0.000000 0.000000 0.000000 0.000000 0.000000 0.130765
#
#
# Mechanical properties :
#
#
# Convention : Reuss Voigt Hill
#
# Bulk Modulus (GPa) = 12.84336 26.18463 19.51399
# Shear Modulus (GPa) = 23.58328 40.95686 32.27007
#
# Velocity S-wave (km/s) = 3.61900 4.76925 4.23337
# Velocity P-wave (km/s) = 4.95939 6.69846 5.89343
#
# Compressibility (1/GPa) = 0.07786124
#
# Stress axis : x y z
#
# Youngs Moduli (GPa) = 132.99134 30.64870 22.16995
#
# Poissons Ratio (x) = 0.13003 0.00368
# Poissons Ratio (y) = 0.56425 -0.01580
# Poissons Ratio (z) = 0.02208 -0.02185
#
# Static dielectric constant tensor:
#      x y z
#    x 1.696230 0.000000 0.000000 
#    y 0.000000 1.592770 0.000000 
#    z 0.000000 0.000000 1.606980 
# 
# From -- ./inp_files/9570.got.cif
#   From: 2010.05.17/outbox.cif.g08.bks.cpg/sg47_5_cif.got.tgz:9570.got - 2010.06.03 20:15:42.
