data_PCOD9381338
_publ_section_title
;
Structure prediction by ZEFSAII (Michael W. Deem and Ramdas Pophale) SiO2 
 PCOD9381338
Probable space group: P M M M
;
_chemical_formula_sum "Si O2"
_cell_formula_units_Z 64
_cell_length_a 20.443933
_cell_length_b 20.854785
_cell_length_c 8.293248
_cell_angle_alpha 90.000000
_cell_angle_beta 90.000000
_cell_angle_gamma 90.000000
_cell_volume 3535.858025
_symmetry_space_group_name_H-M "P M M M"
_symmetry_group_IT_number 47
_symmetry_cell_setting 'orthorhombic'
loop_
_space_group_symop_operation_xyz
x,y,z
-x,-y,z
x,-y,-z
-x,y,-z
-x,-y,-z
x,y,-z
-x,y,z
x,-y,z
loop_
_atom_site_type_symbol
_atom_site_label
_atom_site_fract_x
_atom_site_fract_y
_atom_site_fract_z
Si Si1 0.073261 0.073096 0.693632
Si Si2 0.739776 0.600607 0.310759
Si Si3 0.398776 0.569971 0.188865
Si Si4 0.111875 0.569123 0.304233
Si Si5 0.288237 0.259293 0.807760
Si Si6 0.926492 0.709540 0.305468
Si Si7 0.428255 0.289565 0.308834
Si Si8 0.830639 0.818582 0.189476
O O1 0.070317 0.071644 0.500000
O O2 0.130248 0.121984 0.737728
O O3 0.000000 0.092892 0.750664
O O4 0.084861 0.000000 0.749978
O O5 0.728377 0.587174 0.500000
O O6 0.679669 0.572729 0.210855
O O7 0.810977 0.574861 0.267394
O O8 0.737366 0.676929 0.281801
O O9 0.421246 0.500000 0.247772
O O10 0.423311 0.633860 0.275935
O O11 0.415059 0.575300 0.000000
O O12 0.105576 0.568819 0.500000
O O13 0.086938 0.500000 0.245970
O O14 0.080175 0.635701 0.250609
O O15 0.365401 0.256834 0.771839
O O16 0.242714 0.200006 0.755205
O O17 0.279520 0.268671 0.000000
O O18 0.916460 0.711195 0.500000
O O19 0.874013 0.755608 0.225650
O O20 0.000000 0.732382 0.273101
O O21 0.423615 0.279725 0.500000
O O22 0.500000 0.268077 0.251837
O O23 0.827544 0.829757 0.000000
#
# Coordination Sequence:
#
# PCOD9381338 Si02
#       8
#     8   8   8   8   8   8   8   8
#     4   9  19  36  57  82 113 148 183 215 249 294
#     4  10  17  28  47  66  87 116 153 204 259 305
#     4  10  20  31  44  64  90 120 154 193 244 311
#     4   9  17  28  43  64  87 113 153 208 265 313
#     4  10  20  33  50  72  98 128 164 203 246 298
#     4  10  20  33  49  68  92 126 168 213 261 310
#     4  10  21  35  51  71  94 122 158 204 256 305
#     4  11  22  34  52  78 107 137 172 212 250 294
#
# _framework density 18.100273999999999
#
# number of rings (size 3 to 8) (size 9 to 14) (size 15 to 20)
#    0.000    2.125    1.250    4.500    0.000    6.750 
#    0.000    3.125    0.000    1.125    0.000    0.875 
#    0.000    0.500    0.000    5.500    0.000    4.000 
#
# Total GULP energy -357091.466981 kJ/mol
# GULP energy per Si atom -5579.554172 kJ/mol
# Density = 1.805908 g / cm^3
# Si number density = 18.100274 Si / 1000 Ang^3
#
#
#
# Elastic Constant Matrix: (Units=GPa)
#
#
# Indices 1 2 3 4 5 6 
#
# 1 98.5977 49.9276 12.2680 0.0000 0.0000 0.0000
# 2 49.9276 84.7400 6.1854 0.0000 0.0000 0.0000
# 3 12.2680 6.1854 15.5777 0.0000 0.0000 0.0000
# 4 0.0000 0.0000 0.0000 94.7813 0.0000 0.0000
# 5 0.0000 0.0000 0.0000 0.0000 47.6159 0.0000
# 6 0.0000 0.0000 0.0000 0.0000 0.0000 30.8312
#
#
#
# Elastic Compliance Matrix: (Units=1/GPa)
#
#
# Indices 1 2 3 4 5 6 
#
# 1 0.015561 -0.008521 -0.008871 0.000000 0.000000 0.000000
# 2 -0.008521 0.016819 0.000032 0.000000 0.000000 0.000000
# 3 -0.008871 0.000032 0.071168 0.000000 0.000000 0.000000
# 4 0.000000 0.000000 0.000000 0.010551 0.000000 0.000000
# 5 0.000000 0.000000 0.000000 0.000000 0.021001 0.000000
# 6 0.000000 0.000000 0.000000 0.000000 0.000000 0.032435
#
#
# Mechanical properties :
#
#
# Convention : Reuss Voigt Hill
#
# Bulk Modulus (GPa) = 14.52898 37.29751 25.91324
# Shear Modulus (GPa) = 22.20282 43.34796 32.77539
#
# Velocity S-wave (km/s) = 3.50617 4.89906 4.25993
# Velocity P-wave (km/s) = 4.94321 7.25616 6.20835
#
# Compressibility (1/GPa) = 0.06882795
#
# Stress axis : x y z
#
# Youngs Moduli (GPa) = 64.26461 59.45777 14.05120
#
# Poissons Ratio (x) = 0.50661 0.12465
# Poissons Ratio (y) = 0.54757 -0.00045
# Poissons Ratio (z) = 0.57011 -0.00191
#
# Static dielectric constant tensor:
#      x y z
#    x 1.655250 0.000000 0.000000 
#    y 0.000000 1.621490 0.000000 
#    z 0.000000 0.000000 1.624710 
# 
# From -- ./inp_files/11856.got.cif
#   From: 2010.05.17/outbox.cif.g08.bks.cpg/sg47_6_cif.got.tgz:11856.got - 2010.06.03 20:15:42.
