data_PCOD9381765
_publ_section_title
;
Structure prediction by ZEFSAII (Michael W. Deem and Ramdas Pophale) SiO2 
 PCOD9381765
Probable space group: P M M M
;
_chemical_formula_sum "Si O2"
_cell_formula_units_Z 60
_cell_length_a 19.174618
_cell_length_b 20.624342
_cell_length_c 7.480558
_cell_angle_alpha 90.000000
_cell_angle_beta 90.000000
_cell_angle_gamma 90.000000
_cell_volume 2958.290486
_symmetry_space_group_name_H-M "P M M M"
_symmetry_group_IT_number 47
_symmetry_cell_setting 'orthorhombic'
loop_
_space_group_symop_operation_xyz
x,y,z
-x,-y,z
x,-y,-z
-x,y,-z
-x,-y,-z
x,y,-z
-x,y,z
x,-y,z
loop_
_atom_site_type_symbol
_atom_site_label
_atom_site_fract_x
_atom_site_fract_y
_atom_site_fract_z
Si Si1 0.803312 0.826170 0.197870
Si Si2 0.415355 0.500000 0.711316
Si Si3 0.232778 0.570304 0.206420
Si Si4 0.579710 0.642454 0.716090
Si Si5 0.074697 0.258229 0.710825
Si Si6 0.920409 0.924130 0.782699
Si Si7 0.075849 0.587917 0.711039
Si Si8 0.715869 0.710100 0.210675
O O1 0.863063 0.772103 0.185128
O O2 0.852219 0.883390 0.280077
O O3 0.743229 0.779760 0.283010
O O4 0.779720 0.848234 0.000000
O O5 0.500000 0.500000 0.729181
O O6 0.400800 0.500000 0.500000
O O7 0.394431 0.428953 0.781270
O O8 0.257187 0.500000 0.284068
O O9 0.148764 0.566991 0.209647
O O10 0.252493 0.641464 0.285538
O O11 0.254810 0.571493 0.000000
O O12 0.578933 0.639475 0.500000
O O13 0.500000 0.652198 0.775205
O O14 0.633676 0.697507 0.770395
O O15 0.081566 0.242940 0.500000
O O16 0.075917 0.334783 0.726817
O O17 0.000000 0.234627 0.775465
O O18 0.000000 0.906505 0.722060
O O19 0.911550 0.000000 0.740830
O O20 0.920751 0.917354 0.000000
O O21 0.077763 0.572393 0.500000
O O22 0.000000 0.567102 0.781116
O O23 0.733340 0.711870 0.000000
#
# Coordination Sequence:
#
# PCOD9381765 Si02
#       8
#     8   4   8   8   8   8   8   8
#     4  10  18  29  46  67  91 120 153 185 221 269
#     4   7  12  26  47  69  89 107 136 181 224 263
#     4  10  21  35  46  59  85 118 150 187 231 276
#     4   9  18  33  52  71  90 115 149 187 227 275
#     4   9  17  28  42  61  84 110 143 185 228 264
#     4   8  14  25  43  69  97 122 153 194 232 264
#     4   9  18  32  47  61  78 104 145 195 238 273
#     4  10  21  33  45  66  93 119 148 183 224 272
#
# _framework density 20.281983
#
# number of rings (size 3 to 8) (size 9 to 14) (size 15 to 20)
#    0.000    2.867    1.333    2.400    0.933    2.933 
#    0.000    2.667    0.000    1.600    0.000    1.867 
#    0.000    0.533    0.000    6.667    0.000    1.067 
#
# Total GULP energy -334176.124615 kJ/mol
# GULP energy per Si atom -5569.602077 kJ/mol
# Density = 2.023582 g / cm^3
# Si number density = 20.281983 Si / 1000 Ang^3
#
#
#
# Elastic Constant Matrix: (Units=GPa)
#
#
# Indices 1 2 3 4 5 6 
#
# 1 114.4063 48.3567 6.2576 0.0000 0.0000 0.0000
# 2 48.3567 135.0614 5.0488 0.0000 0.0000 0.0000
# 3 6.2576 5.0488 53.1519 0.0000 0.0000 0.0000
# 4 0.0000 0.0000 0.0000 0.0197 0.0000 0.0000
# 5 0.0000 0.0000 0.0000 0.0000 18.9589 0.0000
# 6 0.0000 0.0000 0.0000 0.0000 0.0000 43.0523
#
#
#
# Elastic Compliance Matrix: (Units=1/GPa)
#
#
# Indices 1 2 3 4 5 6 
#
# 1 0.010339 -0.003669 -0.000869 0.000000 0.000000 0.000000
# 2 -0.003669 0.008733 -0.000397 0.000000 0.000000 0.000000
# 3 -0.000869 -0.000397 0.018954 0.000000 0.000000 0.000000
# 4 0.000000 0.000000 0.000000 50.721721 0.000000 0.000000
# 5 0.000000 0.000000 0.000000 0.000000 0.052746 0.000000
# 6 0.000000 0.000000 0.000000 0.000000 0.000000 0.023228
#
#
# Mechanical properties :
#
#
# Convention : Reuss Voigt Hill
#
# Bulk Modulus (GPa) = 35.51788 46.88287 41.20038
# Shear Modulus (GPa) = 0.09832 28.60328 14.35080
#
# Velocity S-wave (km/s) = 0.22041 3.75944 2.66289
# Velocity P-wave (km/s) = 4.19700 6.48153 5.46009
#
# Compressibility (1/GPa) = 0.02815483
#
# Stress axis : x y z
#
# Youngs Moduli (GPa) = 96.71904 114.51278 52.75923
#
# Poissons Ratio (x) = 0.42019 0.04583
# Poissons Ratio (y) = 0.35489 0.02097
# Poissons Ratio (z) = 0.08402 0.04552
#
# Static dielectric constant tensor:
#      x y z
#    x 1.774520 0.000000 0.000000 
#    y 0.000000 1.783290 0.000000 
#    z 0.000000 0.000000 1.789410 
# 
# From -- ./inp_files/10013.got.cif
#   From: 2010.05.17/outbox.cif.g08.bks.cpg/sg47_6_cif.got.tgz:10013.got - 2010.06.03 20:15:42.
