data_PCOD9381278
_publ_section_title
;
Structure prediction by ZEFSAII (Michael W. Deem and Ramdas Pophale) SiO2 
 PCOD9381278
Probable space group: P M M M
;
_chemical_formula_sum "Si O2"
_cell_formula_units_Z 36
_cell_length_a 13.223023
_cell_length_b 20.811479
_cell_length_c 7.378846
_cell_angle_alpha 90.000000
_cell_angle_beta 90.000000
_cell_angle_gamma 90.000000
_cell_volume 2030.589541
_symmetry_space_group_name_H-M "P M M M"
_symmetry_group_IT_number 47
_symmetry_cell_setting 'orthorhombic'
loop_
_space_group_symop_operation_xyz
x,y,z
-x,-y,z
x,-y,-z
-x,y,-z
-x,-y,-z
x,y,-z
-x,y,z
x,-y,z
loop_
_atom_site_type_symbol
_atom_site_label
_atom_site_fract_x
_atom_site_fract_y
_atom_site_fract_z
Si Si1 0.618261 0.209047 0.721476
Si Si2 0.300301 0.656902 0.286556
Si Si3 0.500000 0.573548 0.216365
Si Si4 0.620549 0.930836 0.718851
Si Si5 0.885829 0.426188 0.278890
O O1 0.619613 0.209209 0.500000
O O2 0.500000 0.214874 0.772497
O O3 0.675876 0.272219 0.786622
O O4 0.658164 0.138976 0.780973
O O5 0.281558 0.665554 0.500000
O O6 0.399873 0.612606 0.270450
O O7 0.202737 0.620045 0.212682
O O8 0.500000 0.500000 0.285104
O O9 0.500000 0.570768 0.000000
O O10 0.630439 0.931346 0.500000
O O11 0.500000 0.930427 0.756606
O O12 0.660761 0.000000 0.784663
O O13 0.884085 0.426003 0.500000
O O14 0.866920 0.500000 0.224029
O O15 0.000000 0.408385 0.224629
#
# Coordination Sequence:
#
# PCOD9381278 Si02
#       5
#     8   8   4   8   8
#     4   8  12  18  29  49  74  94 118 152 182 212
#     4  10  17  27  44  61  76  98 128 160 193 228
#     4  11  23  33  39  53  80 107 128 154 187 227
#     4   7   9  13  22  38  65  98 120 138 173 213
#     4   8  14  24  38  57  77  94 118 157 199 232
#
# _framework density 17.728840000000002
#
# number of rings (size 3 to 8) (size 9 to 14) (size 15 to 20)
#    0.000    3.444    1.111    3.667    0.000    1.778 
#    0.000    0.000    0.000    0.667    0.000    3.111 
#    0.000    2.667    0.000   12.444    0.000    0.444 
#
# Total GULP energy -200493.894180 kJ/mol
# GULP energy per Si atom -5569.274838 kJ/mol
# Density = 1.768849 g / cm^3
# Si number density = 17.728840 Si / 1000 Ang^3
#
#
#
# Elastic Constant Matrix: (Units=GPa)
#
#
# Indices 1 2 3 4 5 6 
#
# 1 96.9910 91.1122 0.3990 0.0000 0.0000 0.0000
# 2 91.1122 218.4011 4.5162 0.0000 0.0000 0.0000
# 3 0.3990 4.5162 60.3881 0.0000 0.0000 0.0000
# 4 0.0000 0.0000 0.0000 -25.9822 0.0000 0.0000
# 5 0.0000 0.0000 0.0000 0.0000 -51.4644 0.0000
# 6 0.0000 0.0000 0.0000 0.0000 0.0000 20.1750
#
#
#
# Elastic Compliance Matrix: (Units=1/GPa)
#
#
# Indices 1 2 3 4 5 6 
#
# 1 0.016965 -0.007086 0.000418 0.000000 0.000000 0.000000
# 2 -0.007086 0.007546 -0.000517 0.000000 0.000000 0.000000
# 3 0.000418 -0.000517 0.016595 0.000000 0.000000 0.000000
# 4 0.000000 0.000000 0.000000 -0.038488 0.000000 0.000000
# 5 0.000000 0.000000 0.000000 0.000000 -0.019431 0.000000
# 6 0.000000 0.000000 0.000000 0.000000 0.000000 0.049566
#
#
# Mechanical properties :
#
#
# Convention : Reuss Voigt Hill
#
# Bulk Modulus (GPa) = 37.40454 63.09276 50.24865
# Shear Modulus (GPa) = 89.22717 7.19589 48.21153
#
# Velocity S-wave (km/s) = 7.10198 2.01685 5.22043
# Velocity P-wave (km/s) = 9.40185 6.41003 8.04622
#
# Compressibility (1/GPa) = 0.02673472
#
# Stress axis : x y z
#
# Youngs Moduli (GPa) = 58.94437 132.52736 60.25732
#
# Poissons Ratio (x) = 0.93911 -0.02518
# Poissons Ratio (y) = 0.41769 0.03118
# Poissons Ratio (z) = -0.02463 0.06858
#
# Static dielectric constant tensor:
#      x y z
#    x 1.576850 0.000000 0.000000 
#    y 0.000000 1.663550 0.000000 
#    z 0.000000 0.000000 1.656510 
# 
# From -- ./inp_files/3926.got.cif
#   From: 2010.05.17/outbox.cif.g08.bks.cpg/sg47_2_cif.got.tgz:3926.got - 2010.06.03 20:15:42.
