data_PCOD9381530
_publ_section_title
;
Structure prediction by ZEFSAII (Michael W. Deem and Ramdas Pophale) SiO2 
 PCOD9381530
Probable space group: P M M M
;
_chemical_formula_sum "Si O2"
_cell_formula_units_Z 56
_cell_length_a 7.680458
_cell_length_b 14.259522
_cell_length_c 30.500700
_cell_angle_alpha 90.000000
_cell_angle_beta 90.000000
_cell_angle_gamma 90.000000
_cell_volume 3340.426288
_symmetry_space_group_name_H-M "P M M M"
_symmetry_group_IT_number 47
_symmetry_cell_setting 'orthorhombic'
loop_
_space_group_symop_operation_xyz
x,y,z
-x,-y,z
x,-y,-z
-x,y,-z
-x,-y,-z
x,y,-z
-x,y,z
x,-y,z
loop_
_atom_site_type_symbol
_atom_site_label
_atom_site_fract_x
_atom_site_fract_y
_atom_site_fract_z
Si Si1 0.205307 0.604459 0.225922
Si Si2 0.293807 0.294025 0.136471
Si Si3 0.790048 0.105084 0.817926
Si Si4 0.213560 0.209428 0.729577
Si Si5 0.709440 0.109167 0.452802
Si Si6 0.712351 0.391067 0.048946
Si Si7 0.792442 0.107244 0.357197
O O1 0.280658 0.500000 0.229575
O O2 0.221142 0.644446 0.176612
O O3 0.275518 0.686450 0.257480
O O4 0.000000 0.597879 0.235381
O O5 0.500000 0.309694 0.136981
O O6 0.260856 0.185563 0.147841
O O7 0.226341 0.328348 0.089451
O O8 0.734703 0.141622 0.769794
O O9 0.000000 0.102598 0.817280
O O10 0.726259 0.000000 0.826731
O O11 0.273691 0.168946 0.683192
O O12 0.000000 0.211185 0.729404
O O13 0.768717 0.149132 0.500000
O O14 0.500000 0.109111 0.453406
O O15 0.762366 0.148571 0.405726
O O16 0.767846 0.000000 0.452114
O O17 0.500000 0.388045 0.048527
O O18 0.760551 0.500000 0.056074
O O19 0.770312 0.363250 0.000000
O O20 0.000000 0.100448 0.351581
O O21 0.722408 0.000000 0.355644
#
# Coordination Sequence:
#
# PCOD9381530 Si02
#       7
#     8   8   8   8   8   8   8
#     4   9  17  29  44  60  81 111 141 164 191 237
#     4  10  18  27  43  66  87 105 130 168 208 240
#     4   9  17  30  46  60  79 111 144 168 194 235
#     4   8  14  25  40  58  78 101 132 165 195 229
#     4   8  14  24  35  47  68  99 129 154 185 228
#     4   8  14  25  41  61  84 108 132 159 197 246
#     4   9  15  22  35  54  74  97 126 160 193 224
#
# _framework density 16.764327000000002
#
# number of rings (size 3 to 8) (size 9 to 14) (size 15 to 20)
#    0.000    3.286    0.000    3.000    0.000    3.143 
#    0.000    4.286    0.000    5.571    0.000    8.000 
#    0.000    0.571    0.000    7.143    0.000    1.429 
#
# Total GULP energy -311778.921084 kJ/mol
# GULP energy per Si atom -5567.480734 kJ/mol
# Density = 1.672617 g / cm^3
# Si number density = 16.764327 Si / 1000 Ang^3
#
#
#
# Elastic Constant Matrix: (Units=GPa)
#
#
# Indices 1 2 3 4 5 6 
#
# 1 26.1318 0.5324 0.2930 0.0000 0.0000 0.0000
# 2 0.5324 103.9623 77.1380 0.0000 0.0000 0.0000
# 3 0.2930 77.1380 169.5536 0.0000 0.0000 0.0000
# 4 0.0000 0.0000 0.0000 19.3680 0.0000 0.0000
# 5 0.0000 0.0000 0.0000 0.0000 16.8692 0.0000
# 6 0.0000 0.0000 0.0000 0.0000 0.0000 8.8589
#
#
#
# Elastic Compliance Matrix: (Units=1/GPa)
#
#
# Indices 1 2 3 4 5 6 
#
# 1 0.038272 -0.000222 0.000035 0.000000 0.000000 0.000000
# 2 -0.000222 0.014522 -0.006606 0.000000 0.000000 0.000000
# 3 0.000035 -0.006606 0.008903 0.000000 0.000000 0.000000
# 4 0.000000 0.000000 0.000000 0.051631 0.000000 0.000000
# 5 0.000000 0.000000 0.000000 0.000000 0.059280 0.000000
# 6 0.000000 0.000000 0.000000 0.000000 0.000000 0.112881
#
#
# Mechanical properties :
#
#
# Convention : Reuss Voigt Hill
#
# Bulk Modulus (GPa) = 20.78565 50.61940 35.70253
# Shear Modulus (GPa) = 15.86735 23.79816 19.83276
#
# Velocity S-wave (km/s) = 3.07985 3.77181 3.44326
# Velocity P-wave (km/s) = 5.00729 7.01634 6.09516
#
# Compressibility (1/GPa) = 0.04811010
#
# Stress axis : x y z
#
# Youngs Moduli (GPa) = 26.12899 68.86242 112.31823
#
# Poissons Ratio (x) = 0.01527 -0.00391
# Poissons Ratio (y) = 0.00580 0.74200
# Poissons Ratio (z) = -0.00091 0.45492
#
# Static dielectric constant tensor:
#      x y z
#    x 1.629780 0.000000 0.000000 
#    y 0.000000 1.562500 0.000000 
#    z 0.000000 0.000000 1.586940 
# 
# From -- ./inp_files/8144.got.cif
#   From: 2010.05.17/outbox.cif.g08.bks.cpg/sg47_5_cif.got.tgz:8144.got - 2010.06.03 20:15:42.
