data_PCOD9381682
_publ_section_title
;
Structure prediction by ZEFSAII (Michael W. Deem and Ramdas Pophale) SiO2 
 PCOD9381682
Probable space group: P M M M
;
_chemical_formula_sum "Si O2"
_cell_formula_units_Z 64
_cell_length_a 29.401346
_cell_length_b 14.619920
_cell_length_c 7.496944
_cell_angle_alpha 90.000000
_cell_angle_beta 90.000000
_cell_angle_gamma 90.000000
_cell_volume 3222.526341
_symmetry_space_group_name_H-M "P M M M"
_symmetry_group_IT_number 47
_symmetry_cell_setting 'orthorhombic'
loop_
_space_group_symop_operation_xyz
x,y,z
-x,-y,z
x,-y,-z
-x,y,-z
-x,-y,-z
x,y,-z
-x,y,z
x,-y,z
loop_
_atom_site_type_symbol
_atom_site_label
_atom_site_fract_x
_atom_site_fract_y
_atom_site_fract_z
Si Si1 0.874495 0.758311 0.297908
Si Si2 0.196026 0.603756 0.210669
Si Si3 0.623590 0.743626 0.210568
Si Si4 0.794825 0.895667 0.783814
Si Si5 0.053085 0.897705 0.282224
Si Si6 0.550478 0.105573 0.285013
Si Si7 0.273602 0.257069 0.782081
Si Si8 0.450213 0.605527 0.782315
O O1 0.886858 0.735350 0.500000
O O2 0.848696 0.668068 0.228130
O O3 0.836446 0.837647 0.291404
O O4 0.917560 0.811642 0.215368
O O5 0.191809 0.500000 0.282159
O O6 0.239348 0.662364 0.280526
O O7 0.203803 0.595507 0.000000
O O8 0.593451 0.834886 0.227813
O O9 0.674661 0.741470 0.282656
O O10 0.590872 0.665570 0.286289
O O11 0.628602 0.725943 0.000000
O O12 0.749958 0.838943 0.735216
O O13 0.794521 0.000000 0.725364
O O14 0.798882 0.893611 0.000000
O O15 0.055914 0.897270 0.500000
O O16 0.000000 0.889946 0.235270
O O17 0.069148 0.000000 0.225730
O O18 0.549707 0.107548 0.500000
O O19 0.500000 0.137884 0.223305
O O20 0.555148 0.000000 0.229323
O O21 0.273789 0.261347 0.000000
O O22 0.500000 0.638635 0.723948
O O23 0.445669 0.500000 0.732594
O O24 0.450053 0.609174 0.000000
#
# Coordination Sequence:
#
# PCOD9381682 Si02
#       8
#     8   8   8   8   8   8   8   8
#     4  10  18  28  47  74  98 119 153 201 242 275
#     4   9  18  34  53  68  88 124 164 196 231 281
#     4  10  18  28  47  72  92 110 140 185 228 264
#     4   9  17  30  46  62  88 127 161 187 222 274
#     4   8  14  25  42  67 100 133 159 186 229 284
#     4   9  19  35  50  63  85 120 156 185 218 265
#     4   8  16  29  44  67  93 114 143 184 228 271
#     4   8  14  24  38  60  89 112 128 156 206 261
#
# _framework density 19.860195999999998
#
# number of rings (size 3 to 8) (size 9 to 14) (size 15 to 20)
#    0.000    3.125    0.000    3.000    0.000    3.000 
#    0.000    6.875    0.000    2.250    0.000    8.750 
#    0.000    0.000    0.000    0.000    0.000    0.000 
#
# Total GULP energy -356634.492329 kJ/mol
# GULP energy per Si atom -5572.413943 kJ/mol
# Density = 1.981499 g / cm^3
# Si number density = 19.860196 Si / 1000 Ang^3
#
#
#
# Elastic Constant Matrix: (Units=GPa)
#
#
# Indices 1 2 3 4 5 6 
#
# 1 109.2926 54.9315 -4.2428 0.0000 0.0000 0.0000
# 2 54.9315 136.7414 -3.3407 0.0000 0.0000 0.0000
# 3 -4.2428 -3.3407 49.8583 0.0000 0.0000 0.0000
# 4 0.0000 0.0000 0.0000 29.3415 0.0000 0.0000
# 5 0.0000 0.0000 0.0000 0.0000 153.6478 0.0000
# 6 0.0000 0.0000 0.0000 0.0000 0.0000 26.8623
#
#
#
# Elastic Compliance Matrix: (Units=1/GPa)
#
#
# Indices 1 2 3 4 5 6 
#
# 1 0.011487 -0.004598 0.000669 0.000000 0.000000 0.000000
# 2 -0.004598 0.009166 0.000223 0.000000 0.000000 0.000000
# 3 0.000669 0.000223 0.020129 0.000000 0.000000 0.000000
# 4 0.000000 0.000000 0.000000 0.034081 0.000000 0.000000
# 5 0.000000 0.000000 0.000000 0.000000 0.006508 0.000000
# 6 0.000000 0.000000 0.000000 0.000000 0.000000 0.037227
#
#
# Mechanical properties :
#
#
# Convention : Reuss Voigt Hill
#
# Bulk Modulus (GPa) = 29.96747 43.39868 36.68308
# Shear Modulus (GPa) = 36.46103 58.53995 47.50049
#
# Velocity S-wave (km/s) = 4.28937 5.43507 4.89585
# Velocity P-wave (km/s) = 6.29711 7.82855 7.10422
#
# Compressibility (1/GPa) = 0.03336952
#
# Stress axis : x y z
#
# Youngs Moduli (GPa) = 87.05654 109.10293 49.68018
#
# Poissons Ratio (x) = 0.50167 -0.03326
# Poissons Ratio (y) = 0.40029 -0.01107
# Poissons Ratio (z) = -0.05828 -0.02431
#
# Static dielectric constant tensor:
#      x y z
#    x 1.704940 0.000000 0.000000 
#    y 0.000000 1.698010 0.000000 
#    z 0.000000 0.000000 1.780430 
# 
# From -- ./inp_files/14304.got.cif
#   From: 2010.05.17/outbox.cif.g08.bks.cpg/sg47_8_cif.got.tgz:14304.got - 2010.06.03 20:15:42.
