data_PCOD9381263
_publ_section_title
;
Structure prediction by ZEFSAII (Michael W. Deem and Ramdas Pophale) SiO2 
 PCOD9381263
Probable space group: P M M M
;
_chemical_formula_sum "Si O2"
_cell_formula_units_Z 56
_cell_length_a 7.906862
_cell_length_b 23.822907
_cell_length_c 15.352068
_cell_angle_alpha 90.000000
_cell_angle_beta 90.000000
_cell_angle_gamma 90.000000
_cell_volume 2891.783662
_symmetry_space_group_name_H-M "P M M M"
_symmetry_group_IT_number 47
_symmetry_cell_setting 'orthorhombic'
loop_
_space_group_symop_operation_xyz
x,y,z
-x,-y,z
x,-y,-z
-x,y,-z
-x,-y,-z
x,y,-z
-x,y,z
x,-y,z
loop_
_atom_site_type_symbol
_atom_site_label
_atom_site_fract_x
_atom_site_fract_y
_atom_site_fract_z
Si Si1 0.703368 0.336651 0.275955
Si Si2 0.706831 0.289459 0.901449
Si Si3 0.293774 0.761893 0.401395
Si Si4 0.704609 0.890843 0.401860
Si Si5 0.199150 0.939181 0.778371
Si Si6 0.702254 0.838199 0.097485
Si Si7 0.203679 0.435832 0.402504
O O1 0.500000 0.332372 0.273714
O O2 0.763860 0.329544 0.176748
O O3 0.766892 0.283644 0.332598
O O4 0.744843 0.392893 0.327929
O O5 0.500000 0.290234 0.902632
O O6 0.760027 0.225122 0.880796
O O7 0.762072 0.302915 0.000000
O O8 0.243188 0.746734 0.500000
O O9 0.500000 0.761971 0.399302
O O10 0.241881 0.826149 0.384992
O O11 0.758722 0.906308 0.500000
O O12 0.500000 0.891840 0.400850
O O13 0.767175 0.928596 0.323437
O O14 0.261034 0.886197 0.833372
O O15 0.000000 0.941297 0.792333
O O16 0.273046 0.000000 0.804061
O O17 0.500000 0.834218 0.092770
O O18 0.765747 0.852337 0.000000
O O19 0.262615 0.418400 0.500000
O O20 0.261174 0.500000 0.387637
O O21 0.000000 0.436677 0.404839
#
# Coordination Sequence:
#
# PCOD9381263 Si02
#       7
#     8   8   8   8   8   8   8
#     4  10  17  26  48  77 100 125 158 196 236 280
#     4   8  15  29  50  77 105 128 152 190 243 294
#     4   8  14  25  43  70  99 120 143 186 245 295
#     4   9  18  34  55  74  93 123 164 206 244 287
#     4  11  24  37  48  67  98 133 163 196 245 300
#     4   9  18  35  59  80  96 121 160 202 242 289
#     4   9  19  35  50  65  94 136 172 201 238 280
#
# _framework density 19.365210999999999
#
# number of rings (size 3 to 8) (size 9 to 14) (size 15 to 20)
#    0.000    2.857    0.000    3.857    0.000    5.714 
#    0.000    6.429    0.000    2.571    0.000    3.000 
#    0.000    0.000    0.000    0.000    0.000    0.000 
#
# Total GULP energy -312282.124148 kJ/mol
# GULP energy per Si atom -5576.466503 kJ/mol
# Density = 1.932114 g / cm^3
# Si number density = 19.365211 Si / 1000 Ang^3
#
#
#
# Elastic Constant Matrix: (Units=GPa)
#
#
# Indices 1 2 3 4 5 6 
#
# 1 14.2323 3.7069 6.2889 0.0000 0.0000 0.0000
# 2 3.7069 84.1430 86.0707 0.0000 0.0000 0.0000
# 3 6.2889 86.0707 142.4759 0.0000 0.0000 0.0000
# 4 0.0000 0.0000 0.0000 68.8978 0.0000 0.0000
# 5 0.0000 0.0000 0.0000 0.0000 -25.4802 0.0000
# 6 0.0000 0.0000 0.0000 0.0000 0.0000 23.3676
#
#
#
# Elastic Compliance Matrix: (Units=1/GPa)
#
#
# Indices 1 2 3 4 5 6 
#
# 1 0.071662 0.000206 -0.003288 0.000000 0.000000 0.000000
# 2 0.000206 0.031108 -0.018801 0.000000 0.000000 0.000000
# 3 -0.003288 -0.018801 0.018522 0.000000 0.000000 0.000000
# 4 0.000000 0.000000 0.000000 0.014514 0.000000 0.000000
# 5 0.000000 0.000000 0.000000 0.000000 -0.039246 0.000000
# 6 0.000000 0.000000 0.000000 0.000000 0.000000 0.042794
#
#
# Mechanical properties :
#
#
# Convention : Reuss Voigt Hill
#
# Bulk Modulus (GPa) = 12.89903 48.10936 30.50419
# Shear Modulus (GPa) = 23.92784 23.00935 23.46859
#
# Velocity S-wave (km/s) = 3.51894 3.45074 3.48500
# Velocity P-wave (km/s) = 4.81518 6.38545 5.65508
#
# Compressibility (1/GPa) = 0.07752522
#
# Stress axis : x y z
#
# Youngs Moduli (GPa) = 13.95441 32.14654 53.99021
#
# Poissons Ratio (x) = -0.00662 0.17749
# Poissons Ratio (y) = -0.00287 1.01509
# Poissons Ratio (z) = 0.04588 0.60440
#
# Static dielectric constant tensor:
#      x y z
#    x 1.707910 0.000000 0.000000 
#    y 0.000000 1.681340 0.000000 
#    z 0.000000 0.000000 1.689960 
# 
# From -- ./inp_files/11252.got.cif
#   From: 2010.05.17/outbox.cif.g08.bks.cpg/sg47_6_cif.got.tgz:11252.got - 2010.06.03 20:15:42.
