data_PCOD9381288
_publ_section_title
;
Structure prediction by ZEFSAII (Michael W. Deem and Ramdas Pophale) SiO2 
 PCOD9381288
Probable space group: P M M M
;
_chemical_formula_sum "Si O2"
_cell_formula_units_Z 52
_cell_length_a 15.568244
_cell_length_b 23.598196
_cell_length_c 7.339647
_cell_angle_alpha 90.000000
_cell_angle_beta 90.000000
_cell_angle_gamma 90.000000
_cell_volume 2696.457668
_symmetry_space_group_name_H-M "P M M M"
_symmetry_group_IT_number 47
_symmetry_cell_setting 'orthorhombic'
loop_
_space_group_symop_operation_xyz
x,y,z
-x,-y,z
x,-y,-z
-x,y,-z
-x,-y,-z
x,y,-z
-x,y,z
x,-y,z
loop_
_atom_site_type_symbol
_atom_site_label
_atom_site_fract_x
_atom_site_fract_y
_atom_site_fract_z
Si Si1 0.098327 0.291692 0.219031
Si Si2 0.590599 0.932140 0.218324
Si Si3 0.900494 0.500000 0.276952
Si Si4 0.098382 0.164430 0.778361
Si Si5 0.777872 0.934591 0.223023
Si Si6 0.595916 0.566835 0.720981
Si Si7 0.781196 0.397046 0.714264
O O1 0.122361 0.228087 0.280073
O O2 0.169411 0.337827 0.267290
O O3 0.000000 0.304889 0.281923
O O4 0.094102 0.290586 0.000000
O O5 0.500000 0.909130 0.289565
O O6 0.683479 0.914082 0.284022
O O7 0.589895 0.000000 0.247277
O O8 0.590050 0.923659 0.000000
O O9 0.902991 0.500000 0.500000
O O10 0.846245 0.554680 0.215432
O O11 0.000000 0.500000 0.218018
O O12 0.154495 0.111796 0.715950
O O13 0.000000 0.155900 0.726469
O O14 0.102437 0.164407 0.000000
O O15 0.792643 0.000000 0.278996
O O16 0.777824 0.935769 0.000000
O O17 0.593565 0.570831 0.500000
O O18 0.500000 0.585156 0.783525
O O19 0.605392 0.500000 0.765206
O O20 0.683194 0.597908 0.785068
O O21 0.772999 0.409150 0.500000
#
# Coordination Sequence:
#
# PCOD9381288 Si02
#       7
#     8   8   4   8   8   8   8
#     4   9  18  31  43  55  78 115 148 168 197 247
#     4   7   9  13  21  35  57  82 106 136 177 224
#     4   9  16  24  36  60  90 107 119 157 212 243
#     4   8  14  24  35  46  65  97 132 160 191 236
#     4   8  12  17  28  47  66  84 113 156 200 235
#     4   8  13  23  41  65  89 108 130 164 205 249
#     4  10  17  27  45  67  85 105 135 170 207 240
#
# _framework density 19.284561
#
# number of rings (size 3 to 8) (size 9 to 14) (size 15 to 20)
#    0.000    3.615    0.769    3.231    0.000    1.231 
#    0.000    1.923    0.000    2.769    0.000    3.231 
#    0.000    0.615    0.000    3.385    0.000    3.385 
#
# Total GULP energy -289517.206385 kJ/mol
# GULP energy per Si atom -5567.638584 kJ/mol
# Density = 1.924067 g / cm^3
# Si number density = 19.284561 Si / 1000 Ang^3
#
#
#
# Elastic Constant Matrix: (Units=GPa)
#
#
# Indices 1 2 3 4 5 6 
#
# 1 206.9719 120.0182 5.9880 0.0000 0.0000 0.0000
# 2 120.0182 115.9343 -2.3342 0.0000 0.0000 0.0000
# 3 5.9880 -2.3342 67.1775 0.0000 0.0000 0.0000
# 4 0.0000 0.0000 0.0000 4.4896 0.0000 0.0000
# 5 0.0000 0.0000 0.0000 0.0000 -5.0246 0.0000
# 6 0.0000 0.0000 0.0000 0.0000 0.0000 8.7721
#
#
#
# Elastic Compliance Matrix: (Units=1/GPa)
#
#
# Indices 1 2 3 4 5 6 
#
# 1 0.012244 -0.012706 -0.001533 0.000000 0.000000 0.000000
# 2 -0.012706 0.021817 0.001891 0.000000 0.000000 0.000000
# 3 -0.001533 0.001891 0.015088 0.000000 0.000000 0.000000
# 4 0.000000 0.000000 0.000000 0.222738 0.000000 0.000000
# 5 0.000000 0.000000 0.000000 0.000000 -0.199021 0.000000
# 6 0.000000 0.000000 0.000000 0.000000 0.000000 0.113997
#
#
# Mechanical properties :
#
#
# Convention : Reuss Voigt Hill
#
# Bulk Modulus (GPa) = 40.89500 70.82530 55.86015
# Shear Modulus (GPa) = 22.75718 19.40821 21.08269
#
# Velocity S-wave (km/s) = 3.43894 3.17584 3.31001
# Velocity P-wave (km/s) = 6.08445 7.08901 6.60586
#
# Compressibility (1/GPa) = 0.02445287
#
# Stress axis : x y z
#
# Youngs Moduli (GPa) = 81.67376 45.83537 66.27671
#
# Poissons Ratio (x) = 0.58238 0.10159
# Poissons Ratio (y) = 1.03775 -0.12531
# Poissons Ratio (z) = 0.12519 -0.08666
#
# Static dielectric constant tensor:
#      x y z
#    x 1.706570 0.000000 0.000000 
#    y 0.000000 1.629810 0.000000 
#    z 0.000000 0.000000 1.768600 
# 
# From -- ./inp_files/7662.got.cif
#   From: 2010.05.17/outbox.cif.g08.bks.cpg/sg47_4_cif.got.tgz:7662.got - 2010.06.03 20:15:42.
