data_PCOD9381906
_publ_section_title
;
Structure prediction by ZEFSAII (Michael W. Deem and Ramdas Pophale) SiO2 
 PCOD9381906
Probable space group: P M M M
;
_chemical_formula_sum "Si O2"
_cell_formula_units_Z 52
_cell_length_a 16.574785
_cell_length_b 21.085389
_cell_length_c 7.677665
_cell_angle_alpha 90.000000
_cell_angle_beta 90.000000
_cell_angle_gamma 90.000000
_cell_volume 2683.234813
_symmetry_space_group_name_H-M "P M M M"
_symmetry_group_IT_number 47
_symmetry_cell_setting 'orthorhombic'
loop_
_space_group_symop_operation_xyz
x,y,z
-x,-y,z
x,-y,-z
-x,y,-z
-x,-y,-z
x,y,-z
-x,y,z
x,-y,z
loop_
_atom_site_type_symbol
_atom_site_label
_atom_site_fract_x
_atom_site_fract_y
_atom_site_fract_z
Si Si1 0.795330 0.813364 0.704831
Si Si2 0.906642 0.069703 0.210058
Si Si3 0.228394 0.329792 0.287080
Si Si4 0.500000 0.929316 0.786979
Si Si5 0.380762 0.175239 0.199232
Si Si6 0.410481 0.316421 0.700872
Si Si7 0.909134 0.573367 0.712488
O O1 0.778529 0.809957 0.500000
O O2 0.862205 0.866553 0.732682
O O3 0.805775 0.740042 0.761811
O O4 0.713878 0.835382 0.795506
O O5 0.000000 0.072653 0.264328
O O6 0.874375 0.000000 0.267894
O O7 0.904302 0.069331 0.000000
O O8 0.231546 0.332023 0.500000
O O9 0.322102 0.337049 0.225802
O O10 0.164322 0.382396 0.228432
O O11 0.424550 0.886846 0.733042
O O12 0.500000 0.000000 0.719802
O O13 0.500000 0.932916 0.000000
O O14 0.403115 0.239896 0.295919
O O15 0.406121 0.186074 0.000000
O O16 0.411821 0.337810 0.500000
O O17 0.500000 0.332718 0.775942
O O18 0.908685 0.574913 0.500000
O O19 0.898189 0.500000 0.764091
O O20 0.000000 0.593520 0.766139
#
# Coordination Sequence:
#
# PCOD9381906 Si02
#       7
#     8   8   8   4   8   8   8
#     4  10  20  32  47  70  97 123 152 190 241 291
#     4   9  19  36  54  69  88 119 158 197 239 286
#     4   8  15  26  39  61  91 121 154 191 233 281
#     4   9  18  30  43  61  83 109 144 185 228 272
#     4  10  18  30  47  65  86 115 152 191 230 276
#     4   9  16  27  44  62  86 119 150 186 235 286
#     4   8  13  22  38  60  88 124 160 190 225 274
#
# _framework density 19.379594000000001
#
# number of rings (size 3 to 8) (size 9 to 14) (size 15 to 20)
#    0.000    3.000    0.769    2.769    0.000    1.846 
#    0.000    3.846    0.000    3.692    0.000    3.231 
#    0.000   15.385    0.000   49.538    0.000   45.846 
#
# Total GULP energy -289494.565407 kJ/mol
# GULP energy per Si atom -5567.203181 kJ/mol
# Density = 1.933548 g / cm^3
# Si number density = 19.379594 Si / 1000 Ang^3
#
#
#
# Elastic Constant Matrix: (Units=GPa)
#
#
# Indices 1 2 3 4 5 6 
#
# 1 156.9500 94.2128 5.6145 0.0000 0.0000 0.0000
# 2 94.2128 105.6466 3.9144 0.0000 0.0000 0.0000
# 3 5.6145 3.9144 36.1423 0.0000 0.0000 0.0000
# 4 0.0000 0.0000 0.0000 25.0914 0.0000 0.0000
# 5 0.0000 0.0000 0.0000 0.0000 54.1200 0.0000
# 6 0.0000 0.0000 0.0000 0.0000 0.0000 12.5756
#
#
#
# Elastic Compliance Matrix: (Units=1/GPa)
#
#
# Indices 1 2 3 4 5 6 
#
# 1 0.013735 -0.012218 -0.000810 0.000000 0.000000 0.000000
# 2 -0.012218 0.020373 -0.000308 0.000000 0.000000 0.000000
# 3 -0.000810 -0.000308 0.027828 0.000000 0.000000 0.000000
# 4 0.000000 0.000000 0.000000 0.039854 0.000000 0.000000
# 5 0.000000 0.000000 0.000000 0.000000 0.018477 0.000000
# 6 0.000000 0.000000 0.000000 0.000000 0.000000 0.079519
#
#
# Mechanical properties :
#
#
# Convention : Reuss Voigt Hill
#
# Bulk Modulus (GPa) = 28.35974 56.24695 42.30334
# Shear Modulus (GPa) = 20.98955 31.35721 26.17338
#
# Velocity S-wave (km/s) = 3.29458 4.02687 3.67899
# Velocity P-wave (km/s) = 5.39796 7.12093 6.31845
#
# Compressibility (1/GPa) = 0.03526126
#
# Stress axis : x y z
#
# Youngs Moduli (GPa) = 72.80819 49.08496 35.93540
#
# Poissons Ratio (x) = 0.59973 0.02912
# Poissons Ratio (y) = 0.88959 0.01109
# Poissons Ratio (z) = 0.05900 0.01514
#
# Static dielectric constant tensor:
#      x y z
#    x 1.703370 0.000000 0.000000 
#    y 0.000000 1.657890 0.000000 
#    z 0.000000 0.000000 1.744920 
# 
# From -- ./inp_files/7062.got.cif
#   From: 2010.05.17/outbox.cif.g08.bks.cpg/sg47_4_cif.got.tgz:7062.got - 2010.06.03 20:15:42.
