data_PCOD9381292
_publ_section_title
;
Structure prediction by ZEFSAII (Michael W. Deem and Ramdas Pophale) SiO2 
 PCOD9381292
Probable space group: P M M M
;
_chemical_formula_sum "Si O2"
_cell_formula_units_Z 64
_cell_length_a 20.864096
_cell_length_b 21.056936
_cell_length_c 7.536659
_cell_angle_alpha 90.000000
_cell_angle_beta 90.000000
_cell_angle_gamma 90.000000
_cell_volume 3311.110049
_symmetry_space_group_name_H-M "P M M M"
_symmetry_group_IT_number 47
_symmetry_cell_setting 'orthorhombic'
loop_
_space_group_symop_operation_xyz
x,y,z
-x,-y,z
x,-y,-z
-x,y,-z
-x,-y,-z
x,y,-z
-x,y,z
x,-y,z
loop_
_atom_site_type_symbol
_atom_site_label
_atom_site_fract_x
_atom_site_fract_y
_atom_site_fract_z
Si Si1 0.930900 0.613970 0.788549
Si Si2 0.573578 0.691888 0.282686
Si Si3 0.341272 0.190366 0.289114
Si Si4 0.206742 0.760511 0.717924
Si Si5 0.653426 0.430857 0.283073
Si Si6 0.068762 0.236890 0.706808
Si Si7 0.428120 0.072090 0.786703
Si Si8 0.209232 0.613193 0.711754
O O1 0.928814 0.685999 0.714710
O O2 0.861336 0.585128 0.747965
O O3 0.000000 0.585844 0.729857
O O4 0.933263 0.618616 0.000000
O O5 0.573569 0.692350 0.500000
O O6 0.500000 0.693189 0.225549
O O7 0.612538 0.753672 0.221188
O O8 0.610616 0.628410 0.226283
O O9 0.337138 0.200024 0.500000
O O10 0.268978 0.200880 0.222581
O O11 0.374704 0.123069 0.260746
O O12 0.204770 0.760468 0.500000
O O13 0.137203 0.784630 0.780653
O O14 0.212758 0.686645 0.773777
O O15 0.653304 0.429817 0.500000
O O16 0.629496 0.500000 0.227626
O O17 0.727176 0.421852 0.224194
O O18 0.067306 0.218767 0.500000
O O19 0.000000 0.218187 0.786992
O O20 0.500000 0.090904 0.724603
O O21 0.415593 0.000000 0.724632
O O22 0.430467 0.070134 0.000000
O O23 0.214362 0.615509 0.500000
#
# Coordination Sequence:
#
# PCOD9381292 Si02
#       8
#     8   8   8   8   8   8   8   8
#     4   9  16  24  36  57  82 105 133 173 218 260
#     4   9  16  25  39  62  90 117 144 177 221 267
#     4  10  17  27  45  69  94 119 148 180 216 259
#     4   8  13  22  38  59  86 115 140 174 217 253
#     4   9  16  26  41  60  82 111 147 185 223 262
#     4   8  13  22  37  57  82 115 150 175 203 251
#     4   9  19  35  50  64  88 121 151 181 220 261
#     4   9  15  26  42  58  80 110 143 176 214 261
#
# _framework density 19.328866000000001
#
# number of rings (size 3 to 8) (size 9 to 14) (size 15 to 20)
#    0.000    3.125    1.250    1.875    0.000    2.000 
#    0.000    4.375    0.000    0.750    0.000    2.625 
#    0.000    0.500    0.000   10.000    0.000    4.875 
#
# Total GULP energy -356572.319748 kJ/mol
# GULP energy per Si atom -5571.442496 kJ/mol
# Density = 1.928487 g / cm^3
# Si number density = 19.328866 Si / 1000 Ang^3
#
#
#
# Elastic Constant Matrix: (Units=GPa)
#
#
# Indices 1 2 3 4 5 6 
#
# 1 194.4356 69.6699 6.3364 0.0000 0.0000 0.0000
# 2 69.6699 75.7280 -0.4319 0.0000 0.0000 0.0000
# 3 6.3364 -0.4319 45.5439 0.0000 0.0000 0.0000
# 4 0.0000 0.0000 0.0000 17.1769 0.0000 0.0000
# 5 0.0000 0.0000 0.0000 0.0000 55.8922 0.0000
# 6 0.0000 0.0000 0.0000 0.0000 0.0000 -14.0114
#
#
#
# Elastic Compliance Matrix: (Units=1/GPa)
#
#
# Indices 1 2 3 4 5 6 
#
# 1 0.007731 -0.007119 -0.001143 0.000000 0.000000 0.000000
# 2 -0.007119 0.019762 0.001178 0.000000 0.000000 0.000000
# 3 -0.001143 0.001178 0.022127 0.000000 0.000000 0.000000
# 4 0.000000 0.000000 0.000000 0.058218 0.000000 0.000000
# 5 0.000000 0.000000 0.000000 0.000000 0.017892 0.000000
# 6 0.000000 0.000000 0.000000 0.000000 0.000000 -0.071371
#
#
# Mechanical properties :
#
#
# Convention : Reuss Voigt Hill
#
# Bulk Modulus (GPa) = 28.20810 51.87293 40.04051
# Shear Modulus (GPa) = 62.23177 27.82044 45.02610
#
# Velocity S-wave (km/s) = 5.68033 3.79795 4.83170
# Velocity P-wave (km/s) = 7.59256 6.79175 7.20329
#
# Compressibility (1/GPa) = 0.03545081
#
# Stress axis : x y z
#
# Youngs Moduli (GPa) = 129.34359 50.60292 45.19360
#
# Poissons Ratio (x) = 0.36026 0.05166
# Poissons Ratio (y) = 0.92085 -0.05323
# Poissons Ratio (z) = 0.14786 -0.05960
#
# Static dielectric constant tensor:
#      x y z
#    x 1.725320 0.000000 0.000000 
#    y 0.000000 1.634520 0.000000 
#    z 0.000000 0.000000 1.757180 
# 
# From -- ./inp_files/11827.got.cif
#   From: 2010.05.17/outbox.cif.g08.bks.cpg/sg47_6_cif.got.tgz:11827.got - 2010.06.03 20:15:42.
