data_PCOD9381254
_publ_section_title
;
Structure prediction by ZEFSAII (Michael W. Deem and Ramdas Pophale) SiO2 
 PCOD9381254
Probable space group: P M M M
;
_chemical_formula_sum "Si O2"
_cell_formula_units_Z 64
_cell_length_a 14.915594
_cell_length_b 8.915192
_cell_length_c 29.552215
_cell_angle_alpha 90.000000
_cell_angle_beta 90.000000
_cell_angle_gamma 90.000000
_cell_volume 3929.717147
_symmetry_space_group_name_H-M "P M M M"
_symmetry_group_IT_number 47
_symmetry_cell_setting 'orthorhombic'
loop_
_space_group_symop_operation_xyz
x,y,z
-x,-y,z
x,-y,-z
-x,y,-z
-x,-y,-z
x,y,-z
-x,y,z
x,-y,z
loop_
_atom_site_type_symbol
_atom_site_label
_atom_site_fract_x
_atom_site_fract_y
_atom_site_fract_z
Si Si1 0.396137 0.819209 0.413388
Si Si2 0.719100 0.181664 0.224322
Si Si3 0.398295 0.181970 0.309700
Si Si4 0.898470 0.182860 0.267585
Si Si5 0.608588 0.174975 0.950113
Si Si6 0.892832 0.823363 0.370499
Si Si7 0.778351 0.678942 0.450031
Si Si8 0.604883 0.679047 0.856141
O O1 0.500000 0.781367 0.423289
O O2 0.376727 0.773975 0.361097
O O3 0.321720 0.742538 0.443717
O O4 0.388384 0.000000 0.416456
O O5 0.667638 0.229400 0.270189
O O6 0.822283 0.227219 0.232157
O O7 0.667762 0.249575 0.181843
O O8 0.715074 0.000000 0.221349
O O9 0.500000 0.230295 0.299534
O O10 0.397721 0.000000 0.309992
O O11 0.873644 0.228679 0.319040
O O12 0.000000 0.232519 0.257768
O O13 0.899636 0.000000 0.268713
O O14 0.500000 0.180456 0.951173
O O15 0.634887 0.267553 0.906038
O O16 0.633536 0.000000 0.944782
O O17 0.639660 0.226740 0.000000
O O18 0.838915 0.741146 0.409516
O O19 0.000000 0.808980 0.376785
O O20 0.869654 0.000000 0.372668
O O21 0.812319 0.723610 0.500000
O O22 0.776342 0.500000 0.447658
O O23 0.500000 0.726196 0.849620
O O24 0.607688 0.500000 0.853482
#
# Coordination Sequence:
#
# PCOD9381254 Si02
#       8
#     8   8   8   8   8   8   8   8
#     4   9  18  34  55  74  90 113 152 198 233 263
#     4  10  17  26  45  67  89 121 153 181 219 268
#     4   8  14  25  43  67  89 110 143 185 224 262
#     4   8  15  29  50  75  96 113 142 187 233 272
#     4   8  14  26  44  63  83 113 157 203 238 270
#     4   9  18  35  59  80  94 112 144 187 230 273
#     4  11  24  37  48  67  97 128 151 176 219 275
#     4  10  20  30  39  58  93 131 162 194 230 265
#
# _framework density 16.286159000000001
#
# number of rings (size 3 to 8) (size 9 to 14) (size 15 to 20)
#    0.000    2.875    0.000    3.750    0.000    5.500 
#    0.000    6.250    0.000    1.875    0.000    0.000 
#    0.000    0.500    0.000    5.750    0.000    1.875 
#
# Total GULP energy -356632.696960 kJ/mol
# GULP energy per Si atom -5572.385890 kJ/mol
# Density = 1.624909 g / cm^3
# Si number density = 16.286159 Si / 1000 Ang^3
#
#
#
# Elastic Constant Matrix: (Units=GPa)
#
#
# Indices 1 2 3 4 5 6 
#
# 1 66.2671 27.5777 65.8525 0.0000 0.0000 0.0000
# 2 27.5777 23.6487 31.8397 0.0000 0.0000 0.0000
# 3 65.8525 31.8397 98.5456 0.0000 0.0000 0.0000
# 4 0.0000 0.0000 0.0000 348.3244 0.0000 0.0000
# 5 0.0000 0.0000 0.0000 0.0000 17.0632 0.0000
# 6 0.0000 0.0000 0.0000 0.0000 0.0000 8.1507
#
#
#
# Elastic Compliance Matrix: (Units=1/GPa)
#
#
# Indices 1 2 3 4 5 6 
#
# 1 0.051840 -0.024447 -0.026743 0.000000 0.000000 0.000000
# 2 -0.024447 0.086371 -0.011570 0.000000 0.000000 0.000000
# 3 -0.026743 -0.011570 0.031757 0.000000 0.000000 0.000000
# 4 0.000000 0.000000 0.000000 0.002871 0.000000 0.000000
# 5 0.000000 0.000000 0.000000 0.000000 0.058606 0.000000
# 6 0.000000 0.000000 0.000000 0.000000 0.000000 0.122689
#
#
# Mechanical properties :
#
#
# Convention : Reuss Voigt Hill
#
# Bulk Modulus (GPa) = 22.49801 48.77789 35.63795
# Shear Modulus (GPa) = 10.11188 78.92043 44.51615
#
# Velocity S-wave (km/s) = 2.49447 6.96877 5.23384
# Velocity P-wave (km/s) = 4.70539 9.73485 7.64552
#
# Compressibility (1/GPa) = 0.04444837
#
# Stress axis : x y z
#
# Youngs Moduli (GPa) = 19.29013 11.57799 31.48949
#
# Poissons Ratio (x) = 0.28304 0.84213
# Poissons Ratio (y) = 0.47158 0.36432
# Poissons Ratio (z) = 0.51588 0.13395
#
# Static dielectric constant tensor:
#      x y z
#    x 1.551220 0.000000 0.000000 
#    y 0.000000 1.542790 0.000000 
#    z 0.000000 0.000000 1.550560 
# 
# From -- ./inp_files/34664.got.cif
#   From: 2010.05.17/outbox.cif.g08.bks.cpg/sg47_18_cif.got.tgz:34664.got - 2010.06.03 20:15:42.
