data_PCOD9381063
_publ_section_title
;
Structure prediction by ZEFSAII (Michael W. Deem and Ramdas Pophale) SiO2 
 PCOD9381063
Probable space group: I M A 2
;
_chemical_formula_sum "Si O2"
_cell_formula_units_Z 40
_cell_length_a 11.337707
_cell_length_b 9.553259
_cell_length_c 16.280764
_cell_angle_alpha 90.000000
_cell_angle_beta 90.000000
_cell_angle_gamma 90.000000
_cell_volume 1763.402948
_symmetry_space_group_name_H-M "I M A 2"
_symmetry_group_IT_number 46
_symmetry_cell_setting 'orthorhombic'
loop_
_space_group_symop_operation_xyz
x,y,z
-x,-y,z
1/2-x,y,z
1/2+x,-y,z
1/2+x,1/2+y,1/2+z
1/2-x,1/2-y,1/2+z
-x,1/2+y,1/2+z
x,1/2-y,1/2+z
loop_
_atom_site_type_symbol
_atom_site_label
_atom_site_fract_x
_atom_site_fract_y
_atom_site_fract_z
Si Si1 0.878397 0.745343 0.992780
Si Si2 0.875338 0.002872 0.864582
Si Si3 0.877814 0.183305 0.433885
Si Si4 0.621735 0.669317 0.681639
Si Si5 0.621814 0.355372 0.746103
O O1 0.750000 0.674337 0.981456
O O2 0.878185 0.874851 0.928935
O O3 0.997991 0.659842 0.977910
O O4 0.883397 0.802998 0.085049
O O5 0.750000 0.996073 0.819511
O O6 0.874342 0.149463 0.914120
O O7 0.000000 0.000000 0.818376
O O8 0.750000 0.150360 0.472801
O O9 0.882781 0.115706 0.343388
O O10 0.750000 0.722034 0.712649
O O11 0.623156 0.503194 0.699520
O O12 0.499524 0.720422 0.721823
O O13 0.750000 0.286749 0.729891
#
# Coordination Sequence:
#
# PCOD9381063 Si02
#       5
#     8   8   8   8   8
#     4   9  17  28  44  67  90 118 154 188 225 271
#     4   8  14  23  37  57  83 110 141 178 217 257
#     4   9  17  27  40  61  92 123 151 185 226 270
#     4   9  18  30  45  64  91 123 153 185 229 278
#     4   9  18  29  41  62  93 124 152 185 229 276
#
# _framework density 22.683415
#
# number of rings (size 3 to 8) (size 9 to 14) (size 15 to 20)
#    0.000    3.200    0.000    0.000    8.400    1.600 
#    0.000    0.000    0.000    0.000    0.000    0.000 
#   18.000    0.000   13.200    0.000   14.000    1.400 
#
# Total GULP energy -111356.240090 kJ/mol
# GULP energy per Si atom -5567.812005 kJ/mol
# Density = 2.263179 g / cm^3
# Si number density = 22.683415 Si / 1000 Ang^3
#
#
#
# Elastic Constant Matrix: (Units=GPa)
#
#
# Indices 1 2 3 4 5 6 
#
# 1 324.2242 21.0702 64.4668 0.0000 0.0000 0.0000
# 2 21.0702 76.8065 11.8576 0.0000 0.0000 0.0000
# 3 64.4668 11.8576 38.5866 0.0000 0.0000 0.0000
# 4 0.0000 0.0000 0.0000 22.0207 0.0000 0.0000
# 5 0.0000 0.0000 0.0000 0.0000 32.1450 0.0000
# 6 0.0000 0.0000 0.0000 0.0000 0.0000 -22.8883
#
#
#
# Elastic Compliance Matrix: (Units=1/GPa)
#
#
# Indices 1 2 3 4 5 6 
#
# 1 0.004619 -0.000080 -0.007693 0.000000 0.000000 0.000000
# 2 -0.000080 0.013670 -0.004068 0.000000 0.000000 0.000000
# 3 -0.007693 -0.004068 0.040018 0.000000 0.000000 0.000000
# 4 0.000000 0.000000 0.000000 0.045412 0.000000 0.000000
# 5 0.000000 0.000000 0.000000 0.000000 0.031109 0.000000
# 6 0.000000 0.000000 0.000000 0.000000 0.000000 -0.043690
#
#
# Mechanical properties :
#
#
# Convention : Reuss Voigt Hill
#
# Bulk Modulus (GPa) = 28.87956 70.48961 49.68459
# Shear Modulus (GPa) = 39.57001 29.07034 34.32017
#
# Velocity S-wave (km/s) = 4.18119 3.58378 3.89396
# Velocity P-wave (km/s) = 6.00575 6.94748 6.49371
#
# Compressibility (1/GPa) = 0.03462656
#
# Stress axis : x y z
#
# Youngs Moduli (GPa) = 216.49763 73.15532 24.98897
#
# Poissons Ratio (x) = 0.00582 0.19223
# Poissons Ratio (y) = 0.01722 0.10165
# Poissons Ratio (z) = 1.66541 0.29758
#
# Static dielectric constant tensor:
#      x y z
#    x 1.991760 0.000000 0.000000 
#    y 0.000000 1.805910 0.000000 
#    z 0.000000 0.000000 1.774060 
# 
# From -- ./inp_files/10137.got.cif
#   From: 2010.05.17/outbox.cif.g08.bks.cpg/sg46_6_cif.got.tgz:10137.got - 2010.06.03 19:58:25.
