data_PCOD9381114
_publ_section_title
;
Structure prediction by ZEFSAII (Michael W. Deem and Ramdas Pophale) SiO2 
 PCOD9381114
Probable space group: I M A 2
;
_chemical_formula_sum "Si O2"
_cell_formula_units_Z 28
_cell_length_a 9.000000
_cell_length_b 15.000000
_cell_length_c 21.000000
_cell_angle_alpha 90.000000
_cell_angle_beta 90.000000
_cell_angle_gamma 90.000000
_cell_volume 2835.000000
_symmetry_space_group_name_H-M "I M A 2"
_symmetry_group_IT_number 46
_symmetry_cell_setting 'orthorhombic'
loop_
_space_group_symop_operation_xyz
x,y,z
-x,-y,z
1/2-x,y,z
1/2+x,-y,z
1/2+x,1/2+y,1/2+z
1/2-x,1/2-y,1/2+z
-x,1/2+y,1/2+z
x,1/2-y,1/2+z
loop_
_atom_site_type_symbol
_atom_site_label
_atom_site_fract_x
_atom_site_fract_y
_atom_site_fract_z
Si Si1 0.072422 0.095287 0.411150
Si Si2 0.927845 0.726181 0.795672
Si Si3 0.923365 0.409027 0.282178
Si Si4 0.072884 0.409615 0.540022
Si Si5 0.571927 0.908286 0.190395
Si Si6 0.075641 0.907357 0.629159
Si Si7 0.429435 0.286450 0.030242
O O1 0.250000 0.085449 0.413349
O O2 0.037026 0.157241 0.351388
O O3 0.025644 0.145981 0.475004
O O4 0.000000 0.000000 0.405614
O O5 0.750000 0.739152 0.792755
O O6 0.976932 0.677439 0.730512
O O7 0.002615 0.820174 0.808134
O O8 0.750000 0.412138 0.296357
O O9 0.942141 0.403037 0.205308
O O10 0.000000 0.500000 0.303852
O O11 0.250000 0.418034 0.533717
O O12 0.037402 0.401607 0.615608
O O13 0.025448 0.314243 0.512769
O O14 0.000000 0.500000 0.515191
O O15 0.750000 0.915104 0.196956
O O16 0.500000 0.000000 0.214784
O O17 0.250000 0.909654 0.614305
O O18 0.998807 0.824483 0.594714
O O19 0.000000 0.000000 0.607544
O O20 0.250000 0.286066 0.036683
#
# Coordination Sequence:
#
# PCOD9381114 Si02
#       7
#     8   8   8   8   8   8   8
#     4  10  22  38  56  79 107 140 178 220 262 309
#     4  10  20  35  54  76 105 140 176 216 264 314
#     4  10  21  36  55  80 108 138 174 218 266 317
#     4   9  18  32  50  73 101 132 168 211 259 311
#     4   9  17  29  48  74 102 133 167 208 260 313
#     4  10  20  33  52  80 110 139 174 217 266 319
#     4  10  20  35  54  76 106 144 182 220 265 313
#
# _framework density 9.8765429999999999
#
# number of rings (size 3 to 8) (size 9 to 14) (size 15 to 20)
#    0.000    2.286    0.000    2.571    0.000    6.286 
#    0.000    3.571    0.000    1.714    0.000    0.000 
#    0.000    0.000    0.000    0.000    0.000    0.000 
#
# Total GULP energy -156309.120218 kJ/mol
# GULP energy per Si atom -5582.468579 kJ/mol
# Density = 0.985406 g / cm^3
# Si number density = 9.876543 Si / 1000 Ang^3
#
#
#
# Elastic Constant Matrix: (Units=GPa)
#
#
# Indices 1 2 3 4 5 6 
#
# 1 14.1417 58.8073 31.3114 0.0000 0.0000 0.0000
# 2 58.8073 195.3506 28.6627 0.0000 0.0000 0.0000
# 3 31.3114 28.6627 12.9717 0.0000 0.0000 0.0000
# 4 0.0000 0.0000 0.0000 43.1779 0.0000 0.0000
# 5 0.0000 0.0000 0.0000 0.0000 9.9538 0.0000
# 6 0.0000 0.0000 0.0000 0.0000 0.0000 36.2688
#
#
#
# Elastic Compliance Matrix: (Units=1/GPa)
#
#
# Indices 1 2 3 4 5 6 
#
# 1 -0.016063 -0.001263 0.041564 0.000000 0.000000 0.000000
# 2 -0.001263 0.007476 -0.013470 0.000000 0.000000 0.000000
# 3 0.041564 -0.013470 0.006526 0.000000 0.000000 0.000000
# 4 0.000000 0.000000 0.000000 0.023160 0.000000 0.000000
# 5 0.000000 0.000000 0.000000 0.000000 0.100464 0.000000
# 6 0.000000 0.000000 0.000000 0.000000 0.000000 0.027572
#
#
# Mechanical properties :
#
#
# Convention : Reuss Voigt Hill
#
# Bulk Modulus (GPa) = 19.37947 51.11409 35.24678
# Shear Modulus (GPa) = 44.37667 24.79226 34.58446
#
# Velocity S-wave (km/s) = 4.74494 3.54659 4.18884
# Velocity P-wave (km/s) = 6.31280 6.53481 6.42477
#
# Compressibility (1/GPa) = 0.05160100
#
# Stress axis : x y z
#
# Youngs Moduli (GPa) = -62.25425 133.77014 153.23832
#
# Poissons Ratio (x) = 0.16894 -6.36920
# Poissons Ratio (y) = -0.07862 2.06408
# Poissons Ratio (z) = 2.58754 1.80185
#
# Static dielectric constant tensor:
#      x y z
#    x 1.662780 0.000000 0.000000 
#    y 0.000000 1.684610 0.000000 
#    z 0.000000 0.000000 1.720230 
# 
# From -- ./inp_files/21037.got.cif
#   From: 2010.05.17/outbox.ucp.g08.bks.cvg/sg46_11_cif.got.tgz:21037.got - 2010.06.11 16:34:52.
