data_PCOD9381259
_publ_section_title
;
Structure prediction by ZEFSAII (Michael W. Deem and Ramdas Pophale) SiO2 
 PCOD9381259
Probable space group: P M M M
;
_chemical_formula_sum "Si O2"
_cell_formula_units_Z 52
_cell_length_a 24.371359
_cell_length_b 7.460945
_cell_length_c 14.522249
_cell_angle_alpha 90.000000
_cell_angle_beta 90.000000
_cell_angle_gamma 90.000000
_cell_volume 2640.629462
_symmetry_space_group_name_H-M "P M M M"
_symmetry_group_IT_number 47
_symmetry_cell_setting 'orthorhombic'
loop_
_space_group_symop_operation_xyz
x,y,z
-x,-y,z
x,-y,-z
-x,y,-z
-x,-y,-z
x,y,-z
-x,y,z
x,-y,z
loop_
_atom_site_type_symbol
_atom_site_label
_atom_site_fract_x
_atom_site_fract_y
_atom_site_fract_z
Si Si1 0.721483 0.280759 0.607013
Si Si2 0.610643 0.710951 0.296737
Si Si3 0.831024 0.710870 0.292657
Si Si4 0.500000 0.280357 0.607138
Si Si5 0.654568 0.215855 0.103502
Si Si6 0.938627 0.281509 0.606903
Si Si7 0.779980 0.215862 0.103362
O O1 0.720654 0.231672 0.500000
O O2 0.721658 0.500000 0.611582
O O3 0.666657 0.216178 0.658354
O O4 0.776899 0.216004 0.656351
O O5 0.610731 0.500000 0.318020
O O6 0.554969 0.782533 0.341266
O O7 0.615796 0.730188 0.187015
O O8 0.831987 0.500000 0.314619
O O9 0.888465 0.783266 0.330544
O O10 0.820301 0.729157 0.184334
O O11 0.500000 0.500000 0.609625
O O12 0.500000 0.229002 0.500000
O O13 0.717307 0.277322 0.122920
O O14 0.655676 0.000000 0.101980
O O15 0.639809 0.275974 0.000000
O O16 0.928993 0.233068 0.500000
O O17 0.939606 0.500000 0.610123
O O18 0.000000 0.221633 0.633212
O O19 0.778581 0.000000 0.102557
O O20 0.794414 0.275636 0.000000
#
# Coordination Sequence:
#
# PCOD9381259 Si02
#       7
#     8   8   8   4   8   8   8
#     4   9  16  25  40  66  96 119 143 183 231 270
#     4  10  18  30  49  72  94 121 156 193 228 266
#     4  10  17  26  45  73  96 116 151 196 233 265
#     4   9  18  32  50  71  96 128 161 187 220 275
#     4   9  18  33  51  69  92 123 154 187 235 289
#     4   8  14  25  42  66  97 130 158 184 221 272
#     4   9  18  32  48  66  92 125 154 184 233 291
#
# _framework density 19.692273
#
# number of rings (size 3 to 8) (size 9 to 14) (size 15 to 20)
#    0.000    2.846    1.538    2.308    0.000    4.308 
#    0.000    2.308    0.000    8.308    0.000    4.308 
#    0.000    0.000    0.000    0.000    0.000    0.000 
#
# Total GULP energy -290134.179043 kJ/mol
# GULP energy per Si atom -5579.503443 kJ/mol
# Density = 1.964745 g / cm^3
# Si number density = 19.692273 Si / 1000 Ang^3
#
#
#
# Elastic Constant Matrix: (Units=GPa)
#
#
# Indices 1 2 3 4 5 6 
#
# 1 184.4315 9.6498 119.1670 0.0000 0.0000 0.0000
# 2 9.6498 55.0867 -8.2250 0.0000 0.0000 0.0000
# 3 119.1670 -8.2250 152.3745 0.0000 0.0000 0.0000
# 4 0.0000 0.0000 0.0000 33.3819 0.0000 0.0000
# 5 0.0000 0.0000 0.0000 0.0000 35.8229 0.0000
# 6 0.0000 0.0000 0.0000 0.0000 0.0000 -2.0062
#
#
#
# Elastic Compliance Matrix: (Units=1/GPa)
#
#
# Indices 1 2 3 4 5 6 
#
# 1 0.011560 -0.003402 -0.009225 0.000000 0.000000 0.000000
# 2 -0.003402 0.019302 0.003703 0.000000 0.000000 0.000000
# 3 -0.009225 0.003703 0.013977 0.000000 0.000000 0.000000
# 4 0.000000 0.000000 0.000000 0.029956 0.000000 0.000000
# 5 0.000000 0.000000 0.000000 0.000000 0.027915 0.000000
# 6 0.000000 0.000000 0.000000 0.000000 0.000000 -0.498463
#
#
# Mechanical properties :
#
#
# Convention : Reuss Voigt Hill
#
# Bulk Modulus (GPa) = 37.04953 70.34181 53.69567
# Shear Modulus (GPa) = -13.55357 31.52644 8.98644
#
# Velocity S-wave (km/s) = -2.62633 4.00553 2.13854
# Velocity P-wave (km/s) = 3.10777 7.56244 5.78138
#
# Compressibility (1/GPa) = 0.02699089
#
# Stress axis : x y z
#
# Youngs Moduli (GPa) = 86.50170 51.80792 71.54614
#
# Poissons Ratio (x) = 0.17627 0.65999
# Poissons Ratio (y) = 0.29432 -0.26492
# Poissons Ratio (z) = 0.79795 -0.19184
#
# Static dielectric constant tensor:
#      x y z
#    x 1.682860 0.000000 0.000000 
#    y 0.000000 1.755450 0.000000 
#    z 0.000000 0.000000 1.673780 
# 
# From -- ./inp_files/25024.got.cif
#   From: 2010.05.17/outbox.cif.g08.bks.cpg/sg47_13_cif.got.tgz:25024.got - 2010.06.03 20:15:42.
