data_PCOD9381117
_publ_section_title
;
Structure prediction by ZEFSAII (Michael W. Deem and Ramdas Pophale) SiO2 
 PCOD9381117
Probable space group: I M A 2
;
_chemical_formula_sum "Si O2"
_cell_formula_units_Z 32
_cell_length_a 9.000000
_cell_length_b 18.000000
_cell_length_c 21.000000
_cell_angle_alpha 90.000000
_cell_angle_beta 90.000000
_cell_angle_gamma 90.000000
_cell_volume 3402.000000
_symmetry_space_group_name_H-M "I M A 2"
_symmetry_group_IT_number 46
_symmetry_cell_setting 'orthorhombic'
loop_
_space_group_symop_operation_xyz
x,y,z
-x,-y,z
1/2-x,y,z
1/2+x,-y,z
1/2+x,1/2+y,1/2+z
1/2-x,1/2-y,1/2+z
-x,1/2+y,1/2+z
x,1/2-y,1/2+z
loop_
_atom_site_type_symbol
_atom_site_label
_atom_site_fract_x
_atom_site_fract_y
_atom_site_fract_z
Si Si1 0.927782 0.574770 0.063790
Si Si2 0.428554 0.299466 0.163043
Si Si3 0.428494 0.122796 0.290845
Si Si4 0.070952 0.076181 0.015681
Si Si5 0.430100 0.374425 0.653634
Si Si6 0.926051 0.296920 0.431381
Si Si7 0.069478 0.366812 0.928561
Si Si8 0.575066 0.215428 0.788552
O O1 0.750000 0.567702 0.065477
O O2 0.967225 0.647114 0.104862
O O3 0.000000 0.500000 0.089365
O O4 0.973876 0.587657 0.990765
O O5 0.250000 0.301430 0.172454
O O6 0.469383 0.213343 0.150200
O O7 0.511543 0.325363 0.226910
O O8 0.250000 0.118092 0.289526
O O9 0.483685 0.094231 0.222080
O O10 0.476892 0.096642 0.360934
O O11 0.479910 0.208656 0.290876
O O12 0.250000 0.073741 0.013090
O O13 0.020547 0.086586 0.089242
O O14 0.000000 0.000000 0.990982
O O15 0.010745 0.146426 0.976777
O O16 0.250000 0.377749 0.653855
O O17 0.750000 0.293970 0.445779
O O18 0.942559 0.321540 0.357424
O O19 0.996176 0.214553 0.434855
O O20 0.250000 0.358406 0.928408
O O21 0.750000 0.232616 0.780552
#
# Coordination Sequence:
#
# PCOD9381117 Si02
#       8
#     8   8   8   8   8   8   8   8
#     4  10  21  35  50  72 103 137 173 210 249 294
#     4   9  17  32  53  74  97 129 168 204 243 297
#     4   8  14  28  51  75  98 127 164 201 241 293
#     4  11  22  36  52  71 101 137 172 209 249 295
#     4   8  15  30  53  76  96 123 162 206 246 289
#     4  10  20  34  53  78 104 129 163 207 253 301
#     4   9  17  32  55  78 100 132 171 207 246 295
#     4   9  17  29  48  76 104 124 152 202 254 296
#
# _framework density 9.4062319999999993
#
# number of rings (size 3 to 8) (size 9 to 14) (size 15 to 20)
#    0.000    2.750    0.000    2.625    0.000    4.500 
#    0.000    8.750    0.000    1.500    0.000    0.000 
#    0.000    0.000    0.000    0.000    0.000    0.000 
#
# Total GULP energy -178255.397508 kJ/mol
# GULP energy per Si atom -5570.481172 kJ/mol
# Density = 0.938482 g / cm^3
# Si number density = 9.406232 Si / 1000 Ang^3
#
#
#
# Elastic Constant Matrix: (Units=GPa)
#
#
# Indices 1 2 3 4 5 6 
#
# 1 11.0617 8.8759 7.0574 0.0000 0.0000 0.0000
# 2 8.8759 59.6581 22.1058 0.0000 0.0000 0.0000
# 3 7.0574 22.1058 87.1118 0.0000 0.0000 0.0000
# 4 0.0000 0.0000 0.0000 -16.4137 0.0000 0.0000
# 5 0.0000 0.0000 0.0000 0.0000 20.8903 0.0000
# 6 0.0000 0.0000 0.0000 0.0000 0.0000 16.4431
#
#
#
# Elastic Compliance Matrix: (Units=1/GPa)
#
#
# Indices 1 2 3 4 5 6 
#
# 1 0.104589 -0.013710 -0.004994 0.000000 0.000000 0.000000
# 2 -0.013710 0.020299 -0.004040 0.000000 0.000000 0.000000
# 3 -0.004994 -0.004040 0.012909 0.000000 0.000000 0.000000
# 4 0.000000 0.000000 0.000000 -0.060925 0.000000 0.000000
# 5 0.000000 0.000000 0.000000 0.000000 0.047869 0.000000
# 6 0.000000 0.000000 0.000000 0.000000 0.000000 0.060816
#
#
# Mechanical properties :
#
#
# Convention : Reuss Voigt Hill
#
# Bulk Modulus (GPa) = 10.83329 25.98997 18.41163
# Shear Modulus (GPa) = 19.09732 12.17010 15.63371
#
# Velocity S-wave (km/s) = 3.18959 2.54622 2.88589
# Velocity P-wave (km/s) = 4.39724 4.74232 4.57303
#
# Compressibility (1/GPa) = 0.09230807
#
# Stress axis : x y z
#
# Youngs Moduli (GPa) = 9.56123 49.26326 77.46275
#
# Poissons Ratio (x) = 0.67540 0.38687
# Poissons Ratio (y) = 0.13109 0.31298
# Poissons Ratio (z) = 0.04775 0.19905
#
# Static dielectric constant tensor:
#      x y z
#    x 1.625180 0.000000 0.000000 
#    y 0.000000 1.604930 0.000000 
#    z 0.000000 0.000000 1.722950 
# 
# From -- ./inp_files/21320.got.cif
#   From: 2010.05.17/outbox.ucp.g08.bks.cvg/sg46_11_cif.got.tgz:21320.got - 2010.06.11 16:34:52.
