data_PCOD9381713
_publ_section_title
;
Structure prediction by ZEFSAII (Michael W. Deem and Ramdas Pophale) SiO2 
 PCOD9381713
Probable space group: P M M M
;
_chemical_formula_sum "Si O2"
_cell_formula_units_Z 56
_cell_length_a 23.856193
_cell_length_b 22.615415
_cell_length_c 9.311799
_cell_angle_alpha 90.000000
_cell_angle_beta 90.000000
_cell_angle_gamma 90.000000
_cell_volume 5023.880426
_symmetry_space_group_name_H-M "P M M M"
_symmetry_group_IT_number 47
_symmetry_cell_setting 'orthorhombic'
loop_
_space_group_symop_operation_xyz
x,y,z
-x,-y,z
x,-y,-z
-x,y,-z
-x,-y,-z
x,y,-z
-x,y,z
x,-y,z
loop_
_atom_site_type_symbol
_atom_site_label
_atom_site_fract_x
_atom_site_fract_y
_atom_site_fract_z
Si Si1 0.566386 0.263894 0.170624
Si Si2 0.568362 0.500000 0.834293
Si Si3 0.500000 0.932491 0.825596
Si Si4 0.612888 0.136144 0.826866
Si Si5 0.937296 0.071888 0.667118
Si Si6 0.827745 0.928149 0.164464
Si Si7 0.568202 0.382722 0.334768
Si Si8 0.286068 0.929592 0.328718
O O1 0.500000 0.252280 0.198969
O O2 0.601227 0.205031 0.204100
O O3 0.584250 0.321614 0.258185
O O4 0.570833 0.275595 0.000000
O O5 0.500000 0.500000 0.833238
O O6 0.586541 0.559321 0.752370
O O7 0.585938 0.500000 0.000000
O O8 0.443583 0.898788 0.783297
O O9 0.500000 0.000000 0.775186
O O10 0.500000 0.932849 0.000000
O O11 0.665141 0.107817 0.745894
O O12 0.619681 0.129871 0.000000
O O13 0.928994 0.088110 0.500000
O O14 0.885804 0.092525 0.764075
O O15 0.000000 0.090698 0.712006
O O16 0.937073 0.000000 0.671508
O O17 0.773672 0.912874 0.259218
O O18 0.829856 0.000000 0.162855
O O19 0.821889 0.908326 0.000000
O O20 0.586319 0.384999 0.500000
O O21 0.500000 0.383587 0.333757
O O22 0.285214 0.921253 0.500000
O O23 0.295125 0.000000 0.301017
#
# Coordination Sequence:
#
# PCOD9381713 Si02
#       8
#     8   4   4   8   8   8   8   8
#     4   9  16  27  40  53  68  84 104 128 158 196
#     4   9  15  23  35  51  69  89 109 127 147 171
#     4   9  16  26  41  57  67  76  95 128 169 209
#     4  10  18  29  43  56  66  80 104 134 166 205
#     4   8  13  21  33  49  69  90 106 120 144 180
#     4   9  16  25  37  51  65  82 105 131 156 185
#     4   9  16  24  35  51  70  89 107 125 148 179
#     4  10  20  31  40  50  65  84 105 132 169 210
#
# _framework density 11.146762000000001
#
# number of rings (size 3 to 8) (size 9 to 14) (size 15 to 20)
#    0.000    2.857    0.714    2.357    0.000    6.571 
#    0.000    1.786    0.000    1.286    0.000    0.000 
#    0.000    0.000    0.000    0.000    0.000    0.000 
#
# Total GULP energy -311807.609671 kJ/mol
# GULP energy per Si atom -5567.993030 kJ/mol
# Density = 1.112139 g / cm^3
# Si number density = 11.146762 Si / 1000 Ang^3
#
#
#
# Elastic Constant Matrix: (Units=GPa)
#
#
# Indices 1 2 3 4 5 6 
#
# 1 75.3364 33.6420 45.6479 0.0000 0.0000 0.0000
# 2 33.6420 70.1815 48.7169 0.0000 0.0000 0.0000
# 3 45.6479 48.7169 71.9108 0.0000 0.0000 0.0000
# 4 0.0000 0.0000 0.0000 12.8895 0.0000 0.0000
# 5 0.0000 0.0000 0.0000 0.0000 17.2143 0.0000
# 6 0.0000 0.0000 0.0000 0.0000 0.0000 0.9557
#
#
#
# Elastic Compliance Matrix: (Units=1/GPa)
#
#
# Indices 1 2 3 4 5 6 
#
# 1 0.021663 -0.001583 -0.012679 0.000000 0.000000 0.000000
# 2 -0.001583 0.027014 -0.017296 0.000000 0.000000 0.000000
# 3 -0.012679 -0.017296 0.033672 0.000000 0.000000 0.000000
# 4 0.000000 0.000000 0.000000 0.077583 0.000000 0.000000
# 5 0.000000 0.000000 0.000000 0.000000 0.058091 0.000000
# 6 0.000000 0.000000 0.000000 0.000000 0.000000 1.046363
#
#
# Mechanical properties :
#
#
# Convention : Reuss Voigt Hill
#
# Bulk Modulus (GPa) = 51.99446 52.60469 52.29958
# Shear Modulus (GPa) = 3.74837 12.17334 7.96086
#
# Velocity S-wave (km/s) = 1.83577 3.30827 2.67532
# Velocity P-wave (km/s) = 7.15821 7.86690 7.52091
#
# Compressibility (1/GPa) = 0.01923282
#
# Stress axis : x y z
#
# Youngs Moduli (GPa) = 46.16119 37.01828 29.69855
#
# Poissons Ratio (x) = 0.05861 0.37654
# Poissons Ratio (y) = 0.07309 0.51366
# Poissons Ratio (z) = 0.58527 0.64026
#
# Static dielectric constant tensor:
#      x y z
#    x 1.344720 0.000000 0.000000 
#    y 0.000000 1.341000 0.000000 
#    z 0.000000 0.000000 1.373180 
# 
# From -- ./inp_files/11772.got.cif
#   From: 2010.05.17/outbox.cif.g08.bks.cpg/sg47_6_cif.got.tgz:11772.got - 2010.06.03 20:15:42.
