data_PCOD9381003
_publ_section_title
;
Structure prediction by ZEFSAII (Michael W. Deem and Ramdas Pophale) SiO2 
 PCOD9381003
Probable space group: I M A 2
;
_chemical_formula_sum "Si O2"
_cell_formula_units_Z 40
_cell_length_a 20.369561
_cell_length_b 11.457586
_cell_length_c 6.732128
_cell_angle_alpha 90.000000
_cell_angle_beta 90.000000
_cell_angle_gamma 90.000000
_cell_volume 1571.184405
_symmetry_space_group_name_H-M "I M A 2"
_symmetry_group_IT_number 46
_symmetry_cell_setting 'orthorhombic'
loop_
_space_group_symop_operation_xyz
x,y,z
-x,-y,z
1/2-x,y,z
1/2+x,-y,z
1/2+x,1/2+y,1/2+z
1/2-x,1/2-y,1/2+z
-x,1/2+y,1/2+z
x,1/2-y,1/2+z
loop_
_atom_site_type_symbol
_atom_site_label
_atom_site_fract_x
_atom_site_fract_y
_atom_site_fract_z
Si Si1 0.380715 0.993812 0.730180
Si Si2 0.677304 0.102737 0.353144
Si Si3 0.549910 0.785482 0.587948
Si Si4 0.053567 0.731640 0.339912
Si Si5 0.322439 0.373044 0.583487
O O1 0.429836 0.078135 0.606823
O O2 0.333738 0.925199 0.582907
O O3 0.424034 0.903785 0.859990
O O4 0.334755 0.068159 0.871819
O O5 0.750000 0.150622 0.311160
O O6 0.617158 0.186783 0.306113
O O7 0.671669 0.979437 0.238949
O O8 0.465217 0.772949 0.583844
O O9 0.530954 0.751073 0.839838
O O10 0.618710 0.716365 0.599893
O O11 0.250000 0.320724 0.601739
#
# Coordination Sequence:
#
# PCOD9381003 Si02
#       5
#     8   8   8   8   8
#     4  12  26  48  74 108 153 193 250 308 382 438
#     4  11  27  48  73 108 148 195 252 306 370 450
#     4  12  25  45  75 107 144 194 244 305 372 442
#     4  12  25  45  75 107 144 194 244 305 372 442
#     4  11  27  48  73 108 148 195 252 306 370 450
#
# _framework density 25.458500999999998
#
# number of rings (size 3 to 8) (size 9 to 14) (size 15 to 20)
#    0.000    0.400    4.000    3.600    0.000    7.200 
#    0.000    0.000    0.000    0.000    0.000    0.000 
#    0.000    0.000    0.000    0.000    0.000    0.000 
#
# Total GULP energy -111839.810127 kJ/mol
# GULP energy per Si atom -5591.990506 kJ/mol
# Density = 2.540056 g / cm^3
# Si number density = 25.458501 Si / 1000 Ang^3
#
#
#
# Elastic Constant Matrix: (Units=GPa)
#
#
# Indices 1 2 3 4 5 6 
#
# 1 229.7844 76.4264 39.3249 0.0000 0.0000 0.0000
# 2 76.4264 95.0632 5.5330 0.0000 0.0000 0.0000
# 3 39.3249 5.5330 103.1590 0.0000 0.0000 0.0000
# 4 0.0000 0.0000 0.0000 53.9902 0.0000 0.0000
# 5 0.0000 0.0000 0.0000 0.0000 17.5104 0.0000
# 6 0.0000 0.0000 0.0000 0.0000 0.0000 -70.9324
#
#
#
# Elastic Compliance Matrix: (Units=1/GPa)
#
#
# Indices 1 2 3 4 5 6 
#
# 1 0.006389 -0.005011 -0.002167 0.000000 0.000000 0.000000
# 2 -0.005011 0.014482 0.001133 0.000000 0.000000 0.000000
# 3 -0.002167 0.001133 0.010459 0.000000 0.000000 0.000000
# 4 0.000000 0.000000 0.000000 0.018522 0.000000 0.000000
# 5 0.000000 0.000000 0.000000 0.000000 0.057109 0.000000
# 6 0.000000 0.000000 0.000000 0.000000 0.000000 -0.014098
#
#
# Mechanical properties :
#
#
# Convention : Reuss Voigt Hill
#
# Bulk Modulus (GPa) = 51.97057 74.50838 63.23947
# Shear Modulus (GPa) = 44.89750 20.56179 32.72965
#
# Velocity S-wave (km/s) = 4.20403 2.84502 3.58943
# Velocity P-wave (km/s) = 6.63500 6.33422 6.48635
#
# Compressibility (1/GPa) = 0.01924166
#
# Stress axis : x y z
#
# Youngs Moduli (GPa) = 156.51287 69.05312 95.61128
#
# Poissons Ratio (x) = 0.34599 0.20718
# Poissons Ratio (y) = 0.78421 -0.10836
# Poissons Ratio (z) = 0.33914 -0.07826
#
# Static dielectric constant tensor:
#      x y z
#    x 1.913100 0.000000 0.000000 
#    y 0.000000 1.981820 0.000000 
#    z 0.000000 0.000000 2.335370 
# 
# From -- ./inp_files/6378.got.cif
#   From: 2010.05.17/outbox.cif.g08.bks.cpg/sg46_4_cif.got.tgz:6378.got - 2010.06.03 19:58:25.
