data_PCOD9381899
_publ_section_title
;
Structure prediction by ZEFSAII (Michael W. Deem and Ramdas Pophale) SiO2 
 PCOD9381899
Probable space group: P M M M
;
_chemical_formula_sum "Si O2"
_cell_formula_units_Z 60
_cell_length_a 15.857852
_cell_length_b 14.838275
_cell_length_c 13.823161
_cell_angle_alpha 90.000000
_cell_angle_beta 90.000000
_cell_angle_gamma 90.000000
_cell_volume 3252.633587
_symmetry_space_group_name_H-M "P M M M"
_symmetry_group_IT_number 47
_symmetry_cell_setting 'orthorhombic'
loop_
_space_group_symop_operation_xyz
x,y,z
-x,-y,z
x,-y,-z
-x,y,-z
-x,-y,-z
x,y,-z
-x,y,z
x,-y,z
loop_
_atom_site_type_symbol
_atom_site_label
_atom_site_fract_x
_atom_site_fract_y
_atom_site_fract_z
Si Si1 0.628866 0.899040 0.178953
Si Si2 0.409525 0.295491 0.886435
Si Si3 0.095916 0.000000 0.382467
Si Si4 0.900592 0.276193 0.792361
Si Si5 0.241549 0.394602 0.883673
Si Si6 0.177673 0.899028 0.884427
Si Si7 0.349559 0.895516 0.394102
Si Si8 0.172329 0.810252 0.611138
O O1 0.595886 0.812348 0.123683
O O2 0.730739 0.894342 0.167016
O O3 0.604091 0.888620 0.291959
O O4 0.604377 0.000000 0.146399
O O5 0.500000 0.325486 0.844494
O O6 0.324174 0.340260 0.846861
O O7 0.410501 0.318217 0.000000
O O8 0.138297 0.092717 0.353261
O O9 0.098563 0.000000 0.500000
O O10 0.000000 0.000000 0.350311
O O11 0.843071 0.352106 0.841022
O O12 0.879233 0.182709 0.848184
O O13 0.865516 0.261471 0.683924
O O14 0.000000 0.293480 0.794007
O O15 0.250029 0.500000 0.861607
O O16 0.237942 0.384154 0.000000
O O17 0.143087 0.000000 0.867366
O O18 0.192250 0.889709 0.000000
O O19 0.391471 0.884447 0.500000
O O20 0.272653 0.825223 0.389117
O O21 0.316835 0.000000 0.394460
O O22 0.145474 0.796146 0.500000
#
# Coordination Sequence:
#
# PCOD9381899 Si02
#       8
#     8   8   4   8   8   8   8   8
#     4  10  18  30  50  76 112 154 185 215 261 316
#     4  10  20  35  58  87 114 139 173 218 270 330
#     4   9  16  24  36  58  93 137 178 217 261 305
#     4  12  24  35  53  79 108 145 189 232 272 324
#     4  10  22  42  64  83 106 135 173 228 289 342
#     4  10  20  33  48  68 102 149 191 223 259 308
#     4   9  15  25  44  68  97 140 193 236 267 304
#     4  10  18  30  46  69 105 144 184 232 278 316
#
# _framework density 18.446591000000002
#
# number of rings (size 3 to 8) (size 9 to 14) (size 15 to 20)
#    0.000    1.933    3.333    1.200    0.933    3.733 
#    0.000    3.333    0.000    0.800    0.000    2.800 
#    0.000    0.000    0.000    5.600    0.000    0.267 
#
# Total GULP energy -334616.637475 kJ/mol
# GULP energy per Si atom -5576.943958 kJ/mol
# Density = 1.840461 g / cm^3
# Si number density = 18.446591 Si / 1000 Ang^3
#
#
#
# Elastic Constant Matrix: (Units=GPa)
#
#
# Indices 1 2 3 4 5 6 
#
# 1 101.4546 42.6071 13.5801 0.0000 0.0000 0.0000
# 2 42.6071 75.1458 20.7134 0.0000 0.0000 0.0000
# 3 13.5801 20.7134 68.1520 0.0000 0.0000 0.0000
# 4 0.0000 0.0000 0.0000 19.8343 0.0000 0.0000
# 5 0.0000 0.0000 0.0000 0.0000 -13.6351 0.0000
# 6 0.0000 0.0000 0.0000 0.0000 0.0000 -6.7059
#
#
#
# Elastic Compliance Matrix: (Units=1/GPa)
#
#
# Indices 1 2 3 4 5 6 
#
# 1 0.012946 -0.007235 -0.000381 0.000000 0.000000 0.000000
# 2 -0.007235 0.018568 -0.004202 0.000000 0.000000 0.000000
# 3 -0.000381 -0.004202 0.016026 0.000000 0.000000 0.000000
# 4 0.000000 0.000000 0.000000 0.050418 0.000000 0.000000
# 5 0.000000 0.000000 0.000000 0.000000 -0.073340 0.000000
# 6 0.000000 0.000000 0.000000 0.000000 0.000000 -0.149123
#
#
# Mechanical properties :
#
#
# Convention : Reuss Voigt Hill
#
# Bulk Modulus (GPa) = 41.83268 44.28374 43.05821
# Shear Modulus (GPa) = -53.82048 11.08878 -21.36585
#
# Velocity S-wave (km/s) = -5.40738 2.45445 -3.40701
# Velocity P-wave (km/s) = 4.03229 5.66489 2.81351
#
# Compressibility (1/GPa) = 0.02390476
#
# Stress axis : x y z
#
# Youngs Moduli (GPa) = 77.24273 53.85584 62.39885
#
# Poissons Ratio (x) = 0.38967 0.02375
# Poissons Ratio (y) = 0.55889 0.26218
# Poissons Ratio (z) = 0.02940 0.22628
#
# Static dielectric constant tensor:
#      x y z
#    x 1.682640 0.000000 0.000000 
#    y 0.000000 1.609220 0.000000 
#    z 0.000000 0.000000 1.682500 
# 
# From -- ./inp_files/23941.got.cif
#   From: 2010.05.17/outbox.cif.g08.bks.cpg/sg47_12_cif.got.tgz:23941.got - 2010.06.03 20:15:42.
