data_PCOD9381472
_publ_section_title
;
Structure prediction by ZEFSAII (Michael W. Deem and Ramdas Pophale) SiO2 
 PCOD9381472
Probable space group: P M M M
;
_chemical_formula_sum "Si O2"
_cell_formula_units_Z 44
_cell_length_a 7.748329
_cell_length_b 14.836362
_cell_length_c 21.953520
_cell_angle_alpha 90.000000
_cell_angle_beta 90.000000
_cell_angle_gamma 90.000000
_cell_volume 2523.711105
_symmetry_space_group_name_H-M "P M M M"
_symmetry_group_IT_number 47
_symmetry_cell_setting 'orthorhombic'
loop_
_space_group_symop_operation_xyz
x,y,z
-x,-y,z
x,-y,-z
-x,y,-z
-x,-y,-z
x,y,-z
-x,y,z
x,-y,z
loop_
_atom_site_type_symbol
_atom_site_label
_atom_site_fract_x
_atom_site_fract_y
_atom_site_fract_z
Si Si1 0.706015 0.284003 0.683960
Si Si2 0.711982 0.897774 0.633962
Si Si3 0.292463 0.604875 0.065534
Si Si4 0.695467 0.109562 0.500000
Si Si5 0.710564 0.605211 0.432618
Si Si6 0.796308 0.602360 0.801785
O O1 0.500000 0.280581 0.676502
O O2 0.766660 0.180626 0.679702
O O3 0.773677 0.339077 0.625370
O O4 0.738496 0.335812 0.746352
O O5 0.500000 0.900794 0.631428
O O6 0.771548 0.869144 0.565840
O O7 0.768497 0.000000 0.646893
O O8 0.500000 0.604922 0.064479
O O9 0.234464 0.500000 0.066548
O O10 0.240615 0.642145 0.131096
O O11 0.233213 0.643337 0.000000
O O12 0.500000 0.147332 0.500000
O O13 0.684324 0.000000 0.500000
O O14 0.764768 0.637821 0.500000
O O15 0.500000 0.607740 0.432152
O O16 0.759218 0.500000 0.426817
O O17 0.720925 0.500000 0.797919
O O18 0.000000 0.594067 0.796562
#
# Coordination Sequence:
#
# PCOD9381472 Si02
#       6
#     8   8   8   4   8   8
#     4  10  18  26  42  62  81 109 144 180 217 259
#     4   8  14  23  36  58  85 107 130 170 225 275
#     4   8  14  26  45  67  89 113 141 172 204 240
#     4   7  10  18  32  52  80 105 122 156 217 275
#     4   8  14  23  34  52  77 101 132 178 221 250
#     4  10  20  31  42  59  87 120 149 177 208 245
#
# _framework density 17.434643000000001
#
# number of rings (size 3 to 8) (size 9 to 14) (size 15 to 20)
#    0.000    3.364    0.000    3.273    1.273    2.182 
#    0.000    1.818    0.000    1.091    0.000    2.545 
#    0.000    2.909    0.000    8.364    0.000    2.727 
#
# Total GULP energy -244946.902007 kJ/mol
# GULP energy per Si atom -5566.975046 kJ/mol
# Density = 1.739496 g / cm^3
# Si number density = 17.434643 Si / 1000 Ang^3
#
#
#
# Elastic Constant Matrix: (Units=GPa)
#
#
# Indices 1 2 3 4 5 6 
#
# 1 20.3895 7.4188 1.0402 0.0000 0.0000 0.0000
# 2 7.4188 81.4810 79.8300 0.0000 0.0000 0.0000
# 3 1.0402 79.8300 154.6517 0.0000 0.0000 0.0000
# 4 0.0000 0.0000 0.0000 9.9353 0.0000 0.0000
# 5 0.0000 0.0000 0.0000 0.0000 -135.4791 0.0000
# 6 0.0000 0.0000 0.0000 0.0000 0.0000 0.3353
#
#
#
# Elastic Compliance Matrix: (Units=1/GPa)
#
#
# Indices 1 2 3 4 5 6 
#
# 1 0.052066 -0.008897 0.004242 0.000000 0.000000 0.000000
# 2 -0.008897 0.026351 -0.013542 0.000000 0.000000 0.000000
# 3 0.004242 -0.013542 0.013428 0.000000 0.000000 0.000000
# 4 0.000000 0.000000 0.000000 0.100652 0.000000 0.000000
# 5 0.000000 0.000000 0.000000 0.000000 -0.007381 0.000000
# 6 0.000000 0.000000 0.000000 0.000000 0.000000 2.982247
#
#
# Mechanical properties :
#
#
# Convention : Reuss Voigt Hill
#
# Bulk Modulus (GPa) = 18.03406 48.12226 33.07816
# Shear Modulus (GPa) = 1.55172 -13.82616 -6.13722
#
# Velocity S-wave (km/s) = 0.94443 -2.81913 -1.87824
# Velocity P-wave (km/s) = 3.39934 4.13095 3.78288
#
# Compressibility (1/GPa) = 0.05545064
#
# Stress axis : x y z
#
# Youngs Moduli (GPa) = 19.20655 37.94979 74.47151
#
# Poissons Ratio (x) = 0.33764 -0.31593
# Poissons Ratio (y) = 0.17088 1.00850
# Poissons Ratio (z) = -0.08148 0.51392
#
# Static dielectric constant tensor:
#      x y z
#    x 1.647850 0.000000 0.000000 
#    y 0.000000 1.610090 0.000000 
#    z 0.000000 0.000000 1.627290 
# 
# From -- ./inp_files/29461.got.cif
#   From: 2010.05.17/outbox.cif.g08.bks.cpg/sg47_15_cif.got.tgz:29461.got - 2010.06.03 20:15:42.
