data_PCOD9381873
_publ_section_title
;
Structure prediction by ZEFSAII (Michael W. Deem and Ramdas Pophale) SiO2 
 PCOD9381873
Probable space group: P M M M
;
_chemical_formula_sum "Si O2"
_cell_formula_units_Z 48
_cell_length_a 14.938253
_cell_length_b 21.470951
_cell_length_c 7.550796
_cell_angle_alpha 90.000000
_cell_angle_beta 90.000000
_cell_angle_gamma 90.000000
_cell_volume 2421.830969
_symmetry_space_group_name_H-M "P M M M"
_symmetry_group_IT_number 47
_symmetry_cell_setting 'orthorhombic'
loop_
_space_group_symop_operation_xyz
x,y,z
-x,-y,z
x,-y,-z
-x,y,-z
-x,-y,-z
x,y,-z
-x,y,z
x,-y,z
loop_
_atom_site_type_symbol
_atom_site_label
_atom_site_fract_x
_atom_site_fract_y
_atom_site_fract_z
Si Si1 0.398552 0.308470 0.788289
Si Si2 0.098491 0.763947 0.287110
Si Si3 0.287263 0.431915 0.713274
Si Si4 0.396524 0.070003 0.216106
Si Si5 0.900637 0.380397 0.283918
Si Si6 0.710361 0.188986 0.210351
O O1 0.500000 0.307394 0.718806
O O2 0.350326 0.374153 0.757878
O O3 0.339019 0.250978 0.718282
O O4 0.403721 0.300861 0.000000
O O5 0.096497 0.762570 0.500000
O O6 0.110830 0.691933 0.229714
O O7 0.183872 0.803909 0.235570
O O8 0.000000 0.784794 0.225235
O O9 0.283769 0.433764 0.500000
O O10 0.317518 0.500000 0.776186
O O11 0.185975 0.417994 0.776225
O O12 0.500000 0.082020 0.265386
O O13 0.333273 0.125507 0.280108
O O14 0.372274 0.000000 0.274105
O O15 0.394151 0.069385 0.000000
O O16 0.900683 0.381767 0.500000
O O17 0.000000 0.401385 0.227837
O O18 0.694451 0.188393 0.000000
#
# Coordination Sequence:
#
# PCOD9381873 Si02
#       6
#     8   8   8   8   8   8
#     4  10  21  35  49  67  93 125 158 192 234 285
#     4   9  17  30  49  71  96 127 159 191 233 286
#     4  10  20  33  50  71  93 119 156 201 241 278
#     4   8  14  26  46  73 103 131 158 192 237 285
#     4   8  14  27  47  69  92 117 147 186 233 283
#     4  10  18  29  50  77  99 121 156 200 237 274
#
# _framework density 19.819716
#
# number of rings (size 3 to 8) (size 9 to 14) (size 15 to 20)
#    0.000    2.833    1.667    2.000    0.000    3.667 
#    0.000    3.333    0.000    3.000    0.000    5.833 
#    0.000    0.000    0.000    0.000    0.000    0.000 
#
# Total GULP energy -267757.179451 kJ/mol
# GULP energy per Si atom -5578.274572 kJ/mol
# Density = 1.977461 g / cm^3
# Si number density = 19.819716 Si / 1000 Ang^3
#
#
#
# Elastic Constant Matrix: (Units=GPa)
#
#
# Indices 1 2 3 4 5 6 
#
# 1 151.5407 100.6815 2.5301 0.0000 0.0000 0.0000
# 2 100.6815 152.7773 6.8017 0.0000 0.0000 0.0000
# 3 2.5301 6.8017 45.5574 0.0000 0.0000 0.0000
# 4 0.0000 0.0000 0.0000 -63.1619 0.0000 0.0000
# 5 0.0000 0.0000 0.0000 0.0000 18.5347 0.0000
# 6 0.0000 0.0000 0.0000 0.0000 0.0000 26.6723
#
#
#
# Elastic Compliance Matrix: (Units=1/GPa)
#
#
# Indices 1 2 3 4 5 6 
#
# 1 0.011750 -0.007766 0.000507 0.000000 0.000000 0.000000
# 2 -0.007766 0.011722 -0.001319 0.000000 0.000000 0.000000
# 3 0.000507 -0.001319 0.022119 0.000000 0.000000 0.000000
# 4 0.000000 0.000000 0.000000 -0.015832 0.000000 0.000000
# 5 0.000000 0.000000 0.000000 0.000000 0.053953 0.000000
# 6 0.000000 0.000000 0.000000 0.000000 0.000000 0.037492
#
#
# Mechanical properties :
#
#
# Convention : Reuss Voigt Hill
#
# Bulk Modulus (GPa) = 35.16739 63.32243 49.24491
# Shear Modulus (GPa) = 33.82086 12.39982 23.11034
#
# Velocity S-wave (km/s) = 4.13537 2.50397 3.41842
# Velocity P-wave (km/s) = 6.37055 6.35440 6.36248
#
# Compressibility (1/GPa) = 0.02843543
#
# Stress axis : x y z
#
# Youngs Moduli (GPa) = 85.10658 85.30986 45.20986
#
# Poissons Ratio (x) = 0.66251 -0.02292
# Poissons Ratio (y) = 0.66093 0.05962
# Poissons Ratio (z) = -0.04314 0.11251
#
# Static dielectric constant tensor:
#      x y z
#    x 1.694210 0.000000 0.000000 
#    y 0.000000 1.688530 0.000000 
#    z 0.000000 0.000000 1.771540 
# 
# From -- ./inp_files/6354.got.cif
#   From: 2010.05.17/outbox.cif.g08.bks.cpg/sg47_4_cif.got.tgz:6354.got - 2010.06.03 20:15:42.
