data_PCOD9381406
_publ_section_title
;
Structure prediction by ZEFSAII (Michael W. Deem and Ramdas Pophale) SiO2 
 PCOD9381406
Probable space group: P M M M
;
_chemical_formula_sum "Si O2"
_cell_formula_units_Z 52
_cell_length_a 26.504450
_cell_length_b 7.385256
_cell_length_c 12.171501
_cell_angle_alpha 90.000000
_cell_angle_beta 90.000000
_cell_angle_gamma 90.000000
_cell_volume 2382.475755
_symmetry_space_group_name_H-M "P M M M"
_symmetry_group_IT_number 47
_symmetry_cell_setting 'orthorhombic'
loop_
_space_group_symop_operation_xyz
x,y,z
-x,-y,z
x,-y,-z
-x,y,-z
-x,-y,-z
x,y,-z
-x,y,z
x,-y,z
loop_
_atom_site_type_symbol
_atom_site_label
_atom_site_fract_x
_atom_site_fract_y
_atom_site_fract_z
Si Si1 0.347826 0.277684 0.873675
Si Si2 0.805363 0.782980 0.000000
Si Si3 0.557246 0.712430 0.257579
Si Si4 0.076429 0.289370 0.000000
Si Si5 0.944948 0.721167 0.243162
Si Si6 0.155035 0.721491 0.627016
Si Si7 0.442336 0.215622 0.500000
Si Si8 0.752856 0.292394 0.228777
O O1 0.346866 0.500000 0.872522
O O2 0.401660 0.215854 0.827196
O O3 0.302390 0.214235 0.795102
O O4 0.339708 0.223236 0.000000
O O5 0.863277 0.724761 0.000000
O O6 0.779100 0.711067 0.109358
O O7 0.802331 0.000000 0.000000
O O8 0.500000 0.788792 0.254273
O O9 0.552649 0.500000 0.234026
O O10 0.578489 0.728352 0.381942
O O11 0.058546 0.215288 0.116747
O O12 0.061324 0.500000 0.000000
O O13 0.943045 0.500000 0.241757
O O14 0.895691 0.780457 0.309889
O O15 0.000000 0.772008 0.288633
O O16 0.153975 0.773420 0.500000
O O17 0.155342 0.500000 0.632204
O O18 0.205787 0.786024 0.688147
O O19 0.500000 0.286969 0.500000
O O20 0.443586 0.000000 0.500000
O O21 0.744956 0.500000 0.264102
#
# Coordination Sequence:
#
# PCOD9381406 Si02
#       8
#     8   4   8   4   8   8   4   8
#     4   9  17  29  50  77 100 127 165 203 245 302
#     4  12  22  31  51  79  99 125 168 208 250 300
#     4   9  17  30  49  75 105 133 164 208 256 297
#     4  10  17  30  50  72  98 129 163 203 252 299
#     4   9  16  25  43  72 101 128 161 202 246 293
#     4   9  17  28  45  72 101 128 161 202 246 288
#     4   9  17  31  51  71  95 135 179 211 240 285
#     4  10  18  34  55  73  98 131 166 203 247 298
#
# _framework density 21.826035000000001
#
# number of rings (size 3 to 8) (size 9 to 14) (size 15 to 20)
#    0.000    2.538    2.308    1.154    0.000    2.462 
#    1.385    3.846    0.000    1.385    0.000    2.154 
#    0.000    1.231    0.000    0.000    0.000    0.000 
#
# Total GULP energy -290173.455785 kJ/mol
# GULP energy per Si atom -5580.258765 kJ/mol
# Density = 2.177636 g / cm^3
# Si number density = 21.826035 Si / 1000 Ang^3
#
#
#
# Elastic Constant Matrix: (Units=GPa)
#
#
# Indices 1 2 3 4 5 6 
#
# 1 175.0630 6.7531 81.2865 0.0000 0.0000 0.0000
# 2 6.7531 82.3651 -0.1546 0.0000 0.0000 0.0000
# 3 81.2865 -0.1546 134.4919 0.0000 0.0000 0.0000
# 4 0.0000 0.0000 0.0000 -54.5500 0.0000 0.0000
# 5 0.0000 0.0000 0.0000 0.0000 12.8734 0.0000
# 6 0.0000 0.0000 0.0000 0.0000 0.0000 -22.3118
#
#
#
# Elastic Compliance Matrix: (Units=1/GPa)
#
#
# Indices 1 2 3 4 5 6 
#
# 1 0.007977 -0.000663 -0.004822 0.000000 0.000000 0.000000
# 2 -0.000663 0.012196 0.000415 0.000000 0.000000 0.000000
# 3 -0.004822 0.000415 0.010350 0.000000 0.000000 0.000000
# 4 0.000000 0.000000 0.000000 -0.018332 0.000000 0.000000
# 5 0.000000 0.000000 0.000000 0.000000 0.077679 0.000000
# 6 0.000000 0.000000 0.000000 0.000000 0.000000 -0.044819
#
#
# Mechanical properties :
#
#
# Convention : Reuss Voigt Hill
#
# Bulk Modulus (GPa) = 49.06097 63.07667 56.06882
# Shear Modulus (GPa) = 80.66344 7.47133 44.06739
#
# Velocity S-wave (km/s) = 6.08586 1.85218 4.49823
# Velocity P-wave (km/s) = 8.48001 5.79108 7.26110
#
# Compressibility (1/GPa) = 0.02038280
#
# Stress axis : x y z
#
# Youngs Moduli (GPa) = 125.36456 81.99269 96.61653
#
# Poissons Ratio (x) = 0.05437 0.46587
# Poissons Ratio (y) = 0.08312 -0.04007
# Poissons Ratio (z) = 0.60449 -0.03401
#
# Static dielectric constant tensor:
#      x y z
#    x 1.807260 0.000000 0.000000 
#    y 0.000000 1.805730 0.000000 
#    z 0.000000 0.000000 1.759320 
# 
# From -- ./inp_files/19885.got.cif
#   From: 2010.05.17/outbox.cif.g08.bks.cpg/sg47_10_cif.got.tgz:19885.got - 2010.06.03 20:15:42.
