data_PCOD9381010
_publ_section_title
;
Structure prediction by ZEFSAII (Michael W. Deem and Ramdas Pophale) SiO2 
 PCOD9381010
Probable space group: I M A 2
;
_chemical_formula_sum "Si O2"
_cell_formula_units_Z 36
_cell_length_a 19.662521
_cell_length_b 10.986514
_cell_length_c 9.331000
_cell_angle_alpha 90.000000
_cell_angle_beta 90.000000
_cell_angle_gamma 90.000000
_cell_volume 2015.706528
_symmetry_space_group_name_H-M "I M A 2"
_symmetry_group_IT_number 46
_symmetry_cell_setting 'orthorhombic'
loop_
_space_group_symop_operation_xyz
x,y,z
-x,-y,z
1/2-x,y,z
1/2+x,-y,z
1/2+x,1/2+y,1/2+z
1/2-x,1/2-y,1/2+z
-x,1/2+y,1/2+z
x,1/2-y,1/2+z
loop_
_atom_site_type_symbol
_atom_site_label
_atom_site_fract_x
_atom_site_fract_y
_atom_site_fract_z
Si Si1 0.500000 0.500000 0.304430
Si Si2 0.899565 0.321623 0.456388
Si Si3 0.170249 0.867064 0.246167
Si Si4 0.465581 0.211025 0.585909
Si Si5 0.430870 0.081389 0.301572
O O1 0.559285 0.437997 0.397548
O O2 0.529919 0.605045 0.203262
O O3 0.865344 0.244190 0.330547
O O4 0.845407 0.352940 0.577887
O O5 0.958352 0.241645 0.532210
O O6 0.250000 0.869847 0.275426
O O7 0.131506 0.989205 0.293682
O O8 0.428066 0.162734 0.444815
O O9 0.436505 0.329927 0.664684
O O10 0.500000 0.000000 0.306735
#
# Coordination Sequence:
#
# PCOD9381010 Si02
#       5
#     4   8   8   8   8
#     4  12  20  34  68  96 122 154 204 266 312 360
#     4  12  21  40  65  95 125 161 205 260 313 368
#     4  12  26  43  62  91 132 170 206 253 318 381
#     4  12  21  36  65 100 121 151 213 262 313 357
#     4  12  22  39  65  93 126 163 207 263 310 369
#
# _framework density 17.859743999999999
#
# number of rings (size 3 to 8) (size 9 to 14) (size 15 to 20)
#    0.000    0.000   10.000    2.000    0.000    0.000 
#    0.000    1.111    0.000    0.000    0.000    0.000 
#    0.000    0.000    0.000    0.000    0.000    0.000 
#
# Total GULP energy -100635.087585 kJ/mol
# GULP energy per Si atom -5590.838199 kJ/mol
# Density = 1.781909 g / cm^3
# Si number density = 17.859744 Si / 1000 Ang^3
#
#
#
# Elastic Constant Matrix: (Units=GPa)
#
#
# Indices 1 2 3 4 5 6 
#
# 1 111.3132 48.0818 35.9404 0.0000 0.0000 0.0000
# 2 48.0818 94.9250 43.5578 0.0000 0.0000 0.0000
# 3 35.9404 43.5578 101.0403 0.0000 0.0000 0.0000
# 4 0.0000 0.0000 0.0000 49.0100 0.0000 0.0000
# 5 0.0000 0.0000 0.0000 0.0000 9.4386 0.0000
# 6 0.0000 0.0000 0.0000 0.0000 0.0000 18.3239
#
#
#
# Elastic Compliance Matrix: (Units=1/GPa)
#
#
# Indices 1 2 3 4 5 6 
#
# 1 0.011823 -0.005060 -0.002024 0.000000 0.000000 0.000000
# 2 -0.005060 0.015298 -0.004795 0.000000 0.000000 0.000000
# 3 -0.002024 -0.004795 0.012684 0.000000 0.000000 0.000000
# 4 0.000000 0.000000 0.000000 0.020404 0.000000 0.000000
# 5 0.000000 0.000000 0.000000 0.000000 0.105948 0.000000
# 6 0.000000 0.000000 0.000000 0.000000 0.000000 0.054574
#
#
# Mechanical properties :
#
#
# Convention : Reuss Voigt Hill
#
# Bulk Modulus (GPa) = 62.31742 62.49316 62.40529
# Shear Modulus (GPa) = 20.01309 27.33440 23.67374
#
# Velocity S-wave (km/s) = 3.35112 3.91641 3.64474
# Velocity P-wave (km/s) = 7.06695 7.45104 7.26154
#
# Compressibility (1/GPa) = 0.01604688
#
# Stress axis : x y z
#
# Youngs Moduli (GPa) = 84.58261 65.36916 78.83849
#
# Poissons Ratio (x) = 0.33075 0.15959
# Poissons Ratio (y) = 0.42796 0.37803
# Poissons Ratio (z) = 0.17121 0.31345
#
# Static dielectric constant tensor:
#      x y z
#    x 1.567720 0.000000 0.000000 
#    y 0.000000 1.621570 0.000000 
#    z 0.000000 0.000000 1.641000 
# 
# From -- ./inp_files/7211.got.cif
#   From: 2010.05.17/outbox.cif.g08.bks.cpg/sg46_4_cif.got.tgz:7211.got - 2010.06.03 19:58:25.
