data_PCOD9381962
_publ_section_title
;
Structure prediction by ZEFSAII (Michael W. Deem and Ramdas Pophale) SiO2 
 PCOD9381962
Probable space group: P M M M
;
_chemical_formula_sum "Si O2"
_cell_formula_units_Z 56
_cell_length_a 19.692665
_cell_length_b 19.507712
_cell_length_c 7.846884
_cell_angle_alpha 90.000000
_cell_angle_beta 90.000000
_cell_angle_gamma 90.000000
_cell_volume 3014.449834
_symmetry_space_group_name_H-M "P M M M"
_symmetry_group_IT_number 47
_symmetry_cell_setting 'orthorhombic'
loop_
_space_group_symop_operation_xyz
x,y,z
-x,-y,z
x,-y,-z
-x,y,-z
-x,-y,-z
x,y,-z
-x,y,z
x,-y,z
loop_
_atom_site_type_symbol
_atom_site_label
_atom_site_fract_x
_atom_site_fract_y
_atom_site_fract_z
Si Si1 0.717691 0.345292 0.702637
Si Si2 0.284769 0.076894 0.290818
Si Si3 0.154628 0.575458 0.201912
Si Si4 0.794496 0.209142 0.295637
Si Si5 0.076926 0.289711 0.794206
Si Si6 0.424342 0.701276 0.203670
Si Si7 0.424911 0.140323 0.297216
O O1 0.725912 0.346657 0.500000
O O2 0.766760 0.403549 0.774937
O O3 0.748157 0.272553 0.768480
O O4 0.638297 0.345899 0.743139
O O5 0.285139 0.077462 0.500000
O O6 0.233593 0.136553 0.233395
O O7 0.360488 0.098285 0.232719
O O8 0.267746 0.000000 0.236810
O O9 0.140811 0.500000 0.274086
O O10 0.110161 0.638891 0.270755
O O11 0.140931 0.572666 0.000000
O O12 0.787559 0.208556 0.500000
O O13 0.871328 0.229374 0.253397
O O14 0.000000 0.281116 0.733568
O O15 0.075714 0.293114 0.000000
O O16 0.500000 0.679947 0.261475
O O17 0.412706 0.778541 0.271418
O O18 0.424825 0.705229 0.000000
O O19 0.427621 0.128185 0.500000
O O20 0.500000 0.124365 0.226046
#
# Coordination Sequence:
#
# PCOD9381962 Si02
#       7
#     8   8   8   8   8   8   8
#     4  10  18  30  49  70  94 125 162 201 238 277
#     4   9  16  27  44  67  95 125 160 203 246 285
#     4   9  18  32  50  74 103 131 155 182 223 277
#     4   9  17  30  47  69  94 122 158 197 238 281
#     4   9  18  32  51  75  99 125 156 189 227 272
#     4  10  19  29  44  67  93 123 161 204 247 286
#     4   9  16  27  43  64  92 124 159 199 244 290
#
# _framework density 18.577186999999999
#
# number of rings (size 3 to 8) (size 9 to 14) (size 15 to 20)
#    0.000    2.714    1.429    0.857    0.000    2.571 
#    0.000    2.857    0.000    2.571    0.000   12.000 
#    0.000    0.000    0.000    0.000    0.000    0.000 
#
# Total GULP energy -312162.938603 kJ/mol
# GULP energy per Si atom -5574.338189 kJ/mol
# Density = 1.853490 g / cm^3
# Si number density = 18.577187 Si / 1000 Ang^3
#
#
#
# Elastic Constant Matrix: (Units=GPa)
#
#
# Indices 1 2 3 4 5 6 
#
# 1 125.8188 55.6410 -4.3860 0.0000 0.0000 0.0000
# 2 55.6410 86.5107 4.6715 0.0000 0.0000 0.0000
# 3 -4.3860 4.6715 18.9229 0.0000 0.0000 0.0000
# 4 0.0000 0.0000 0.0000 28.3913 0.0000 0.0000
# 5 0.0000 0.0000 0.0000 0.0000 19.2643 0.0000
# 6 0.0000 0.0000 0.0000 0.0000 0.0000 16.8272
#
#
#
# Elastic Compliance Matrix: (Units=1/GPa)
#
#
# Indices 1 2 3 4 5 6 
#
# 1 0.011480 -0.007629 0.004544 0.000000 0.000000 0.000000
# 2 -0.007629 0.016785 -0.005912 0.000000 0.000000 0.000000
# 3 0.004544 -0.005912 0.055359 0.000000 0.000000 0.000000
# 4 0.000000 0.000000 0.000000 0.035222 0.000000 0.000000
# 5 0.000000 0.000000 0.000000 0.000000 0.051909 0.000000
# 6 0.000000 0.000000 0.000000 0.000000 0.000000 0.059427
#
#
# Mechanical properties :
#
#
# Convention : Reuss Voigt Hill
#
# Bulk Modulus (GPa) = 15.23681 38.12282 26.67982
# Shear Modulus (GPa) = 18.51483 24.58497 21.54990
#
# Velocity S-wave (km/s) = 3.16039 3.64180 3.40960
# Velocity P-wave (km/s) = 4.64081 6.18461 5.46748
#
# Compressibility (1/GPa) = 0.06563053
#
# Stress axis : x y z
#
# Youngs Moduli (GPa) = 87.10671 59.57594 18.06398
#
# Poissons Ratio (x) = 0.45451 -0.08209
# Poissons Ratio (y) = 0.66454 0.10680
# Poissons Ratio (z) = -0.39584 0.35222
#
# Static dielectric constant tensor:
#      x y z
#    x 1.646000 0.000000 0.000000 
#    y 0.000000 1.631060 0.000000 
#    z 0.000000 0.000000 1.680570 
# 
# From -- ./inp_files/9812.got.cif
#   From: 2010.05.17/outbox.cif.g08.bks.cpg/sg47_5_cif.got.tgz:9812.got - 2010.06.03 20:15:42.
