data_PCOD9381703
_publ_section_title
;
Structure prediction by ZEFSAII (Michael W. Deem and Ramdas Pophale) SiO2 
 PCOD9381703
Probable space group: P M M M
;
_chemical_formula_sum "Si O2"
_cell_formula_units_Z 37
_cell_length_a 17.945003
_cell_length_b 11.870996
_cell_length_c 10.166751
_cell_angle_alpha 90.000000
_cell_angle_beta 90.000000
_cell_angle_gamma 90.000000
_cell_volume 2165.772730
_symmetry_space_group_name_H-M "P M M M"
_symmetry_group_IT_number 47
_symmetry_cell_setting 'orthorhombic'
loop_
_space_group_symop_operation_xyz
x,y,z
-x,-y,z
x,-y,-z
-x,y,-z
-x,-y,-z
x,y,-z
-x,y,z
x,-y,z
loop_
_atom_site_type_symbol
_atom_site_label
_atom_site_fract_x
_atom_site_fract_y
_atom_site_fract_z
Si Si1 0.197743 0.365510 0.847319
Si Si2 0.293417 0.000000 0.840711
Si Si3 0.350722 0.241679 0.159338
Si Si4 0.500000 0.368685 0.160862
Si Si5 0.119873 0.000000 0.758354
Si Si6 0.087657 0.244118 0.650186
Si Si7 0.000000 0.000000 0.000000
O O1 0.199047 0.500000 0.840148
O O2 0.277940 0.315277 0.809145
O O3 0.135599 0.313865 0.753832
O O4 0.183616 0.332643 0.000000
O O5 0.334774 0.885963 0.796076
O O6 0.207129 0.000000 0.797658
O O7 0.293436 0.000000 0.000000
O O8 0.426064 0.302167 0.204907
O O9 0.355416 0.238180 0.000000
O O10 0.500000 0.500000 0.200882
O O11 0.500000 0.369030 0.000000
O O12 0.102823 0.887294 0.677305
O O13 0.065623 0.000000 0.884645
O O14 0.107442 0.272359 0.500000
O O15 0.000000 0.265388 0.669116
#
# Coordination Sequence:
#
# PCOD9381703 Si02
#       7
#     8   4   8   4   4   8   1
#     4  10  21  36  56  80 108 144 188 235 279 327
#     4  10  18  28  48  77 108 138 172 224 280 326
#     4   9  17  29  48  75 109 142 177 222 274 333
#     4   9  16  27  45  71 108 150 182 212 265 334
#     4  12  21  35  55  84 112 140 183 229 284 336
#     4  11  24  39  56  78 110 146 184 231 281 336
#     4  12  24  28  62  92 110 150 182 244 288 338
#
# _framework density 17.083973
#
# number of rings (size 3 to 8) (size 9 to 14) (size 15 to 20)
#    0.000    1.838    3.784    0.973    1.514    5.189 
#    0.000    4.324    0.000    0.000    0.000    0.757 
#    0.000    4.324    0.000    0.000    0.000    0.000 
#
# Total GULP energy -206147.618555 kJ/mol
# GULP energy per Si atom -5571.557258 kJ/mol
# Density = 1.704509 g / cm^3
# Si number density = 17.083973 Si / 1000 Ang^3
#
#
#
# Elastic Constant Matrix: (Units=GPa)
#
#
# Indices 1 2 3 4 5 6 
#
# 1 144.3670 84.1920 58.0581 0.0000 0.0000 0.0000
# 2 84.1920 108.4874 43.6288 0.0000 0.0000 0.0000
# 3 58.0581 43.6288 58.3901 0.0000 0.0000 0.0000
# 4 0.0000 0.0000 0.0000 1.7704 0.0000 0.0000
# 5 0.0000 0.0000 0.0000 0.0000 6.6252 0.0000
# 6 0.0000 0.0000 0.0000 0.0000 0.0000 319.4322
#
#
#
# Elastic Compliance Matrix: (Units=1/GPa)
#
#
# Indices 1 2 3 4 5 6 
#
# 1 0.015458 -0.008313 -0.009159 0.000000 0.000000 0.000000
# 2 -0.008313 0.017648 -0.004921 0.000000 0.000000 0.000000
# 3 -0.009159 -0.004921 0.029909 0.000000 0.000000 0.000000
# 4 0.000000 0.000000 0.000000 0.564834 0.000000 0.000000
# 5 0.000000 0.000000 0.000000 0.000000 0.150938 0.000000
# 6 0.000000 0.000000 0.000000 0.000000 0.000000 0.003131
#
#
# Mechanical properties :
#
#
# Convention : Reuss Voigt Hill
#
# Bulk Modulus (GPa) = 54.85258 75.88914 65.37086
# Shear Modulus (GPa) = 6.00399 73.92327 39.96363
#
# Velocity S-wave (km/s) = 1.87671 6.58517 4.84182
# Velocity P-wave (km/s) = 6.07234 10.11617 8.34297
#
# Compressibility (1/GPa) = 0.01823068
#
# Stress axis : x y z
#
# Youngs Moduli (GPa) = 64.69146 56.66398 33.43422
#
# Poissons Ratio (x) = 0.47105 0.30621
# Poissons Ratio (y) = 0.53778 0.16452
# Poissons Ratio (z) = 0.59249 0.27882
#
# Static dielectric constant tensor:
#      x y z
#    x 1.562580 0.000000 0.000000 
#    y 0.000000 1.583540 0.000000 
#    z 0.000000 0.000000 1.551670 
# 
# From -- ./inp_files/3815.got.cif
#   From: 2010.05.17/outbox.cif.g08.bks.cpg/sg47_2_cif.got.tgz:3815.got - 2010.06.03 20:15:42.
