data_PCOD9381508
_publ_section_title
;
Structure prediction by ZEFSAII (Michael W. Deem and Ramdas Pophale) SiO2 
 PCOD9381508
Probable space group: P M M M
;
_chemical_formula_sum "Si O2"
_cell_formula_units_Z 64
_cell_length_a 29.951169
_cell_length_b 7.517275
_cell_length_c 15.202052
_cell_angle_alpha 90.000000
_cell_angle_beta 90.000000
_cell_angle_gamma 90.000000
_cell_volume 3422.759854
_symmetry_space_group_name_H-M "P M M M"
_symmetry_group_IT_number 47
_symmetry_cell_setting 'orthorhombic'
loop_
_space_group_symop_operation_xyz
x,y,z
-x,-y,z
x,-y,-z
-x,y,-z
-x,-y,-z
x,y,-z
-x,y,z
x,-y,z
loop_
_atom_site_type_symbol
_atom_site_label
_atom_site_fract_x
_atom_site_fract_y
_atom_site_fract_z
Si Si1 0.353181 0.709624 0.100686
Si Si2 0.800189 0.215043 0.899205
Si Si3 0.870235 0.713189 0.599280
Si Si4 0.769933 0.717643 0.601547
Si Si5 0.452004 0.785786 0.897156
Si Si6 0.278782 0.294571 0.230199
Si Si7 0.049064 0.212546 0.270096
Si Si8 0.097266 0.782808 0.901217
O O1 0.343283 0.500000 0.092821
O O2 0.403804 0.726545 0.135853
O O3 0.317756 0.786663 0.169709
O O4 0.350642 0.782901 0.000000
O O5 0.765474 0.289790 0.829975
O O6 0.851408 0.268924 0.882155
O O7 0.798274 0.000000 0.894735
O O8 0.788942 0.266059 0.000000
O O9 0.878661 0.778053 0.500000
O O10 0.867439 0.500000 0.595893
O O11 0.820567 0.775077 0.626035
O O12 0.910895 0.755935 0.662490
O O13 0.761587 0.769140 0.500000
O O14 0.769427 0.500000 0.603577
O O15 0.735357 0.781967 0.675241
O O16 0.500000 0.725856 0.859166
O O17 0.451901 0.000000 0.894607
O O18 0.452169 0.731439 0.000000
O O19 0.291492 0.500000 0.246652
O O20 0.064721 0.280650 0.174924
O O21 0.000000 0.280467 0.295989
O O22 0.045703 0.000000 0.262509
O O23 0.096862 0.000000 0.901376
O O24 0.085816 0.725776 0.000000
#
# Coordination Sequence:
#
# PCOD9381508 Si02
#       8
#     8   8   8   8   8   8   8   8
#     4   9  17  26  35  54  86 117 141 166 201 246
#     4   9  17  28  42  60  82 110 141 169 200 241
#     4   9  18  33  51  67  83 107 138 168 202 249
#     4   8  15  29  48  67  84 105 138 176 209 245
#     4   8  14  25  40  56  75 105 147 186 211 234
#     4  10  18  27  42  63  87 113 139 171 210 249
#     4  10  20  31  45  67  89 107 131 166 207 247
#     4   8  15  29  46  62  82 108 138 170 201 238
#
# _framework density 18.698360000000001
#
# number of rings (size 3 to 8) (size 9 to 14) (size 15 to 20)
#    0.000    3.125    0.000    3.000    0.000    2.500 
#    0.000    5.000    0.000    2.250    0.000    0.875 
#    0.000    0.500    0.000    6.250    0.000    1.250 
#
# Total GULP energy -356695.983126 kJ/mol
# GULP energy per Si atom -5573.374736 kJ/mol
# Density = 1.865580 g / cm^3
# Si number density = 18.698360 Si / 1000 Ang^3
#
#
#
# Elastic Constant Matrix: (Units=GPa)
#
#
# Indices 1 2 3 4 5 6 
#
# 1 122.4569 6.6187 88.3834 0.0000 0.0000 0.0000
# 2 6.6187 45.2519 3.2571 0.0000 0.0000 0.0000
# 3 88.3834 3.2571 96.8207 0.0000 0.0000 0.0000
# 4 0.0000 0.0000 0.0000 8.0290 0.0000 0.0000
# 5 0.0000 0.0000 0.0000 0.0000 16.1506 0.0000
# 6 0.0000 0.0000 0.0000 0.0000 0.0000 13.2203
#
#
#
# Elastic Compliance Matrix: (Units=1/GPa)
#
#
# Indices 1 2 3 4 5 6 
#
# 1 0.024107 -0.001947 -0.021941 0.000000 0.000000 0.000000
# 2 -0.001947 0.022309 0.001027 0.000000 0.000000 0.000000
# 3 -0.021941 0.001027 0.030323 0.000000 0.000000 0.000000
# 4 0.000000 0.000000 0.000000 0.124549 0.000000 0.000000
# 5 0.000000 0.000000 0.000000 0.000000 0.061917 0.000000
# 6 0.000000 0.000000 0.000000 0.000000 0.000000 0.075641
#
#
# Mechanical properties :
#
#
# Convention : Reuss Voigt Hill
#
# Bulk Modulus (GPa) = 32.24018 51.22755 41.73386
# Shear Modulus (GPa) = 12.66116 18.56466 15.61291
#
# Velocity S-wave (km/s) = 2.60499 3.15437 2.89275
# Velocity P-wave (km/s) = 5.13105 6.38146 5.79011
#
# Compressibility (1/GPa) = 0.03101719
#
# Stress axis : x y z
#
# Youngs Moduli (GPa) = 41.48112 44.82419 32.97840
#
# Poissons Ratio (x) = 0.08726 0.72358
# Poissons Ratio (y) = 0.08075 -0.03386
# Poissons Ratio (z) = 0.91014 -0.04602
#
# Static dielectric constant tensor:
#      x y z
#    x 1.669250 0.000000 0.000000 
#    y 0.000000 1.751030 0.000000 
#    z 0.000000 0.000000 1.648820 
# 
# From -- ./inp_files/14298.got.cif
#   From: 2010.05.17/outbox.cif.g08.bks.cpg/sg47_8_cif.got.tgz:14298.got - 2010.06.03 20:15:42.
