data_PCOD9381268
_publ_section_title
;
Structure prediction by ZEFSAII (Michael W. Deem and Ramdas Pophale) SiO2 
 PCOD9381268
Probable space group: P M M M
;
_chemical_formula_sum "Si O2"
_cell_formula_units_Z 64
_cell_length_a 14.899968
_cell_length_b 32.419896
_cell_length_c 7.567703
_cell_angle_alpha 90.000000
_cell_angle_beta 90.000000
_cell_angle_gamma 90.000000
_cell_volume 3655.619898
_symmetry_space_group_name_H-M "P M M M"
_symmetry_group_IT_number 47
_symmetry_cell_setting 'orthorhombic'
loop_
_space_group_symop_operation_xyz
x,y,z
-x,-y,z
x,-y,-z
-x,y,-z
-x,-y,-z
x,y,-z
-x,y,z
x,-y,z
loop_
_atom_site_type_symbol
_atom_site_label
_atom_site_fract_x
_atom_site_fract_y
_atom_site_fract_z
Si Si1 0.285441 0.126250 0.289531
Si Si2 0.711584 0.714273 0.289280
Si Si3 0.899777 0.250902 0.789254
Si Si4 0.395229 0.365378 0.716447
Si Si5 0.603429 0.794766 0.716450
Si Si6 0.099240 0.844325 0.292717
Si Si7 0.392278 0.455664 0.712208
Si Si8 0.601691 0.046411 0.212669
O O1 0.278998 0.132786 0.500000
O O2 0.349319 0.163076 0.223017
O O3 0.184951 0.132040 0.216689
O O4 0.329969 0.082088 0.262160
O O5 0.698490 0.713962 0.500000
O O6 0.817217 0.719813 0.257478
O O7 0.665794 0.672460 0.222085
O O8 0.659920 0.755063 0.223265
O O9 0.881935 0.204722 0.718742
O O10 0.000000 0.263313 0.728045
O O11 0.902169 0.247582 0.000000
O O12 0.394399 0.366000 0.500000
O O13 0.500000 0.359590 0.766500
O O14 0.362228 0.410703 0.776744
O O15 0.603779 0.794714 0.500000
O O16 0.500000 0.792500 0.771603
O O17 0.093356 0.854831 0.500000
O O18 0.000000 0.851376 0.214600
O O19 0.378262 0.456092 0.500000
O O20 0.500000 0.455503 0.739231
O O21 0.358185 0.500000 0.781120
O O22 0.500000 0.056059 0.274374
O O23 0.624596 0.000000 0.273671
O O24 0.598952 0.045285 0.000000
#
# Coordination Sequence:
#
# PCOD9381268 Si02
#       8
#     8   8   8   8   8   8   8   8
#     4  10  18  29  47  71  92 112 142 177 212 249
#     4  10  17  27  42  60  84 115 146 174 207 248
#     4  10  20  32  45  61  82 109 142 180 219 255
#     4   8  13  20  33  55  81 113 150 178 204 247
#     4   9  16  25  38  60  89 115 138 168 203 238
#     4   9  17  31  50  70  91 113 140 175 214 253
#     4   7   9  14  25  44  74 109 141 174 210 245
#     4   9  19  35  51  67  90 119 147 176 213 252
#
# _framework density 17.507290999999999
#
# number of rings (size 3 to 8) (size 9 to 14) (size 15 to 20)
#    0.000    3.000    1.250    2.625    0.000    3.750 
#    0.000    0.625    0.000    1.875    0.000    2.625 
#    0.000    1.000    0.000    9.375    0.000    3.750 
#
# Total GULP energy -356592.080700 kJ/mol
# GULP energy per Si atom -5571.751261 kJ/mol
# Density = 1.746744 g / cm^3
# Si number density = 17.507291 Si / 1000 Ang^3
#
#
#
# Elastic Constant Matrix: (Units=GPa)
#
#
# Indices 1 2 3 4 5 6 
#
# 1 133.5517 93.9675 1.7988 0.0000 0.0000 0.0000
# 2 93.9675 146.9651 0.8506 0.0000 0.0000 0.0000
# 3 1.7988 0.8506 36.9966 0.0000 0.0000 0.0000
# 4 0.0000 0.0000 0.0000 29.8137 0.0000 0.0000
# 5 0.0000 0.0000 0.0000 0.0000 -62.0418 0.0000
# 6 0.0000 0.0000 0.0000 0.0000 0.0000 10.2003
#
#
#
# Elastic Compliance Matrix: (Units=1/GPa)
#
#
# Indices 1 2 3 4 5 6 
#
# 1 0.013619 -0.008705 -0.000462 0.000000 0.000000 0.000000
# 2 -0.008705 0.012369 0.000139 0.000000 0.000000 0.000000
# 3 -0.000462 0.000139 0.027049 0.000000 0.000000 0.000000
# 4 0.000000 0.000000 0.000000 0.033542 0.000000 0.000000
# 5 0.000000 0.000000 0.000000 0.000000 -0.016118 0.000000
# 6 0.000000 0.000000 0.000000 0.000000 0.000000 0.098036
#
#
# Mechanical properties :
#
#
# Convention : Reuss Voigt Hill
#
# Bulk Modulus (GPa) = 28.58723 56.74969 42.66846
# Shear Modulus (GPa) = 25.22532 10.32086 17.77309
#
# Velocity S-wave (km/s) = 3.79997 2.43063 3.18965
# Velocity P-wave (km/s) = 5.96801 6.35315 6.16359
#
# Compressibility (1/GPa) = 0.03498065
#
# Stress axis : x y z
#
# Youngs Moduli (GPa) = 73.42764 80.84458 36.97022
#
# Poissons Ratio (x) = 0.70375 0.01708
# Poissons Ratio (y) = 0.63919 -0.00513
# Poissons Ratio (z) = 0.03393 -0.01123
#
# Static dielectric constant tensor:
#      x y z
#    x 1.613970 0.000000 0.000000 
#    y 0.000000 1.606130 0.000000 
#    z 0.000000 0.000000 1.670490 
# 
# From -- ./inp_files/8201.got.cif
#   From: 2010.05.17/outbox.cif.g08.bks.cpg/sg47_5_cif.got.tgz:8201.got - 2010.06.03 20:15:42.
