data_PCOD9381847
_publ_section_title
;
Structure prediction by ZEFSAII (Michael W. Deem and Ramdas Pophale) SiO2 
 PCOD9381847
Probable space group: P M M M
;
_chemical_formula_sum "Si O2"
_cell_formula_units_Z 56
_cell_length_a 19.759712
_cell_length_b 8.055953
_cell_length_c 19.103655
_cell_angle_alpha 90.000000
_cell_angle_beta 90.000000
_cell_angle_gamma 90.000000
_cell_volume 3040.983058
_symmetry_space_group_name_H-M "P M M M"
_symmetry_group_IT_number 47
_symmetry_cell_setting 'orthorhombic'
loop_
_space_group_symop_operation_xyz
x,y,z
-x,-y,z
x,-y,-z
-x,y,-z
-x,-y,-z
x,y,-z
-x,y,z
x,-y,z
loop_
_atom_site_type_symbol
_atom_site_label
_atom_site_fract_x
_atom_site_fract_y
_atom_site_fract_z
Si Si1 0.215816 0.692883 0.352957
Si Si2 0.075530 0.298615 0.695745
Si Si3 0.214775 0.695710 0.921728
Si Si4 0.350302 0.196784 0.577135
Si Si5 0.075785 0.198079 0.857953
Si Si6 0.287773 0.195226 0.215673
Si Si7 0.424140 0.797443 0.716526
O O1 0.214716 0.500000 0.372893
O O2 0.139092 0.758699 0.350464
O O3 0.272283 0.779012 0.400342
O O4 0.242913 0.709943 0.273170
O O5 0.078069 0.500000 0.697531
O O6 0.084257 0.237505 0.775520
O O7 0.000000 0.248820 0.672549
O O8 0.228733 0.500000 0.920738
O O9 0.136561 0.722627 0.900786
O O10 0.259741 0.777190 0.861377
O O11 0.226871 0.760454 0.000000
O O12 0.362986 0.267631 0.500000
O O13 0.396357 0.261323 0.640844
O O14 0.363119 0.000000 0.574075
O O15 0.000000 0.254328 0.877914
O O16 0.079474 0.000000 0.866893
O O17 0.365576 0.246700 0.228242
O O18 0.282197 0.000000 0.233534
O O19 0.500000 0.738605 0.730601
O O20 0.426208 0.000000 0.714824
#
# Coordination Sequence:
#
# PCOD9381847 Si02
#       7
#     8   8   8   8   8   8   8
#     4  10  18  29  49  72  96 129 166 204 247 295
#     4   9  17  29  46  68  94 125 163 207 252 295
#     4  11  23  36  50  69  96 133 172 208 249 296
#     4   9  18  31  48  73 104 136 167 200 239 285
#     4  10  20  32  48  71  98 128 163 206 255 301
#     4  10  19  32  52  75  99 126 161 205 247 292
#     4   8  15  29  51  79 105 128 157 196 244 294
#
# _framework density 18.415096999999999
#
# number of rings (size 3 to 8) (size 9 to 14) (size 15 to 20)
#    0.000    2.429    1.429    2.571    0.000    3.429 
#    0.000    2.857    0.000   11.571    0.000   10.000 
#    0.000    0.000    0.000    0.000    0.000    0.000 
#
# Total GULP energy -312250.283604 kJ/mol
# GULP energy per Si atom -5575.897921 kJ/mol
# Density = 1.837318 g / cm^3
# Si number density = 18.415097 Si / 1000 Ang^3
#
#
#
# Elastic Constant Matrix: (Units=GPa)
#
#
# Indices 1 2 3 4 5 6 
#
# 1 121.3104 -3.2815 32.5576 0.0000 0.0000 0.0000
# 2 -3.2815 15.3709 -3.7057 0.0000 0.0000 0.0000
# 3 32.5576 -3.7057 56.1755 0.0000 0.0000 0.0000
# 4 0.0000 0.0000 0.0000 11.3658 0.0000 0.0000
# 5 0.0000 0.0000 0.0000 0.0000 13.3191 0.0000
# 6 0.0000 0.0000 0.0000 0.0000 0.0000 -84.3813
#
#
#
# Elastic Compliance Matrix: (Units=1/GPa)
#
#
# Indices 1 2 3 4 5 6 
#
# 1 0.009770 0.000732 -0.005614 0.000000 0.000000 0.000000
# 2 0.000732 0.066164 0.003940 0.000000 0.000000 0.000000
# 3 -0.005614 0.003940 0.021315 0.000000 0.000000 0.000000
# 4 0.000000 0.000000 0.000000 0.087983 0.000000 0.000000
# 5 0.000000 0.000000 0.000000 0.000000 0.075080 0.000000
# 6 0.000000 0.000000 0.000000 0.000000 0.000000 -0.011851
#
#
# Mechanical properties :
#
#
# Convention : Reuss Voigt Hill
#
# Bulk Modulus (GPa) = 10.48594 27.11086 18.79840
# Shear Modulus (GPa) = 17.72217 -0.78685 8.46766
#
# Velocity S-wave (km/s) = 3.10558 -0.65438 2.14667
# Velocity P-wave (km/s) = 4.30883 3.76605 4.04655
#
# Compressibility (1/GPa) = 0.09536575
#
# Stress axis : x y z
#
# Youngs Moduli (GPa) = 102.35607 15.11395 46.91537
#
# Poissons Ratio (x) = -0.01107 0.26338
# Poissons Ratio (y) = -0.07495 -0.18485
# Poissons Ratio (z) = 0.57463 -0.05955
#
# Static dielectric constant tensor:
#      x y z
#    x 1.655800 0.000000 0.000000 
#    y 0.000000 1.657250 0.000000 
#    z 0.000000 0.000000 1.622930 
# 
# From -- ./inp_files/9811.got.cif
#   From: 2010.05.17/outbox.cif.g08.bks.cpg/sg47_5_cif.got.tgz:9811.got - 2010.06.03 20:15:42.
