data_PCOD9381520
_publ_section_title
;
Structure prediction by ZEFSAII (Michael W. Deem and Ramdas Pophale) SiO2 
 PCOD9381520
Probable space group: P M M M
;
_chemical_formula_sum "Si O2"
_cell_formula_units_Z 64
_cell_length_a 19.671626
_cell_length_b 8.733585
_cell_length_c 24.468381
_cell_angle_alpha 90.000000
_cell_angle_beta 90.000000
_cell_angle_gamma 90.000000
_cell_volume 4203.761270
_symmetry_space_group_name_H-M "P M M M"
_symmetry_group_IT_number 47
_symmetry_cell_setting 'orthorhombic'
loop_
_space_group_symop_operation_xyz
x,y,z
-x,-y,z
x,-y,-z
-x,y,-z
-x,-y,-z
x,y,-z
-x,y,z
x,-y,z
loop_
_atom_site_type_symbol
_atom_site_label
_atom_site_fract_x
_atom_site_fract_y
_atom_site_fract_z
Si Si1 0.711330 0.316892 0.937671
Si Si2 0.153133 0.684943 0.330466
Si Si3 0.714959 0.683061 0.267263
Si Si4 0.209006 0.816641 0.837865
Si Si5 0.922860 0.184677 0.225836
Si Si6 0.576087 0.184035 0.243533
Si Si7 0.576723 0.815783 0.885649
Si Si8 0.921330 0.686474 0.561463
O O1 0.713953 0.500000 0.934873
O O2 0.764758 0.248536 0.894782
O O3 0.636709 0.262002 0.918850
O O4 0.724004 0.268105 0.000000
O O5 0.149416 0.500000 0.329460
O O6 0.229899 0.728044 0.313349
O O7 0.104467 0.747669 0.282748
O O8 0.126859 0.738508 0.389421
O O9 0.714982 0.500000 0.262581
O O10 0.743419 0.753438 0.210781
O O11 0.638771 0.742099 0.274992
O O12 0.132381 0.772890 0.820306
O O13 0.214614 0.000000 0.838547
O O14 0.000000 0.233932 0.214862
O O15 0.921868 0.000000 0.230030
O O16 0.500000 0.231084 0.260724
O O17 0.582972 0.222179 0.178878
O O18 0.580204 0.000000 0.247458
O O19 0.500000 0.773807 0.903083
O O20 0.583105 0.000000 0.890186
O O21 0.902818 0.736679 0.500000
O O22 0.919915 0.500000 0.561238
O O23 0.000000 0.730301 0.571889
#
# Coordination Sequence:
#
# PCOD9381520 Si02
#       8
#     8   8   8   8   8   8   8   8
#     4  11  23  35  47  65  88 111 138 175 214 254
#     4   9  17  27  41  65  94 120 149 184 217 253
#     4  10  18  27  42  65  91 115 140 175 220 261
#     4  10  19  32  49  65  84 111 142 173 209 258
#     4   9  18  31  47  68  91 113 139 176 220 261
#     4   9  17  29  45  64  86 113 144 175 209 255
#     4   9  18  32  49  67  86 111 143 175 206 247
#     4   8  13  22  38  60  87 122 161 192 213 239
#
# _framework density 15.224462000000001
#
# number of rings (size 3 to 8) (size 9 to 14) (size 15 to 20)
#    0.000    2.625    1.250    2.625    0.000    3.500 
#    0.000    2.500    0.000    0.750    0.000    4.375 
#    0.000    0.500    0.000    6.250    0.000    1.000 
#
# Total GULP energy -356685.189282 kJ/mol
# GULP energy per Si atom -5573.206083 kJ/mol
# Density = 1.518981 g / cm^3
# Si number density = 15.224462 Si / 1000 Ang^3
#
#
#
# Elastic Constant Matrix: (Units=GPa)
#
#
# Indices 1 2 3 4 5 6 
#
# 1 146.6119 30.7232 77.9377 0.0000 0.0000 0.0000
# 2 30.7232 16.4170 24.5743 0.0000 0.0000 0.0000
# 3 77.9377 24.5743 110.0255 0.0000 0.0000 0.0000
# 4 0.0000 0.0000 0.0000 1.2559 0.0000 0.0000
# 5 0.0000 0.0000 0.0000 0.0000 23.7748 0.0000
# 6 0.0000 0.0000 0.0000 0.0000 0.0000 14.8843
#
#
#
# Elastic Compliance Matrix: (Units=1/GPa)
#
#
# Indices 1 2 3 4 5 6 
#
# 1 0.013302 -0.016207 -0.005802 0.000000 0.000000 0.000000
# 2 -0.016207 0.111253 -0.013368 0.000000 0.000000 0.000000
# 3 -0.005802 -0.013368 0.016185 0.000000 0.000000 0.000000
# 4 0.000000 0.000000 0.000000 0.796236 0.000000 0.000000
# 5 0.000000 0.000000 0.000000 0.000000 0.042061 0.000000
# 6 0.000000 0.000000 0.000000 0.000000 0.000000 0.067185
#
#
# Mechanical properties :
#
#
# Convention : Reuss Voigt Hill
#
# Bulk Modulus (GPa) = 14.28895 59.94719 37.11807
# Shear Modulus (GPa) = 4.38479 17.30427 10.84453
#
# Velocity S-wave (km/s) = 1.69893 3.37502 2.67181
# Velocity P-wave (km/s) = 3.64065 7.39248 5.82680
#
# Compressibility (1/GPa) = 0.06998415
#
# Stress axis : x y z
#
# Youngs Moduli (GPa) = 75.17930 8.98853 61.78686
#
# Poissons Ratio (x) = 0.14568 0.35851
# Poissons Ratio (y) = 1.21846 0.82595
# Poissons Ratio (z) = 0.43622 0.12016
#
# Static dielectric constant tensor:
#      x y z
#    x 1.522860 0.000000 0.000000 
#    y 0.000000 1.511730 0.000000 
#    z 0.000000 0.000000 1.488930 
# 
# From -- ./inp_files/32961.got.cif
#   From: 2010.05.17/outbox.cif.g08.bks.cpg/sg47_17_cif.got.tgz:32961.got - 2010.06.03 20:15:42.
