data_PCOD9381411
_publ_section_title
;
Structure prediction by ZEFSAII (Michael W. Deem and Ramdas Pophale) SiO2 
 PCOD9381411
Probable space group: P M M M
;
_chemical_formula_sum "Si O2"
_cell_formula_units_Z 40
_cell_length_a 7.359254
_cell_length_b 12.308500
_cell_length_c 20.963998
_cell_angle_alpha 90.000000
_cell_angle_beta 90.000000
_cell_angle_gamma 90.000000
_cell_volume 1898.947824
_symmetry_space_group_name_H-M "P M M M"
_symmetry_group_IT_number 47
_symmetry_cell_setting 'orthorhombic'
loop_
_space_group_symop_operation_xyz
x,y,z
-x,-y,z
x,-y,-z
-x,y,-z
-x,-y,-z
x,y,-z
-x,y,z
x,-y,z
loop_
_atom_site_type_symbol
_atom_site_label
_atom_site_fract_x
_atom_site_fract_y
_atom_site_fract_z
Si Si1 0.221679 0.123539 0.573041
Si Si2 0.277999 0.262517 0.929013
Si Si3 0.787940 0.273487 0.685582
Si Si4 0.778837 0.500000 0.740794
Si Si5 0.289039 0.500000 0.108843
Si Si6 0.280300 0.124266 0.192609
O O1 0.275171 0.145832 0.500000
O O2 0.287948 0.210467 0.624387
O O3 0.000000 0.123732 0.574462
O O4 0.277136 0.000000 0.589503
O O5 0.500000 0.263706 0.926925
O O6 0.214217 0.385888 0.916216
O O7 0.218906 0.184653 0.871759
O O8 0.225084 0.227531 0.000000
O O9 0.713882 0.390460 0.706297
O O10 0.775014 0.193975 0.746177
O O11 0.000000 0.292284 0.671579
O O12 0.721565 0.500000 0.814569
O O13 0.000000 0.500000 0.741737
O O14 0.500000 0.500000 0.089223
O O15 0.500000 0.123213 0.191765
O O16 0.217923 0.000000 0.196351
#
# Coordination Sequence:
#
# PCOD9381411 Si02
#       6
#     8   8   8   4   4   8
#     4   8  14  26  46  71  95 121 157 196 230 270
#     4   9  17  29  47  71  95 119 154 200 242 281
#     4  10  19  32  50  71  97 128 160 194 236 281
#     4  10  20  31  46  71 100 125 154 196 238 280
#     4  10  17  30  52  71  89 120 162 200 237 282
#     4  10  20  32  48  72  98 124 158 198 238 283
#
# _framework density 21.064295999999999
#
# number of rings (size 3 to 8) (size 9 to 14) (size 15 to 20)
#    0.000    2.600    2.000    1.500    0.000    2.800 
#    0.000    2.500    0.000    6.600    0.000    4.200 
#    0.000    2.400    0.000    0.000    0.000    0.000 
#
# Total GULP energy -223410.294144 kJ/mol
# GULP energy per Si atom -5585.257354 kJ/mol
# Density = 2.101635 g / cm^3
# Si number density = 21.064296 Si / 1000 Ang^3
#
#
#
# Elastic Constant Matrix: (Units=GPa)
#
#
# Indices 1 2 3 4 5 6 
#
# 1 75.2725 -8.6632 -14.5069 0.0000 0.0000 0.0000
# 2 -8.6632 145.6736 68.8426 0.0000 0.0000 0.0000
# 3 -14.5069 68.8426 132.1595 0.0000 0.0000 0.0000
# 4 0.0000 0.0000 0.0000 79.8415 0.0000 0.0000
# 5 0.0000 0.0000 0.0000 0.0000 15.3708 0.0000
# 6 0.0000 0.0000 0.0000 0.0000 0.0000 -0.9602
#
#
#
# Elastic Compliance Matrix: (Units=1/GPa)
#
#
# Indices 1 2 3 4 5 6 
#
# 1 0.013574 0.000137 0.001419 0.000000 0.000000 0.000000
# 2 0.000137 0.009108 -0.004729 0.000000 0.000000 0.000000
# 3 0.001419 -0.004729 0.010186 0.000000 0.000000 0.000000
# 4 0.000000 0.000000 0.000000 0.012525 0.000000 0.000000
# 5 0.000000 0.000000 0.000000 0.000000 0.065058 0.000000
# 6 0.000000 0.000000 0.000000 0.000000 0.000000 -1.041468
#
#
# Mechanical properties :
#
#
# Convention : Reuss Voigt Hill
#
# Bulk Modulus (GPa) = 37.70677 49.38337 43.54507
# Shear Modulus (GPa) = -5.45954 39.34597 16.94322
#
# Velocity S-wave (km/s) = -1.61167 4.32661 2.83920
# Velocity P-wave (km/s) = 3.80478 6.96092 5.60940
#
# Compressibility (1/GPa) = 0.02652043
#
# Stress axis : x y z
#
# Youngs Moduli (GPa) = 73.66890 109.79650 98.17537
#
# Poissons Ratio (x) = -0.01502 -0.13929
# Poissons Ratio (y) = -0.01008 0.46430
# Poissons Ratio (z) = -0.10452 0.51926
#
# Static dielectric constant tensor:
#      x y z
#    x 1.849410 0.000000 0.000000 
#    y 0.000000 1.733640 0.000000 
#    z 0.000000 0.000000 1.710270 
# 
# From -- ./inp_files/4135.got.cif
#   From: 2010.05.17/outbox.cif.g08.bks.cpg/sg47_3_cif.got.tgz:4135.got - 2010.06.03 20:15:42.
