data_PCOD9381432
_publ_section_title
;
Structure prediction by ZEFSAII (Michael W. Deem and Ramdas Pophale) SiO2 
 PCOD9381432
Probable space group: P M M M
;
_chemical_formula_sum "Si O2"
_cell_formula_units_Z 52
_cell_length_a 11.874621
_cell_length_b 17.958620
_cell_length_c 14.624803
_cell_angle_alpha 90.000000
_cell_angle_beta 90.000000
_cell_angle_gamma 90.000000
_cell_volume 3118.765655
_symmetry_space_group_name_H-M "P M M M"
_symmetry_group_IT_number 47
_symmetry_cell_setting 'orthorhombic'
loop_
_space_group_symop_operation_xyz
x,y,z
-x,-y,z
x,-y,-z
-x,y,-z
-x,-y,-z
x,y,-z
-x,y,z
x,-y,z
loop_
_atom_site_type_symbol
_atom_site_label
_atom_site_fract_x
_atom_site_fract_y
_atom_site_fract_z
Si Si1 0.863610 0.000000 0.895804
Si Si2 0.136742 0.086420 0.398201
Si Si3 0.500000 0.410679 0.297025
Si Si4 0.867877 0.588688 0.778748
Si Si5 0.500000 0.333488 0.103341
Si Si6 0.136284 0.151243 0.209794
Si Si7 0.249118 0.287405 0.893988
Si Si8 0.729873 0.590516 0.604117
O O1 0.832404 0.924729 0.843301
O O2 0.000000 0.000000 0.897743
O O3 0.822707 0.000000 0.000000
O O4 0.174093 0.108128 0.500000
O O5 0.171102 0.138575 0.314955
O O6 0.000000 0.086315 0.398063
O O7 0.169526 0.000000 0.381777
O O8 0.500000 0.500000 0.300320
O O9 0.500000 0.386971 0.191318
O O10 0.612041 0.384990 0.350228
O O11 0.848935 0.500000 0.789908
O O12 0.795784 0.635898 0.850226
O O13 0.827011 0.609805 0.676541
O O14 0.000000 0.603837 0.790190
O O15 0.615507 0.287418 0.110290
O O16 0.500000 0.367768 0.000000
O O17 0.194349 0.220985 0.162991
O O18 0.000000 0.159415 0.205509
O O19 0.215175 0.282102 0.000000
O O20 0.744063 0.617156 0.500000
O O21 0.727109 0.500000 0.600051
#
# Coordination Sequence:
#
# PCOD9381432 Si02
#       8
#     4   8   4   8   4   8   8   8
#     4   9  16  26  43  72 106 134 164 206 252 302
#     4   8  13  24  45  74 108 141 168 198 243 299
#     4  10  17  31  56  81 100 123 168 227 272 311
#     4  10  21  36  53  76 107 142 178 214 257 317
#     4  10  22  38  55  73  96 132 175 222 272 313
#     4  10  18  30  50  78 108 137 170 208 253 311
#     4  11  23  38  55  74 100 137 178 222 272 317
#     4   9  17  30  51  78 104 132 168 214 267 316
#
# _framework density 16.673264
#
# number of rings (size 3 to 8) (size 9 to 14) (size 15 to 20)
#    0.000    2.385    2.308    1.615    0.000    3.538 
#    0.000    4.615    0.000    2.308    0.000    2.154 
#    0.000    1.231    0.000    0.000    0.000    0.000 
#
# Total GULP energy -289739.519515 kJ/mol
# GULP energy per Si atom -5571.913837 kJ/mol
# Density = 1.663531 g / cm^3
# Si number density = 16.673264 Si / 1000 Ang^3
#
#
#
# Elastic Constant Matrix: (Units=GPa)
#
#
# Indices 1 2 3 4 5 6 
#
# 1 66.4909 32.7627 42.3579 0.0000 0.0000 0.0000
# 2 32.7627 44.7047 45.1320 0.0000 0.0000 0.0000
# 3 42.3579 45.1320 154.2954 0.0000 0.0000 0.0000
# 4 0.0000 0.0000 0.0000 28.3733 0.0000 0.0000
# 5 0.0000 0.0000 0.0000 0.0000 21.4565 0.0000
# 6 0.0000 0.0000 0.0000 0.0000 0.0000 8.1836
#
#
#
# Elastic Compliance Matrix: (Units=1/GPa)
#
#
# Indices 1 2 3 4 5 6 
#
# 1 0.023988 -0.015513 -0.002048 0.000000 0.000000 0.000000
# 2 -0.015513 0.041774 -0.007961 0.000000 0.000000 0.000000
# 3 -0.002048 -0.007961 0.009372 0.000000 0.000000 0.000000
# 4 0.000000 0.000000 0.000000 0.035244 0.000000 0.000000
# 5 0.000000 0.000000 0.000000 0.000000 0.046606 0.000000
# 6 0.000000 0.000000 0.000000 0.000000 0.000000 0.122195
#
#
# Mechanical properties :
#
#
# Convention : Reuss Voigt Hill
#
# Bulk Modulus (GPa) = 41.50744 56.22180 48.86462
# Shear Modulus (GPa) = 14.78187 21.28524 18.03355
#
# Velocity S-wave (km/s) = 2.98075 3.57684 3.29231
# Velocity P-wave (km/s) = 6.06590 7.13101 6.61991
#
# Compressibility (1/GPa) = 0.02409207
#
# Stress axis : x y z
#
# Youngs Moduli (GPa) = 41.68779 23.93815 106.70389
#
# Poissons Ratio (x) = 0.37134 0.21850
# Poissons Ratio (y) = 0.64669 0.84942
# Poissons Ratio (z) = 0.08537 0.19056
#
# Static dielectric constant tensor:
#      x y z
#    x 1.552360 0.000000 0.000000 
#    y 0.000000 1.551600 0.000000 
#    z 0.000000 0.000000 1.584130 
# 
# From -- ./inp_files/22937.got.cif
#   From: 2010.05.17/outbox.cif.g08.bks.cpg/sg47_12_cif.got.tgz:22937.got - 2010.06.03 20:15:42.
