data_PCOD9381211
_publ_section_title
;
Structure prediction by ZEFSAII (Michael W. Deem and Ramdas Pophale) SiO2 
 PCOD9381211
Probable space group: P M M M
;
_chemical_formula_sum "Si O2"
_cell_formula_units_Z 64
_cell_length_a 7.707734
_cell_length_b 19.298366
_cell_length_c 22.461464
_cell_angle_alpha 90.000000
_cell_angle_beta 90.000000
_cell_angle_gamma 90.000000
_cell_volume 3341.068013
_symmetry_space_group_name_H-M "P M M M"
_symmetry_group_IT_number 47
_symmetry_cell_setting 'orthorhombic'
loop_
_space_group_symop_operation_xyz
x,y,z
-x,-y,z
x,-y,-z
-x,y,-z
-x,-y,-z
x,y,-z
-x,y,z
x,-y,z
loop_
_atom_site_type_symbol
_atom_site_label
_atom_site_fract_x
_atom_site_fract_y
_atom_site_fract_z
Si Si1 0.212097 0.078153 0.930955
Si Si2 0.702315 0.078553 0.267416
Si Si3 0.300914 0.770634 0.395813
Si Si4 0.196932 0.180278 0.832421
Si Si5 0.201385 0.076062 0.594643
Si Si6 0.212462 0.575765 0.309475
Si Si7 0.789150 0.722879 0.264657
Si Si8 0.799570 0.376260 0.436104
O O1 0.277327 0.138496 0.887407
O O2 0.000000 0.078235 0.927338
O O3 0.267898 0.000000 0.913950
O O4 0.257907 0.089171 0.000000
O O5 0.500000 0.100309 0.271051
O O6 0.804117 0.125169 0.221535
O O7 0.777749 0.077344 0.333734
O O8 0.706694 0.000000 0.245183
O O9 0.500000 0.753392 0.404830
O O10 0.270827 0.847715 0.421550
O O11 0.263369 0.765040 0.324526
O O12 0.200044 0.706798 0.425070
O O13 0.277140 0.244944 0.797149
O O14 0.000000 0.198948 0.849754
O O15 0.000000 0.075416 0.578328
O O16 0.275592 0.000000 0.575668
O O17 0.266350 0.500000 0.288299
O O18 0.266684 0.643743 0.273623
O O19 0.274560 0.588815 0.377110
O O20 0.000000 0.577198 0.310096
O O21 0.000000 0.725719 0.263565
O O22 0.718423 0.391444 0.500000
O O23 0.000000 0.398751 0.438356
#
# Coordination Sequence:
#
# PCOD9381211 Si02
#       8
#     8   8   8   8   8   8   8   8
#     4   8  14  24  37  55  80 111 151 196 236 271
#     4  10  19  27  36  56  85 112 140 176 217 261
#     4  11  20  30  46  65  90 119 144 178 223 267
#     4  10  17  25  41  60  81 111 147 188 228 268
#     4  10  19  30  44  61  83 112 145 180 218 260
#     4   8  14  26  45  68  93 117 141 175 217 257
#     4   9  17  28  42  63  88 113 145 180 217 268
#     4   9  18  32  50  70  90 114 146 181 214 254
#
# _framework density 19.155553000000001
#
# number of rings (size 3 to 8) (size 9 to 14) (size 15 to 20)
#    0.000    2.625    1.250    3.375    0.000    2.500 
#    0.000    1.250    0.000    6.750    0.000    7.875 
#    0.000    0.500    0.000    7.000    0.000    0.000 
#
# Total GULP energy -356659.202348 kJ/mol
# GULP energy per Si atom -5572.800037 kJ/mol
# Density = 1.911195 g / cm^3
# Si number density = 19.155553 Si / 1000 Ang^3
#
#
#
# Elastic Constant Matrix: (Units=GPa)
#
#
# Indices 1 2 3 4 5 6 
#
# 1 44.7251 0.8438 -2.3946 0.0000 0.0000 0.0000
# 2 0.8438 129.3306 38.8066 0.0000 0.0000 0.0000
# 3 -2.3946 38.8066 81.3236 0.0000 0.0000 0.0000
# 4 0.0000 0.0000 0.0000 -36.6434 0.0000 0.0000
# 5 0.0000 0.0000 0.0000 0.0000 -23.8426 0.0000
# 6 0.0000 0.0000 0.0000 0.0000 0.0000 -10.4319
#
#
#
# Elastic Compliance Matrix: (Units=1/GPa)
#
#
# Indices 1 2 3 4 5 6 
#
# 1 0.022412 -0.000402 0.000852 0.000000 0.000000 0.000000
# 2 -0.000402 0.009031 -0.004322 0.000000 0.000000 0.000000
# 3 0.000852 -0.004322 0.014384 0.000000 0.000000 0.000000
# 4 0.000000 0.000000 0.000000 -0.027290 0.000000 0.000000
# 5 0.000000 0.000000 0.000000 0.000000 -0.041942 0.000000
# 6 0.000000 0.000000 0.000000 0.000000 0.000000 -0.095860
#
#
# Mechanical properties :
#
#
# Convention : Reuss Voigt Hill
#
# Bulk Modulus (GPa) = 26.25778 36.65454 31.45616
# Shear Modulus (GPa) = -50.59359 0.35800 -25.11779
#
# Velocity S-wave (km/s) = -5.14483 0.43278 -3.62505
# Velocity P-wave (km/s) = 4.64274 4.40755 1.03163
#
# Compressibility (1/GPa) = 0.03808395
#
# Stress axis : x y z
#
# Youngs Moduli (GPa) = 44.61899 110.72426 69.52267
#
# Poissons Ratio (x) = 0.04448 -0.05921
# Poissons Ratio (y) = 0.01793 0.30044
# Poissons Ratio (z) = -0.03800 0.47850
#
# Static dielectric constant tensor:
#      x y z
#    x 1.695300 0.000000 0.000000 
#    y 0.000000 1.719400 0.000000 
#    z 0.000000 0.000000 1.672030 
# 
# From -- ./inp_files/32257.got.cif
#   From: 2010.05.17/outbox.cif.g08.bks.cpg/sg47_17_cif.got.tgz:32257.got - 2010.06.03 20:15:42.
