data_PCOD9381737
_publ_section_title
;
Structure prediction by ZEFSAII (Michael W. Deem and Ramdas Pophale) SiO2 
 PCOD9381737
Probable space group: P M M M
;
_chemical_formula_sum "Si O2"
_cell_formula_units_Z 60
_cell_length_a 15.044161
_cell_length_b 15.676793
_cell_length_c 14.001560
_cell_angle_alpha 90.000000
_cell_angle_beta 90.000000
_cell_angle_gamma 90.000000
_cell_volume 3302.186687
_symmetry_space_group_name_H-M "P M M M"
_symmetry_group_IT_number 47
_symmetry_cell_setting 'orthorhombic'
loop_
_space_group_symop_operation_xyz
x,y,z
-x,-y,z
x,-y,-z
-x,y,-z
-x,-y,-z
x,y,-z
-x,y,z
x,-y,z
loop_
_atom_site_type_symbol
_atom_site_label
_atom_site_fract_x
_atom_site_fract_y
_atom_site_fract_z
Si Si1 0.399723 0.668413 0.615020
Si Si2 0.101027 0.255436 0.385558
Si Si3 0.277104 0.657165 0.109316
Si Si4 0.596175 0.500000 0.885814
Si Si5 0.398563 0.822780 0.894410
Si Si6 0.400895 0.135657 0.684655
Si Si7 0.210300 0.908189 0.386013
Si Si8 0.783093 0.399180 0.300425
O O1 0.388997 0.676377 0.500000
O O2 0.500000 0.633862 0.632416
O O3 0.397405 0.762851 0.661538
O O4 0.316297 0.617686 0.657681
O O5 0.098066 0.247348 0.500000
O O6 0.159688 0.175472 0.348342
O O7 0.149328 0.343900 0.362674
O O8 0.000000 0.252344 0.349514
O O9 0.349394 0.584576 0.134047
O O10 0.327477 0.747035 0.112750
O O11 0.209136 0.642244 0.194565
O O12 0.246117 0.643544 0.000000
O O13 0.500000 0.500000 0.840049
O O14 0.586799 0.500000 0.000000
O O15 0.500000 0.786885 0.891371
O O16 0.391142 0.877645 0.798715
O O17 0.388854 0.863212 0.000000
O O18 0.500000 0.106739 0.655299
O O19 0.315143 0.098026 0.634398
O O20 0.198693 0.907984 0.500000
O O21 0.177028 0.000000 0.349230
O O22 0.799762 0.500000 0.298337
#
# Coordination Sequence:
#
# PCOD9381737 Si02
#       8
#     8   8   8   4   8   8   8   8
#     4  10  20  33  48  68 101 147 190 223 257 303
#     4  10  22  41  62  82 106 134 170 222 279 332
#     4  10  18  29  44  67 100 137 177 226 277 316
#     4   9  16  24  36  58  92 133 174 218 264 305
#     4   9  16  26  43  67  97 139 190 233 266 304
#     4  10  18  30  50  76 111 151 182 214 259 310
#     4  10  20  35  58  86 112 138 172 215 266 325
#     4  12  23  35  53  78 106 144 186 227 269 317
#
# _framework density 18.169777
#
# number of rings (size 3 to 8) (size 9 to 14) (size 15 to 20)
#    0.000    1.933    3.333    1.200    0.000    5.067 
#    0.000    3.333    0.000    0.800    0.000    2.800 
#    0.000    0.000    0.000    5.600    0.000    0.267 
#
# Total GULP energy -334387.369873 kJ/mol
# GULP energy per Si atom -5573.122831 kJ/mol
# Density = 1.812842 g / cm^3
# Si number density = 18.169777 Si / 1000 Ang^3
#
#
#
# Elastic Constant Matrix: (Units=GPa)
#
#
# Indices 1 2 3 4 5 6 
#
# 1 79.3262 32.7535 14.4261 0.0000 0.0000 0.0000
# 2 32.7535 57.0029 7.9496 0.0000 0.0000 0.0000
# 3 14.4261 7.9496 63.8034 0.0000 0.0000 0.0000
# 4 0.0000 0.0000 0.0000 2.3794 0.0000 0.0000
# 5 0.0000 0.0000 0.0000 0.0000 11.2571 0.0000
# 6 0.0000 0.0000 0.0000 0.0000 0.0000 -0.3486
#
#
#
# Elastic Compliance Matrix: (Units=1/GPa)
#
#
# Indices 1 2 3 4 5 6 
#
# 1 0.016962 -0.009374 -0.002667 0.000000 0.000000 0.000000
# 2 -0.009374 0.023034 -0.000750 0.000000 0.000000 0.000000
# 3 -0.002667 -0.000750 0.016370 0.000000 0.000000 0.000000
# 4 0.000000 0.000000 0.000000 0.420281 0.000000 0.000000
# 5 0.000000 0.000000 0.000000 0.000000 0.088833 0.000000
# 6 0.000000 0.000000 0.000000 0.000000 0.000000 -2.868661
#
#
# Mechanical properties :
#
#
# Convention : Reuss Voigt Hill
#
# Bulk Modulus (GPa) = 32.48648 34.48788 33.48718
# Shear Modulus (GPa) = -2.20523 12.32445 5.05961
#
# Velocity S-wave (km/s) = -1.10287 2.60723 1.67053
# Velocity P-wave (km/s) = 4.03689 5.29959 4.71074
#
# Compressibility (1/GPa) = 0.03078203
#
# Stress axis : x y z
#
# Youngs Moduli (GPa) = 58.95610 43.41413 61.08857
#
# Poissons Ratio (x) = 0.40697 0.16293
# Poissons Ratio (y) = 0.55266 0.04584
# Poissons Ratio (z) = 0.15724 0.03258
#
# Static dielectric constant tensor:
#      x y z
#    x 1.625250 0.000000 0.000000 
#    y 0.000000 1.639700 0.000000 
#    z 0.000000 0.000000 1.669620 
# 
# From -- ./inp_files/23906.got.cif
#   From: 2010.05.17/outbox.cif.g08.bks.cpg/sg47_12_cif.got.tgz:23906.got - 2010.06.03 20:15:42.
