data_PCOD9381455
_publ_section_title
;
Structure prediction by ZEFSAII (Michael W. Deem and Ramdas Pophale) SiO2 
 PCOD9381455
Probable space group: P M M M
;
_chemical_formula_sum "Si O2"
_cell_formula_units_Z 60
_cell_length_a 24.279063
_cell_length_b 9.219602
_cell_length_c 18.846837
_cell_angle_alpha 90.000000
_cell_angle_beta 90.000000
_cell_angle_gamma 90.000000
_cell_volume 4218.738147
_symmetry_space_group_name_H-M "P M M M"
_symmetry_group_IT_number 47
_symmetry_cell_setting 'orthorhombic'
loop_
_space_group_symop_operation_xyz
x,y,z
-x,-y,z
x,-y,-z
-x,y,-z
-x,-y,-z
x,y,-z
-x,y,z
x,-y,z
loop_
_atom_site_type_symbol
_atom_site_label
_atom_site_fract_x
_atom_site_fract_y
_atom_site_fract_z
Si Si1 0.106852 0.166253 0.208373
Si Si2 0.062509 0.672259 0.340481
Si Si3 0.773105 0.834271 0.284556
Si Si4 0.839966 0.326576 0.082759
Si Si5 0.276569 0.327528 0.842429
Si Si6 0.620818 0.173555 0.914911
Si Si7 0.500000 0.824245 0.083325
Si Si8 0.162673 0.825571 0.417974
O O1 0.069955 0.257831 0.262521
O O2 0.166996 0.164445 0.246296
O O3 0.117694 0.242070 0.133190
O O4 0.088203 0.000000 0.201787
O O5 0.072533 0.500000 0.336633
O O6 0.107633 0.746604 0.390833
O O7 0.000000 0.696696 0.365273
O O8 0.735455 0.733957 0.236008
O O9 0.787814 0.785835 0.364264
O O10 0.752449 0.000000 0.284889
O O11 0.847667 0.500000 0.091152
O O12 0.778013 0.293457 0.110473
O O13 0.845057 0.289839 0.000000
O O14 0.282559 0.500000 0.841116
O O15 0.329668 0.253810 0.876550
O O16 0.559815 0.222133 0.888809
O O17 0.625541 0.000000 0.904251
O O18 0.623755 0.198224 0.000000
O O19 0.500000 0.000000 0.086483
O O20 0.500000 0.785977 0.000000
O O21 0.173504 0.793341 0.500000
O O22 0.155018 0.000000 0.410203
#
# Coordination Sequence:
#
# PCOD9381455 Si02
#       8
#     8   8   8   8   8   8   4   8
#     4   9  17  29  45  62  79 102 133 168 204 241
#     4  10  20  32  46  64  85 109 136 163 192 232
#     4   8  15  28  43  59  80 106 134 160 192 237
#     4   9  17  28  41  58  82 109 133 162 205 253
#     4  10  18  26  38  58  83 108 136 170 204 238
#     4   9  16  26  40  56  76 106 144 182 216 248
#     4   7  12  24  39  53  71 101 142 181 214 249
#     4   9  18  32  49  68  88 109 133 162 196 233
#
# _framework density 14.222262000000001
#
# number of rings (size 3 to 8) (size 9 to 14) (size 15 to 20)
#    0.000    3.000    0.000    3.200    0.000    6.400 
#    0.000    1.667    0.000    1.600    0.000    2.800 
#    0.000    0.000    0.000    0.600    0.000   13.733 
#
# Total GULP energy -334042.044824 kJ/mol
# GULP energy per Si atom -5567.367414 kJ/mol
# Density = 1.418989 g / cm^3
# Si number density = 14.222262 Si / 1000 Ang^3
#
#
#
# Elastic Constant Matrix: (Units=GPa)
#
#
# Indices 1 2 3 4 5 6 
#
# 1 35.5416 23.8530 21.4888 0.0000 0.0000 0.0000
# 2 23.8530 36.0514 34.6193 0.0000 0.0000 0.0000
# 3 21.4888 34.6193 99.1786 0.0000 0.0000 0.0000
# 4 0.0000 0.0000 0.0000 17.0422 0.0000 0.0000
# 5 0.0000 0.0000 0.0000 0.0000 13.0847 0.0000
# 6 0.0000 0.0000 0.0000 0.0000 0.0000 17.0581
#
#
#
# Elastic Compliance Matrix: (Units=1/GPa)
#
#
# Indices 1 2 3 4 5 6 
#
# 1 0.050687 -0.034582 0.001089 0.000000 0.000000 0.000000
# 2 -0.034582 0.065318 -0.015307 0.000000 0.000000 0.000000
# 3 0.001089 -0.015307 0.015190 0.000000 0.000000 0.000000
# 4 0.000000 0.000000 0.000000 0.058678 0.000000 0.000000
# 5 0.000000 0.000000 0.000000 0.000000 0.076425 0.000000
# 6 0.000000 0.000000 0.000000 0.000000 0.000000 0.058623
#
#
# Mechanical properties :
#
#
# Convention : Reuss Voigt Hill
#
# Bulk Modulus (GPa) = 29.76685 36.74376 33.25531
# Shear Modulus (GPa) = 11.52819 15.49104 13.50962
#
# Velocity S-wave (km/s) = 2.85015 3.30390 3.08538
# Velocity P-wave (km/s) = 5.63971 6.35970 6.01050
#
# Compressibility (1/GPa) = 0.03359442
#
# Stress axis : x y z
#
# Youngs Moduli (GPa) = 19.72906 15.30969 65.83292
#
# Poissons Ratio (x) = 0.52944 -0.07170
# Poissons Ratio (y) = 0.68227 1.00771
# Poissons Ratio (z) = -0.02149 0.23435
#
# Static dielectric constant tensor:
#      x y z
#    x 1.462060 0.000000 0.000000 
#    y 0.000000 1.474560 0.000000 
#    z 0.000000 0.000000 1.469630 
# 
# From -- ./inp_files/28888.got.cif
#   From: 2010.05.17/outbox.cif.g08.bks.cpg/sg47_15_cif.got.tgz:28888.got - 2010.06.03 20:15:42.
