data_PCOD9381328
_publ_section_title
;
Structure prediction by ZEFSAII (Michael W. Deem and Ramdas Pophale) SiO2 
 PCOD9381328
Probable space group: P M M M
;
_chemical_formula_sum "Si O2"
_cell_formula_units_Z 33
_cell_length_a 12.011443
_cell_length_b 15.655544
_cell_length_c 9.902841
_cell_angle_alpha 90.000000
_cell_angle_beta 90.000000
_cell_angle_gamma 90.000000
_cell_volume 1862.186414
_symmetry_space_group_name_H-M "P M M M"
_symmetry_group_IT_number 47
_symmetry_cell_setting 'orthorhombic'
loop_
_space_group_symop_operation_xyz
x,y,z
-x,-y,z
x,-y,-z
-x,y,-z
-x,-y,-z
x,y,-z
-x,y,z
x,-y,z
loop_
_atom_site_type_symbol
_atom_site_label
_atom_site_fract_x
_atom_site_fract_y
_atom_site_fract_z
Si Si1 0.500000 0.328663 0.836727
Si Si2 0.254144 0.901530 0.344982
Si Si3 0.737071 0.404583 0.835950
Si Si4 0.867698 0.763905 0.839819
Si Si5 0.500000 0.867953 0.747588
Si Si6 0.500000 0.000000 0.000000
O O1 0.612332 0.377317 0.795145
O O2 0.500000 0.232300 0.783448
O O3 0.500000 0.324957 0.000000
O O4 0.221018 0.886011 0.500000
O O5 0.193644 0.836900 0.244447
O O6 0.386672 0.888977 0.330621
O O7 0.228308 0.000000 0.310291
O O8 0.764707 0.500000 0.787979
O O9 0.820177 0.328576 0.797245
O O10 0.738359 0.407121 0.000000
O O11 0.000000 0.767910 0.821962
O O12 0.843029 0.774728 0.000000
O O13 0.500000 0.925478 0.881827
#
# Coordination Sequence:
#
# PCOD9381328 Si02
#       6
#     4   8   8   8   4   1
#     4  10  17  27  50  84 117 144 178 226 281 341
#     4  11  24  40  59  82 115 153 191 234 282 344
#     4   9  17  30  52  83 118 148 179 228 290 347
#     4  10  22  38  58  85 114 147 194 244 286 333
#     4  12  21  34  56  89 120 148 187 230 286 343
#     4  12  24  28  58 100 120 156 186 244 288 346
#
# _framework density 17.721105999999999
#
# number of rings (size 3 to 8) (size 9 to 14) (size 15 to 20)
#    0.000    1.697    4.242    0.727    1.697    4.364 
#    0.000    4.848    0.000    0.727    0.000    3.394 
#    0.000    0.000    0.000    0.000    0.000    0.000 
#
# Total GULP energy -183893.301548 kJ/mol
# GULP energy per Si atom -5572.524289 kJ/mol
# Density = 1.768077 g / cm^3
# Si number density = 17.721106 Si / 1000 Ang^3
#
#
#
# Elastic Constant Matrix: (Units=GPa)
#
#
# Indices 1 2 3 4 5 6 
#
# 1 90.5652 70.5615 39.6231 0.0000 0.0000 0.0000
# 2 70.5615 183.6071 60.2714 0.0000 0.0000 0.0000
# 3 39.6231 60.2714 45.6930 0.0000 0.0000 0.0000
# 4 0.0000 0.0000 0.0000 8.7834 0.0000 0.0000
# 5 0.0000 0.0000 0.0000 0.0000 0.3832 0.0000
# 6 0.0000 0.0000 0.0000 0.0000 0.0000 0.9693
#
#
#
# Elastic Compliance Matrix: (Units=1/GPa)
#
#
# Indices 1 2 3 4 5 6 
#
# 1 0.018871 -0.003317 -0.011990 0.000000 0.000000 0.000000
# 2 -0.003317 0.010188 -0.010563 0.000000 0.000000 0.000000
# 3 -0.011990 -0.010563 0.046215 0.000000 0.000000 0.000000
# 4 0.000000 0.000000 0.000000 0.113851 0.000000 0.000000
# 5 0.000000 0.000000 0.000000 0.000000 2.609912 0.000000
# 6 0.000000 0.000000 0.000000 0.000000 0.000000 1.031679
#
#
# Mechanical properties :
#
#
# Convention : Reuss Voigt Hill
#
# Bulk Modulus (GPa) = 42.48726 73.41969 57.95348
# Shear Modulus (GPa) = 1.28525 11.98780 6.63652
#
# Velocity S-wave (km/s) = 0.85255 2.60373 1.93730
# Velocity P-wave (km/s) = 4.99967 7.11054 6.14640
#
# Compressibility (1/GPa) = 0.02353647
#
# Stress axis : x y z
#
# Youngs Moduli (GPa) = 52.99008 98.15001 21.63785
#
# Poissons Ratio (x) = 0.32553 0.25943
# Poissons Ratio (y) = 0.17575 0.22856
# Poissons Ratio (z) = 0.63533 1.03676
#
# Static dielectric constant tensor:
#      x y z
#    x 1.601500 0.000000 0.000000 
#    y 0.000000 1.599990 0.000000 
#    z 0.000000 0.000000 1.581060 
# 
# From -- ./inp_files/3454.got.cif
#   From: 2010.05.17/outbox.cif.g08.bks.cpg/sg47_2_cif.got.tgz:3454.got - 2010.06.03 20:15:42.
