data_PCOD9381852
_publ_section_title
;
Structure prediction by ZEFSAII (Michael W. Deem and Ramdas Pophale) SiO2 
 PCOD9381852
Probable space group: P M M M
;
_chemical_formula_sum "Si O2"
_cell_formula_units_Z 56
_cell_length_a 19.671595
_cell_length_b 19.210278
_cell_length_c 8.633075
_cell_angle_alpha 90.000000
_cell_angle_beta 90.000000
_cell_angle_gamma 90.000000
_cell_volume 3262.411491
_symmetry_space_group_name_H-M "P M M M"
_symmetry_group_IT_number 47
_symmetry_cell_setting 'orthorhombic'
loop_
_space_group_symop_operation_xyz
x,y,z
-x,-y,z
x,-y,-z
-x,y,-z
-x,-y,-z
x,y,-z
-x,y,z
x,-y,z
loop_
_atom_site_type_symbol
_atom_site_label
_atom_site_fract_x
_atom_site_fract_y
_atom_site_fract_z
Si Si1 0.792805 0.789340 0.685848
Si Si2 0.151631 0.577162 0.188303
Si Si3 0.714523 0.655629 0.814635
Si Si4 0.077616 0.717730 0.812480
Si Si5 0.423820 0.310620 0.314678
Si Si6 0.707631 0.921402 0.312956
Si Si7 0.576902 0.846128 0.814763
O O1 0.791419 0.785349 0.500000
O O2 0.744096 0.728829 0.752312
O O3 0.867913 0.771718 0.745911
O O4 0.763088 0.863864 0.735299
O O5 0.134003 0.500000 0.244328
O O6 0.228653 0.598881 0.230628
O O7 0.103048 0.640566 0.236942
O O8 0.148896 0.575927 0.000000
O O9 0.639105 0.645805 0.750350
O O10 0.712269 0.658821 0.000000
O O11 0.000000 0.729864 0.765708
O O12 0.081283 0.719899 0.000000
O O13 0.420102 0.309040 0.500000
O O14 0.500000 0.333949 0.269090
O O15 0.415563 0.231716 0.252654
O O16 0.705889 0.921013 0.500000
O O17 0.634902 0.895108 0.252818
O O18 0.721871 0.000000 0.260684
O O19 0.500000 0.869731 0.777195
O O20 0.583489 0.842399 0.000000
#
# Coordination Sequence:
#
# PCOD9381852 Si02
#       7
#     8   8   8   8   8   8   8
#     4  10  19  32  51  72  96 127 163 202 242 290
#     4   8  15  28  47  74 105 133 160 192 234 284
#     4  10  18  29  49  73  97 126 163 206 246 287
#     4   9  18  32  52  78 104 130 160 197 239 283
#     4  10  19  30  46  68  94 126 165 208 252 295
#     4  10  21  35  50  69  95 130 169 207 249 296
#     4  10  20  32  47  69  97 128 163 205 252 299
#
# _framework density 17.165216999999998
#
# number of rings (size 3 to 8) (size 9 to 14) (size 15 to 20)
#    0.000    2.429    1.429    2.571    0.000    3.429 
#    0.000    2.857    0.000   11.571    0.000   10.000 
#    0.000    0.000    0.000    0.000    0.000    0.000 
#
# Total GULP energy -312254.714442 kJ/mol
# GULP energy per Si atom -5575.977044 kJ/mol
# Density = 1.712615 g / cm^3
# Si number density = 17.165217 Si / 1000 Ang^3
#
#
#
# Elastic Constant Matrix: (Units=GPa)
#
#
# Indices 1 2 3 4 5 6 
#
# 1 133.8912 38.1159 23.8441 0.0000 0.0000 0.0000
# 2 38.1159 54.3386 13.9517 0.0000 0.0000 0.0000
# 3 23.8441 13.9517 19.0951 0.0000 0.0000 0.0000
# 4 0.0000 0.0000 0.0000 16.2612 0.0000 0.0000
# 5 0.0000 0.0000 0.0000 0.0000 25.2940 0.0000
# 6 0.0000 0.0000 0.0000 0.0000 0.0000 15.9885
#
#
#
# Elastic Compliance Matrix: (Units=1/GPa)
#
#
# Indices 1 2 3 4 5 6 
#
# 1 0.010591 -0.004965 -0.009598 0.000000 0.000000 0.000000
# 2 -0.004965 0.024980 -0.012052 0.000000 0.000000 0.000000
# 3 -0.009598 -0.012052 0.073160 0.000000 0.000000 0.000000
# 4 0.000000 0.000000 0.000000 0.061496 0.000000 0.000000
# 5 0.000000 0.000000 0.000000 0.000000 0.039535 0.000000
# 6 0.000000 0.000000 0.000000 0.000000 0.000000 0.062545
#
#
# Mechanical properties :
#
#
# Convention : Reuss Voigt Hill
#
# Bulk Modulus (GPa) = 18.01732 39.90539 28.96135
# Shear Modulus (GPa) = 14.53330 20.26962 17.40146
#
# Velocity S-wave (km/s) = 2.91292 3.44008 3.18742
# Velocity P-wave (km/s) = 4.67254 6.25118 5.51860
#
# Compressibility (1/GPa) = 0.05550216
#
# Stress axis : x y z
#
# Youngs Moduli (GPa) = 94.41582 40.03166 13.66872
#
# Poissons Ratio (x) = 0.19876 0.13119
# Poissons Ratio (y) = 0.46878 0.16473
# Poissons Ratio (z) = 0.90619 0.48245
#
# Static dielectric constant tensor:
#      x y z
#    x 1.591340 0.000000 0.000000 
#    y 0.000000 1.569900 0.000000 
#    z 0.000000 0.000000 1.584070 
# 
# From -- ./inp_files/9796.got.cif
#   From: 2010.05.17/outbox.cif.g08.bks.cpg/sg47_5_cif.got.tgz:9796.got - 2010.06.03 20:15:42.
