data_PCOD9381914
_publ_section_title
;
Structure prediction by ZEFSAII (Michael W. Deem and Ramdas Pophale) SiO2 
 PCOD9381914
Probable space group: P M M M
;
_chemical_formula_sum "Si O2"
_cell_formula_units_Z 60
_cell_length_a 15.798439
_cell_length_b 15.107378
_cell_length_c 14.625789
_cell_angle_alpha 90.000000
_cell_angle_beta 90.000000
_cell_angle_gamma 90.000000
_cell_volume 3490.780789
_symmetry_space_group_name_H-M "P M M M"
_symmetry_group_IT_number 47
_symmetry_cell_setting 'orthorhombic'
loop_
_space_group_symop_operation_xyz
x,y,z
-x,-y,z
x,-y,-z
-x,y,-z
-x,-y,-z
x,y,-z
-x,y,z
x,-y,z
loop_
_atom_site_type_symbol
_atom_site_label
_atom_site_fract_x
_atom_site_fract_y
_atom_site_fract_z
Si Si1 0.593259 0.393568 0.283251
Si Si2 0.093644 0.293084 0.286094
Si Si3 0.870924 0.600690 0.894567
Si Si4 0.903753 0.099255 0.777116
Si Si5 0.737650 0.137961 0.108039
Si Si6 0.402835 0.000000 0.111271
Si Si7 0.316043 0.660080 0.895835
Si Si8 0.240470 0.394694 0.391438
O O1 0.500000 0.360236 0.308460
O O2 0.591301 0.500000 0.287515
O O3 0.617521 0.366532 0.180465
O O4 0.669920 0.365405 0.348622
O O5 0.098111 0.331109 0.182002
O O6 0.104094 0.186876 0.284999
O O7 0.166217 0.341541 0.342167
O O8 0.000000 0.314274 0.321915
O O9 0.900047 0.500000 0.877320
O O10 0.768736 0.601691 0.888649
O O11 0.892313 0.624853 0.000000
O O12 0.824855 0.108752 0.845568
O O13 0.000000 0.105432 0.816960
O O14 0.898155 0.000000 0.735819
O O15 0.717797 0.240866 0.122108
O O16 0.655199 0.083151 0.139217
O O17 0.746744 0.122869 0.000000
O O18 0.500000 0.000000 0.143915
O O19 0.407183 0.000000 0.000000
O O20 0.348130 0.655341 0.000000
O O21 0.239453 0.382279 0.500000
O O22 0.229997 0.500000 0.372666
#
# Coordination Sequence:
#
# PCOD9381914 Si02
#       8
#     8   8   8   8   8   4   8   8
#     4  10  20  34  53  77 106 140 178 220 267 316
#     4  11  22  36  55  79 109 142 177 220 267 318
#     4  10  19  31  49  72 103 145 187 224 263 309
#     4  10  20  33  51  75 102 135 173 215 266 320
#     4  10  18  30  47  66  95 135 178 224 269 309
#     4   9  18  30  43  61  87 121 165 220 276 318
#     4  10  19  31  49  73 104 145 187 224 260 304
#     4  10  21  38  59  82 109 139 174 219 270 323
#
# _framework density 17.188132
#
# number of rings (size 3 to 8) (size 9 to 14) (size 15 to 20)
#    0.000    1.933    3.333    0.800    0.000    3.733 
#    0.000    6.667    0.000    0.400    0.000    1.867 
#    0.000    0.000    0.000    2.933    0.000    0.133 
#
# Total GULP energy -334458.831798 kJ/mol
# GULP energy per Si atom -5574.313863 kJ/mol
# Density = 1.714901 g / cm^3
# Si number density = 17.188132 Si / 1000 Ang^3
#
#
#
# Elastic Constant Matrix: (Units=GPa)
#
#
# Indices 1 2 3 4 5 6 
#
# 1 163.0539 47.2466 49.0511 0.0000 0.0000 0.0000
# 2 47.2466 78.8504 31.2052 0.0000 0.0000 0.0000
# 3 49.0511 31.2052 52.7567 0.0000 0.0000 0.0000
# 4 0.0000 0.0000 0.0000 10.9184 0.0000 0.0000
# 5 0.0000 0.0000 0.0000 0.0000 -1.7684 0.0000
# 6 0.0000 0.0000 0.0000 0.0000 0.0000 7.3876
#
#
#
# Elastic Compliance Matrix: (Units=1/GPa)
#
#
# Indices 1 2 3 4 5 6 
#
# 1 0.008933 -0.002697 -0.006710 0.000000 0.000000 0.000000
# 2 -0.002697 0.017373 -0.007768 0.000000 0.000000 0.000000
# 3 -0.006710 -0.007768 0.029789 0.000000 0.000000 0.000000
# 4 0.000000 0.000000 0.000000 0.091589 0.000000 0.000000
# 5 0.000000 0.000000 0.000000 0.000000 -0.565495 0.000000
# 6 0.000000 0.000000 0.000000 0.000000 0.000000 0.135362
#
#
# Mechanical properties :
#
#
# Convention : Reuss Voigt Hill
#
# Bulk Modulus (GPa) = 45.99110 61.07409 53.53259
# Shear Modulus (GPa) = -20.75971 14.45141 -3.15415
#
# Velocity S-wave (km/s) = -3.47910 2.90276 -1.35612
# Velocity P-wave (km/s) = 3.26752 6.84431 5.36289
#
# Compressibility (1/GPa) = 0.02174334
#
# Stress axis : x y z
#
# Youngs Moduli (GPa) = 111.94332 57.56221 33.56972
#
# Poissons Ratio (x) = 0.15525 0.22527
# Poissons Ratio (y) = 0.30191 0.26077
# Poissons Ratio (z) = 0.75118 0.44715
#
# Static dielectric constant tensor:
#      x y z
#    x 1.603340 0.000000 0.000000 
#    y 0.000000 1.611450 0.000000 
#    z 0.000000 0.000000 1.560950 
# 
# From -- ./inp_files/23939.got.cif
#   From: 2010.05.17/outbox.cif.g08.bks.cpg/sg47_12_cif.got.tgz:23939.got - 2010.06.03 20:15:42.
