data_PCOD9381641
_publ_section_title
;
Structure prediction by ZEFSAII (Michael W. Deem and Ramdas Pophale) SiO2 
 PCOD9381641
Probable space group: P M M M
;
_chemical_formula_sum "Si O2"
_cell_formula_units_Z 64
_cell_length_a 20.517179
_cell_length_b 8.197698
_cell_length_c 21.157055
_cell_angle_alpha 90.000000
_cell_angle_beta 90.000000
_cell_angle_gamma 90.000000
_cell_volume 3558.482034
_symmetry_space_group_name_H-M "P M M M"
_symmetry_group_IT_number 47
_symmetry_cell_setting 'orthorhombic'
loop_
_space_group_symop_operation_xyz
x,y,z
-x,-y,z
x,-y,-z
-x,y,-z
-x,-y,-z
x,y,-z
-x,y,z
x,-y,z
loop_
_atom_site_type_symbol
_atom_site_label
_atom_site_fract_x
_atom_site_fract_y
_atom_site_fract_z
Si Si1 0.713026 0.310576 0.394381
Si Si2 0.150266 0.190946 0.568363
Si Si3 0.430776 0.193903 0.245696
Si Si4 0.926381 0.694944 0.309823
Si Si5 0.925357 0.698926 0.928179
Si Si6 0.290364 0.803838 0.750666
Si Si7 0.428651 0.192740 0.601266
Si Si8 0.157960 0.301977 0.809545
O O1 0.725829 0.500000 0.404920
O O2 0.771998 0.212216 0.424978
O O3 0.717205 0.272390 0.319216
O O4 0.640081 0.269511 0.418185
O O5 0.129942 0.258328 0.500000
O O6 0.114380 0.270569 0.627333
O O7 0.134982 0.000000 0.570280
O O8 0.500000 0.265325 0.223704
O O9 0.360660 0.254861 0.223390
O O10 0.429392 0.209195 0.322171
O O11 0.432437 0.000000 0.232399
O O12 0.930530 0.500000 0.302626
O O13 0.887298 0.755732 0.248632
O O14 0.000000 0.760088 0.313499
O O15 0.924889 0.500000 0.927927
O O16 0.874644 0.752797 0.875042
O O17 0.000000 0.747310 0.912882
O O18 0.910680 0.751053 0.000000
O O19 0.230324 0.758300 0.794674
O O20 0.292819 0.000000 0.742190
O O21 0.500000 0.254733 0.579055
O O22 0.426099 0.000000 0.586866
O O23 0.159007 0.500000 0.809175
#
# Coordination Sequence:
#
# PCOD9381641 Si02
#       8
#     8   8   8   8   8   8   8   8
#     4  11  20  31  49  72  98 126 159 203 252 298
#     4  11  24  40  56  72  92 123 164 207 250 300
#     4   7  11  21  37  58  85 119 157 192 227 272
#     4  10  21  36  54  76 100 126 156 195 246 300
#     4   8  14  26  46  72 101 134 171 205 235 277
#     4  10  18  28  45  68  96 129 163 199 242 294
#     4   8  14  26  45  68  95 128 162 195 236 290
#     4  10  18  29  48  75 104 132 163 201 242 285
#
# _framework density 17.985196999999999
#
# number of rings (size 3 to 8) (size 9 to 14) (size 15 to 20)
#    0.000    2.625    1.250    4.125    0.000    3.250 
#    0.000    1.250    0.000    3.000    0.000    3.500 
#    0.000    0.500    0.000    6.250    0.000    0.125 
#
# Total GULP energy -356721.029853 kJ/mol
# GULP energy per Si atom -5573.766091 kJ/mol
# Density = 1.794426 g / cm^3
# Si number density = 17.985197 Si / 1000 Ang^3
#
#
#
# Elastic Constant Matrix: (Units=GPa)
#
#
# Indices 1 2 3 4 5 6 
#
# 1 145.0680 -0.8734 58.6457 0.0000 0.0000 0.0000
# 2 -0.8734 12.5756 0.0080 0.0000 0.0000 0.0000
# 3 58.6457 0.0080 82.8983 0.0000 0.0000 0.0000
# 4 0.0000 0.0000 0.0000 17.2557 0.0000 0.0000
# 5 0.0000 0.0000 0.0000 0.0000 1245.3082 0.0000
# 6 0.0000 0.0000 0.0000 0.0000 0.0000 24.3309
#
#
#
# Elastic Compliance Matrix: (Units=1/GPa)
#
#
# Indices 1 2 3 4 5 6 
#
# 1 0.009660 0.000675 -0.006834 0.000000 0.000000 0.000000
# 2 0.000675 0.079567 -0.000485 0.000000 0.000000 0.000000
# 3 -0.006834 -0.000485 0.016898 0.000000 0.000000 0.000000
# 4 0.000000 0.000000 0.000000 0.057952 0.000000 0.000000
# 5 0.000000 0.000000 0.000000 0.000000 0.000803 0.000000
# 6 0.000000 0.000000 0.000000 0.000000 0.000000 0.041100
#
#
# Mechanical properties :
#
#
# Convention : Reuss Voigt Hill
#
# Bulk Modulus (GPa) = 10.77168 39.56695 25.16932
# Shear Modulus (GPa) = 19.98298 269.56308 144.77303
#
# Velocity S-wave (km/s) = 3.33690 12.25585 8.98167
# Velocity P-wave (km/s) = 4.56604 14.91047 11.02658
#
# Compressibility (1/GPa) = 0.09283600
#
# Stress axis : x y z
#
# Youngs Moduli (GPa) = 103.51825 12.56809 59.17969
#
# Poissons Ratio (x) = -0.00849 0.40444
# Poissons Ratio (y) = -0.06990 0.02873
# Poissons Ratio (z) = 0.70745 0.00610
#
# Static dielectric constant tensor:
#      x y z
#    x 1.660000 0.000000 0.000000 
#    y 0.000000 1.633640 0.000000 
#    z 0.000000 0.000000 1.604690 
# 
# From -- ./inp_files/31498.got.cif
#   From: 2010.05.17/outbox.cif.g08.bks.cpg/sg47_16_cif.got.tgz:31498.got - 2010.06.03 20:15:42.
