data_PCOD9381673
_publ_section_title
;
Structure prediction by ZEFSAII (Michael W. Deem and Ramdas Pophale) SiO2 
 PCOD9381673
Probable space group: P M M M
;
_chemical_formula_sum "Si O2"
_cell_formula_units_Z 52
_cell_length_a 12.997502
_cell_length_b 7.657295
_cell_length_c 25.449774
_cell_angle_alpha 90.000000
_cell_angle_beta 90.000000
_cell_angle_gamma 90.000000
_cell_volume 2532.906752
_symmetry_space_group_name_H-M "P M M M"
_symmetry_group_IT_number 47
_symmetry_cell_setting 'orthorhombic'
loop_
_space_group_symop_operation_xyz
x,y,z
-x,-y,z
x,-y,-z
-x,y,-z
-x,-y,-z
x,y,-z
-x,y,z
x,-y,z
loop_
_atom_site_type_symbol
_atom_site_label
_atom_site_fract_x
_atom_site_fract_y
_atom_site_fract_z
Si Si1 0.500000 0.697189 0.278483
Si Si2 0.881999 0.286645 0.059388
Si Si3 0.278029 0.710823 0.733935
Si Si4 0.116798 0.209647 0.354588
Si Si5 0.500000 0.797131 0.840334
Si Si6 0.277840 0.290181 0.145910
Si Si7 0.500000 0.292642 0.559856
Si Si8 0.276024 0.791679 0.559881
O O1 0.500000 0.500000 0.300829
O O2 0.612231 0.777949 0.289015
O O3 0.500000 0.691192 0.214456
O O4 0.880278 0.500000 0.059850
O O5 0.804748 0.224077 0.104199
O O6 0.000000 0.234479 0.069416
O O7 0.854049 0.232878 0.000000
O O8 0.288044 0.500000 0.735538
O O9 0.182016 0.754611 0.697703
O O10 0.264097 0.773162 0.793959
O O11 0.186405 0.278065 0.402775
O O12 0.000000 0.276852 0.353332
O O13 0.110982 0.000000 0.360238
O O14 0.394587 0.754688 0.869533
O O15 0.500000 0.000000 0.825757
O O16 0.268566 0.500000 0.147544
O O17 0.500000 0.500000 0.557264
O O18 0.500000 0.219082 0.500000
O O19 0.609747 0.239875 0.582852
O O20 0.272732 0.721533 0.500000
O O21 0.263490 0.000000 0.556617
#
# Coordination Sequence:
#
# PCOD9381673 Si02
#       8
#     4   8   8   8   4   8   4   8
#     4   8  16  33  53  73  97 124 158 200 244 289
#     4   8  14  26  47  75 100 121 156 208 252 282
#     4   9  18  32  51  74  99 128 160 195 239 292
#     4  10  22  37  50  69  99 131 164 204 243 279
#     4  10  18  28  46  72 100 129 163 201 238 283
#     4   9  17  31  51  73  99 130 161 195 240 292
#     4   9  17  30  51  80 108 127 149 190 242 292
#     4   9  18  34  55  75  96 126 163 200 240 287
#
# _framework density 20.529771
#
# number of rings (size 3 to 8) (size 9 to 14) (size 15 to 20)
#    0.000    3.000    0.000    2.308    0.000    5.846 
#    0.000    5.000    0.000    3.231    0.000    4.308 
#    0.000    0.000    0.000    0.000    0.000    0.000 
#
# Total GULP energy -289961.010706 kJ/mol
# GULP energy per Si atom -5576.173283 kJ/mol
# Density = 2.048304 g / cm^3
# Si number density = 20.529771 Si / 1000 Ang^3
#
#
#
# Elastic Constant Matrix: (Units=GPa)
#
#
# Indices 1 2 3 4 5 6 
#
# 1 218.2775 0.8892 110.0984 0.0000 0.0000 0.0000
# 2 0.8892 42.6747 5.1108 0.0000 0.0000 0.0000
# 3 110.0984 5.1108 124.9823 0.0000 0.0000 0.0000
# 4 0.0000 0.0000 0.0000 12.4967 0.0000 0.0000
# 5 0.0000 0.0000 0.0000 0.0000 35.9160 0.0000
# 6 0.0000 0.0000 0.0000 0.0000 0.0000 10.4883
#
#
#
# Elastic Compliance Matrix: (Units=1/GPa)
#
#
# Indices 1 2 3 4 5 6 
#
# 1 0.008266 0.000703 -0.007310 0.000000 0.000000 0.000000
# 2 0.000703 0.023608 -0.001585 0.000000 0.000000 0.000000
# 3 -0.007310 -0.001585 0.014505 0.000000 0.000000 0.000000
# 4 0.000000 0.000000 0.000000 0.080021 0.000000 0.000000
# 5 0.000000 0.000000 0.000000 0.000000 0.027843 0.000000
# 6 0.000000 0.000000 0.000000 0.000000 0.000000 0.095345
#
#
# Mechanical properties :
#
#
# Convention : Reuss Voigt Hill
#
# Bulk Modulus (GPa) = 33.33786 68.68127 51.00956
# Shear Modulus (GPa) = 18.11793 29.76927 23.94360
#
# Velocity S-wave (km/s) = 2.97395 3.81209 3.41880
# Velocity P-wave (km/s) = 5.29778 7.27345 6.36277
#
# Compressibility (1/GPa) = 0.02999593
#
# Stress axis : x y z
#
# Youngs Moduli (GPa) = 120.98304 42.35810 68.93964
#
# Poissons Ratio (x) = -0.02979 0.50395
# Poissons Ratio (y) = -0.08508 0.10926
# Poissons Ratio (z) = 0.88439 0.06713
#
# Static dielectric constant tensor:
#      x y z
#    x 1.741180 0.000000 0.000000 
#    y 0.000000 1.778200 0.000000 
#    z 0.000000 0.000000 1.733400 
# 
# From -- ./inp_files/33624.got.cif
#   From: 2010.05.17/outbox.cif.g08.bks.cpg/sg47_17_cif.got.tgz:33624.got - 2010.06.03 20:15:42.
