data_PCOD9381461
_publ_section_title
;
Structure prediction by ZEFSAII (Michael W. Deem and Ramdas Pophale) SiO2 
 PCOD9381461
Probable space group: P M M M
;
_chemical_formula_sum "Si O2"
_cell_formula_units_Z 56
_cell_length_a 7.703290
_cell_length_b 14.318065
_cell_length_c 30.460399
_cell_angle_alpha 90.000000
_cell_angle_beta 90.000000
_cell_angle_gamma 90.000000
_cell_volume 3359.666471
_symmetry_space_group_name_H-M "P M M M"
_symmetry_group_IT_number 47
_symmetry_cell_setting 'orthorhombic'
loop_
_space_group_symop_operation_xyz
x,y,z
-x,-y,z
x,-y,-z
-x,y,-z
-x,-y,-z
x,y,-z
-x,y,z
x,-y,z
loop_
_atom_site_type_symbol
_atom_site_label
_atom_site_fract_x
_atom_site_fract_y
_atom_site_fract_z
Si Si1 0.791880 0.612401 0.047205
Si Si2 0.206336 0.293203 0.768833
Si Si3 0.295016 0.396140 0.320233
Si Si4 0.208796 0.893760 0.549032
Si Si5 0.290545 0.104716 0.722902
Si Si6 0.292092 0.211587 0.363274
Si Si7 0.787501 0.390955 0.143063
O O1 0.768657 0.500000 0.047536
O O2 0.726971 0.643646 0.094976
O O3 0.000000 0.628568 0.046690
O O4 0.722576 0.646925 0.000000
O O5 0.278072 0.355609 0.728939
O O6 0.243705 0.185514 0.757364
O O7 0.271214 0.329769 0.815736
O O8 0.000000 0.306137 0.768230
O O9 0.500000 0.403349 0.329578
O O10 0.219466 0.500000 0.323837
O O11 0.222775 0.314738 0.351715
O O12 0.269321 0.866782 0.500000
O O13 0.256471 0.826405 0.588597
O O14 0.000000 0.896965 0.547638
O O15 0.270473 0.000000 0.557858
O O16 0.500000 0.101170 0.721523
O O17 0.228718 0.141644 0.675123
O O18 0.226880 0.000000 0.731952
O O19 0.500000 0.215266 0.358192
O O20 0.738257 0.500000 0.148930
O O21 0.000000 0.389598 0.142171
#
# Coordination Sequence:
#
# PCOD9381461 Si02
#       7
#     8   8   8   8   8   8   8
#     4   7   9  14  25  41  64  98 135 162 187 227
#     4  10  18  26  39  61  86 108 133 167 205 243
#     4   9  18  32  46  59  81 113 144 172 200 232
#     4   9  18  31  45  63  88 113 132 154 192 242
#     4   9  18  32  46  59  80 109 137 166 200 239
#     4   9  17  29  46  66  82 100 132 169 200 229
#     4   8  13  20  30  48  77 108 133 161 197 233
#
# _framework density 16.668320999999999
#
# number of rings (size 3 to 8) (size 9 to 14) (size 15 to 20)
#    0.000    3.286    0.000    3.857    0.000    4.571 
#    0.000    0.714    0.000    0.429    0.000    3.000 
#    0.000    2.857    0.000   23.286    0.000   14.571 
#
# Total GULP energy -311738.666928 kJ/mol
# GULP energy per Si atom -5566.761909 kJ/mol
# Density = 1.663038 g / cm^3
# Si number density = 16.668321 Si / 1000 Ang^3
#
#
#
# Elastic Constant Matrix: (Units=GPa)
#
#
# Indices 1 2 3 4 5 6 
#
# 1 23.4251 2.2395 -2.0120 0.0000 0.0000 0.0000
# 2 2.2395 114.6542 83.5138 0.0000 0.0000 0.0000
# 3 -2.0120 83.5138 165.1407 0.0000 0.0000 0.0000
# 4 0.0000 0.0000 0.0000 20.4847 0.0000 0.0000
# 5 0.0000 0.0000 0.0000 0.0000 20.7999 0.0000
# 6 0.0000 0.0000 0.0000 0.0000 0.0000 11.7295
#
#
#
# Elastic Compliance Matrix: (Units=1/GPa)
#
#
# Indices 1 2 3 4 5 6 
#
# 1 0.043003 -0.001934 0.001502 0.000000 0.000000 0.000000
# 2 -0.001934 0.013895 -0.007051 0.000000 0.000000 0.000000
# 3 0.001502 -0.007051 0.009639 0.000000 0.000000 0.000000
# 4 0.000000 0.000000 0.000000 0.048817 0.000000 0.000000
# 5 0.000000 0.000000 0.000000 0.000000 0.048077 0.000000
# 6 0.000000 0.000000 0.000000 0.000000 0.000000 0.085255
#
#
# Mechanical properties :
#
#
# Convention : Reuss Voigt Hill
#
# Bulk Modulus (GPa) = 19.39019 52.30029 35.84524
# Shear Modulus (GPa) = 17.80353 25.23472 21.51912
#
# Velocity S-wave (km/s) = 3.27173 3.89515 3.59697
# Velocity P-wave (km/s) = 5.09220 7.18852 6.22918
#
# Compressibility (1/GPa) = 0.05157248
#
# Stress axis : x y z
#
# Youngs Moduli (GPa) = 23.25413 71.96681 103.74173
#
# Poissons Ratio (x) = 0.13919 -0.15582
# Poissons Ratio (y) = 0.04497 0.73144
# Poissons Ratio (z) = -0.03493 0.50741
#
# Static dielectric constant tensor:
#      x y z
#    x 1.623100 0.000000 0.000000 
#    y 0.000000 1.561920 0.000000 
#    z 0.000000 0.000000 1.587610 
# 
# From -- ./inp_files/22083.got.cif
#   From: 2010.05.17/outbox.cif.g08.bks.cpg/sg47_12_cif.got.tgz:22083.got - 2010.06.03 20:15:42.
