data_PCOD9381252
_publ_section_title
;
Structure prediction by ZEFSAII (Michael W. Deem and Ramdas Pophale) SiO2 
 PCOD9381252
Probable space group: P M M M
;
_chemical_formula_sum "Si O2"
_cell_formula_units_Z 52
_cell_length_a 7.350615
_cell_length_b 14.940771
_cell_length_c 23.746112
_cell_angle_alpha 90.000000
_cell_angle_beta 90.000000
_cell_angle_gamma 90.000000
_cell_volume 2607.889571
_symmetry_space_group_name_H-M "P M M M"
_symmetry_group_IT_number 47
_symmetry_cell_setting 'orthorhombic'
loop_
_space_group_symop_operation_xyz
x,y,z
-x,-y,z
x,-y,-z
-x,y,-z
-x,-y,-z
x,y,-z
-x,y,z
x,-y,z
loop_
_atom_site_type_symbol
_atom_site_label
_atom_site_fract_x
_atom_site_fract_y
_atom_site_fract_z
Si Si1 0.718054 0.899342 0.063482
Si Si2 0.222192 0.896404 0.500000
Si Si3 0.221438 0.400805 0.781920
Si Si4 0.778120 0.789298 0.610770
Si Si5 0.777803 0.102705 0.277817
Si Si6 0.778883 0.400295 0.650481
Si Si7 0.215365 0.783582 0.171642
O O1 0.500000 0.903522 0.061043
O O2 0.761081 0.827556 0.110954
O O3 0.782549 0.000000 0.078723
O O4 0.782473 0.878755 0.000000
O O5 0.280201 0.843136 0.444305
O O6 0.000000 0.897342 0.500000
O O7 0.279816 0.000000 0.500000
O O8 0.282721 0.500000 0.799209
O O9 0.270906 0.387013 0.716239
O O10 0.285369 0.316849 0.818467
O O11 0.000000 0.402509 0.783277
O O12 0.722994 0.841308 0.667366
O O13 0.719144 0.685950 0.615386
O O14 0.000000 0.788856 0.610246
O O15 0.714979 0.151070 0.220822
O O16 0.000000 0.102047 0.277575
O O17 0.718991 0.000000 0.280596
O O18 0.718848 0.500000 0.633099
O O19 0.000000 0.400980 0.649017
O O20 0.000000 0.777890 0.181294
#
# Coordination Sequence:
#
# PCOD9381252 Si02
#       7
#     8   4   8   8   8   8   8
#     4   9  19  35  50  63  86 122 152 169 200 257
#     4   9  16  22  27  35  53  93 143 175 199 248
#     4   8  13  22  37  59  86 110 132 165 215 269
#     4   9  14  21  29  40  62  95 132 168 205 251
#     4   9  15  21  31  51  78 100 121 164 221 258
#     4   8  12  19  31  45  64  93 127 163 206 256
#     4  10  17  26  44  70  90 106 140 186 224 252
#
# _framework density 19.939492999999999
#
# number of rings (size 3 to 8) (size 9 to 14) (size 15 to 20)
#    0.000    3.154    1.538    2.308    0.000    3.077 
#    0.000    1.154    0.000    3.231    0.000    3.231 
#    0.000    0.000    0.000    0.692    0.000    8.385 
#
# Total GULP energy -290107.020846 kJ/mol
# GULP energy per Si atom -5578.981170 kJ/mol
# Density = 1.989411 g / cm^3
# Si number density = 19.939493 Si / 1000 Ang^3
#
#
#
# Elastic Constant Matrix: (Units=GPa)
#
#
# Indices 1 2 3 4 5 6 
#
# 1 71.4908 6.4199 -0.8720 0.0000 0.0000 0.0000
# 2 6.4199 237.5058 115.1628 0.0000 0.0000 0.0000
# 3 -0.8720 115.1628 126.0496 0.0000 0.0000 0.0000
# 4 0.0000 0.0000 0.0000 35.5559 0.0000 0.0000
# 5 0.0000 0.0000 0.0000 0.0000 42.4479 0.0000
# 6 0.0000 0.0000 0.0000 0.0000 0.0000 81.6789
#
#
#
# Elastic Compliance Matrix: (Units=1/GPa)
#
#
# Indices 1 2 3 4 5 6 
#
# 1 0.014066 -0.000767 0.000798 0.000000 0.000000 0.000000
# 2 -0.000767 0.007601 -0.006950 0.000000 0.000000 0.000000
# 3 0.000798 -0.006950 0.014288 0.000000 0.000000 0.000000
# 4 0.000000 0.000000 0.000000 0.028125 0.000000 0.000000
# 5 0.000000 0.000000 0.000000 0.000000 0.023558 0.000000
# 6 0.000000 0.000000 0.000000 0.000000 0.000000 0.012243
#
#
# Mechanical properties :
#
#
# Convention : Reuss Voigt Hill
#
# Bulk Modulus (GPa) = 45.21128 75.16307 60.18717
# Shear Modulus (GPa) = 41.29075 52.89224 47.09149
#
# Velocity S-wave (km/s) = 4.55554 5.15596 4.86502
# Velocity P-wave (km/s) = 7.09888 8.55703 7.86183
#
# Compressibility (1/GPa) = 0.02211838
#
# Stress axis : x y z
#
# Youngs Moduli (GPa) = 71.09105 131.56100 69.98637
#
# Poissons Ratio (x) = 0.10095 -0.05588
# Poissons Ratio (y) = 0.05455 0.48639
# Poissons Ratio (z) = -0.05676 0.91433
#
# Static dielectric constant tensor:
#      x y z
#    x 1.817960 0.000000 0.000000 
#    y 0.000000 1.709670 0.000000 
#    z 0.000000 0.000000 1.658240 
# 
# From -- ./inp_files/19286.got.cif
#   From: 2010.05.17/outbox.cif.g08.bks.cpg/sg47_10_cif.got.tgz:19286.got - 2010.06.03 20:15:42.
