data_PCOD9381577
_publ_section_title
;
Structure prediction by ZEFSAII (Michael W. Deem and Ramdas Pophale) SiO2 
 PCOD9381577
Probable space group: P M M M
;
_chemical_formula_sum "Si O2"
_cell_formula_units_Z 64
_cell_length_a 9.272212
_cell_length_b 18.690850
_cell_length_c 26.917898
_cell_angle_alpha 90.000000
_cell_angle_beta 90.000000
_cell_angle_gamma 90.000000
_cell_volume 4665.020409
_symmetry_space_group_name_H-M "P M M M"
_symmetry_group_IT_number 47
_symmetry_cell_setting 'orthorhombic'
loop_
_space_group_symop_operation_xyz
x,y,z
-x,-y,z
x,-y,-z
-x,y,-z
-x,-y,-z
x,y,-z
-x,y,z
x,-y,z
loop_
_atom_site_type_symbol
_atom_site_label
_atom_site_fract_x
_atom_site_fract_y
_atom_site_fract_z
Si Si1 0.333795 0.705137 0.805219
Si Si2 0.671785 0.916396 0.941632
Si Si3 0.172939 0.671989 0.650769
Si Si4 0.827981 0.916869 0.243655
Si Si5 0.824458 0.582292 0.443832
Si Si6 0.665730 0.795960 0.297750
Si Si7 0.827874 0.416440 0.248911
Si Si8 0.171777 0.170866 0.857349
O O1 0.500000 0.695525 0.820003
O O2 0.332071 0.750488 0.753725
O O3 0.256795 0.631067 0.791115
O O4 0.246526 0.753944 0.843849
O O5 0.500000 0.907149 0.933401
O O6 0.760578 0.865412 0.905704
O O7 0.705908 0.000000 0.931506
O O8 0.699969 0.903419 0.000000
O O9 0.222183 0.635139 0.599722
O O10 0.250901 0.746114 0.663334
O O11 0.201040 0.617591 0.696671
O O12 0.000000 0.682927 0.649105
O O13 0.745403 0.869351 0.284098
O O14 0.799507 0.882001 0.189567
O O15 0.000000 0.911349 0.251915
O O16 0.786743 0.000000 0.244194
O O17 0.779779 0.601449 0.500000
O O18 0.780521 0.500000 0.434046
O O19 0.000000 0.582482 0.443132
O O20 0.500000 0.807338 0.311827
O O21 0.789980 0.500000 0.247933
O O22 0.000000 0.409553 0.240613
O O23 0.000000 0.179258 0.861618
#
# Coordination Sequence:
#
# PCOD9381577 Si02
#       8
#     8   8   8   8   8   8   8   8
#     4   9  17  28  40  55  77 105 135 165 198 237
#     4   9  18  31  44  59  82 111 140 169 200 233
#     4   9  15  24  39  56  76 105 136 164 198 236
#     4   9  17  28  41  58  80 104 130 161 197 236
#     4   8  13  21  35  57  81 102 130 169 203 229
#     4   9  17  27  38  54  76 102 132 164 195 230
#     4   9  16  25  38  57  80 105 134 167 201 237
#     4  10  18  28  43  61  81 106 136 168 201 235
#
# _framework density 13.719125999999999
#
# number of rings (size 3 to 8) (size 9 to 14) (size 15 to 20)
#    0.000    3.000    0.000    2.625    0.000    6.500 
#    0.000    0.625    0.000    1.500    0.000    0.875 
#    0.000    1.000    0.000   11.000    0.000    3.875 
#
# Total GULP energy -356418.262790 kJ/mol
# GULP energy per Si atom -5569.035356 kJ/mol
# Density = 1.368790 g / cm^3
# Si number density = 13.719126 Si / 1000 Ang^3
#
#
#
# Elastic Constant Matrix: (Units=GPa)
#
#
# Indices 1 2 3 4 5 6 
#
# 1 50.0563 53.0035 42.6821 0.0000 0.0000 0.0000
# 2 53.0035 102.5042 47.4123 0.0000 0.0000 0.0000
# 3 42.6821 47.4123 72.5789 0.0000 0.0000 0.0000
# 4 0.0000 0.0000 0.0000 27.4026 0.0000 0.0000
# 5 0.0000 0.0000 0.0000 0.0000 12.4931 0.0000
# 6 0.0000 0.0000 0.0000 0.0000 0.0000 16.5357
#
#
#
# Elastic Compliance Matrix: (Units=1/GPa)
#
#
# Indices 1 2 3 4 5 6 
#
# 1 0.061983 -0.021768 -0.022231 0.000000 0.000000 0.000000
# 2 -0.021768 0.021624 -0.001325 0.000000 0.000000 0.000000
# 3 -0.022231 -0.001325 0.027717 0.000000 0.000000 0.000000
# 4 0.000000 0.000000 0.000000 0.036493 0.000000 0.000000
# 5 0.000000 0.000000 0.000000 0.000000 0.080044 0.000000
# 6 0.000000 0.000000 0.000000 0.000000 0.000000 0.060475
#
#
# Mechanical properties :
#
#
# Convention : Reuss Voigt Hill
#
# Bulk Modulus (GPa) = 48.36293 56.81504 52.58899
# Shear Modulus (GPa) = 12.95751 16.75572 14.85662
#
# Velocity S-wave (km/s) = 3.07658 3.49856 3.29433
# Velocity P-wave (km/s) = 6.92454 7.60413 7.27228
#
# Compressibility (1/GPa) = 0.02067699
#
# Stress axis : x y z
#
# Youngs Moduli (GPa) = 16.13347 46.24406 36.07861
#
# Poissons Ratio (x) = 1.00663 0.80206
# Poissons Ratio (y) = 0.35119 0.04780
# Poissons Ratio (z) = 0.35866 0.06127
#
# Static dielectric constant tensor:
#      x y z
#    x 1.455570 0.000000 0.000000 
#    y 0.000000 1.436160 0.000000 
#    z 0.000000 0.000000 1.433160 
# 
# From -- ./inp_files/10238.got.cif
#   From: 2010.05.17/outbox.cif.g08.bks.cpg/sg47_6_cif.got.tgz:10238.got - 2010.06.03 20:15:42.
