data_PCOD9381891
_publ_section_title
;
Structure prediction by ZEFSAII (Michael W. Deem and Ramdas Pophale) SiO2 
 PCOD9381891
Probable space group: P M M M
;
_chemical_formula_sum "Si O2"
_cell_formula_units_Z 56
_cell_length_a 7.678651
_cell_length_b 22.398409
_cell_length_c 20.215035
_cell_angle_alpha 90.000000
_cell_angle_beta 90.000000
_cell_angle_gamma 90.000000
_cell_volume 3476.775090
_symmetry_space_group_name_H-M "P M M M"
_symmetry_group_IT_number 47
_symmetry_cell_setting 'orthorhombic'
loop_
_space_group_symop_operation_xyz
x,y,z
-x,-y,z
x,-y,-z
-x,y,-z
-x,-y,-z
x,y,-z
-x,y,z
x,-y,z
loop_
_atom_site_type_symbol
_atom_site_label
_atom_site_fract_x
_atom_site_fract_y
_atom_site_fract_z
Si Si1 0.701745 0.500000 0.591863
Si Si2 0.697259 0.289071 0.316050
Si Si3 0.703875 0.500000 0.748767
Si Si4 0.790626 0.064243 0.578209
Si Si5 0.210030 0.568169 0.075765
Si Si6 0.201288 0.368309 0.570855
Si Si7 0.704702 0.803142 0.576458
Si Si8 0.292750 0.626890 0.205064
O O1 0.500000 0.500000 0.571930
O O2 0.708126 0.500000 0.670508
O O3 0.788140 0.560740 0.569355
O O4 0.500000 0.268726 0.300733
O O5 0.695203 0.345030 0.366424
O O6 0.778712 0.239098 0.365171
O O7 0.775609 0.317184 0.248445
O O8 0.500000 0.500000 0.770025
O O9 0.782832 0.563042 0.771000
O O10 0.749137 0.062549 0.500000
O O11 0.720992 0.128215 0.599888
O O12 0.000000 0.066031 0.584450
O O13 0.730609 0.000000 0.606382
O O14 0.267591 0.500000 0.094627
O O15 0.269119 0.619228 0.126549
O O16 0.000000 0.567364 0.076530
O O17 0.266192 0.577958 0.000000
O O18 0.268015 0.344906 0.500000
O O19 0.000000 0.350578 0.577765
O O20 0.775557 0.798432 0.500000
O O21 0.500000 0.788223 0.571533
O O22 0.500000 0.626938 0.219091
#
# Coordination Sequence:
#
# PCOD9381891 Si02
#       8
#     4   8   4   8   8   8   8   8
#     4  11  20  34  49  57  69  93 125 163 210 258
#     4  10  20  33  46  59  78 107 139 167 201 247
#     4   9  16  28  43  60  76  92 121 161 200 239
#     4   8  14  25  41  60  81 105 132 164 206 250
#     4   9  18  31  45  63  85 104 123 153 199 252
#     4  11  23  34  42  56  76  95 125 171 213 248
#     4   9  17  28  42  60  81 106 139 176 208 240
#     4  10  18  30  46  62  80 100 129 166 199 240
#
# _framework density 16.10688
#
# number of rings (size 3 to 8) (size 9 to 14) (size 15 to 20)
#    0.000    2.429    2.143    2.143    0.000    4.286 
#    0.000    3.571    0.000    0.000    0.000    0.000 
#    0.000    0.000    0.000    0.000    0.000    0.714 
#
# Total GULP energy -311747.976697 kJ/mol
# GULP energy per Si atom -5566.928155 kJ/mol
# Density = 1.607022 g / cm^3
# Si number density = 16.106880 Si / 1000 Ang^3
#
#
#
# Elastic Constant Matrix: (Units=GPa)
#
#
# Indices 1 2 3 4 5 6 
#
# 1 33.5961 2.4584 5.5553 0.0000 0.0000 0.0000
# 2 2.4584 102.0974 36.8750 0.0000 0.0000 0.0000
# 3 5.5553 36.8750 91.9364 0.0000 0.0000 0.0000
# 4 0.0000 0.0000 0.0000 16.1559 0.0000 0.0000
# 5 0.0000 0.0000 0.0000 0.0000 3.1455 0.0000
# 6 0.0000 0.0000 0.0000 0.0000 0.0000 8.1276
#
#
#
# Elastic Compliance Matrix: (Units=1/GPa)
#
#
# Indices 1 2 3 4 5 6 
#
# 1 0.030066 -0.000079 -0.001785 0.000000 0.000000 0.000000
# 2 -0.000079 0.011454 -0.004589 0.000000 0.000000 0.000000
# 3 -0.001785 -0.004589 0.012826 0.000000 0.000000 0.000000
# 4 0.000000 0.000000 0.000000 0.061897 0.000000 0.000000
# 5 0.000000 0.000000 0.000000 0.000000 0.317912 0.000000
# 6 0.000000 0.000000 0.000000 0.000000 0.000000 0.123037
#
#
# Mechanical properties :
#
#
# Convention : Reuss Voigt Hill
#
# Bulk Modulus (GPa) = 24.13194 35.26748 29.69971
# Shear Modulus (GPa) = 8.56293 17.66855 13.11574
#
# Velocity S-wave (km/s) = 2.30822 3.31563 2.85668
# Velocity P-wave (km/s) = 4.70305 6.04990 5.41849
#
# Compressibility (1/GPa) = 0.04143885
#
# Stress axis : x y z
#
# Youngs Moduli (GPa) = 33.25980 87.30552 77.96853
#
# Poissons Ratio (x) = 0.00692 0.13917
# Poissons Ratio (y) = 0.00264 0.35782
# Poissons Ratio (z) = 0.05937 0.40067
#
# Static dielectric constant tensor:
#      x y z
#    x 1.609480 0.000000 0.000000 
#    y 0.000000 1.577350 0.000000 
#    z 0.000000 0.000000 1.579090 
# 
# From -- ./inp_files/30096.got.cif
#   From: 2010.05.17/outbox.cif.g08.bks.cpg/sg47_16_cif.got.tgz:30096.got - 2010.06.03 20:15:42.
