data_PCOD9381886
_publ_section_title
;
Structure prediction by ZEFSAII (Michael W. Deem and Ramdas Pophale) SiO2 
 PCOD9381886
Probable space group: P M M M
;
_chemical_formula_sum "Si O2"
_cell_formula_units_Z 52
_cell_length_a 7.345674
_cell_length_b 31.202238
_cell_length_c 12.257440
_cell_angle_alpha 90.000000
_cell_angle_beta 90.000000
_cell_angle_gamma 90.000000
_cell_volume 2809.423247
_symmetry_space_group_name_H-M "P M M M"
_symmetry_group_IT_number 47
_symmetry_cell_setting 'orthorhombic'
loop_
_space_group_symop_operation_xyz
x,y,z
-x,-y,z
x,-y,-z
-x,y,-z
-x,-y,-z
x,y,-z
-x,y,z
x,-y,z
loop_
_atom_site_type_symbol
_atom_site_label
_atom_site_fract_x
_atom_site_fract_y
_atom_site_fract_z
Si Si1 0.717767 0.243509 0.000000
Si Si2 0.208295 0.143943 0.000000
Si Si3 0.778529 0.047579 0.373847
Si Si4 0.500000 0.451531 0.868045
Si Si5 0.210846 0.291793 0.224510
Si Si6 0.777477 0.215463 0.373723
Si Si7 0.223095 0.130609 0.759157
Si Si8 0.218152 0.379895 0.129152
O O1 0.780297 0.267448 0.108715
O O2 0.500000 0.242202 0.000000
O O3 0.790289 0.195430 0.000000
O O4 0.287764 0.130555 0.116080
O O5 0.000000 0.128278 0.000000
O O6 0.724198 0.052858 0.500000
O O7 0.719091 0.087806 0.303087
O O8 0.000000 0.047899 0.372486
O O9 0.721608 0.000000 0.336962
O O10 0.500000 0.500000 0.825265
O O11 0.675343 0.422834 0.839354
O O12 0.500000 0.454398 0.000000
O O13 0.286597 0.258859 0.313829
O O14 0.283507 0.339194 0.199675
O O15 0.000000 0.298198 0.253901
O O16 0.723097 0.212804 0.500000
O O17 0.720989 0.173644 0.304841
O O18 0.000000 0.215738 0.371302
O O19 0.000000 0.131606 0.760545
O O20 0.000000 0.384389 0.139152
O O21 0.255542 0.371153 0.000000
#
# Coordination Sequence:
#
# PCOD9381886 Si02
#       8
#     4   4   8   4   8   8   8   8
#     4  12  22  28  44  67  87 120 159 192 227 271
#     4  10  18  30  43  60  84 114 149 189 230 270
#     4   8  13  21  33  52  81 113 143 180 228 279
#     4   9  18  30  44  64  95 129 161 199 239 281
#     4  10  18  30  46  66  94 122 153 194 232 271
#     4   9  16  25  41  64  87 115 152 189 225 274
#     4   9  15  23  38  57  81 114 151 183 221 273
#     4   9  17  27  43  65  90 123 160 195 238 288
#
# _framework density 18.509138
#
# number of rings (size 3 to 8) (size 9 to 14) (size 15 to 20)
#    0.000    2.692    2.308    1.615    1.077    2.154 
#    0.000    1.923    0.000    2.769    0.000    0.000 
#    0.000    2.462    0.000    7.692    0.000    1.692 
#
# Total GULP energy -290033.952361 kJ/mol
# GULP energy per Si atom -5577.576007 kJ/mol
# Density = 1.846701 g / cm^3
# Si number density = 18.509138 Si / 1000 Ang^3
#
#
#
# Elastic Constant Matrix: (Units=GPa)
#
#
# Indices 1 2 3 4 5 6 
#
# 1 73.5681 26.8036 10.4256 0.0000 0.0000 0.0000
# 2 26.8036 183.6566 84.5202 0.0000 0.0000 0.0000
# 3 10.4256 84.5202 117.2810 0.0000 0.0000 0.0000
# 4 0.0000 0.0000 0.0000 8.6989 0.0000 0.0000
# 5 0.0000 0.0000 0.0000 0.0000 -45.7360 0.0000
# 6 0.0000 0.0000 0.0000 0.0000 0.0000 233.7049
#
#
#
# Elastic Compliance Matrix: (Units=1/GPa)
#
#
# Indices 1 2 3 4 5 6 
#
# 1 0.014366 -0.002258 0.000350 0.000000 0.000000 0.000000
# 2 -0.002258 0.008502 -0.005926 0.000000 0.000000 0.000000
# 3 0.000350 -0.005926 0.012766 0.000000 0.000000 0.000000
# 4 0.000000 0.000000 0.000000 0.114957 0.000000 0.000000
# 5 0.000000 0.000000 0.000000 0.000000 -0.021865 0.000000
# 6 0.000000 0.000000 0.000000 0.000000 0.000000 0.004279
#
#
# Mechanical properties :
#
#
# Convention : Reuss Voigt Hill
#
# Bulk Modulus (GPa) = 50.08520 68.66717 59.37619
# Shear Modulus (GPa) = 32.18996 56.18399 44.18697
#
# Velocity S-wave (km/s) = 4.17482 5.51549 4.89131
# Velocity P-wave (km/s) = 7.09629 8.81705 8.00305
#
# Compressibility (1/GPa) = 0.01996598
#
# Stress axis : x y z
#
# Youngs Moduli (GPa) = 69.60975 117.62341 78.33185
#
# Poissons Ratio (x) = 0.26555 -0.02741
# Poissons Ratio (y) = 0.15716 0.46421
# Poissons Ratio (z) = -0.02436 0.69706
#
# Static dielectric constant tensor:
#      x y z
#    x 2.440550 0.000000 0.000000 
#    y 0.000000 1.624540 0.000000 
#    z 0.000000 0.000000 1.619420 
# 
# From -- ./inp_files/15581.got.cif
#   From: 2010.05.17/outbox.cif.g08.bks.cpg/sg47_8_cif.got.tgz:15581.got - 2010.06.03 20:15:42.
