data_PCOD9381693
_publ_section_title
;
Structure prediction by ZEFSAII (Michael W. Deem and Ramdas Pophale) SiO2 
 PCOD9381693
Probable space group: P M M M
;
_chemical_formula_sum "Si O2"
_cell_formula_units_Z 52
_cell_length_a 23.987551
_cell_length_b 7.926956
_cell_length_c 14.773725
_cell_angle_alpha 90.000000
_cell_angle_beta 90.000000
_cell_angle_gamma 90.000000
_cell_volume 2809.198122
_symmetry_space_group_name_H-M "P M M M"
_symmetry_group_IT_number 47
_symmetry_cell_setting 'orthorhombic'
loop_
_space_group_symop_operation_xyz
x,y,z
-x,-y,z
x,-y,-z
-x,y,-z
-x,-y,-z
x,y,-z
-x,y,z
x,-y,z
loop_
_atom_site_type_symbol
_atom_site_label
_atom_site_fract_x
_atom_site_fract_y
_atom_site_fract_z
Si Si1 0.778027 0.203654 0.603547
Si Si2 0.889658 0.700770 0.289721
Si Si3 0.562732 0.794035 0.604658
Si Si4 0.669714 0.202043 0.287824
Si Si5 0.153137 0.706093 0.898664
Si Si6 0.000000 0.800095 0.602303
Si Si7 0.282326 0.296744 0.100935
O O1 0.778539 0.264380 0.500000
O O2 0.834595 0.249406 0.654831
O O3 0.723812 0.267200 0.657571
O O4 0.774948 0.000000 0.601228
O O5 0.890662 0.500000 0.283898
O O6 0.882757 0.766100 0.186653
O O7 0.944829 0.753619 0.342341
O O8 0.573698 0.747096 0.500000
O O9 0.500000 0.738669 0.628790
O O10 0.612219 0.733597 0.669192
O O11 0.562388 0.000000 0.606986
O O12 0.679393 0.238396 0.182668
O O13 0.669260 0.000000 0.299300
O O14 0.152235 0.500000 0.899353
O O15 0.217849 0.756352 0.883604
O O16 0.136534 0.760866 0.000000
O O17 0.000000 0.726871 0.500000
O O18 0.000000 0.000000 0.593549
O O19 0.282178 0.500000 0.100890
O O20 0.298595 0.239536 0.000000
#
# Coordination Sequence:
#
# PCOD9381693 Si02
#       7
#     8   8   8   8   8   4   8
#     4  10  20  32  46  69 104 137 159 191 250 310
#     4  11  21  35  57  80  99 125 168 213 243 281
#     4   8  14  26  45  69  98 134 174 211 248 295
#     4  10  18  28  47  75 102 127 164 211 253 294
#     4   8  15  30  52  76 101 128 158 195 243 296
#     4  11  25  43  58  71  98 140 173 199 244 301
#     4   9  17  31  50  71  99 134 166 197 244 306
#
# _framework density 18.510618999999998
#
# number of rings (size 3 to 8) (size 9 to 14) (size 15 to 20)
#    0.000    2.538    1.538    3.000    0.000    4.923 
#    0.000    0.385    0.000    6.462    0.000    4.308 
#    0.000    0.000    0.000    0.000    0.000    0.000 
#
# Total GULP energy -290042.230369 kJ/mol
# GULP energy per Si atom -5577.735199 kJ/mol
# Density = 1.846849 g / cm^3
# Si number density = 18.510619 Si / 1000 Ang^3
#
#
#
# Elastic Constant Matrix: (Units=GPa)
#
#
# Indices 1 2 3 4 5 6 
#
# 1 154.5261 9.5680 117.3614 0.0000 0.0000 0.0000
# 2 9.5680 17.6224 10.2837 0.0000 0.0000 0.0000
# 3 117.3614 10.2837 192.1719 0.0000 0.0000 0.0000
# 4 0.0000 0.0000 0.0000 20.7444 0.0000 0.0000
# 5 0.0000 0.0000 0.0000 0.0000 31.8080 0.0000
# 6 0.0000 0.0000 0.0000 0.0000 0.0000 -7.3484
#
#
#
# Elastic Compliance Matrix: (Units=1/GPa)
#
#
# Indices 1 2 3 4 5 6 
#
# 1 0.012163 -0.002342 -0.007302 0.000000 0.000000 0.000000
# 2 -0.002342 0.059026 -0.001728 0.000000 0.000000 0.000000
# 3 -0.007302 -0.001728 0.009756 0.000000 0.000000 0.000000
# 4 0.000000 0.000000 0.000000 0.048206 0.000000 0.000000
# 5 0.000000 0.000000 0.000000 0.000000 0.031439 0.000000
# 6 0.000000 0.000000 0.000000 0.000000 0.000000 -0.136084
#
#
# Mechanical properties :
#
#
# Convention : Reuss Voigt Hill
#
# Bulk Modulus (GPa) = 17.18253 70.97184 44.07719
# Shear Modulus (GPa) = 75.01797 24.18129 49.59963
#
# Velocity S-wave (km/s) = 6.37299 3.61826 5.18203
# Velocity P-wave (km/s) = 7.96593 7.47530 7.72451
#
# Compressibility (1/GPa) = 0.05819864
#
# Stress axis : x y z
#
# Youngs Moduli (GPa) = 82.21921 16.94167 102.50246
#
# Poissons Ratio (x) = 0.03968 0.74852
# Poissons Ratio (y) = 0.19257 0.17715
# Poissons Ratio (z) = 0.60041 0.02928
#
# Static dielectric constant tensor:
#      x y z
#    x 1.590820 0.000000 0.000000 
#    y 0.000000 1.677670 0.000000 
#    z 0.000000 0.000000 1.658940 
# 
# From -- ./inp_files/25022.got.cif
#   From: 2010.05.17/outbox.cif.g08.bks.cpg/sg47_13_cif.got.tgz:25022.got - 2010.06.03 20:15:42.
