data_PCOD9381985
_publ_section_title
;
Structure prediction by ZEFSAII (Michael W. Deem and Ramdas Pophale) SiO2 
 PCOD9381985
Probable space group: P M M M
;
_chemical_formula_sum "Si O2"
_cell_formula_units_Z 40
_cell_length_a 7.961038
_cell_length_b 22.103340
_cell_length_c 12.834008
_cell_angle_alpha 90.000000
_cell_angle_beta 90.000000
_cell_angle_gamma 90.000000
_cell_volume 2258.343015
_symmetry_space_group_name_H-M "P M M M"
_symmetry_group_IT_number 47
_symmetry_cell_setting 'orthorhombic'
loop_
_space_group_symop_operation_xyz
x,y,z
-x,-y,z
x,-y,-z
-x,y,-z
-x,-y,-z
x,y,-z
-x,y,z
x,-y,z
loop_
_atom_site_type_symbol
_atom_site_label
_atom_site_fract_x
_atom_site_fract_y
_atom_site_fract_z
Si Si1 0.700910 0.102861 0.725315
Si Si2 0.293833 0.000000 0.119497
Si Si3 0.500000 0.431008 0.126461
Si Si4 0.799977 0.099606 0.500000
Si Si5 0.809922 0.346260 0.123682
Si Si6 0.699814 0.758226 0.727189
Si Si7 0.798511 0.759799 0.500000
O O1 0.500000 0.106378 0.733358
O O2 0.739929 0.075760 0.611152
O O3 0.764165 0.172163 0.732510
O O4 0.762202 0.058933 0.816155
O O5 0.500000 0.000000 0.120099
O O6 0.239751 0.000000 0.000000
O O7 0.500000 0.500000 0.164462
O O8 0.666520 0.393790 0.156439
O O9 0.500000 0.433252 0.000000
O O10 0.741522 0.169817 0.500000
O O11 0.000000 0.097590 0.500000
O O12 0.783995 0.285327 0.189192
O O13 0.000000 0.369048 0.138960
O O14 0.787939 0.334366 0.000000
O O15 0.500000 0.758394 0.745569
O O16 0.733858 0.734872 0.609680
O O17 0.000000 0.758098 0.500000
#
# Coordination Sequence:
#
# PCOD9381985 Si02
#       7
#     8   4   4   4   8   8   4
#     4   9  18  31  50  71  94 126 164 211 259 306
#     4   9  18  33  49  68  92 123 170 215 254 309
#     4   9  18  34  54  77 109 144 178 218 258 301
#     4   9  17  30  48  69  94 120 155 203 256 313
#     4  10  20  33  51  78 110 142 177 216 260 312
#     4  10  18  30  49  74 103 134 171 215 264 313
#     4   9  17  29  46  70  99 131 167 209 259 314
#
# _framework density 17.712101000000001
#
# number of rings (size 3 to 8) (size 9 to 14) (size 15 to 20)
#    0.000    2.600    1.000    1.200    0.000    4.800 
#    0.000    6.500    0.000    1.200    0.000    1.400 
#    0.000    2.400    0.000    0.000    0.000    0.000 
#
# Total GULP energy -222963.502836 kJ/mol
# GULP energy per Si atom -5574.087571 kJ/mol
# Density = 1.767179 g / cm^3
# Si number density = 17.712101 Si / 1000 Ang^3
#
#
#
# Elastic Constant Matrix: (Units=GPa)
#
#
# Indices 1 2 3 4 5 6 
#
# 1 66.8659 35.1335 31.3270 0.0000 0.0000 0.0000
# 2 35.1335 99.8749 57.5733 0.0000 0.0000 0.0000
# 3 31.3270 57.5733 110.2919 0.0000 0.0000 0.0000
# 4 0.0000 0.0000 0.0000 -40.0063 0.0000 0.0000
# 5 0.0000 0.0000 0.0000 0.0000 19.6742 0.0000
# 6 0.0000 0.0000 0.0000 0.0000 0.0000 5.4116
#
#
#
# Elastic Compliance Matrix: (Units=1/GPa)
#
#
# Indices 1 2 3 4 5 6 
#
# 1 0.018898 -0.005083 -0.002714 0.000000 0.000000 0.000000
# 2 -0.005083 0.015690 -0.006746 0.000000 0.000000 0.000000
# 3 -0.002714 -0.006746 0.013359 0.000000 0.000000 0.000000
# 4 0.000000 0.000000 0.000000 -0.024996 0.000000 0.000000
# 5 0.000000 0.000000 0.000000 0.000000 0.050828 0.000000
# 6 0.000000 0.000000 0.000000 0.000000 0.000000 0.184789
#
#
# Mechanical properties :
#
#
# Convention : Reuss Voigt Hill
#
# Bulk Modulus (GPa) = 53.02381 58.34448 55.68415
# Shear Modulus (GPa) = 17.01019 7.21581 12.11300
#
# Velocity S-wave (km/s) = 3.10235 2.02059 2.61795
# Velocity P-wave (km/s) = 6.54479 6.20127 6.37534
#
# Compressibility (1/GPa) = 0.01885945
#
# Stress axis : x y z
#
# Youngs Moduli (GPa) = 52.91624 63.73655 74.85355
#
# Poissons Ratio (x) = 0.32398 0.20317
# Poissons Ratio (y) = 0.26898 0.50498
# Poissons Ratio (z) = 0.14363 0.42999
#
# Static dielectric constant tensor:
#      x y z
#    x 1.622840 0.000000 0.000000 
#    y 0.000000 1.604020 0.000000 
#    z 0.000000 0.000000 1.601160 
# 
# From -- ./inp_files/15158.got.cif
#   From: 2010.05.17/outbox.cif.g08.bks.cpg/sg47_8_cif.got.tgz:15158.got - 2010.06.03 20:15:42.
