data_PCOD9381202
_publ_section_title
;
Structure prediction by ZEFSAII (Michael W. Deem and Ramdas Pophale) SiO2 
 PCOD9381202
Probable space group: P M M M
;
_chemical_formula_sum "Si O2"
_cell_formula_units_Z 64
_cell_length_a 7.375326
_cell_length_b 30.487320
_cell_length_c 14.633108
_cell_angle_alpha 90.000000
_cell_angle_beta 90.000000
_cell_angle_gamma 90.000000
_cell_volume 3290.311752
_symmetry_space_group_name_H-M "P M M M"
_symmetry_group_IT_number 47
_symmetry_cell_setting 'orthorhombic'
loop_
_space_group_symop_operation_xyz
x,y,z
-x,-y,z
x,-y,-z
-x,y,-z
-x,-y,-z
x,y,-z
-x,y,z
x,-y,z
loop_
_atom_site_type_symbol
_atom_site_label
_atom_site_fract_x
_atom_site_fract_y
_atom_site_fract_z
Si Si1 0.286630 0.228303 0.787512
Si Si2 0.280932 0.411483 0.895893
Si Si3 0.218066 0.730406 0.396088
Si Si4 0.278374 0.856862 0.893281
Si Si5 0.780460 0.632837 0.607272
Si Si6 0.281656 0.047172 0.109200
Si Si7 0.211186 0.547610 0.289990
Si Si8 0.720085 0.312841 0.106175
O O1 0.500000 0.228259 0.809162
O O2 0.267789 0.234059 0.679322
O O3 0.214955 0.183832 0.832423
O O4 0.211512 0.272762 0.833267
O O5 0.500000 0.411594 0.896336
O O6 0.220322 0.444659 0.818468
O O7 0.219357 0.362059 0.869641
O O8 0.222536 0.420411 0.000000
O O9 0.280386 0.738403 0.500000
O O10 0.283272 0.681674 0.366060
O O11 0.000000 0.728593 0.399101
O O12 0.500000 0.857647 0.892158
O O13 0.217589 0.905014 0.859109
O O14 0.227326 0.851018 0.000000
O O15 0.739747 0.627368 0.500000
O O16 0.710414 0.591273 0.663335
O O17 0.000000 0.633625 0.616279
O O18 0.500000 0.046762 0.120491
O O19 0.214151 0.000000 0.145136
O O20 0.247854 0.047295 0.000000
O O21 0.289814 0.500000 0.313654
O O22 0.000000 0.546377 0.317061
O O23 0.500000 0.313802 0.111571
O O24 0.766096 0.305238 0.000000
#
# Coordination Sequence:
#
# PCOD9381202 Si02
#       8
#     8   8   8   8   8   8   8   8
#     4  10  17  24  40  64  86 107 131 164 204 238
#     4   9  18  32  47  60  77 107 143 168 186 219
#     4   9  18  32  47  60  77 105 136 162 193 237
#     4   8  13  20  31  52  83 115 143 168 198 238
#     4   8  15  30  50  67  82 102 128 156 189 236
#     4   7   9  14  25  42  69 108 147 174 194 223
#     4  10  20  31  45  67  88 102 121 156 200 236
#     4   8  14  25  41  61  83 106 133 162 191 227
#
# _framework density 19.451044
#
# number of rings (size 3 to 8) (size 9 to 14) (size 15 to 20)
#    0.000    3.375    0.000    3.750    0.000    2.750 
#    0.000    2.500    0.000    3.375    0.000    0.875 
#    0.000    1.000    0.000    9.375    0.000    3.750 
#
# Total GULP energy -356795.976953 kJ/mol
# GULP energy per Si atom -5574.937140 kJ/mol
# Density = 1.940677 g / cm^3
# Si number density = 19.451044 Si / 1000 Ang^3
#
#
#
# Elastic Constant Matrix: (Units=GPa)
#
#
# Indices 1 2 3 4 5 6 
#
# 1 66.8373 2.1969 -6.0878 0.0000 0.0000 0.0000
# 2 2.1969 136.5720 68.0370 0.0000 0.0000 0.0000
# 3 -6.0878 68.0370 58.6392 0.0000 0.0000 0.0000
# 4 0.0000 0.0000 0.0000 18.0329 0.0000 0.0000
# 5 0.0000 0.0000 0.0000 0.0000 9.0362 0.0000
# 6 0.0000 0.0000 0.0000 0.0000 0.0000 0.7686
#
#
#
# Elastic Compliance Matrix: (Units=1/GPa)
#
#
# Indices 1 2 3 4 5 6 
#
# 1 0.015452 -0.002483 0.004485 0.000000 0.000000 0.000000
# 2 -0.002483 0.017751 -0.020853 0.000000 0.000000 0.000000
# 3 0.004485 -0.020853 0.041714 0.000000 0.000000 0.000000
# 4 0.000000 0.000000 0.000000 0.055454 0.000000 0.000000
# 5 0.000000 0.000000 0.000000 0.000000 0.110666 0.000000
# 6 0.000000 0.000000 0.000000 0.000000 0.000000 1.301043
#
#
# Mechanical properties :
#
#
# Convention : Reuss Voigt Hill
#
# Bulk Modulus (GPa) = 26.87123 43.37118 35.12120
# Shear Modulus (GPa) = 3.14034 18.76104 10.95069
#
# Velocity S-wave (km/s) = 1.27200 3.10905 2.37531
# Velocity P-wave (km/s) = 4.00026 5.93585 5.06144
#
# Compressibility (1/GPa) = 0.03721452
#
# Stress axis : x y z
#
# Youngs Moduli (GPa) = 64.71731 56.33589 23.97258
#
# Poissons Ratio (x) = 0.13987 -0.10752
# Poissons Ratio (y) = 0.16068 0.49991
# Poissons Ratio (z) = -0.29025 1.17479
#
# Static dielectric constant tensor:
#      x y z
#    x 2.064440 0.000000 0.000000 
#    y 0.000000 1.719370 0.000000 
#    z 0.000000 0.000000 1.655190 
# 
# From -- ./inp_files/22156.got.cif
#   From: 2010.05.17/outbox.cif.g08.bks.cpg/sg47_12_cif.got.tgz:22156.got - 2010.06.03 20:15:42.
