data_PCOD9381355
_publ_section_title
;
Structure prediction by ZEFSAII (Michael W. Deem and Ramdas Pophale) SiO2 
 PCOD9381355
Probable space group: P M M M
;
_chemical_formula_sum "Si O2"
_cell_formula_units_Z 64
_cell_length_a 7.439126
_cell_length_b 20.410858
_cell_length_c 21.437804
_cell_angle_alpha 90.000000
_cell_angle_beta 90.000000
_cell_angle_gamma 90.000000
_cell_volume 3255.093530
_symmetry_space_group_name_H-M "P M M M"
_symmetry_group_IT_number 47
_symmetry_cell_setting 'orthorhombic'
loop_
_space_group_symop_operation_xyz
x,y,z
-x,-y,z
x,-y,-z
-x,y,-z
-x,-y,-z
x,y,-z
-x,y,z
x,-y,z
loop_
_atom_site_type_symbol
_atom_site_label
_atom_site_fract_x
_atom_site_fract_y
_atom_site_fract_z
Si Si1 0.712422 0.071885 0.385708
Si Si2 0.712842 0.294399 0.685899
Si Si3 0.280717 0.427551 0.741588
Si Si4 0.782831 0.789698 0.190201
Si Si5 0.279741 0.788853 0.430854
Si Si6 0.216912 0.072613 0.761594
Si Si7 0.788885 0.284710 0.932234
Si Si8 0.716878 0.572502 0.886719
O O1 0.500000 0.069406 0.399379
O O2 0.782810 0.136678 0.418810
O O3 0.733169 0.081084 0.311155
O O4 0.787816 0.000000 0.401626
O O5 0.500000 0.301944 0.675555
O O6 0.785099 0.366442 0.701621
O O7 0.735542 0.250636 0.747725
O O8 0.784372 0.256934 0.625448
O O9 0.500000 0.426335 0.741535
O O10 0.225316 0.500000 0.720614
O O11 0.227946 0.419871 0.814178
O O12 0.720019 0.864467 0.199751
O O13 0.714612 0.752723 0.128416
O O14 0.000000 0.790651 0.187467
O O15 0.228714 0.766969 0.500000
O O16 0.500000 0.790088 0.428253
O O17 0.000000 0.072333 0.764306
O O18 0.279657 0.000000 0.781125
O O19 0.775431 0.362890 0.922500
O O20 0.000000 0.268612 0.933919
O O21 0.711444 0.267520 0.000000
O O22 0.500000 0.572107 0.888414
O O23 0.776606 0.500000 0.908323
#
# Coordination Sequence:
#
# PCOD9381355 Si02
#       8
#     8   8   8   8   8   8   8   8
#     4   9  16  26  42  64  89 118 151 182 213 258
#     4  10  17  28  49  69  87 117 153 188 224 265
#     4   8  14  25  43  67  90 112 143 184 225 261
#     4  10  19  31  48  68  90 116 148 188 225 264
#     4   9  17  27  40  64  95 122 149 183 223 264
#     4   9  17  29  46  67  90 115 143 181 229 270
#     4  10  21  34  46  64  93 126 153 182 227 275
#     4   9  17  30  48  69  93 121 154 189 222 262
#
# _framework density 19.661491999999999
#
# number of rings (size 3 to 8) (size 9 to 14) (size 15 to 20)
#    0.000    2.750    2.500    0.750    0.000    1.000 
#    0.000    2.500    0.000    2.625    0.000    7.000 
#    0.000    0.000    0.000    6.500    0.000    7.000 
#
# Total GULP energy -357015.413213 kJ/mol
# GULP energy per Si atom -5578.365831 kJ/mol
# Density = 1.961674 g / cm^3
# Si number density = 19.661492 Si / 1000 Ang^3
#
#
#
# Elastic Constant Matrix: (Units=GPa)
#
#
# Indices 1 2 3 4 5 6 
#
# 1 59.3217 -4.0751 -4.1000 0.0000 0.0000 0.0000
# 2 -4.0751 138.8190 74.9081 0.0000 0.0000 0.0000
# 3 -4.1000 74.9081 128.2796 0.0000 0.0000 0.0000
# 4 0.0000 0.0000 0.0000 16.0131 0.0000 0.0000
# 5 0.0000 0.0000 0.0000 0.0000 9.1282 0.0000
# 6 0.0000 0.0000 0.0000 0.0000 0.0000 5.5246
#
#
#
# Elastic Compliance Matrix: (Units=1/GPa)
#
#
# Indices 1 2 3 4 5 6 
#
# 1 0.016903 0.000299 0.000366 0.000000 0.000000 0.000000
# 2 0.000299 0.010523 -0.006135 0.000000 0.000000 0.000000
# 3 0.000366 -0.006135 0.011390 0.000000 0.000000 0.000000
# 4 0.000000 0.000000 0.000000 0.062449 0.000000 0.000000
# 5 0.000000 0.000000 0.000000 0.000000 0.109550 0.000000
# 6 0.000000 0.000000 0.000000 0.000000 0.000000 0.181008
#
#
# Mechanical properties :
#
#
# Convention : Reuss Voigt Hill
#
# Bulk Modulus (GPa) = 35.87514 51.09848 43.48681
# Shear Modulus (GPa) = 12.13428 23.44568 17.78998
#
# Velocity S-wave (km/s) = 2.48697 3.45696 3.01127
# Velocity P-wave (km/s) = 5.15099 6.47917 5.85287
#
# Compressibility (1/GPa) = 0.02787445
#
# Stress axis : x y z
#
# Youngs Moduli (GPa) = 59.16097 95.02914 87.79738
#
# Poissons Ratio (x) = -0.02840 -0.03211
# Poissons Ratio (y) = -0.01768 0.53867
# Poissons Ratio (z) = -0.02164 0.58304
#
# Static dielectric constant tensor:
#      x y z
#    x 1.706740 0.000000 0.000000 
#    y 0.000000 1.711550 0.000000 
#    z 0.000000 0.000000 1.671020 
# 
# From -- ./inp_files/30116.got.cif
#   From: 2010.05.17/outbox.cif.g08.bks.cpg/sg47_16_cif.got.tgz:30116.got - 2010.06.03 20:15:42.
