data_PCOD9381301
_publ_section_title
;
Structure prediction by ZEFSAII (Michael W. Deem and Ramdas Pophale) SiO2 
 PCOD9381301
Probable space group: P M M M
;
_chemical_formula_sum "Si O2"
_cell_formula_units_Z 64
_cell_length_a 7.701626
_cell_length_b 14.715909
_cell_length_c 32.755957
_cell_angle_alpha 90.000000
_cell_angle_beta 90.000000
_cell_angle_gamma 90.000000
_cell_volume 3712.443141
_symmetry_space_group_name_H-M "P M M M"
_symmetry_group_IT_number 47
_symmetry_cell_setting 'orthorhombic'
loop_
_space_group_symop_operation_xyz
x,y,z
-x,-y,z
x,-y,-z
-x,y,-z
-x,-y,-z
x,y,-z
-x,y,z
x,-y,z
loop_
_atom_site_type_symbol
_atom_site_label
_atom_site_fract_x
_atom_site_fract_y
_atom_site_fract_z
Si Si1 0.709271 0.398302 0.252841
Si Si2 0.290657 0.601725 0.159288
Si Si3 0.705730 0.110111 0.456051
Si Si4 0.203978 0.791491 0.286917
Si Si5 0.788039 0.105439 0.045688
Si Si6 0.707106 0.896971 0.367907
Si Si7 0.212770 0.894383 0.206177
Si Si8 0.793536 0.208813 0.125031
O O1 0.500000 0.399494 0.252032
O O2 0.767675 0.500000 0.264537
O O3 0.768986 0.381066 0.206072
O O4 0.763677 0.315216 0.280940
O O5 0.500000 0.600951 0.160058
O O6 0.232680 0.500000 0.147632
O O7 0.234894 0.684368 0.131101
O O8 0.779951 0.140412 0.500000
O O9 0.500000 0.132433 0.457093
O O10 0.776742 0.138380 0.411731
O O11 0.717827 0.000000 0.455315
O O12 0.265654 0.833255 0.329303
O O13 0.276401 0.843714 0.247013
O O14 0.000000 0.807310 0.286089
O O15 0.724872 0.167319 0.082862
O O16 0.000000 0.108400 0.045308
O O17 0.740622 0.000000 0.052701
O O18 0.730615 0.131679 0.000000
O O19 0.500000 0.904627 0.373285
O O20 0.773445 0.000000 0.360007
O O21 0.273985 0.842903 0.165390
O O22 0.000000 0.891260 0.206107
O O23 0.262461 0.000000 0.206052
O O24 0.000000 0.192631 0.124662
#
# Coordination Sequence:
#
# PCOD9381301 Si02
#       8
#     8   8   8   8   8   8   8   8
#     4   9  18  33  50  64  81 109 145 185 226 264
#     4   9  18  32  48  65  87 113 139 174 222 268
#     4   7  10  19  37  59  80 105 144 192 230 254
#     4  11  20  29  42  62  90 121 148 178 216 261
#     4   8  14  25  43  68  94 117 142 175 216 258
#     4   9  17  28  42  61  87 121 157 188 219 258
#     4   9  17  27  38  57  86 117 145 172 204 244
#     4  10  17  27  46  69  88 110 145 184 215 249
#
# _framework density 17.239321
#
# number of rings (size 3 to 8) (size 9 to 14) (size 15 to 20)
#    0.000    3.000    1.250    3.375    0.000    2.750 
#    0.000    1.250    0.000    3.375    0.000    5.250 
#    0.000    0.500    0.000    5.750    0.000    1.875 
#
# Total GULP energy -356545.118572 kJ/mol
# GULP energy per Si atom -5571.017478 kJ/mol
# Density = 1.720008 g / cm^3
# Si number density = 17.239321 Si / 1000 Ang^3
#
#
#
# Elastic Constant Matrix: (Units=GPa)
#
#
# Indices 1 2 3 4 5 6 
#
# 1 25.5910 -2.9161 9.3195 0.0000 0.0000 0.0000
# 2 -2.9161 103.5817 91.3870 0.0000 0.0000 0.0000
# 3 9.3195 91.3870 177.7188 0.0000 0.0000 0.0000
# 4 0.0000 0.0000 0.0000 10.5221 0.0000 0.0000
# 5 0.0000 0.0000 0.0000 0.0000 10.4473 0.0000
# 6 0.0000 0.0000 0.0000 0.0000 0.0000 5.6567
#
#
#
# Elastic Compliance Matrix: (Units=1/GPa)
#
#
# Indices 1 2 3 4 5 6 
#
# 1 0.041576 0.005663 -0.005093 0.000000 0.000000 0.000000
# 2 0.005663 0.018443 -0.009781 0.000000 0.000000 0.000000
# 3 -0.005093 -0.009781 0.010923 0.000000 0.000000 0.000000
# 4 0.000000 0.000000 0.000000 0.095038 0.000000 0.000000
# 5 0.000000 0.000000 0.000000 0.000000 0.095718 0.000000
# 6 0.000000 0.000000 0.000000 0.000000 0.000000 0.176783
#
#
# Mechanical properties :
#
#
# Convention : Reuss Voigt Hill
#
# Bulk Modulus (GPa) = 19.03934 55.83025 37.43479
# Shear Modulus (GPa) = 10.53942 19.26528 14.90235
#
# Velocity S-wave (km/s) = 2.47525 3.34656 2.94332
# Velocity P-wave (km/s) = 4.38603 6.88392 5.77172
#
# Compressibility (1/GPa) = 0.05252282
#
# Stress axis : x y z
#
# Youngs Moduli (GPa) = 24.05226 54.22131 91.54655
#
# Poissons Ratio (x) = -0.30708 0.46620
# Poissons Ratio (y) = -0.13622 0.89539
# Poissons Ratio (z) = 0.12249 0.53033
#
# Static dielectric constant tensor:
#      x y z
#    x 1.651710 0.000000 0.000000 
#    y 0.000000 1.568380 0.000000 
#    z 0.000000 0.000000 1.622780 
# 
# From -- ./inp_files/34449.got.cif
#   From: 2010.05.17/outbox.cif.g08.bks.cpg/sg47_18_cif.got.tgz:34449.got - 2010.06.03 20:15:42.
