data_PCOD9381660
_publ_section_title
;
Structure prediction by ZEFSAII (Michael W. Deem and Ramdas Pophale) SiO2 
 PCOD9381660
Probable space group: P M M M
;
_chemical_formula_sum "Si O2"
_cell_formula_units_Z 56
_cell_length_a 19.511305
_cell_length_b 19.849667
_cell_length_c 7.748250
_cell_angle_alpha 90.000000
_cell_angle_beta 90.000000
_cell_angle_gamma 90.000000
_cell_volume 3000.842267
_symmetry_space_group_name_H-M "P M M M"
_symmetry_group_IT_number 47
_symmetry_cell_setting 'orthorhombic'
loop_
_space_group_symop_operation_xyz
x,y,z
-x,-y,z
x,-y,-z
-x,y,-z
-x,-y,-z
x,y,-z
-x,y,z
x,-y,z
loop_
_atom_site_type_symbol
_atom_site_label
_atom_site_fract_x
_atom_site_fract_y
_atom_site_fract_z
Si Si1 0.332995 0.218748 0.702692
Si Si2 0.698105 0.925814 0.208066
Si Si3 0.922510 0.214360 0.211883
Si Si4 0.202717 0.699060 0.198697
Si Si5 0.293346 0.574848 0.295029
Si Si6 0.857670 0.925472 0.210350
Si Si7 0.423040 0.658604 0.289080
O O1 0.322674 0.231224 0.500000
O O2 0.342100 0.139816 0.731940
O O3 0.263391 0.245429 0.790129
O O4 0.394792 0.267278 0.758817
O O5 0.777888 0.918239 0.261993
O O6 0.674481 0.000000 0.266011
O O7 0.697531 0.925542 0.000000
O O8 0.865573 0.267435 0.274491
O O9 0.900290 0.139166 0.267323
O O10 0.000000 0.229528 0.263875
O O11 0.920290 0.214252 0.000000
O O12 0.234231 0.630277 0.270796
O O13 0.188254 0.685112 0.000000
O O14 0.302396 0.569164 0.500000
O O15 0.279536 0.500000 0.225734
O O16 0.364564 0.606846 0.227638
O O17 0.881585 0.000000 0.265492
O O18 0.858634 0.925372 0.000000
O O19 0.424554 0.655698 0.500000
O O20 0.500000 0.645919 0.228213
#
# Coordination Sequence:
#
# PCOD9381660 Si02
#       7
#     8   8   8   8   8   8   8
#     4  10  18  28  46  69  92 120 156 194 230 271
#     4   9  16  27  44  65  89 119 157 199 240 278
#     4   9  16  25  40  64  91 119 154 196 235 268
#     4  10  18  30  48  68  93 123 155 189 226 271
#     4   9  18  32  51  75  98 119 146 183 224 267
#     4   8  13  22  37  59  87 116 147 185 229 271
#     4   8  15  28  46  70  97 122 148 180 220 266
#
# _framework density 18.661427
#
# number of rings (size 3 to 8) (size 9 to 14) (size 15 to 20)
#    0.000    3.000    1.429    2.571    0.000    1.143 
#    0.000    2.857    0.000   13.286    0.000   10.000 
#    0.000    2.286    0.000    0.000    0.000    0.000 
#
# Total GULP energy -312023.946244 kJ/mol
# GULP energy per Si atom -5571.856183 kJ/mol
# Density = 1.861895 g / cm^3
# Si number density = 18.661427 Si / 1000 Ang^3
#
#
#
# Elastic Constant Matrix: (Units=GPa)
#
#
# Indices 1 2 3 4 5 6 
#
# 1 92.7012 72.7463 8.1194 0.0000 0.0000 0.0000
# 2 72.7463 170.5760 5.7370 0.0000 0.0000 0.0000
# 3 8.1194 5.7370 23.3284 0.0000 0.0000 0.0000
# 4 0.0000 0.0000 0.0000 19.1870 0.0000 0.0000
# 5 0.0000 0.0000 0.0000 0.0000 10.7861 0.0000
# 6 0.0000 0.0000 0.0000 0.0000 0.0000 14.3605
#
#
#
# Elastic Compliance Matrix: (Units=1/GPa)
#
#
# Indices 1 2 3 4 5 6 
#
# 1 0.016588 -0.006937 -0.004067 0.000000 0.000000 0.000000
# 2 -0.006937 0.008813 0.000247 0.000000 0.000000 0.000000
# 3 -0.004067 0.000247 0.044221 0.000000 0.000000 0.000000
# 4 0.000000 0.000000 0.000000 0.052119 0.000000 0.000000
# 5 0.000000 0.000000 0.000000 0.000000 0.092712 0.000000
# 6 0.000000 0.000000 0.000000 0.000000 0.000000 0.069635
#
#
# Mechanical properties :
#
#
# Convention : Reuss Voigt Hill
#
# Bulk Modulus (GPa) = 20.78713 51.09010 35.93862
# Shear Modulus (GPa) = 15.54546 22.20026 18.87286
#
# Velocity S-wave (km/s) = 2.88935 3.45285 3.18359
# Velocity P-wave (km/s) = 4.72170 6.58278 5.72833
#
# Compressibility (1/GPa) = 0.04810668
#
# Stress axis : x y z
#
# Youngs Moduli (GPa) = 60.28581 113.47121 22.61374
#
# Poissons Ratio (x) = 0.78720 0.09197
# Poissons Ratio (y) = 0.41823 -0.00559
# Poissons Ratio (z) = 0.24519 -0.02806
#
# Static dielectric constant tensor:
#      x y z
#    x 1.626770 0.000000 0.000000 
#    y 0.000000 1.664390 0.000000 
#    z 0.000000 0.000000 1.709770 
# 
# From -- ./inp_files/9806.got.cif
#   From: 2010.05.17/outbox.cif.g08.bks.cpg/sg47_5_cif.got.tgz:9806.got - 2010.06.03 20:15:42.
