data_PCOD9381754
_publ_section_title
;
Structure prediction by ZEFSAII (Michael W. Deem and Ramdas Pophale) SiO2 
 PCOD9381754
Probable space group: P M M M
;
_chemical_formula_sum "Si O2"
_cell_formula_units_Z 52
_cell_length_a 22.265073
_cell_length_b 13.997828
_cell_length_c 7.265848
_cell_angle_alpha 90.000000
_cell_angle_beta 90.000000
_cell_angle_gamma 90.000000
_cell_volume 2264.493531
_symmetry_space_group_name_H-M "P M M M"
_symmetry_group_IT_number 47
_symmetry_cell_setting 'orthorhombic'
loop_
_space_group_symop_operation_xyz
x,y,z
-x,-y,z
x,-y,-z
-x,y,-z
-x,-y,-z
x,y,-z
-x,y,z
x,-y,z
loop_
_atom_site_type_symbol
_atom_site_label
_atom_site_fract_x
_atom_site_fract_y
_atom_site_fract_z
Si Si1 0.753898 0.803963 0.775432
Si Si2 0.430646 0.608063 0.721903
Si Si3 0.190812 0.394898 0.776260
Si Si4 0.500000 0.112032 0.778313
Si Si5 0.066323 0.694473 0.223940
Si Si6 0.376966 0.195870 0.789488
Si Si7 0.121378 0.894253 0.776229
O O1 0.769844 0.695665 0.718586
O O2 0.687605 0.830379 0.710042
O O3 0.809939 0.869945 0.722243
O O4 0.752714 0.804547 0.000000
O O5 0.429864 0.609970 0.500000
O O6 0.500000 0.628360 0.778711
O O7 0.415994 0.500000 0.779802
O O8 0.386406 0.689867 0.789426
O O9 0.209581 0.500000 0.714759
O O10 0.122252 0.371068 0.720554
O O11 0.191774 0.394871 0.000000
O O12 0.438266 0.156114 0.705396
O O13 0.500000 0.000000 0.746922
O O14 0.500000 0.129752 0.000000
O O15 0.081630 0.803488 0.280141
O O16 0.000000 0.665810 0.284505
O O17 0.066365 0.693539 0.000000
O O18 0.375737 0.160883 0.000000
O O19 0.103331 0.000000 0.715245
O O20 0.119951 0.894497 0.000000
#
# Coordination Sequence:
#
# PCOD9381754 Si02
#       7
#     8   8   8   4   8   8   8
#     4   8  15  24  34  51  72  93 123 163 202 240
#     4   9  18  32  48  65  87 114 138 164 208 262
#     4   8  13  21  30  40  60  89 117 150 195 240
#     4   9  18  30  42  61  88 110 131 169 218 257
#     4   8  13  19  26  39  58  82 120 165 198 229
#     4  10  18  29  46  66  86 110 142 179 215 250
#     4   8  13  21  31  43  63  92 124 159 201 245
#
# _framework density 22.963190000000001
#
# number of rings (size 3 to 8) (size 9 to 14) (size 15 to 20)
#    0.000    3.462    0.769    2.308    0.000    2.154 
#    0.000    8.462    0.000    0.923    0.000    0.000 
#    0.000    0.000    0.000    0.000    0.000   12.308 
#
# Total GULP energy -290237.175475 kJ/mol
# GULP energy per Si atom -5581.484144 kJ/mol
# Density = 2.291093 g / cm^3
# Si number density = 22.963190 Si / 1000 Ang^3
#
#
#
# Elastic Constant Matrix: (Units=GPa)
#
#
# Indices 1 2 3 4 5 6 
#
# 1 88.5022 -24.0252 1.9040 0.0000 0.0000 0.0000
# 2 -24.0252 36.3324 -3.6475 0.0000 0.0000 0.0000
# 3 1.9040 -3.6475 102.2834 0.0000 0.0000 0.0000
# 4 0.0000 0.0000 0.0000 6.8047 0.0000 0.0000
# 5 0.0000 0.0000 0.0000 0.0000 37.1826 0.0000
# 6 0.0000 0.0000 0.0000 0.0000 0.0000 3.6801
#
#
#
# Elastic Compliance Matrix: (Units=1/GPa)
#
#
# Indices 1 2 3 4 5 6 
#
# 1 0.013772 0.009114 0.000069 0.000000 0.000000 0.000000
# 2 0.009114 0.033654 0.001030 0.000000 0.000000 0.000000
# 3 0.000069 0.001030 0.009812 0.000000 0.000000 0.000000
# 4 0.000000 0.000000 0.000000 0.146958 0.000000 0.000000
# 5 0.000000 0.000000 0.000000 0.000000 0.026894 0.000000
# 6 0.000000 0.000000 0.000000 0.000000 0.000000 0.271730
#
#
# Mechanical properties :
#
#
# Convention : Reuss Voigt Hill
#
# Bulk Modulus (GPa) = 12.87616 19.50894 16.19255
# Shear Modulus (GPa) = 9.83707 26.39259 18.11483
#
# Velocity S-wave (km/s) = 2.07199 3.39387 2.81172
# Velocity P-wave (km/s) = 3.36804 4.88590 4.19617
#
# Compressibility (1/GPa) = 0.07766293
#
# Stress axis : x y z
#
# Youngs Moduli (GPa) = 72.61269 29.71450 101.91369
#
# Poissons Ratio (x) = -0.27081 -0.00700
# Poissons Ratio (y) = -0.66176 -0.10502
# Poissons Ratio (z) = -0.00498 -0.03062
#
# Static dielectric constant tensor:
#      x y z
#    x 1.835400 0.000000 0.000000 
#    y 0.000000 1.813720 0.000000 
#    z 0.000000 0.000000 1.889900 
# 
# From -- ./inp_files/12544.got.cif
#   From: 2010.05.17/outbox.cif.g08.bks.cpg/sg47_7_cif.got.tgz:12544.got - 2010.06.03 20:15:42.
