data_PCOD9381787
_publ_section_title
;
Structure prediction by ZEFSAII (Michael W. Deem and Ramdas Pophale) SiO2 
 PCOD9381787
Probable space group: P M M M
;
_chemical_formula_sum "Si O2"
_cell_formula_units_Z 64
_cell_length_a 21.067024
_cell_length_b 14.557031
_cell_length_c 14.546482
_cell_angle_alpha 90.000000
_cell_angle_beta 90.000000
_cell_angle_gamma 90.000000
_cell_volume 4461.017950
_symmetry_space_group_name_H-M "P M M M"
_symmetry_group_IT_number 47
_symmetry_cell_setting 'orthorhombic'
loop_
_space_group_symop_operation_xyz
x,y,z
-x,-y,z
x,-y,-z
-x,y,-z
-x,-y,-z
x,y,-z
-x,y,z
x,-y,z
loop_
_atom_site_type_symbol
_atom_site_label
_atom_site_fract_x
_atom_site_fract_y
_atom_site_fract_z
Si Si1 0.196622 0.888273 0.394717
Si Si2 0.865117 0.109088 0.895561
Si Si3 0.574263 0.604696 0.731390
Si Si4 0.270735 0.796796 0.894084
Si Si5 0.575312 0.780099 0.391630
Si Si6 0.321977 0.890055 0.719839
Si Si7 0.674193 0.604045 0.893793
Si Si8 0.929983 0.111275 0.708872
O O1 0.203183 0.858318 0.500000
O O2 0.257527 0.862116 0.334415
O O3 0.130051 0.856796 0.350874
O O4 0.195432 0.000000 0.394204
O O5 0.800130 0.164523 0.881101
O O6 0.914305 0.131692 0.815328
O O7 0.850105 0.000000 0.886653
O O8 0.887699 0.124467 0.000000
O O9 0.500000 0.613457 0.756405
O O10 0.584323 0.500000 0.698230
O O11 0.587883 0.680778 0.654462
O O12 0.618080 0.618118 0.820582
O O13 0.315760 0.845926 0.820480
O O14 0.276621 0.687198 0.881093
O O15 0.288491 0.817258 0.000000
O O16 0.590103 0.780690 0.500000
O O17 0.500000 0.799186 0.381462
O O18 0.618540 0.851785 0.336681
O O19 0.323709 0.000000 0.725840
O O20 0.699190 0.500000 0.880610
O O21 0.651659 0.609642 0.000000
O O22 0.000000 0.144960 0.682353
O O23 0.931130 0.000000 0.700659
#
# Coordination Sequence:
#
# PCOD9381787 Si02
#       8
#     8   8   8   8   8   8   8   8
#     4   9  17  28  41  58  80 111 152 189 219 255
#     4   9  16  26  40  59  85 117 151 181 210 252
#     4   9  17  30  48  68  89 113 141 175 221 276
#     4  10  18  29  47  69  90 115 145 179 219 263
#     4  10  21  35  49  67  89 114 150 192 232 271
#     4  11  20  32  49  66  87 117 154 191 224 259
#     4   9  17  29  46  69  93 113 137 173 219 271
#     4   9  16  25  37  56  84 116 148 183 220 255
#
# _framework density 14.346501999999999
#
# number of rings (size 3 to 8) (size 9 to 14) (size 15 to 20)
#    0.000    2.500    2.500    0.750    0.000    2.750 
#    0.000    5.625    0.000    0.375    0.000    0.875 
#    0.000    0.500    0.000    4.875    0.000    2.000 
#
# Total GULP energy -356303.127152 kJ/mol
# GULP energy per Si atom -5567.236362 kJ/mol
# Density = 1.431385 g / cm^3
# Si number density = 14.346502 Si / 1000 Ang^3
#
#
#
# Elastic Constant Matrix: (Units=GPa)
#
#
# Indices 1 2 3 4 5 6 
#
# 1 53.5526 27.3984 35.0152 0.0000 0.0000 0.0000
# 2 27.3984 53.0524 29.8087 0.0000 0.0000 0.0000
# 3 35.0152 29.8087 78.0084 0.0000 0.0000 0.0000
# 4 0.0000 0.0000 0.0000 15.7140 0.0000 0.0000
# 5 0.0000 0.0000 0.0000 0.0000 17.1314 0.0000
# 6 0.0000 0.0000 0.0000 0.0000 0.0000 7.4046
#
#
#
# Elastic Compliance Matrix: (Units=1/GPa)
#
#
# Indices 1 2 3 4 5 6 
#
# 1 0.030194 -0.010160 -0.009671 0.000000 0.000000 0.000000
# 2 -0.010160 0.027421 -0.005918 0.000000 0.000000 0.000000
# 3 -0.009671 -0.005918 0.019421 0.000000 0.000000 0.000000
# 4 0.000000 0.000000 0.000000 0.063638 0.000000 0.000000
# 5 0.000000 0.000000 0.000000 0.000000 0.058372 0.000000
# 6 0.000000 0.000000 0.000000 0.000000 0.000000 0.135051
#
#
# Mechanical properties :
#
#
# Convention : Reuss Voigt Hill
#
# Bulk Modulus (GPa) = 39.15438 41.00644 40.08041
# Shear Modulus (GPa) = 12.68686 14.20941 13.44814
#
# Velocity S-wave (km/s) = 2.97697 3.15055 3.06499
# Velocity P-wave (km/s) = 6.25841 6.47144 6.36582
#
# Compressibility (1/GPa) = 0.02553992
#
# Stress axis : x y z
#
# Youngs Moduli (GPa) = 33.11867 36.46794 51.48955
#
# Poissons Ratio (x) = 0.37051 0.49795
# Poissons Ratio (y) = 0.33648 0.30471
# Poissons Ratio (z) = 0.32029 0.21581
#
# Static dielectric constant tensor:
#      x y z
#    x 1.463360 0.000000 0.000000 
#    y 0.000000 1.463750 0.000000 
#    z 0.000000 0.000000 1.485730 
# 
# From -- ./inp_files/24092.got.cif
#   From: 2010.05.17/outbox.cif.g08.bks.cpg/sg47_13_cif.got.tgz:24092.got - 2010.06.03 20:15:42.
