data_PCOD9381545
_publ_section_title
;
Structure prediction by ZEFSAII (Michael W. Deem and Ramdas Pophale) SiO2 
 PCOD9381545
Probable space group: P M M M
;
_chemical_formula_sum "Si O2"
_cell_formula_units_Z 64
_cell_length_a 14.874153
_cell_length_b 28.984015
_cell_length_c 8.793944
_cell_angle_alpha 90.000000
_cell_angle_beta 90.000000
_cell_angle_gamma 90.000000
_cell_volume 3791.180710
_symmetry_space_group_name_H-M "P M M M"
_symmetry_group_IT_number 47
_symmetry_cell_setting 'orthorhombic'
loop_
_space_group_symop_operation_xyz
x,y,z
-x,-y,z
x,-y,-z
-x,y,-z
-x,-y,-z
x,y,-z
-x,y,z
x,-y,z
loop_
_atom_site_type_symbol
_atom_site_label
_atom_site_fract_x
_atom_site_fract_y
_atom_site_fract_z
Si Si1 0.896185 0.173461 0.316533
Si Si2 0.896803 0.447560 0.814598
Si Si3 0.602288 0.683933 0.816340
Si Si4 0.723084 0.133164 0.180469
Si Si5 0.397044 0.945997 0.317141
Si Si6 0.606640 0.784490 0.320200
Si Si7 0.780053 0.362064 0.816945
Si Si8 0.893590 0.720699 0.680987
O O1 0.891308 0.171424 0.500000
O O2 0.823147 0.139934 0.245289
O O3 0.873577 0.226526 0.272478
O O4 0.000000 0.164542 0.273387
O O5 0.875682 0.500000 0.766790
O O6 0.828464 0.408431 0.760051
O O7 0.000000 0.436941 0.769911
O O8 0.895441 0.447373 0.000000
O O9 0.500000 0.672321 0.771577
O O10 0.625064 0.733838 0.746662
O O11 0.677550 0.647255 0.768579
O O12 0.604567 0.687945 0.000000
O O13 0.673922 0.087464 0.240344
O O14 0.664796 0.176373 0.240821
O O15 0.724912 0.133494 0.000000
O O16 0.391386 0.940904 0.500000
O O17 0.500000 0.933891 0.273140
O O18 0.383057 0.000000 0.281529
O O19 0.625593 0.784811 0.500000
O O20 0.500000 0.793515 0.298554
O O21 0.836862 0.317677 0.766014
O O22 0.780859 0.364161 0.000000
O O23 0.877029 0.717228 0.500000
O O24 0.000000 0.713318 0.706095
#
# Coordination Sequence:
#
# PCOD9381545 Si02
#       8
#     8   8   8   8   8   8   8   8
#     4   9  19  36  54  70  94 132 173 207 238 278
#     4   8  14  25  41  62  87 112 142 185 232 276
#     4   9  18  31  44  62  92 123 150 189 241 285
#     4  12  23  32  49  77 106 134 162 197 245 294
#     4   9  19  37  59  80 102 130 165 203 241 285
#     4  10  20  33  49  69  95 129 168 203 232 274
#     4  10  18  27  44  67  87 115 155 191 226 275
#     4   9  18  31  46  67  95 123 150 186 234 280
#
# _framework density 16.881284999999998
#
# number of rings (size 3 to 8) (size 9 to 14) (size 15 to 20)
#    0.000    2.500    0.000    4.500    0.000    6.750 
#    0.000    1.875    0.000    1.125    0.000    7.000 
#    0.000    0.000    0.000    4.250    0.000    4.625 
#
# Total GULP energy -357069.567771 kJ/mol
# GULP energy per Si atom -5579.211996 kJ/mol
# Density = 1.684286 g / cm^3
# Si number density = 16.881285 Si / 1000 Ang^3
#
#
#
# Elastic Constant Matrix: (Units=GPa)
#
#
# Indices 1 2 3 4 5 6 
#
# 1 108.2033 94.0485 37.6310 0.0000 0.0000 0.0000
# 2 94.0485 100.9742 33.2099 0.0000 0.0000 0.0000
# 3 37.6310 33.2099 22.7323 0.0000 0.0000 0.0000
# 4 0.0000 0.0000 0.0000 -23.9797 0.0000 0.0000
# 5 0.0000 0.0000 0.0000 0.0000 17.1910 0.0000
# 6 0.0000 0.0000 0.0000 0.0000 0.0000 32.7321
#
#
#
# Elastic Compliance Matrix: (Units=1/GPa)
#
#
# Indices 1 2 3 4 5 6 
#
# 1 0.059504 -0.044321 -0.033753 0.000000 0.000000 0.000000
# 2 -0.044321 0.052076 -0.002709 0.000000 0.000000 0.000000
# 3 -0.033753 -0.002709 0.103822 0.000000 0.000000 0.000000
# 4 0.000000 0.000000 0.000000 -0.041702 0.000000 0.000000
# 5 0.000000 0.000000 0.000000 0.000000 0.058170 0.000000
# 6 0.000000 0.000000 0.000000 0.000000 0.000000 0.030551
#
#
# Mechanical properties :
#
#
# Convention : Reuss Voigt Hill
#
# Bulk Modulus (GPa) = 18.57510 62.40985 40.49247
# Shear Modulus (GPa) = 11.31397 9.65672 10.48535
#
# Velocity S-wave (km/s) = 2.59165 2.39432 2.49494
# Velocity P-wave (km/s) = 4.47021 6.68534 5.68668
#
# Compressibility (1/GPa) = 0.05383552
#
# Stress axis : x y z
#
# Youngs Moduli (GPa) = 16.80562 19.20275 9.63190
#
# Poissons Ratio (x) = 0.85109 0.32510
# Poissons Ratio (y) = 0.74485 0.02609
# Poissons Ratio (z) = 0.56724 0.05201
#
# Static dielectric constant tensor:
#      x y z
#    x 1.586060 0.000000 0.000000 
#    y 0.000000 1.551390 0.000000 
#    z 0.000000 0.000000 1.563900 
# 
# From -- ./inp_files/8199.got.cif
#   From: 2010.05.17/outbox.cif.g08.bks.cpg/sg47_5_cif.got.tgz:8199.got - 2010.06.03 20:15:42.
