data_PCOD9381158
_publ_section_title
;
Structure prediction by ZEFSAII (Michael W. Deem and Ramdas Pophale) SiO2 
 PCOD9381158
Probable space group: I M A 2
;
_chemical_formula_sum "Si O2"
_cell_formula_units_Z 32
_cell_length_a 18.000000
_cell_length_b 15.000000
_cell_length_c 12.000000
_cell_angle_alpha 90.000000
_cell_angle_beta 90.000000
_cell_angle_gamma 90.000000
_cell_volume 3240.000000
_symmetry_space_group_name_H-M "I M A 2"
_symmetry_group_IT_number 46
_symmetry_cell_setting 'orthorhombic'
loop_
_space_group_symop_operation_xyz
x,y,z
-x,-y,z
1/2-x,y,z
1/2+x,-y,z
1/2+x,1/2+y,1/2+z
1/2-x,1/2-y,1/2+z
-x,1/2+y,1/2+z
x,1/2-y,1/2+z
loop_
_atom_site_type_symbol
_atom_site_label
_atom_site_fract_x
_atom_site_fract_y
_atom_site_fract_z
Si Si1 0.333530 0.837314 0.362470
Si Si2 0.557582 0.731869 0.652240
Si Si3 0.530322 0.103443 0.747721
Si Si4 0.664193 0.135828 0.919504
Si Si5 0.161117 0.136134 0.511818
Si Si6 0.160090 0.078884 0.250578
Si Si7 0.907689 0.392579 0.653534
Si Si8 0.080416 0.963721 0.524104
O O1 0.250000 0.871922 0.354798
O O2 0.333763 0.743073 0.423017
O O3 0.366211 0.827472 0.239628
O O4 0.381272 0.907983 0.428871
O O5 0.526863 0.811025 0.737373
O O6 0.601267 0.788303 0.553101
O O7 0.622707 0.665943 0.694677
O O8 0.487794 0.659996 0.633939
O O9 0.598467 0.114044 0.832639
O O10 0.563914 0.102554 0.624366
O O11 0.500000 0.000000 0.762718
O O12 0.750000 0.106952 0.894283
O O13 0.635354 0.101020 0.037531
O O14 0.250000 0.155035 0.532800
O O15 0.154179 0.105380 0.382080
O O16 0.131441 0.044679 0.568520
O O17 0.250000 0.067042 0.226922
O O18 0.110169 0.991854 0.210440
O O19 0.000000 0.000000 0.486634
#
# Coordination Sequence:
#
# PCOD9381158 Si02
#       8
#     8   8   8   8   8   8   8   8
#     4  11  23  40  67 100 138 183 235 296 362 425
#     4  12  25  44  72 105 141 187 239 301 363 428
#     4  11  24  45  65 100 140 185 236 293 357 440
#     4  11  26  44  66  98 144 189 232 294 365 440
#     4  11  24  44  72 103 141 185 238 300 361 429
#     4  11  26  47  73 107 144 188 245 302 368 444
#     4  12  25  45  72 104 143 189 241 304 359 443
#     4  11  22  39  69 103 135 176 234 300 349 421
#
# _framework density 9.8765429999999999
#
# number of rings (size 3 to 8) (size 9 to 14) (size 15 to 20)
#    0.000    0.750    5.000    3.000    3.500    2.000 
#    0.000    0.000    0.000    0.000    0.000    0.000 
#    0.000    0.000    0.000    0.000    0.000    0.000 
#
# Total GULP energy -178148.126555 kJ/mol
# GULP energy per Si atom -5567.128955 kJ/mol
# Density = 0.985406 g / cm^3
# Si number density = 9.876543 Si / 1000 Ang^3
#
#
#
# Elastic Constant Matrix: (Units=GPa)
#
#
# Indices 1 2 3 4 5 6 
#
# 1 153.4475 49.2372 65.4682 0.0000 0.0000 0.0000
# 2 49.2372 110.9774 33.9252 0.0000 0.0000 0.0000
# 3 65.4682 33.9252 63.8512 0.0000 0.0000 0.0000
# 4 0.0000 0.0000 0.0000 23.0827 0.0000 0.0000
# 5 0.0000 0.0000 0.0000 0.0000 30.3027 0.0000
# 6 0.0000 0.0000 0.0000 0.0000 0.0000 43.3582
#
#
#
# Elastic Compliance Matrix: (Units=1/GPa)
#
#
# Indices 1 2 3 4 5 6 
#
# 1 0.011894 -0.001849 -0.011213 0.000000 0.000000 0.000000
# 2 -0.001849 0.011046 -0.003973 0.000000 0.000000 0.000000
# 3 -0.011213 -0.003973 0.029269 0.000000 0.000000 0.000000
# 4 0.000000 0.000000 0.000000 0.043322 0.000000 0.000000
# 5 0.000000 0.000000 0.000000 0.000000 0.033000 0.000000
# 6 0.000000 0.000000 0.000000 0.000000 0.000000 0.023064
#
#
# Mechanical properties :
#
#
# Convention : Reuss Voigt Hill
#
# Bulk Modulus (GPa) = 55.12892 69.50415 62.31653
# Shear Modulus (GPa) = 26.08086 31.32509 28.70297
#
# Velocity S-wave (km/s) = 3.63760 3.98657 3.81607
# Velocity P-wave (km/s) = 6.75370 7.51353 7.14372
#
# Compressibility (1/GPa) = 0.01813930
#
# Stress axis : x y z
#
# Youngs Moduli (GPa) = 84.07417 90.53248 34.16595
#
# Poissons Ratio (x) = 0.16743 0.38310
# Poissons Ratio (y) = 0.15549 0.13573
# Poissons Ratio (z) = 0.94271 0.35965
#
# Static dielectric constant tensor:
#      x y z
#    x 1.730650 0.000000 0.000000 
#    y 0.000000 1.735930 0.000000 
#    z 0.000000 0.000000 1.723430 
# 
# From -- ./inp_files/11990.got.cif
#   From: 2010.05.17/outbox.ucp.g08.bks.cvg/sg46_6_cif.got.tgz:11990.got - 2010.06.11 16:34:52.
