data_PCOD9381662
_publ_section_title
;
Structure prediction by ZEFSAII (Michael W. Deem and Ramdas Pophale) SiO2 
 PCOD9381662
Probable space group: P M M M
;
_chemical_formula_sum "Si O2"
_cell_formula_units_Z 52
_cell_length_a 13.708802
_cell_length_b 24.554571
_cell_length_c 8.808922
_cell_angle_alpha 90.000000
_cell_angle_beta 90.000000
_cell_angle_gamma 90.000000
_cell_volume 2965.204286
_symmetry_space_group_name_H-M "P M M M"
_symmetry_group_IT_number 47
_symmetry_cell_setting 'orthorhombic'
loop_
_space_group_symop_operation_xyz
x,y,z
-x,-y,z
x,-y,-z
-x,y,-z
-x,-y,-z
x,y,-z
-x,y,z
x,-y,z
loop_
_atom_site_type_symbol
_atom_site_label
_atom_site_fract_x
_atom_site_fract_y
_atom_site_fract_z
Si Si1 0.890099 0.138091 0.181034
Si Si2 0.691241 0.118802 0.321244
Si Si3 0.500000 0.065123 0.175473
Si Si4 0.386719 0.439199 0.315416
Si Si5 0.889978 0.257933 0.679447
Si Si6 0.296924 0.327178 0.683091
Si Si7 0.614038 0.775268 0.825683
O O1 0.798000 0.106971 0.252638
O O2 0.881008 0.201560 0.229737
O O3 0.000000 0.120783 0.229013
O O4 0.884219 0.134070 0.000000
O O5 0.692832 0.111026 0.500000
O O6 0.599456 0.086733 0.251195
O O7 0.669103 0.181726 0.279355
O O8 0.500000 0.000000 0.181712
O O9 0.500000 0.083195 0.000000
O O10 0.384775 0.440081 0.500000
O O11 0.500000 0.429745 0.272243
O O12 0.358284 0.500000 0.263693
O O13 0.320255 0.388604 0.267496
O O14 0.877945 0.244778 0.500000
O O15 0.809391 0.302670 0.719620
O O16 0.000000 0.278588 0.701469
O O17 0.309364 0.324438 0.500000
O O18 0.369526 0.284991 0.762947
O O19 0.500000 0.788712 0.821803
O O20 0.648291 0.779995 0.000000
#
# Coordination Sequence:
#
# PCOD9381662 Si02
#       7
#     8   8   4   8   8   8   8
#     4  10  20  34  54  80 112 150 189 228 274 330
#     4  12  23  36  58  85 116 151 186 228 273 323
#     4  11  25  45  67  89 117 155 194 231 272 319
#     4   8  14  25  41  62  88 120 163 217 269 318
#     4   9  17  28  42  65  99 133 167 211 265 321
#     4  10  18  28  46  69  93 127 171 216 265 325
#     4  11  22  33  47  71 107 142 171 213 269 325
#
# _framework density 17.536733999999999
#
# number of rings (size 3 to 8) (size 9 to 14) (size 15 to 20)
#    0.000    1.923    2.308    3.462    0.000    3.077 
#    0.000    0.000    0.000    1.385    0.000    8.615 
#    0.000    0.000    0.000    5.231    0.000    5.692 
#
# Total GULP energy -290045.245295 kJ/mol
# GULP energy per Si atom -5577.793179 kJ/mol
# Density = 1.749682 g / cm^3
# Si number density = 17.536734 Si / 1000 Ang^3
#
#
#
# Elastic Constant Matrix: (Units=GPa)
#
#
# Indices 1 2 3 4 5 6 
#
# 1 139.2883 36.2889 56.1585 0.0000 0.0000 0.0000
# 2 36.2889 50.3118 20.8542 0.0000 0.0000 0.0000
# 3 56.1585 20.8542 68.2493 0.0000 0.0000 0.0000
# 4 0.0000 0.0000 0.0000 17.0084 0.0000 0.0000
# 5 0.0000 0.0000 0.0000 0.0000 24.0234 0.0000
# 6 0.0000 0.0000 0.0000 0.0000 0.0000 13.6079
#
#
#
# Elastic Compliance Matrix: (Units=1/GPa)
#
#
# Indices 1 2 3 4 5 6 
#
# 1 0.011799 -0.005137 -0.008139 0.000000 0.000000 0.000000
# 2 -0.005137 0.024995 -0.003411 0.000000 0.000000 0.000000
# 3 -0.008139 -0.003411 0.022392 0.000000 0.000000 0.000000
# 4 0.000000 0.000000 0.000000 0.058794 0.000000 0.000000
# 5 0.000000 0.000000 0.000000 0.000000 0.041626 0.000000
# 6 0.000000 0.000000 0.000000 0.000000 0.000000 0.073487
#
#
# Mechanical properties :
#
#
# Convention : Reuss Voigt Hill
#
# Bulk Modulus (GPa) = 38.74127 53.82807 46.28467
# Shear Modulus (GPa) = 18.17715 20.56448 19.37081
#
# Velocity S-wave (km/s) = 3.22299 3.42811 3.32714
# Velocity P-wave (km/s) = 5.99914 6.81399 6.41951
#
# Compressibility (1/GPa) = 0.02581227
#
# Stress axis : x y z
#
# Youngs Moduli (GPa) = 84.75084 40.00825 44.65940
#
# Poissons Ratio (x) = 0.20552 0.36350
# Poissons Ratio (y) = 0.43535 0.15232
# Poissons Ratio (z) = 0.68982 0.13645
#
# Static dielectric constant tensor:
#      x y z
#    x 1.633160 0.000000 0.000000 
#    y 0.000000 1.582500 0.000000 
#    z 0.000000 0.000000 1.599940 
# 
# From -- ./inp_files/7091.got.cif
#   From: 2010.05.17/outbox.cif.g08.bks.cpg/sg47_4_cif.got.tgz:7091.got - 2010.06.03 20:15:42.
