data_PCOD9381836
_publ_section_title
;
Structure prediction by ZEFSAII (Michael W. Deem and Ramdas Pophale) SiO2 
 PCOD9381836
Probable space group: P M M M
;
_chemical_formula_sum "Si O2"
_cell_formula_units_Z 64
_cell_length_a 21.381417
_cell_length_b 20.395478
_cell_length_c 7.819389
_cell_angle_alpha 90.000000
_cell_angle_beta 90.000000
_cell_angle_gamma 90.000000
_cell_volume 3409.912153
_symmetry_space_group_name_H-M "P M M M"
_symmetry_group_IT_number 47
_symmetry_cell_setting 'orthorhombic'
loop_
_space_group_symop_operation_xyz
x,y,z
-x,-y,z
x,-y,-z
-x,y,-z
-x,-y,-z
x,y,-z
-x,y,z
x,-y,z
loop_
_atom_site_type_symbol
_atom_site_label
_atom_site_fract_x
_atom_site_fract_y
_atom_site_fract_z
Si Si1 0.931979 0.212824 0.199046
Si Si2 0.688820 0.792743 0.706161
Si Si3 0.112221 0.926716 0.699444
Si Si4 0.744690 0.926999 0.203292
Si Si5 0.622450 0.572319 0.292042
Si Si6 0.430346 0.710568 0.709483
Si Si7 0.769458 0.572113 0.708306
Si Si8 0.191651 0.288872 0.297046
O O1 0.920406 0.134977 0.215403
O O2 0.873053 0.251251 0.273146
O O3 0.000000 0.228667 0.275411
O O4 0.933156 0.229444 0.000000
O O5 0.688898 0.788327 0.500000
O O6 0.698581 0.868384 0.751672
O O7 0.625286 0.758397 0.766686
O O8 0.749850 0.753280 0.771878
O O9 0.095078 0.925917 0.500000
O O10 0.187103 0.916371 0.713906
O O11 0.098895 0.000000 0.768159
O O12 0.723051 0.000000 0.253423
O O13 0.754952 0.926327 0.000000
O O14 0.619177 0.571761 0.500000
O O15 0.601563 0.500000 0.233267
O O16 0.585250 0.636215 0.234703
O O17 0.695899 0.580096 0.249070
O O18 0.429405 0.710431 0.500000
O O19 0.500000 0.729635 0.763424
O O20 0.772759 0.570467 0.500000
O O21 0.789988 0.500000 0.769118
O O22 0.805559 0.636602 0.769774
O O23 0.202272 0.293665 0.500000
#
# Coordination Sequence:
#
# PCOD9381836 Si02
#       8
#     8   8   8   8   8   8   8   8
#     4  11  24  38  51  71 101 135 169 206 249 295
#     4  10  18  29  48  74 100 130 168 207 247 290
#     4  10  20  34  53  77 104 133 164 197 236 289
#     4  10  20  33  51  75 100 126 160 204 252 297
#     4   8  12  19  33  57  93 134 168 195 232 286
#     4   9  16  25  38  62 100 139 170 203 244 290
#     4   8  13  23  42  69  99 127 160 207 256 296
#     4  10  18  30  51  75  97 128 170 212 251 294
#
# _framework density 18.768810999999999
#
# number of rings (size 3 to 8) (size 9 to 14) (size 15 to 20)
#    0.000    2.500    2.500    1.875    0.000    3.000 
#    0.000    2.500    0.000    1.500    0.000    5.250 
#    0.000    0.500    0.000    1.125    0.000    1.250 
#
# Total GULP energy -356915.782554 kJ/mol
# GULP energy per Si atom -5576.809102 kJ/mol
# Density = 1.872609 g / cm^3
# Si number density = 18.768811 Si / 1000 Ang^3
#
#
#
# Elastic Constant Matrix: (Units=GPa)
#
#
# Indices 1 2 3 4 5 6 
#
# 1 107.3135 75.3812 -0.5882 0.0000 0.0000 0.0000
# 2 75.3812 138.4894 2.7844 0.0000 0.0000 0.0000
# 3 -0.5882 2.7844 22.0105 0.0000 0.0000 0.0000
# 4 0.0000 0.0000 0.0000 -32.4094 0.0000 0.0000
# 5 0.0000 0.0000 0.0000 0.0000 29.7927 0.0000
# 6 0.0000 0.0000 0.0000 0.0000 0.0000 18.9792
#
#
#
# Elastic Compliance Matrix: (Units=1/GPa)
#
#
# Indices 1 2 3 4 5 6 
#
# 1 0.015133 -0.008266 0.001450 0.000000 0.000000 0.000000
# 2 -0.008266 0.011754 -0.001708 0.000000 0.000000 0.000000
# 3 0.001450 -0.001708 0.045688 0.000000 0.000000 0.000000
# 4 0.000000 0.000000 0.000000 -0.030855 0.000000 0.000000
# 5 0.000000 0.000000 0.000000 0.000000 0.033565 0.000000
# 6 0.000000 0.000000 0.000000 0.000000 0.000000 0.052689
#
#
# Mechanical properties :
#
#
# Convention : Reuss Voigt Hill
#
# Bulk Modulus (GPa) = 18.00920 46.99647 32.50284
# Shear Modulus (GPa) = 30.57519 15.95489 23.26504
#
# Velocity S-wave (km/s) = 4.04052 2.91877 3.52456
# Velocity P-wave (km/s) = 5.60213 6.03763 5.82395
#
# Compressibility (1/GPa) = 0.05552717
#
# Stress axis : x y z
#
# Youngs Moduli (GPa) = 66.08117 85.07412 21.88775
#
# Poissons Ratio (x) = 0.70324 -0.03174
# Poissons Ratio (y) = 0.54624 0.03738
# Poissons Ratio (z) = -0.09582 0.14530
#
# Static dielectric constant tensor:
#      x y z
#    x 1.638850 0.000000 0.000000 
#    y 0.000000 1.670540 0.000000 
#    z 0.000000 0.000000 1.692060 
# 
# From -- ./inp_files/10043.got.cif
#   From: 2010.05.17/outbox.cif.g08.bks.cpg/sg47_6_cif.got.tgz:10043.got - 2010.06.03 20:15:42.
