data_PCOD9381748
_publ_section_title
;
Structure prediction by ZEFSAII (Michael W. Deem and Ramdas Pophale) SiO2 
 PCOD9381748
Probable space group: P M M M
;
_chemical_formula_sum "Si O2"
_cell_formula_units_Z 64
_cell_length_a 9.552742
_cell_length_b 20.181362
_cell_length_c 20.887266
_cell_angle_alpha 90.000000
_cell_angle_beta 90.000000
_cell_angle_gamma 90.000000
_cell_volume 4026.800544
_symmetry_space_group_name_H-M "P M M M"
_symmetry_group_IT_number 47
_symmetry_cell_setting 'orthorhombic'
loop_
_space_group_symop_operation_xyz
x,y,z
-x,-y,z
x,-y,-z
-x,y,-z
-x,-y,-z
x,y,-z
-x,y,z
x,-y,z
loop_
_atom_site_type_symbol
_atom_site_label
_atom_site_fract_x
_atom_site_fract_y
_atom_site_fract_z
Si Si1 0.336571 0.199692 0.258192
Si Si2 0.833398 0.422011 0.807151
Si Si3 0.837592 0.072992 0.255404
Si Si4 0.835881 0.668101 0.928816
Si Si5 0.330011 0.423963 0.572324
Si Si6 0.336134 0.797800 0.896715
Si Si7 0.837885 0.074498 0.099711
Si Si8 0.669571 0.345128 0.697255
O O1 0.500000 0.189296 0.272190
O O2 0.249538 0.135582 0.278495
O O3 0.323492 0.206040 0.180958
O O4 0.291633 0.268672 0.290165
O O5 0.804865 0.500000 0.812509
O O6 0.801687 0.383636 0.873076
O O7 0.743155 0.389263 0.751181
O O8 0.000000 0.413758 0.794417
O O9 0.834065 0.073863 0.177570
O O10 0.000000 0.078920 0.273718
O O11 0.785536 0.000000 0.275227
O O12 0.742916 0.733571 0.922515
O O13 0.000000 0.686634 0.921323
O O14 0.818454 0.639524 0.000000
O O15 0.283557 0.407536 0.500000
O O16 0.500000 0.423990 0.571496
O O17 0.287064 0.500000 0.586796
O O18 0.288182 0.373824 0.628094
O O19 0.500000 0.797841 0.912795
O O20 0.261109 0.865193 0.919627
O O21 0.000000 0.085865 0.081145
O O22 0.797601 0.000000 0.078826
O O23 0.500000 0.349781 0.703325
#
# Coordination Sequence:
#
# PCOD9381748 Si02
#       8
#     8   8   8   8   8   8   8   8
#     4   9  17  26  39  63  92 120 149 182 225 273
#     4  10  21  35  51  72  94 116 148 191 236 281
#     4   8  14  24  38  58  85 118 153 185 220 264
#     4  10  21  36  52  67  85 115 153 191 234 283
#     4   8  14  25  43  68  95 125 162 197 226 261
#     4  10  18  29  45  66  92 118 147 186 231 279
#     4   8  14  25  42  64  89 118 151 184 220 268
#     4  10  18  30  48  71  99 127 156 190 229 274
#
# _framework density 15.893511
#
# number of rings (size 3 to 8) (size 9 to 14) (size 15 to 20)
#    0.000    2.875    1.250    1.875    0.000    2.750 
#    0.000    3.750    0.000    0.750    0.000    6.125 
#    0.000    0.500    0.000    6.250    0.000    1.250 
#
# Total GULP energy -356610.172431 kJ/mol
# GULP energy per Si atom -5572.033944 kJ/mol
# Density = 1.585734 g / cm^3
# Si number density = 15.893511 Si / 1000 Ang^3
#
#
#
# Elastic Constant Matrix: (Units=GPa)
#
#
# Indices 1 2 3 4 5 6 
#
# 1 38.6813 60.2482 34.4073 0.0000 0.0000 0.0000
# 2 60.2482 151.7673 65.7244 0.0000 0.0000 0.0000
# 3 34.4073 65.7244 78.5361 0.0000 0.0000 0.0000
# 4 0.0000 0.0000 0.0000 169.9147 0.0000 0.0000
# 5 0.0000 0.0000 0.0000 0.0000 10.7173 0.0000
# 6 0.0000 0.0000 0.0000 0.0000 0.0000 23.8007
#
#
#
# Elastic Compliance Matrix: (Units=1/GPa)
#
#
# Indices 1 2 3 4 5 6 
#
# 1 0.074722 -0.024289 -0.012410 0.000000 0.000000 0.000000
# 2 -0.024289 0.018229 -0.004615 0.000000 0.000000 0.000000
# 3 -0.012410 -0.004615 0.022032 0.000000 0.000000 0.000000
# 4 0.000000 0.000000 0.000000 0.005885 0.000000 0.000000
# 5 0.000000 0.000000 0.000000 0.000000 0.093307 0.000000
# 6 0.000000 0.000000 0.000000 0.000000 0.000000 0.042016
#
#
# Mechanical properties :
#
#
# Convention : Reuss Voigt Hill
#
# Bulk Modulus (GPa) = 30.90547 65.52718 48.21633
# Shear Modulus (GPa) = 14.30194 48.12686 31.21440
#
# Velocity S-wave (km/s) = 3.00302 5.50877 4.43648
# Velocity P-wave (km/s) = 5.61353 9.04326 7.52636
#
# Compressibility (1/GPa) = 0.03235673
#
# Stress axis : x y z
#
# Youngs Moduli (GPa) = 13.38297 54.85614 45.38922
#
# Poissons Ratio (x) = 1.33238 0.56327
# Poissons Ratio (y) = 0.32505 0.20945
# Poissons Ratio (z) = 0.16608 0.25314
#
# Static dielectric constant tensor:
#      x y z
#    x 1.525560 0.000000 0.000000 
#    y 0.000000 1.526250 0.000000 
#    z 0.000000 0.000000 1.531410 
# 
# From -- ./inp_files/27033.got.cif
#   From: 2010.05.17/outbox.cif.g08.bks.cpg/sg47_14_cif.got.tgz:27033.got - 2010.06.03 20:15:42.
