data_PCOD9381588
_publ_section_title
;
Structure prediction by ZEFSAII (Michael W. Deem and Ramdas Pophale) SiO2 
 PCOD9381588
Probable space group: P M M M
;
_chemical_formula_sum "Si O2"
_cell_formula_units_Z 52
_cell_length_a 14.143553
_cell_length_b 7.537816
_cell_length_c 24.824338
_cell_angle_alpha 90.000000
_cell_angle_beta 90.000000
_cell_angle_gamma 90.000000
_cell_volume 2646.559913
_symmetry_space_group_name_H-M "P M M M"
_symmetry_group_IT_number 47
_symmetry_cell_setting 'orthorhombic'
loop_
_space_group_symop_operation_xyz
x,y,z
-x,-y,z
x,-y,-z
-x,y,-z
-x,-y,-z
x,y,-z
-x,y,z
x,-y,z
loop_
_atom_site_type_symbol
_atom_site_label
_atom_site_fract_x
_atom_site_fract_y
_atom_site_fract_z
Si Si1 0.108185 0.282876 0.938592
Si Si2 0.775935 0.700164 0.160052
Si Si3 0.000000 0.216697 0.437618
Si Si4 0.891322 0.213345 0.261374
Si Si5 0.397709 0.789794 0.234835
Si Si6 0.810703 0.216444 0.375199
Si Si7 0.393884 0.783219 0.641341
O O1 0.108009 0.500000 0.936984
O O2 0.180781 0.215086 0.893638
O O3 0.000000 0.228484 0.926538
O O4 0.130500 0.231496 0.000000
O O5 0.753239 0.500000 0.145115
O O6 0.856561 0.706550 0.205762
O O7 0.684417 0.764906 0.191930
O O8 0.901904 0.275523 0.409504
O O9 0.000000 0.266672 0.500000
O O10 0.000000 0.000000 0.434281
O O11 0.831581 0.267690 0.313327
O O12 0.000000 0.254692 0.272188
O O13 0.881629 0.000000 0.256260
O O14 0.500000 0.722607 0.216051
O O15 0.382665 0.724243 0.296037
O O16 0.403604 0.000000 0.241894
O O17 0.703068 0.272396 0.388568
O O18 0.811982 0.000000 0.377219
O O19 0.500000 0.727980 0.623528
O O20 0.394162 0.000000 0.640036
#
# Coordination Sequence:
#
# PCOD9381588 Si02
#       7
#     8   8   4   8   8   8   8
#     4   8  15  29  46  62  84 118 155 184 216 269
#     4  11  20  28  44  70  96 117 143 187 240 279
#     4   9  16  24  36  58  87 119 154 193 232 264
#     4  10  18  28  43  63  89 122 154 182 220 276
#     4   9  17  30  47  65  88 121 156 184 218 276
#     4   9  14  23  39  58  82 112 148 187 223 266
#     4   8  13  22  39  60  79 106 146 184 216 262
#
# _framework density 19.648147000000002
#
# number of rings (size 3 to 8) (size 9 to 14) (size 15 to 20)
#    0.000    2.846    2.308    2.308    0.000    1.231 
#    0.000    0.000    0.000    2.769    0.000   11.846 
#    0.000    1.231    0.000    0.000    0.000    4.923 
#
# Total GULP energy -289661.826740 kJ/mol
# GULP energy per Si atom -5570.419745 kJ/mol
# Density = 1.960343 g / cm^3
# Si number density = 19.648147 Si / 1000 Ang^3
#
#
#
# Elastic Constant Matrix: (Units=GPa)
#
#
# Indices 1 2 3 4 5 6 
#
# 1 167.3147 6.6856 46.8693 0.0000 0.0000 0.0000
# 2 6.6856 38.2434 -2.4338 0.0000 0.0000 0.0000
# 3 46.8693 -2.4338 65.1341 0.0000 0.0000 0.0000
# 4 0.0000 0.0000 0.0000 5.4363 0.0000 0.0000
# 5 0.0000 0.0000 0.0000 0.0000 13.2114 0.0000
# 6 0.0000 0.0000 0.0000 0.0000 0.0000 29.9348
#
#
#
# Elastic Compliance Matrix: (Units=1/GPa)
#
#
# Indices 1 2 3 4 5 6 
#
# 1 0.007592 -0.001679 -0.005526 0.000000 0.000000 0.000000
# 2 -0.001679 0.026582 0.002201 0.000000 0.000000 0.000000
# 3 -0.005526 0.002201 0.019411 0.000000 0.000000 0.000000
# 4 0.000000 0.000000 0.000000 0.183948 0.000000 0.000000
# 5 0.000000 0.000000 0.000000 0.000000 0.075692 0.000000
# 6 0.000000 0.000000 0.000000 0.000000 0.000000 0.033406
#
#
# Mechanical properties :
#
#
# Convention : Reuss Voigt Hill
#
# Bulk Modulus (GPa) = 22.94700 41.43716 32.19208
# Shear Modulus (GPa) = 13.47116 24.35459 18.91287
#
# Velocity S-wave (km/s) = 2.62127 3.52452 3.10591
# Velocity P-wave (km/s) = 4.56791 6.13990 5.41129
#
# Compressibility (1/GPa) = 0.04357867
#
# Stress axis : x y z
#
# Youngs Moduli (GPa) = 131.72277 37.61966 51.51643
#
# Poissons Ratio (x) = 0.06316 0.28466
# Poissons Ratio (y) = 0.22114 -0.11340
# Poissons Ratio (z) = 0.72784 -0.08281
#
# Static dielectric constant tensor:
#      x y z
#    x 1.746100 0.000000 0.000000 
#    y 0.000000 1.773500 0.000000 
#    z 0.000000 0.000000 1.661830 
# 
# From -- ./inp_files/21771.got.cif
#   From: 2010.05.17/outbox.cif.g08.bks.cpg/sg47_11_cif.got.tgz:21771.got - 2010.06.03 20:15:42.
