data_PCOD9381385
_publ_section_title
;
Structure prediction by ZEFSAII (Michael W. Deem and Ramdas Pophale) SiO2 
 PCOD9381385
Probable space group: P M M M
;
_chemical_formula_sum "Si O2"
_cell_formula_units_Z 40
_cell_length_a 21.605784
_cell_length_b 7.378596
_cell_length_c 11.914637
_cell_angle_alpha 90.000000
_cell_angle_beta 90.000000
_cell_angle_gamma 90.000000
_cell_volume 1899.435617
_symmetry_space_group_name_H-M "P M M M"
_symmetry_group_IT_number 47
_symmetry_cell_setting 'orthorhombic'
loop_
_space_group_symop_operation_xyz
x,y,z
-x,-y,z
x,-y,-z
-x,y,-z
-x,-y,-z
x,y,-z
-x,y,z
x,-y,z
loop_
_atom_site_type_symbol
_atom_site_label
_atom_site_fract_x
_atom_site_fract_y
_atom_site_fract_z
Si Si1 0.191895 0.707449 0.734988
Si Si2 0.254578 0.781415 0.500000
Si Si3 0.398278 0.783033 0.500000
Si Si4 0.070188 0.721296 0.629536
Si Si5 0.308872 0.721359 0.130328
Si Si6 0.566860 0.289101 0.750547
O O1 0.182534 0.500000 0.772507
O O2 0.222387 0.709831 0.611516
O O3 0.123821 0.786652 0.712801
O O4 0.244659 0.787556 0.815043
O O5 0.326370 0.728233 0.500000
O O6 0.250811 0.000000 0.500000
O O7 0.427640 0.719517 0.616003
O O8 0.401688 0.000000 0.500000
O O9 0.082541 0.776492 0.500000
O O10 0.072182 0.500000 0.629506
O O11 0.000000 0.774429 0.657679
O O12 0.307738 0.500000 0.139947
O O13 0.369926 0.786341 0.196586
O O14 0.313225 0.767502 0.000000
O O15 0.500000 0.210257 0.783856
O O16 0.565708 0.500000 0.783897
#
# Coordination Sequence:
#
# PCOD9381385 Si02
#       6
#     8   4   4   8   8   8
#     4  10  17  29  51  70  91 126 161 191 230 279
#     4  11  21  30  45  72 100 122 151 194 238 279
#     4  11  22  34  49  71 101 129 151 186 237 289
#     4   8  13  21  38  68  98 121 152 189 224 272
#     4   9  18  31  48  71  94 119 158 203 237 269
#     4  10  20  33  51  73  96 123 155 193 234 279
#
# _framework density 21.058885
#
# number of rings (size 3 to 8) (size 9 to 14) (size 15 to 20)
#    0.000    2.400    3.000    1.500    0.000    2.800 
#    0.000    2.000    0.000    4.200    0.000    5.600 
#    0.000    0.000    0.000    1.800    0.000    2.000 
#
# Total GULP energy -223254.866493 kJ/mol
# GULP energy per Si atom -5581.371662 kJ/mol
# Density = 2.101095 g / cm^3
# Si number density = 21.058885 Si / 1000 Ang^3
#
#
#
# Elastic Constant Matrix: (Units=GPa)
#
#
# Indices 1 2 3 4 5 6 
#
# 1 228.6459 8.6617 74.1078 0.0000 0.0000 0.0000
# 2 8.6617 78.3071 -7.8990 0.0000 0.0000 0.0000
# 3 74.1078 -7.8990 100.4500 0.0000 0.0000 0.0000
# 4 0.0000 0.0000 0.0000 -108.2521 0.0000 0.0000
# 5 0.0000 0.0000 0.0000 0.0000 21.8349 0.0000
# 6 0.0000 0.0000 0.0000 0.0000 0.0000 -14.2305
#
#
#
# Elastic Compliance Matrix: (Units=1/GPa)
#
#
# Indices 1 2 3 4 5 6 
#
# 1 0.005839 -0.001089 -0.004393 0.000000 0.000000 0.000000
# 2 -0.001089 0.013075 0.001832 0.000000 0.000000 0.000000
# 3 -0.004393 0.001832 0.013340 0.000000 0.000000 0.000000
# 4 0.000000 0.000000 0.000000 -0.009238 0.000000 0.000000
# 5 0.000000 0.000000 0.000000 0.000000 0.045798 0.000000
# 6 0.000000 0.000000 0.000000 0.000000 0.000000 -0.070271
#
#
# Mechanical properties :
#
#
# Convention : Reuss Voigt Hill
#
# Bulk Modulus (GPa) = 40.07473 61.90490 50.98982
# Shear Modulus (GPa) = 353.03997 2.03928 177.53963
#
# Velocity S-wave (km/s) = 12.96179 0.98513 9.19181
# Velocity P-wave (km/s) = 15.59109 5.54562 11.70119
#
# Compressibility (1/GPa) = 0.02495338
#
# Stress axis : x y z
#
# Youngs Moduli (GPa) = 171.26980 76.47922 74.96043
#
# Poissons Ratio (x) = 0.08329 0.32932
# Poissons Ratio (y) = 0.18651 -0.13730
# Poissons Ratio (z) = 0.75243 -0.14008
#
# Static dielectric constant tensor:
#      x y z
#    x 1.798970 0.000000 0.000000 
#    y 0.000000 1.788250 0.000000 
#    z 0.000000 0.000000 1.689910 
# 
# From -- ./inp_files/4112.got.cif
#   From: 2010.05.17/outbox.cif.g08.bks.cpg/sg47_3_cif.got.tgz:4112.got - 2010.06.03 20:15:42.
