data_PCOD9381371
_publ_section_title
;
Structure prediction by ZEFSAII (Michael W. Deem and Ramdas Pophale) SiO2 
 PCOD9381371
Probable space group: P M M M
;
_chemical_formula_sum "Si O2"
_cell_formula_units_Z 56
_cell_length_a 15.643561
_cell_length_b 14.421363
_cell_length_c 17.583744
_cell_angle_alpha 90.000000
_cell_angle_beta 90.000000
_cell_angle_gamma 90.000000
_cell_volume 3966.918526
_symmetry_space_group_name_H-M "P M M M"
_symmetry_group_IT_number 47
_symmetry_cell_setting 'orthorhombic'
loop_
_space_group_symop_operation_xyz
x,y,z
-x,-y,z
x,-y,-z
-x,y,-z
-x,-y,-z
x,y,-z
-x,y,z
x,-y,z
loop_
_atom_site_type_symbol
_atom_site_label
_atom_site_fract_x
_atom_site_fract_y
_atom_site_fract_z
Si Si1 0.104436 0.802436 0.159501
Si Si2 0.597741 0.604642 0.592299
Si Si3 0.896329 0.105835 0.000000
Si Si4 0.000000 0.112038 0.586018
Si Si5 0.901735 0.607476 0.384449
Si Si6 0.100686 0.399601 0.201127
Si Si7 0.833627 0.889485 0.684789
Si Si8 0.253773 0.256415 0.412615
O O1 0.128231 0.844046 0.078029
O O2 0.133352 0.695530 0.165934
O O3 0.144923 0.858435 0.229659
O O4 0.000000 0.806627 0.167691
O O5 0.598541 0.603274 0.500000
O O6 0.500000 0.624312 0.615659
O O7 0.620416 0.500000 0.617450
O O8 0.667293 0.680198 0.614278
O O9 0.000000 0.104489 0.000000
O O10 0.866275 0.000000 0.000000
O O11 0.083159 0.136233 0.634089
O O12 0.000000 0.148667 0.500000
O O13 0.000000 0.000000 0.580948
O O14 0.887635 0.500000 0.407803
O O15 0.895582 0.609379 0.292525
O O16 0.829499 0.676557 0.413099
O O17 0.000000 0.632327 0.404484
O O18 0.138444 0.500000 0.179738
O O19 0.000000 0.402860 0.181611
O O20 0.761204 0.828393 0.644566
O O21 0.820168 0.000000 0.680817
O O22 0.267467 0.225061 0.500000
#
# Coordination Sequence:
#
# PCOD9381371 Si02
#       8
#     8   8   4   4   8   8   8   8
#     4  10  17  29  45  59  77 108 148 187 231 269
#     4   8  15  30  50  68  85 106 137 181 229 271
#     4   9  18  28  41  61  79  97 139 202 238 254
#     4   9  18  30  40  51  72 110 157 193 218 244
#     4   9  17  28  39  55  83 115 144 175 211 255
#     4   8  14  25  40  55  74 103 137 169 205 256
#     4  11  21  31  42  56  80 116 152 187 223 260
#     4  11  21  29  42  63  85 112 149 187 220 259
#
# _framework density 14.11675
#
# number of rings (size 3 to 8) (size 9 to 14) (size 15 to 20)
#    0.000    2.571    2.143    2.571    1.000    2.571 
#    0.000    1.071    0.000    2.571    0.000    2.000 
#    0.000    0.000    0.000    0.643    0.000    5.357 
#
# Total GULP energy -311992.329607 kJ/mol
# GULP energy per Si atom -5571.291600 kJ/mol
# Density = 1.408462 g / cm^3
# Si number density = 14.116750 Si / 1000 Ang^3
#
#
#
# Elastic Constant Matrix: (Units=GPa)
#
#
# Indices 1 2 3 4 5 6 
#
# 1 44.1864 41.4350 19.4472 0.0000 0.0000 0.0000
# 2 41.4350 118.7919 56.0025 0.0000 0.0000 0.0000
# 3 19.4472 56.0025 90.0761 0.0000 0.0000 0.0000
# 4 0.0000 0.0000 0.0000 16.7391 0.0000 0.0000
# 5 0.0000 0.0000 0.0000 0.0000 -6.5590 0.0000
# 6 0.0000 0.0000 0.0000 0.0000 0.0000 15.8083
#
#
#
# Elastic Compliance Matrix: (Units=1/GPa)
#
#
# Indices 1 2 3 4 5 6 
#
# 1 0.033632 -0.011753 0.000046 0.000000 0.000000 0.000000
# 2 -0.011753 0.016015 -0.007420 0.000000 0.000000 0.000000
# 3 0.000046 -0.007420 0.015705 0.000000 0.000000 0.000000
# 4 0.000000 0.000000 0.000000 0.059740 0.000000 0.000000
# 5 0.000000 0.000000 0.000000 0.000000 -0.152463 0.000000
# 6 0.000000 0.000000 0.000000 0.000000 0.000000 0.063258
#
#
# Mechanical properties :
#
#
# Convention : Reuss Voigt Hill
#
# Bulk Modulus (GPa) = 36.90154 54.09155 45.49655
# Shear Modulus (GPa) = 60.11525 14.27567 37.19546
#
# Velocity S-wave (km/s) = 6.53275 3.18348 5.13864
# Velocity P-wave (km/s) = 9.11589 7.20508 8.21622
#
# Compressibility (1/GPa) = 0.02709914
#
# Stress axis : x y z
#
# Youngs Moduli (GPa) = 29.73358 62.44010 63.67440
#
# Poissons Ratio (x) = 0.73383 -0.00291
# Poissons Ratio (y) = 0.34945 0.47245
# Poissons Ratio (z) = -0.00136 0.46329
#
# Static dielectric constant tensor:
#      x y z
#    x 1.448980 0.000000 0.000000 
#    y 0.000000 1.504650 0.000000 
#    z 0.000000 0.000000 1.459350 
# 
# From -- ./inp_files/28283.got.cif
#   From: 2010.05.17/outbox.cif.g08.bks.cpg/sg47_15_cif.got.tgz:28283.got - 2010.06.03 20:15:42.
