data_PCOD9381826
_publ_section_title
;
Structure prediction by ZEFSAII (Michael W. Deem and Ramdas Pophale) SiO2 
 PCOD9381826
Probable space group: P M M M
;
_chemical_formula_sum "Si O2"
_cell_formula_units_Z 56
_cell_length_a 15.129846
_cell_length_b 23.751542
_cell_length_c 8.519830
_cell_angle_alpha 90.000000
_cell_angle_beta 90.000000
_cell_angle_gamma 90.000000
_cell_volume 3061.662021
_symmetry_space_group_name_H-M "P M M M"
_symmetry_group_IT_number 47
_symmetry_cell_setting 'orthorhombic'
loop_
_space_group_symop_operation_xyz
x,y,z
-x,-y,z
x,-y,-z
-x,y,-z
-x,-y,-z
x,y,-z
-x,y,z
x,-y,z
loop_
_atom_site_type_symbol
_atom_site_label
_atom_site_fract_x
_atom_site_fract_y
_atom_site_fract_z
Si Si1 0.595805 0.397452 0.688414
Si Si2 0.600839 0.064000 0.310912
Si Si3 0.148825 0.325005 0.317271
Si Si4 0.785506 0.436833 0.187768
Si Si5 0.285980 0.165892 0.188165
Si Si6 0.905138 0.208956 0.811711
Si Si7 0.664112 0.287394 0.811889
O O1 0.603791 0.395616 0.500000
O O2 0.500000 0.423789 0.727038
O O3 0.684406 0.426148 0.754984
O O4 0.595582 0.334035 0.757542
O O5 0.600487 0.064118 0.500000
O O6 0.500000 0.076972 0.258817
O O7 0.669618 0.110312 0.254352
O O8 0.621673 0.000000 0.259517
O O9 0.127381 0.324136 0.500000
O O10 0.149969 0.388557 0.253830
O O11 0.097695 0.275130 0.230589
O O12 0.249436 0.306058 0.283764
O O13 0.811409 0.500000 0.233878
O O14 0.785111 0.432194 0.000000
O O15 0.185888 0.179956 0.245813
O O16 0.345956 0.221308 0.222077
O O17 0.281561 0.160977 0.000000
O O18 0.000000 0.185843 0.755243
O O19 0.902966 0.204432 0.000000
O O20 0.679840 0.292769 0.000000
#
# Coordination Sequence:
#
# PCOD9381826 Si02
#       7
#     8   8   8   8   8   8   8
#     4  10  20  31  43  62  89 120 155 199 252 305
#     4   9  19  35  52  71  99 138 180 216 253 298
#     4  10  18  29  48  72  97 122 152 194 241 288
#     4  10  20  33  49  66  85 117 162 204 244 298
#     4   9  18  31  50  78 104 129 167 211 253 294
#     4   9  18  34  55  78 107 139 166 197 243 302
#     4   9  17  30  46  64  90 123 158 195 239 295
#
# _framework density 18.290718999999999
#
# number of rings (size 3 to 8) (size 9 to 14) (size 15 to 20)
#    0.000    2.571    0.000    5.571    0.000    6.857 
#    0.000    5.000    0.000    0.857    0.000    6.000 
#    0.000    0.000    0.000    0.000    0.000    0.000 
#
# Total GULP energy -311839.891498 kJ/mol
# GULP energy per Si atom -5568.569491 kJ/mol
# Density = 1.824909 g / cm^3
# Si number density = 18.290719 Si / 1000 Ang^3
#
#
#
# Elastic Constant Matrix: (Units=GPa)
#
#
# Indices 1 2 3 4 5 6 
#
# 1 64.6637 42.0632 0.5754 0.0000 0.0000 0.0000
# 2 42.0632 123.3692 14.7737 0.0000 0.0000 0.0000
# 3 0.5754 14.7737 16.4612 0.0000 0.0000 0.0000
# 4 0.0000 0.0000 0.0000 39.3159 0.0000 0.0000
# 5 0.0000 0.0000 0.0000 0.0000 16.1036 0.0000
# 6 0.0000 0.0000 0.0000 0.0000 0.0000 15.4558
#
#
#
# Elastic Compliance Matrix: (Units=1/GPa)
#
#
# Indices 1 2 3 4 5 6 
#
# 1 0.020422 -0.007706 0.006202 0.000000 0.000000 0.000000
# 2 -0.007706 0.011989 -0.010491 0.000000 0.000000 0.000000
# 3 0.006202 -0.010491 0.069948 0.000000 0.000000 0.000000
# 4 0.000000 0.000000 0.000000 0.025435 0.000000 0.000000
# 5 0.000000 0.000000 0.000000 0.000000 0.062098 0.000000
# 6 0.000000 0.000000 0.000000 0.000000 0.000000 0.064701
#
#
# Mechanical properties :
#
#
# Convention : Reuss Voigt Hill
#
# Bulk Modulus (GPa) = 12.76008 35.47985 24.11997
# Shear Modulus (GPa) = 16.40933 23.98051 20.19492
#
# Velocity S-wave (km/s) = 2.99848 3.62481 3.32642
# Velocity P-wave (km/s) = 4.35652 6.07938 5.28857
#
# Compressibility (1/GPa) = 0.07836943
#
# Stress axis : x y z
#
# Youngs Moduli (GPa) = 48.96715 83.40764 14.29642
#
# Poissons Ratio (x) = 0.64271 -0.08866
# Poissons Ratio (y) = 0.37732 0.14998
# Poissons Ratio (z) = -0.30369 0.87502
#
# Static dielectric constant tensor:
#      x y z
#    x 1.610990 0.000000 0.000000 
#    y 0.000000 1.644800 0.000000 
#    z 0.000000 0.000000 1.623080 
# 
# From -- ./inp_files/9842.got.cif
#   From: 2010.05.17/outbox.cif.g08.bks.cpg/sg47_5_cif.got.tgz:9842.got - 2010.06.03 20:15:42.
