data_PCOD9381669
_publ_section_title
;
Structure prediction by ZEFSAII (Michael W. Deem and Ramdas Pophale) SiO2 
 PCOD9381669
Probable space group: P M M M
;
_chemical_formula_sum "Si O2"
_cell_formula_units_Z 64
_cell_length_a 8.960307
_cell_length_b 29.495849
_cell_length_c 14.734136
_cell_angle_alpha 90.000000
_cell_angle_beta 90.000000
_cell_angle_gamma 90.000000
_cell_volume 3894.112242
_symmetry_space_group_name_H-M "P M M M"
_symmetry_group_IT_number 47
_symmetry_cell_setting 'orthorhombic'
loop_
_space_group_symop_operation_xyz
x,y,z
-x,-y,z
x,-y,-z
-x,y,-z
-x,-y,-z
x,y,-z
-x,y,z
x,-y,z
loop_
_atom_site_type_symbol
_atom_site_label
_atom_site_fract_x
_atom_site_fract_y
_atom_site_fract_z
Si Si1 0.821965 0.949482 0.282819
Si Si2 0.318972 0.188927 0.102580
Si Si3 0.679453 0.084258 0.105464
Si Si4 0.319312 0.728409 0.228465
Si Si5 0.175028 0.549689 0.890103
Si Si6 0.177985 0.770595 0.605758
Si Si7 0.673570 0.867477 0.391306
Si Si8 0.679611 0.643434 0.894716
O O1 0.763422 0.944817 0.179961
O O2 0.746119 0.909751 0.340419
O O3 0.000000 0.944209 0.285315
O O4 0.784121 0.000000 0.317030
O O5 0.500000 0.189843 0.102023
O O6 0.278486 0.137038 0.122977
O O7 0.269751 0.227075 0.172100
O O8 0.269699 0.199662 0.000000
O O9 0.500000 0.080023 0.116366
O O10 0.713277 0.074008 0.000000
O O11 0.500000 0.728818 0.234572
O O12 0.249299 0.733977 0.327250
O O13 0.274236 0.684272 0.171037
O O14 0.229497 0.500000 0.858395
O O15 0.260863 0.594787 0.861870
O O16 0.000000 0.553458 0.867240
O O17 0.185135 0.549024 0.000000
O O18 0.214079 0.762064 0.500000
O O19 0.245016 0.820100 0.629199
O O20 0.000000 0.771753 0.615598
O O21 0.682389 0.874234 0.500000
O O22 0.500000 0.863398 0.364816
O O23 0.500000 0.642496 0.895867
O O24 0.728235 0.650943 0.000000
#
# Coordination Sequence:
#
# PCOD9381669 Si02
#       8
#     8   8   8   8   8   8   8   8
#     4  11  24  38  52  73 101 130 156 187 232 282
#     4   8  14  26  45  68  92 118 149 184 221 262
#     4   9  18  33  53  74  94 122 163 203 233 266
#     4  10  18  28  46  70  96 127 160 193 230 275
#     4   8  14  25  40  57  81 120 169 213 248 282
#     4  10  21  36  53  73  97 124 154 190 233 280
#     4  10  21  38  60  81  98 119 150 189 233 283
#     4   9  17  27  40  64  98 132 165 201 241 282
#
# _framework density 16.435067
#
# number of rings (size 3 to 8) (size 9 to 14) (size 15 to 20)
#    0.000    2.625    0.000    3.375    0.000    6.500 
#    0.000    3.750    0.000    1.875    0.000    0.000 
#    0.000    0.500    0.000    5.500    0.000    4.250 
#
# Total GULP energy -356874.204431 kJ/mol
# GULP energy per Si atom -5576.159444 kJ/mol
# Density = 1.639766 g / cm^3
# Si number density = 16.435067 Si / 1000 Ang^3
#
#
#
# Elastic Constant Matrix: (Units=GPa)
#
#
# Indices 1 2 3 4 5 6 
#
# 1 30.6076 35.7937 30.6532 0.0000 0.0000 0.0000
# 2 35.7937 97.3497 61.5483 0.0000 0.0000 0.0000
# 3 30.6532 61.5483 63.8420 0.0000 0.0000 0.0000
# 4 0.0000 0.0000 0.0000 17.2973 0.0000 0.0000
# 5 0.0000 0.0000 0.0000 0.0000 17.1685 0.0000
# 6 0.0000 0.0000 0.0000 0.0000 0.0000 24.5805
#
#
#
# Elastic Compliance Matrix: (Units=1/GPa)
#
#
# Indices 1 2 3 4 5 6 
#
# 1 0.067273 -0.011046 -0.021651 0.000000 0.000000 0.000000
# 2 -0.011046 0.028121 -0.021807 0.000000 0.000000 0.000000
# 3 -0.021651 -0.021807 0.047083 0.000000 0.000000 0.000000
# 4 0.000000 0.000000 0.000000 0.057813 0.000000 0.000000
# 5 0.000000 0.000000 0.000000 0.000000 0.058246 0.000000
# 6 0.000000 0.000000 0.000000 0.000000 0.000000 0.040683
#
#
# Mechanical properties :
#
#
# Convention : Reuss Voigt Hill
#
# Bulk Modulus (GPa) = 29.87922 49.75439 39.81681
# Shear Modulus (GPa) = 11.92230 16.06287 13.99258
#
# Velocity S-wave (km/s) = 2.69628 3.12966 2.92102
# Velocity P-wave (km/s) = 5.28326 6.58777 5.97125
#
# Compressibility (1/GPa) = 0.03346807
#
# Stress axis : x y z
#
# Youngs Moduli (GPa) = 14.86480 35.56072 21.23928
#
# Poissons Ratio (x) = 0.39282 0.45985
# Poissons Ratio (y) = 0.16420 0.46316
# Poissons Ratio (z) = 0.32184 0.77547
#
# Static dielectric constant tensor:
#      x y z
#    x 1.549020 0.000000 0.000000 
#    y 0.000000 1.556170 0.000000 
#    z 0.000000 0.000000 1.556580 
# 
# From -- ./inp_files/8312.got.cif
#   From: 2010.05.17/outbox.cif.g08.bks.cpg/sg47_5_cif.got.tgz:8312.got - 2010.06.03 20:15:42.
