data_PCOD9381373
_publ_section_title
;
Structure prediction by ZEFSAII (Michael W. Deem and Ramdas Pophale) SiO2 
 PCOD9381373
Probable space group: P M M M
;
_chemical_formula_sum "Si O2"
_cell_formula_units_Z 37
_cell_length_a 17.436206
_cell_length_b 12.352435
_cell_length_c 8.517188
_cell_angle_alpha 90.000000
_cell_angle_beta 90.000000
_cell_angle_gamma 90.000000
_cell_volume 1834.428555
_symmetry_space_group_name_H-M "P M M M"
_symmetry_group_IT_number 47
_symmetry_cell_setting 'orthorhombic'
loop_
_space_group_symop_operation_xyz
x,y,z
-x,-y,z
x,-y,-z
-x,y,-z
-x,-y,-z
x,y,-z
-x,y,z
x,-y,z
loop_
_atom_site_type_symbol
_atom_site_label
_atom_site_fract_x
_atom_site_fract_y
_atom_site_fract_z
Si Si1 0.000000 0.500000 0.500000
Si Si2 0.672466 0.500000 0.676819
Si Si3 0.587307 0.706364 0.812708
Si Si4 0.700596 0.876477 0.688857
Si Si5 0.146991 0.500000 0.732099
Si Si6 0.851010 0.263867 0.693541
Si Si7 0.000000 0.122978 0.309858
O O1 0.931406 0.500000 0.632157
O O2 0.643236 0.500000 0.500000
O O3 0.639764 0.606590 0.758471
O O4 0.764699 0.500000 0.670470
O O5 0.500000 0.693216 0.755060
O O6 0.626224 0.815960 0.752781
O O7 0.585898 0.707211 0.000000
O O8 0.696731 0.878233 0.500000
O O9 0.774843 0.804058 0.728033
O O10 0.708316 0.000000 0.744359
O O11 0.145364 0.624435 0.790462
O O12 0.852091 0.287040 0.500000
O O13 0.924366 0.190385 0.730020
O O14 0.000000 0.116322 0.500000
O O15 0.000000 0.000000 0.249249
#
# Coordination Sequence:
#
# PCOD9381373 Si02
#       7
#     1   4   8   8   4   8   4
#     4  12  20  28  48  96 134 160 192 232 306 374
#     4  12  22  40  65  96 126 161 206 251 318 374
#     4  11  25  43  63  89 123 164 211 263 319 384
#     4  10  21  37  60  88 121 161 210 265 319 375
#     4  12  20  30  52  87 127 159 192 243 305 368
#     4  10  17  29  47  76 116 156 196 245 303 365
#     4   9  17  26  41  69 111 159 196 237 299 360
#
# _framework density 20.169767
#
# number of rings (size 3 to 8) (size 9 to 14) (size 15 to 20)
#    0.000    1.405    3.784    2.595    1.514    6.486 
#    0.000    2.162    0.000    0.000    0.000    3.784 
#    0.000    2.595    0.000    0.000    0.000    0.000 
#
# Total GULP energy -206026.806100 kJ/mol
# GULP energy per Si atom -5568.292057 kJ/mol
# Density = 2.012386 g / cm^3
# Si number density = 20.169767 Si / 1000 Ang^3
#
#
#
# Elastic Constant Matrix: (Units=GPa)
#
#
# Indices 1 2 3 4 5 6 
#
# 1 166.2369 63.4081 21.4027 0.0000 0.0000 0.0000
# 2 63.4081 183.8482 21.5341 0.0000 0.0000 0.0000
# 3 21.4027 21.5341 11.3560 0.0000 0.0000 0.0000
# 4 0.0000 0.0000 0.0000 21.5234 0.0000 0.0000
# 5 0.0000 0.0000 0.0000 0.0000 40.3644 0.0000
# 6 0.0000 0.0000 0.0000 0.0000 0.0000 18.0817
#
#
#
# Elastic Compliance Matrix: (Units=1/GPa)
#
#
# Indices 1 2 3 4 5 6 
#
# 1 0.008179 -0.001305 -0.012941 0.000000 0.000000 0.000000
# 2 -0.001305 0.007201 -0.011194 0.000000 0.000000 0.000000
# 3 -0.012941 -0.011194 0.133676 0.000000 0.000000 0.000000
# 4 0.000000 0.000000 0.000000 0.046461 0.000000 0.000000
# 5 0.000000 0.000000 0.000000 0.000000 0.024774 0.000000
# 6 0.000000 0.000000 0.000000 0.000000 0.000000 0.055304
#
#
# Mechanical properties :
#
#
# Convention : Reuss Voigt Hill
#
# Bulk Modulus (GPa) = 10.18587 63.79232 36.98909
# Shear Modulus (GPa) = 13.91978 33.00031 23.46005
#
# Velocity S-wave (km/s) = 2.62988 4.04930 3.41417
# Velocity P-wave (km/s) = 3.77925 7.31838 5.82415
#
# Compressibility (1/GPa) = 0.09817524
#
# Stress axis : x y z
#
# Youngs Moduli (GPa) = 122.25689 138.87660 7.48080
#
# Poissons Ratio (x) = 0.18128 0.09681
# Poissons Ratio (y) = 0.15958 0.08374
# Poissons Ratio (z) = 1.58209 1.55461
#
# Static dielectric constant tensor:
#      x y z
#    x 1.680630 0.000000 0.000000 
#    y 0.000000 1.711030 0.000000 
#    z 0.000000 0.000000 1.724290 
# 
# From -- ./inp_files/8699.got.cif
#   From: 2010.05.17/outbox.cif.g08.bks.cpg/sg47_5_cif.got.tgz:8699.got - 2010.06.03 20:15:42.
