data_PCOD9381245
_publ_section_title
;
Structure prediction by ZEFSAII (Michael W. Deem and Ramdas Pophale) SiO2 
 PCOD9381245
Probable space group: P M M M
;
_chemical_formula_sum "Si O2"
_cell_formula_units_Z 64
_cell_length_a 20.839972
_cell_length_b 7.762028
_cell_length_c 20.923971
_cell_angle_alpha 90.000000
_cell_angle_beta 90.000000
_cell_angle_gamma 90.000000
_cell_volume 3384.670885
_symmetry_space_group_name_H-M "P M M M"
_symmetry_group_IT_number 47
_symmetry_cell_setting 'orthorhombic'
loop_
_space_group_symop_operation_xyz
x,y,z
-x,-y,z
x,-y,-z
-x,y,-z
-x,-y,-z
x,y,-z
-x,y,z
x,-y,z
loop_
_atom_site_type_symbol
_atom_site_label
_atom_site_fract_x
_atom_site_fract_y
_atom_site_fract_z
Si Si1 0.759610 0.209878 0.931357
Si Si2 0.807980 0.796429 0.342353
Si Si3 0.620910 0.296515 0.206663
Si Si4 0.429536 0.289232 0.342671
Si Si5 0.230845 0.798847 0.205692
Si Si6 0.073401 0.708050 0.427802
Si Si7 0.392591 0.793186 0.068959
Si Si8 0.687772 0.295112 0.571773
O O1 0.787017 0.275390 0.864098
O O2 0.683508 0.250884 0.931411
O O3 0.763089 0.000000 0.930555
O O4 0.786147 0.268483 0.000000
O O5 0.798041 0.723150 0.270800
O O6 0.876391 0.765170 0.374783
O O7 0.753101 0.728209 0.389315
O O8 0.797240 0.000000 0.337891
O O9 0.632484 0.500000 0.212488
O O10 0.582848 0.238381 0.269206
O O11 0.691516 0.211521 0.208576
O O12 0.585957 0.266924 0.138822
O O13 0.500000 0.233961 0.364002
O O14 0.428644 0.500000 0.343614
O O15 0.371795 0.226126 0.387051
O O16 0.212504 0.000000 0.203918
O O17 0.091931 0.764811 0.500000
O O18 0.073670 0.500000 0.428441
O O19 0.000000 0.764198 0.416239
O O20 0.398474 0.000000 0.068885
O O21 0.418928 0.731418 0.000000
O O22 0.691743 0.224125 0.500000
O O23 0.677608 0.500000 0.566605
#
# Coordination Sequence:
#
# PCOD9381245 Si02
#       8
#     8   8   8   8   8   8   8   8
#     4   7  10  19  36  56  79 111 149 182 213 256
#     4  11  21  31  48  74 104 132 157 192 235 283
#     4  10  17  26  44  66  88 114 148 195 241 282
#     4   9  18  32  48  67  90 116 152 200 251 296
#     4   9  17  28  42  63  93 126 156 186 228 282
#     4   9  19  36  55  73  96 129 166 200 234 277
#     4   8  14  25  41  60  85 117 148 181 226 281
#     4  10  20  34  52  71  91 119 157 199 242 291
#
# _framework density 18.90878
#
# number of rings (size 3 to 8) (size 9 to 14) (size 15 to 20)
#    0.000    2.875    1.250    3.000    0.000    3.250 
#    0.000    1.875    0.000    3.750    0.000    3.500 
#    0.000    0.500    0.000    6.250    0.000    1.125 
#
# Total GULP energy -356559.731002 kJ/mol
# GULP energy per Si atom -5571.245797 kJ/mol
# Density = 1.886574 g / cm^3
# Si number density = 18.908780 Si / 1000 Ang^3
#
#
#
# Elastic Constant Matrix: (Units=GPa)
#
#
# Indices 1 2 3 4 5 6 
#
# 1 61.0516 -6.7865 61.0481 0.0000 0.0000 0.0000
# 2 -6.7865 22.2068 8.8993 0.0000 0.0000 0.0000
# 3 61.0481 8.8993 195.0724 0.0000 0.0000 0.0000
# 4 0.0000 0.0000 0.0000 12.7804 0.0000 0.0000
# 5 0.0000 0.0000 0.0000 0.0000 56.3269 0.0000
# 6 0.0000 0.0000 0.0000 0.0000 0.0000 138.5280
#
#
#
# Elastic Compliance Matrix: (Units=1/GPa)
#
#
# Indices 1 2 3 4 5 6 
#
# 1 0.026494 0.011632 -0.008822 0.000000 0.000000 0.000000
# 2 0.011632 0.050977 -0.005966 0.000000 0.000000 0.000000
# 3 -0.008822 -0.005966 0.008159 0.000000 0.000000 0.000000
# 4 0.000000 0.000000 0.000000 0.078245 0.000000 0.000000
# 5 0.000000 0.000000 0.000000 0.000000 0.017753 0.000000
# 6 0.000000 0.000000 0.000000 0.000000 0.000000 0.007219
#
#
# Mechanical properties :
#
#
# Convention : Reuss Voigt Hill
#
# Bulk Modulus (GPa) = 12.60733 44.96138 28.78435
# Shear Modulus (GPa) = 22.56330 55.87173 39.21751
#
# Velocity S-wave (km/s) = 3.45812 5.44171 4.55910
# Velocity P-wave (km/s) = 4.75676 7.95692 6.55512
#
# Compressibility (1/GPa) = 0.07931893
#
# Stress axis : x y z
#
# Youngs Moduli (GPa) = 37.74413 19.61672 122.55901
#
# Poissons Ratio (x) = -0.22819 1.08122
# Poissons Ratio (y) = -0.43905 0.73117
# Poissons Ratio (z) = 0.33298 0.11703
#
# Static dielectric constant tensor:
#      x y z
#    x 1.613310 0.000000 0.000000 
#    y 0.000000 1.711370 0.000000 
#    z 0.000000 0.000000 1.734560 
# 
# From -- ./inp_files/31513.got.cif
#   From: 2010.05.17/outbox.cif.g08.bks.cpg/sg47_16_cif.got.tgz:31513.got - 2010.06.03 20:15:42.
