data_PCOD9381500
_publ_section_title
;
Structure prediction by ZEFSAII (Michael W. Deem and Ramdas Pophale) SiO2 
 PCOD9381500
Probable space group: P M M M
;
_chemical_formula_sum "Si O2"
_cell_formula_units_Z 64
_cell_length_a 15.182315
_cell_length_b 7.564073
_cell_length_c 29.001826
_cell_angle_alpha 90.000000
_cell_angle_beta 90.000000
_cell_angle_gamma 90.000000
_cell_volume 3330.573728
_symmetry_space_group_name_H-M "P M M M"
_symmetry_group_IT_number 47
_symmetry_cell_setting 'orthorhombic'
loop_
_space_group_symop_operation_xyz
x,y,z
-x,-y,z
x,-y,-z
-x,y,-z
-x,-y,-z
x,y,-z
-x,y,z
x,-y,z
loop_
_atom_site_type_symbol
_atom_site_label
_atom_site_fract_x
_atom_site_fract_y
_atom_site_fract_z
Si Si1 0.360395 0.698401 0.769037
Si Si2 0.786336 0.287632 0.361868
Si Si3 0.405103 0.283328 0.329558
Si Si4 0.599571 0.787159 0.052153
Si Si5 0.829526 0.792702 0.262215
Si Si6 0.286604 0.710869 0.139849
Si Si7 0.898604 0.284152 0.447921
Si Si8 0.094583 0.289595 0.168200
O O1 0.396605 0.500000 0.774193
O O2 0.403737 0.779655 0.723757
O O3 0.258701 0.690880 0.752538
O O4 0.350979 0.782466 0.819519
O O5 0.781740 0.500000 0.364925
O O6 0.685800 0.224001 0.353323
O O7 0.842867 0.245028 0.315995
O O8 0.833572 0.221704 0.407896
O O9 0.500000 0.234565 0.350323
O O10 0.401470 0.500000 0.328183
O O11 0.500000 0.726040 0.063882
O O12 0.670299 0.737234 0.090420
O O13 0.597157 0.000000 0.051064
O O14 0.619872 0.726407 0.000000
O O15 0.898835 0.741159 0.223272
O O16 0.811921 0.000000 0.257342
O O17 0.282245 0.500000 0.148273
O O18 0.186624 0.779683 0.146723
O O19 0.874800 0.229566 0.500000
O O20 0.897403 0.500000 0.447412
O O21 0.000000 0.231688 0.439154
O O22 0.094093 0.500000 0.159997
O O23 0.000000 0.218545 0.151669
#
# Coordination Sequence:
#
# PCOD9381500 Si02
#       8
#     8   8   8   8   8   8   8   8
#     4   8  15  28  43  60  85 117 150 179 212 256
#     4   9  16  27  43  61  83 113 146 178 220 270
#     4   8  13  22  38  59  83 113 146 174 201 246
#     4   9  19  35  51  67  91 124 157 187 227 280
#     4  10  18  27  41  63  91 118 147 183 216 249
#     4   9  17  29  48  73  93 112 148 195 234 265
#     4   8  14  25  42  63  81  99 134 183 225 262
#     4   9  18  33  50  67  93 128 158 182 215 265
#
# _framework density 19.215910000000001
#
# number of rings (size 3 to 8) (size 9 to 14) (size 15 to 20)
#    0.000    3.250    0.000    3.375    0.000    3.750 
#    0.000    3.125    0.000    7.125    0.000    6.125 
#    0.000    0.000    0.000    4.500    0.000    5.000 
#
# Total GULP energy -356284.942272 kJ/mol
# GULP energy per Si atom -5566.952223 kJ/mol
# Density = 1.917217 g / cm^3
# Si number density = 19.215910 Si / 1000 Ang^3
#
#
#
# Elastic Constant Matrix: (Units=GPa)
#
#
# Indices 1 2 3 4 5 6 
#
# 1 128.8832 3.9122 84.2278 0.0000 0.0000 0.0000
# 2 3.9122 49.6680 -3.2327 0.0000 0.0000 0.0000
# 3 84.2278 -3.2327 137.6886 0.0000 0.0000 0.0000
# 4 0.0000 0.0000 0.0000 56.4360 0.0000 0.0000
# 5 0.0000 0.0000 0.0000 0.0000 27.9180 0.0000
# 6 0.0000 0.0000 0.0000 0.0000 0.0000 -0.8902
#
#
#
# Elastic Compliance Matrix: (Units=1/GPa)
#
#
# Indices 1 2 3 4 5 6 
#
# 1 0.013045 -0.001549 -0.008016 0.000000 0.000000 0.000000
# 2 -0.001549 0.020348 0.001425 0.000000 0.000000 0.000000
# 3 -0.008016 0.001425 0.012200 0.000000 0.000000 0.000000
# 4 0.000000 0.000000 0.000000 0.017719 0.000000 0.000000
# 5 0.000000 0.000000 0.000000 0.000000 0.035819 0.000000
# 6 0.000000 0.000000 0.000000 0.000000 0.000000 -1.123338
#
#
# Mechanical properties :
#
#
# Convention : Reuss Voigt Hill
#
# Bulk Modulus (GPa) = 34.11429 54.00607 44.06018
# Shear Modulus (GPa) = -5.00924 32.11490 13.55283
#
# Velocity S-wave (km/s) = -1.61632 4.09255 2.65861
# Velocity P-wave (km/s) = 3.78264 7.10618 5.69237
#
# Compressibility (1/GPa) = 0.02931323
#
# Stress axis : x y z
#
# Youngs Moduli (GPa) = 76.65926 49.14370 81.96748
#
# Poissons Ratio (x) = 0.07614 0.65707
# Poissons Ratio (y) = 0.11876 -0.11684
# Poissons Ratio (z) = 0.61452 -0.07005
#
# Static dielectric constant tensor:
#      x y z
#    x 1.694730 0.000000 0.000000 
#    y 0.000000 1.727440 0.000000 
#    z 0.000000 0.000000 1.676120 
# 
# From -- ./inp_files/34708.got.cif
#   From: 2010.05.17/outbox.cif.g08.bks.cpg/sg47_18_cif.got.tgz:34708.got - 2010.06.03 20:15:42.
