data_PCOD9381223
_publ_section_title
;
Structure prediction by ZEFSAII (Michael W. Deem and Ramdas Pophale) SiO2 
 PCOD9381223
Probable space group: P M M M
;
_chemical_formula_sum "Si O2"
_cell_formula_units_Z 56
_cell_length_a 24.571231
_cell_length_b 14.791585
_cell_length_c 7.408687
_cell_angle_alpha 90.000000
_cell_angle_beta 90.000000
_cell_angle_gamma 90.000000
_cell_volume 2692.668412
_symmetry_space_group_name_H-M "P M M M"
_symmetry_group_IT_number 47
_symmetry_cell_setting 'orthorhombic'
loop_
_space_group_symop_operation_xyz
x,y,z
-x,-y,z
x,-y,-z
-x,y,-z
-x,-y,-z
x,y,-z
-x,y,z
x,-y,z
loop_
_atom_site_type_symbol
_atom_site_label
_atom_site_fract_x
_atom_site_fract_y
_atom_site_fract_z
Si Si1 0.836799 0.605808 0.718961
Si Si2 0.233161 0.104614 0.219375
Si Si3 0.561489 0.104060 0.220057
Si Si4 0.284487 0.397475 0.283074
Si Si5 0.940790 0.712792 0.710829
Si Si6 0.889689 0.897230 0.218067
Si Si7 0.663898 0.784355 0.786768
O O1 0.835863 0.613463 0.500000
O O2 0.844455 0.500000 0.761491
O O3 0.776046 0.631590 0.781872
O O4 0.887358 0.663954 0.788128
O O5 0.171848 0.127346 0.279020
O O6 0.281618 0.167547 0.286784
O O7 0.243737 0.000000 0.266809
O O8 0.232106 0.108920 0.000000
O O9 0.500000 0.126080 0.279061
O O10 0.608677 0.170992 0.284184
O O11 0.573608 0.000000 0.270582
O O12 0.560710 0.106127 0.000000
O O13 0.282032 0.400901 0.500000
O O14 0.294880 0.500000 0.220094
O O15 0.328330 0.322299 0.235078
O O16 0.942510 0.687237 0.500000
O O17 0.930319 0.819790 0.721766
O O18 0.000000 0.690097 0.788874
O O19 0.901463 0.000000 0.276488
O O20 0.889811 0.897685 0.000000
O O21 0.663807 0.803650 0.000000
#
# Coordination Sequence:
#
# PCOD9381223 Si02
#       7
#     8   8   8   8   8   8   8
#     4   8  15  30  50  68  87 113 143 174 215 271
#     4   8  14  25  42  66  92 113 138 176 220 263
#     4   8  14  25  42  67  99 130 156 181 213 258
#     4   9  18  32  48  65  88 119 149 178 220 272
#     4  10  20  31  45  67  89 108 137 180 223 258
#     4   9  18  32  47  61  82 116 151 178 210 258
#     4  10  17  25  45  73  94 115 147 187 224 255
#
# _framework density 20.797214
#
# number of rings (size 3 to 8) (size 9 to 14) (size 15 to 20)
#    0.000    3.143    0.000    3.429    0.000    3.143 
#    0.000    2.857    0.000    4.714    0.000    5.000 
#    0.000    0.000    0.000    0.000    0.000    0.000 
#
# Total GULP energy -312491.448881 kJ/mol
# GULP energy per Si atom -5580.204444 kJ/mol
# Density = 2.074988 g / cm^3
# Si number density = 20.797214 Si / 1000 Ang^3
#
#
#
# Elastic Constant Matrix: (Units=GPa)
#
#
# Indices 1 2 3 4 5 6 
#
# 1 123.9774 83.7692 1.8505 0.0000 0.0000 0.0000
# 2 83.7692 86.1198 -7.5486 0.0000 0.0000 0.0000
# 3 1.8505 -7.5486 67.2062 0.0000 0.0000 0.0000
# 4 0.0000 0.0000 0.0000 12.8823 0.0000 0.0000
# 5 0.0000 0.0000 0.0000 0.0000 0.5395 0.0000
# 6 0.0000 0.0000 0.0000 0.0000 0.0000 21.1938
#
#
#
# Elastic Compliance Matrix: (Units=1/GPa)
#
#
# Indices 1 2 3 4 5 6 
#
# 1 0.024257 -0.023889 -0.003351 0.000000 0.000000 0.000000
# 2 -0.023889 0.035253 0.004617 0.000000 0.000000 0.000000
# 3 -0.003351 0.004617 0.015490 0.000000 0.000000 0.000000
# 4 0.000000 0.000000 0.000000 0.077626 0.000000 0.000000
# 5 0.000000 0.000000 0.000000 0.000000 1.853634 0.000000
# 6 0.000000 0.000000 0.000000 0.000000 0.000000 0.047184
#
#
# Mechanical properties :
#
#
# Convention : Reuss Voigt Hill
#
# Bulk Modulus (GPa) = 33.60681 48.16063 40.88372
# Shear Modulus (GPa) = 2.37123 20.20526 11.28825
#
# Velocity S-wave (km/s) = 1.06894 3.12033 2.33228
# Velocity P-wave (km/s) = 4.20926 6.01577 5.19169
#
# Compressibility (1/GPa) = 0.02975587
#
# Stress axis : x y z
#
# Youngs Moduli (GPa) = 41.22456 28.36601 64.55577
#
# Poissons Ratio (x) = 0.67764 0.21634
# Poissons Ratio (y) = 0.98481 -0.29808
# Poissons Ratio (z) = 0.13815 -0.13098
#
# Static dielectric constant tensor:
#      x y z
#    x 1.746100 0.000000 0.000000 
#    y 0.000000 1.725770 0.000000 
#    z 0.000000 0.000000 1.812150 
# 
# From -- ./inp_files/16720.got.cif
#   From: 2010.05.17/outbox.cif.g08.bks.cpg/sg47_9_cif.got.tgz:16720.got - 2010.06.03 20:15:42.
