data_PCOD9381579
_publ_section_title
;
Structure prediction by ZEFSAII (Michael W. Deem and Ramdas Pophale) SiO2 
 PCOD9381579
Probable space group: P M M M
;
_chemical_formula_sum "Si O2"
_cell_formula_units_Z 64
_cell_length_a 9.094622
_cell_length_b 26.901527
_cell_length_c 18.709303
_cell_angle_alpha 90.000000
_cell_angle_beta 90.000000
_cell_angle_gamma 90.000000
_cell_volume 4577.403465
_symmetry_space_group_name_H-M "P M M M"
_symmetry_group_IT_number 47
_symmetry_cell_setting 'orthorhombic'
loop_
_space_group_symop_operation_xyz
x,y,z
-x,-y,z
x,-y,-z
-x,y,-z
-x,-y,-z
x,y,-z
-x,y,z
x,-y,z
loop_
_atom_site_type_symbol
_atom_site_label
_atom_site_fract_x
_atom_site_fract_y
_atom_site_fract_z
Si Si1 0.675885 0.441736 0.083115
Si Si2 0.669987 0.697071 0.296635
Si Si3 0.668628 0.798553 0.202372
Si Si4 0.174948 0.942267 0.584535
Si Si5 0.174962 0.243842 0.415626
Si Si6 0.323045 0.149155 0.341552
Si Si7 0.823628 0.256633 0.081497
Si Si8 0.176060 0.355616 0.829327
O O1 0.500000 0.434655 0.090895
O O2 0.707141 0.500000 0.095913
O O3 0.761489 0.405310 0.135373
O O4 0.713263 0.430974 0.000000
O O5 0.500000 0.684048 0.309586
O O6 0.671490 0.748017 0.249863
O O7 0.753935 0.712130 0.368771
O O8 0.751231 0.657142 0.246892
O O9 0.500000 0.808215 0.182161
O O10 0.719153 0.840046 0.258906
O O11 0.761739 0.786326 0.132609
O O12 0.203625 0.934374 0.500000
O O13 0.266645 0.903290 0.630077
O O14 0.000000 0.934458 0.595440
O O15 0.207585 0.000000 0.600597
O O16 0.199118 0.250104 0.500000
O O17 0.249349 0.192611 0.388971
O O18 0.000000 0.241336 0.402172
O O19 0.500000 0.153547 0.346266
O O20 0.784604 0.309594 0.117641
O O21 0.000000 0.253910 0.081181
O O22 0.770306 0.253997 0.000000
O O23 0.000000 0.357110 0.822945
#
# Coordination Sequence:
#
# PCOD9381579 Si02
#       8
#     8   8   8   8   8   8   8   8
#     4   9  18  31  44  59  82 112 145 180 215 249
#     4   9  17  29  43  59  81 108 139 173 206 244
#     4   8  16  28  39  55  78 104 134 166 199 236
#     4   9  18  31  44  59  81 108 138 172 208 245
#     4  10  19  29  42  61  85 112 141 172 207 247
#     4  10  19  29  42  60  82 109 142 175 205 242
#     4   9  17  27  39  58  82 106 134 167 201 239
#     4  10  18  28  43  61  83 111 141 173 211 252
#
# _framework density 13.981726
#
# number of rings (size 3 to 8) (size 9 to 14) (size 15 to 20)
#    0.000    2.750    0.000    3.750    0.000    8.250 
#    0.000    1.250    0.000    0.000    0.000    0.000 
#    0.000    1.000    0.000   10.750    0.000    6.250 
#
# Total GULP energy -356562.313294 kJ/mol
# GULP energy per Si atom -5571.286145 kJ/mol
# Density = 1.394990 g / cm^3
# Si number density = 13.981726 Si / 1000 Ang^3
#
#
#
# Elastic Constant Matrix: (Units=GPa)
#
#
# Indices 1 2 3 4 5 6 
#
# 1 57.3160 40.1334 52.6279 0.0000 0.0000 0.0000
# 2 40.1334 67.7304 46.8149 0.0000 0.0000 0.0000
# 3 52.6279 46.8149 94.0743 0.0000 0.0000 0.0000
# 4 0.0000 0.0000 0.0000 27.2439 0.0000 0.0000
# 5 0.0000 0.0000 0.0000 0.0000 23.9740 0.0000
# 6 0.0000 0.0000 0.0000 0.0000 0.0000 23.8348
#
#
#
# Elastic Compliance Matrix: (Units=1/GPa)
#
#
# Indices 1 2 3 4 5 6 
#
# 1 0.042556 -0.013355 -0.017161 0.000000 0.000000 0.000000
# 2 -0.013355 0.026696 -0.005814 0.000000 0.000000 0.000000
# 3 -0.017161 -0.005814 0.023124 0.000000 0.000000 0.000000
# 4 0.000000 0.000000 0.000000 0.036706 0.000000 0.000000
# 5 0.000000 0.000000 0.000000 0.000000 0.041712 0.000000
# 6 0.000000 0.000000 0.000000 0.000000 0.000000 0.041955
#
#
# Mechanical properties :
#
#
# Convention : Reuss Voigt Hill
#
# Bulk Modulus (GPa) = 50.72035 55.36368 53.04201
# Shear Modulus (GPa) = 17.12445 20.31350 18.71898
#
# Velocity S-wave (km/s) = 3.50347 3.81578 3.66295
# Velocity P-wave (km/s) = 7.26090 7.68744 7.47721
#
# Compressibility (1/GPa) = 0.01971595
#
# Stress axis : x y z
#
# Youngs Moduli (GPa) = 23.49866 37.45833 43.24570
#
# Poissons Ratio (x) = 0.50024 0.74215
# Poissons Ratio (y) = 0.31381 0.25144
# Poissons Ratio (z) = 0.40326 0.21779
#
# Static dielectric constant tensor:
#      x y z
#    x 1.469390 0.000000 0.000000 
#    y 0.000000 1.442400 0.000000 
#    z 0.000000 0.000000 1.456360 
# 
# From -- ./inp_files/10187.got.cif
#   From: 2010.05.17/outbox.cif.g08.bks.cpg/sg47_6_cif.got.tgz:10187.got - 2010.06.03 20:15:42.
