data_PCOD9381082
_publ_section_title
;
Structure prediction by ZEFSAII (Michael W. Deem and Ramdas Pophale) SiO2 
 PCOD9381082
Probable space group: I M A 2
;
_chemical_formula_sum "Si O2"
_cell_formula_units_Z 32
_cell_length_a 15.000000
_cell_length_b 9.000000
_cell_length_c 24.000000
_cell_angle_alpha 90.000000
_cell_angle_beta 90.000000
_cell_angle_gamma 90.000000
_cell_volume 3240.000000
_symmetry_space_group_name_H-M "I M A 2"
_symmetry_group_IT_number 46
_symmetry_cell_setting 'orthorhombic'
loop_
_space_group_symop_operation_xyz
x,y,z
-x,-y,z
1/2-x,y,z
1/2+x,-y,z
1/2+x,1/2+y,1/2+z
1/2-x,1/2-y,1/2+z
-x,1/2+y,1/2+z
x,1/2-y,1/2+z
loop_
_atom_site_type_symbol
_atom_site_label
_atom_site_fract_x
_atom_site_fract_y
_atom_site_fract_z
Si Si1 0.528633 0.664052 0.545610
Si Si2 0.150804 0.851894 0.574562
Si Si3 0.353811 0.294276 0.262110
Si Si4 0.906373 0.583637 0.663449
Si Si5 0.400574 0.437581 0.847548
Si Si6 0.902010 0.927750 0.475789
Si Si7 0.094163 0.929070 0.698408
Si Si8 0.344932 0.644554 0.743945
O O1 0.500000 0.500000 0.526024
O O2 0.436554 0.747682 0.564639
O O3 0.590919 0.640594 0.600335
O O4 0.579638 0.763015 0.500061
O O5 0.250000 0.782346 0.569284
O O6 0.142531 0.910876 0.638474
O O7 0.144402 0.977826 0.525722
O O8 0.250000 0.257346 0.267853
O O9 0.390622 0.214287 0.206795
O O10 0.397897 0.223335 0.317239
O O11 0.364138 0.464766 0.245464
O O12 0.842615 0.458478 0.688938
O O13 0.000000 0.500000 0.670447
O O14 0.500000 0.500000 0.851578
O O15 0.364982 0.433419 0.911799
O O16 0.358991 0.545793 0.799391
O O17 0.000000 0.000000 0.471999
O O18 0.084966 0.771081 0.729145
O O19 0.000000 0.000000 0.683529
O O20 0.250000 0.722262 0.749154
#
# Coordination Sequence:
#
# PCOD9381082 Si02
#       8
#     8   8   8   8   8   8   8   8
#     4  10  20  37  60  84 115 151 188 236 288 343
#     4  11  22  37  59  87 118 151 191 238 288 342
#     4  11  21  33  52  80 113 141 177 232 282 322
#     4  10  18  32  54  79 109 148 182 218 272 338
#     4  10  20  38  59  80 108 150 196 229 269 333
#     4   9  20  39  61  82 109 152 199 233 273 339
#     4  12  22  36  56  82 115 147 184 230 285 345
#     4  11  22  36  57  84 115 150 190 236 287 340
#
# _framework density 9.8765429999999999
#
# number of rings (size 3 to 8) (size 9 to 14) (size 15 to 20)
#    0.000    1.500    0.000    9.750    0.000    1.000 
#    0.000    8.125    0.000    1.500    0.000    0.000 
#    0.000    0.000    0.000    0.000    0.000    0.000 
#
# Total GULP energy -178230.613792 kJ/mol
# GULP energy per Si atom -5569.706681 kJ/mol
# Density = 0.985406 g / cm^3
# Si number density = 9.876543 Si / 1000 Ang^3
#
#
#
# Elastic Constant Matrix: (Units=GPa)
#
#
# Indices 1 2 3 4 5 6 
#
# 1 69.2110 9.6786 20.7241 0.0000 0.0000 0.0000
# 2 9.6786 116.4688 57.2860 0.0000 0.0000 0.0000
# 3 20.7241 57.2860 145.1671 0.0000 0.0000 0.0000
# 4 0.0000 0.0000 0.0000 23.3679 0.0000 0.0000
# 5 0.0000 0.0000 0.0000 0.0000 -11.7056 0.0000
# 6 0.0000 0.0000 0.0000 0.0000 0.0000 22.3644
#
#
#
# Elastic Compliance Matrix: (Units=1/GPa)
#
#
# Indices 1 2 3 4 5 6 
#
# 1 0.015099 -0.000241 -0.002060 0.000000 0.000000 0.000000
# 2 -0.000241 0.010658 -0.004171 0.000000 0.000000 0.000000
# 3 -0.002060 -0.004171 0.008829 0.000000 0.000000 0.000000
# 4 0.000000 0.000000 0.000000 0.042794 0.000000 0.000000
# 5 0.000000 0.000000 0.000000 0.000000 -0.085429 0.000000
# 6 0.000000 0.000000 0.000000 0.000000 0.000000 0.044714
#
#
# Mechanical properties :
#
#
# Convention : Reuss Voigt Hill
#
# Bulk Modulus (GPa) = 46.21111 56.24716 51.22914
# Shear Modulus (GPa) = 87.99130 23.01587 55.50359
#
# Velocity S-wave (km/s) = 6.68149 3.41717 5.30657
# Velocity P-wave (km/s) = 9.10869 6.64126 7.97103
#
# Compressibility (1/GPa) = 0.02163982
#
# Stress axis : x y z
#
# Youngs Moduli (GPa) = 66.22837 93.82854 113.26520
#
# Poissons Ratio (x) = 0.02265 0.23336
# Poissons Ratio (y) = 0.01599 0.47246
# Poissons Ratio (z) = 0.13645 0.39139
#
# Static dielectric constant tensor:
#      x y z
#    x 1.741990 0.000000 0.000000 
#    y 0.000000 1.784950 0.000000 
#    z 0.000000 0.000000 1.675850 
# 
# From -- ./inp_files/23664.got.cif
#   From: 2010.05.17/outbox.ucp.g08.bks.cvg/sg46_12_cif.got.tgz:23664.got - 2010.06.11 16:34:52.
