data_PCOD9382238
_publ_section_title
;
Structure prediction by ZEFSAII (Michael W. Deem and Ramdas Pophale) SiO2 
 PCOD9382238
Probable space group: P M M M
;
_chemical_formula_sum "Si O2"
_cell_formula_units_Z 52
_cell_length_a 12.158209
_cell_length_b 9.029570
_cell_length_c 29.501936
_cell_angle_alpha 90.000000
_cell_angle_beta 90.000000
_cell_angle_gamma 90.000000
_cell_volume 3238.822818
_symmetry_space_group_name_H-M "P M M M"
_symmetry_group_IT_number 47
_symmetry_cell_setting 'orthorhombic'
loop_
_space_group_symop_operation_xyz
x,y,z
-x,-y,z
x,-y,-z
-x,y,-z
-x,-y,-z
x,y,-z
-x,y,z
x,-y,z
loop_
_atom_site_type_symbol
_atom_site_label
_atom_site_fract_x
_atom_site_fract_y
_atom_site_fract_z
Si Si1 0.000000 0.322150 0.415146
Si Si2 0.000000 0.679466 0.691008
Si Si3 0.240174 0.679634 0.280133
Si Si4 0.372826 0.319331 0.191424
Si Si5 0.371769 0.178355 0.636807
Si Si6 0.366054 0.829594 0.000000
Si Si7 0.366136 0.670978 0.908395
Si Si8 0.223644 0.822347 0.551212
O O1 0.109042 0.257317 0.437936
O O2 0.000000 0.500000 0.417824
O O3 0.000000 0.277840 0.361965
O O4 0.886541 0.727711 0.714209
O O5 0.000000 0.500000 0.691968
O O6 0.243843 0.500000 0.282305
O O7 0.296019 0.725923 0.232894
O O8 0.309141 0.744291 0.321882
O O9 0.500000 0.273820 0.199041
O O10 0.373359 0.500000 0.189772
O O11 0.335015 0.269338 0.141347
O O12 0.500000 0.219318 0.636287
O O13 0.311555 0.218034 0.589772
O O14 0.364530 0.000000 0.641989
O O15 0.328594 0.754612 0.046689
O O16 0.500000 0.819674 0.000000
O O17 0.335451 0.000000 0.000000
O O18 0.500000 0.673098 0.908113
O O19 0.332185 0.500000 0.911875
O O20 0.259674 0.787159 0.500000
O O21 0.206716 0.000000 0.553798
#
# Coordination Sequence:
#
# PCOD9382238 Si02
#       8
#     4   4   8   8   8   4   8   8
#     4  11  20  34  53  76 100 120 147 187 231 271
#     4   9  18  30  48  73  96 117 145 184 226 269
#     4  10  18  32  51  70  93 121 153 186 225 274
#     4   8  14  24  41  64  86 113 151 187 217 258
#     4  10  21  35  50  70  94 119 150 188 228 270
#     4   9  15  21  31  51  79 112 147 178 214 259
#     4   8  13  22  35  52  76 108 146 183 215 250
#     4  10  21  36  53  72  94 122 154 186 224 273
#
# _framework density 16.055216000000001
#
# number of rings (size 3 to 8) (size 9 to 14) (size 15 to 20)
#    0.000    2.692    1.538    2.077    0.000    3.385 
#    0.000    2.692    0.000    2.769    0.000    2.154 
#    0.000    0.615    0.000    7.846    0.000    2.923 
#
# Total GULP energy -289711.224120 kJ/mol
# GULP energy per Si atom -5571.369695 kJ/mol
# Density = 1.601867 g / cm^3
# Si number density = 16.055216 Si / 1000 Ang^3
#
#
#
# Elastic Constant Matrix: (Units=GPa)
#
#
# Indices 1 2 3 4 5 6 
#
# 1 99.6162 24.5753 73.2429 0.0000 0.0000 0.0000
# 2 24.5753 19.1887 43.0550 0.0000 0.0000 0.0000
# 3 73.2429 43.0550 186.7843 0.0000 0.0000 0.0000
# 4 0.0000 0.0000 0.0000 13.3159 0.0000 0.0000
# 5 0.0000 0.0000 0.0000 0.0000 2.6627 0.0000
# 6 0.0000 0.0000 0.0000 0.0000 0.0000 12.1584
#
#
#
# Elastic Compliance Matrix: (Units=1/GPa)
#
#
# Indices 1 2 3 4 5 6 
#
# 1 0.015502 -0.012872 -0.003112 0.000000 0.000000 0.000000
# 2 -0.012872 0.118630 -0.022298 0.000000 0.000000 0.000000
# 3 -0.003112 -0.022298 0.011714 0.000000 0.000000 0.000000
# 4 0.000000 0.000000 0.000000 0.075098 0.000000 0.000000
# 5 0.000000 0.000000 0.000000 0.000000 0.375554 0.000000
# 6 0.000000 0.000000 0.000000 0.000000 0.000000 0.082248
#
#
# Mechanical properties :
#
#
# Convention : Reuss Voigt Hill
#
# Bulk Modulus (GPa) = 14.43346 65.25950 39.84648
# Shear Modulus (GPa) = 6.42342 16.60846 11.51594
#
# Velocity S-wave (km/s) = 2.00238 3.21979 2.68110
# Velocity P-wave (km/s) = 3.78886 7.38633 5.86998
#
# Compressibility (1/GPa) = 0.06928348
#
# Stress axis : x y z
#
# Youngs Moduli (GPa) = 64.50868 8.42959 85.37013
#
# Poissons Ratio (x) = 0.10850 0.26564
# Poissons Ratio (y) = 0.83033 1.90356
# Poissons Ratio (z) = 0.20073 0.18796
#
# Static dielectric constant tensor:
#      x y z
#    x 1.513510 0.000000 0.000000 
#    y 0.000000 1.536440 0.000000 
#    z 0.000000 0.000000 1.550630 
# 
# From -- ./inp_files/33677.got.cif
#   From: 2010.05.17/outbox.cif.g08.bks.cpg/sg47_17_cif.got.tgz:33677.got - 2010.06.03 20:15:42.
