data_PCOD9382692
_publ_section_title
;
Structure prediction by ZEFSAII (Michael W. Deem and Ramdas Pophale) SiO2 
 PCOD9382692
Probable space group: P M M M
;
_chemical_formula_sum "Si O2"
_cell_formula_units_Z 36
_cell_length_a 12.809896
_cell_length_b 19.978667
_cell_length_c 9.068702
_cell_angle_alpha 90.000000
_cell_angle_beta 90.000000
_cell_angle_gamma 90.000000
_cell_volume 2320.904353
_symmetry_space_group_name_H-M "P M M M"
_symmetry_group_IT_number 47
_symmetry_cell_setting 'orthorhombic'
loop_
_space_group_symop_operation_xyz
x,y,z
-x,-y,z
x,-y,-z
-x,y,-z
-x,-y,-z
x,y,-z
-x,y,z
x,-y,z
loop_
_atom_site_type_symbol
_atom_site_label
_atom_site_fract_x
_atom_site_fract_y
_atom_site_fract_z
Si Si1 0.625992 0.210436 0.673120
Si Si2 0.306773 0.655278 0.175489
Si Si3 0.500000 0.580136 0.326040
Si Si4 0.373343 0.925596 0.828192
Si Si5 0.877116 0.421265 0.325599
O O1 0.647809 0.217980 0.500000
O O2 0.500000 0.215908 0.692800
O O3 0.678100 0.269624 0.765052
O O4 0.659528 0.137442 0.731224
O O5 0.398477 0.611574 0.250162
O O6 0.197986 0.624175 0.229283
O O7 0.316618 0.653259 0.000000
O O8 0.500000 0.500000 0.311940
O O9 0.500000 0.597223 0.500000
O O10 0.500000 0.926440 0.823313
O O11 0.338295 0.000000 0.780724
O O12 0.344540 0.916154 0.000000
O O13 0.856512 0.410081 0.500000
O O14 0.856696 0.500000 0.296445
O O15 0.000000 0.409292 0.299792
#
# Coordination Sequence:
#
# PCOD9382692 Si02
#       5
#     8   8   4   8   8
#     4  10  19  30  45  64  92 129 166 201 236 281
#     4  12  23  33  49  72  99 128 159 200 246 291
#     4  11  23  37  51  67  92 127 164 199 237 289
#     4   8  14  25  41  61  88 122 158 196 237 280
#     4   9  19  37  58  75  93 122 159 199 245 295
#
# _framework density 15.511196
#
# number of rings (size 3 to 8) (size 9 to 14) (size 15 to 20)
#    0.000    2.111    1.111    5.000    0.000    5.778 
#    0.000    3.333    0.000    0.000    0.000    0.000 
#    0.000    0.889    0.000    9.333    0.000    4.444 
#
# Total GULP energy -200854.373381 kJ/mol
# GULP energy per Si atom -5579.288149 kJ/mol
# Density = 1.547589 g / cm^3
# Si number density = 15.511196 Si / 1000 Ang^3
#
#
#
# Elastic Constant Matrix: (Units=GPa)
#
#
# Indices 1 2 3 4 5 6 
#
# 1 39.2267 44.5299 47.9237 0.0000 0.0000 0.0000
# 2 44.5299 121.4472 88.0279 0.0000 0.0000 0.0000
# 3 47.9237 88.0279 121.4554 0.0000 0.0000 0.0000
# 4 0.0000 0.0000 0.0000 30.9569 0.0000 0.0000
# 5 0.0000 0.0000 0.0000 0.0000 13.8419 0.0000
# 6 0.0000 0.0000 0.0000 0.0000 0.0000 -0.2042
#
#
#
# Elastic Compliance Matrix: (Units=1/GPa)
#
#
# Indices 1 2 3 4 5 6 
#
# 1 0.053613 -0.009110 -0.014551 0.000000 0.000000 0.000000
# 2 -0.009110 0.018895 -0.010100 0.000000 0.000000 0.000000
# 3 -0.014551 -0.010100 0.021295 0.000000 0.000000 0.000000
# 4 0.000000 0.000000 0.000000 0.032303 0.000000 0.000000
# 5 0.000000 0.000000 0.000000 0.000000 0.072245 0.000000
# 6 0.000000 0.000000 0.000000 0.000000 0.000000 -4.897840
#
#
# Mechanical properties :
#
#
# Convention : Reuss Voigt Hill
#
# Bulk Modulus (GPa) = 38.05242 71.45470 54.75356
# Shear Modulus (GPa) = -1.08150 15.69544 7.30697
#
# Velocity S-wave (km/s) = -0.83591 3.18445 2.17279
# Velocity P-wave (km/s) = 4.86352 7.72577 6.45528
#
# Compressibility (1/GPa) = 0.02627953
#
# Stress axis : x y z
#
# Youngs Moduli (GPa) = 18.65236 52.92351 46.95860
#
# Poissons Ratio (x) = 0.48216 0.68331
# Poissons Ratio (y) = 0.16993 0.47428
# Poissons Ratio (z) = 0.27142 0.53453
#
# Static dielectric constant tensor:
#      x y z
#    x 1.490830 0.000000 0.000000 
#    y 0.000000 1.524690 0.000000 
#    z 0.000000 0.000000 1.513010 
# 
# From -- ./inp_files/3732.got.cif
#   From: 2010.05.17/outbox.cif.g08.bks.cpg/sg47_2_cif.got.tgz:3732.got - 2010.06.03 20:15:42.
