data_PCOD9382476
_publ_section_title
;
Structure prediction by ZEFSAII (Michael W. Deem and Ramdas Pophale) SiO2 
 PCOD9382476
Probable space group: P M M M
;
_chemical_formula_sum "Si O2"
_cell_formula_units_Z 52
_cell_length_a 23.926728
_cell_length_b 20.034282
_cell_length_c 9.090394
_cell_angle_alpha 90.000000
_cell_angle_beta 90.000000
_cell_angle_gamma 90.000000
_cell_volume 4357.524144
_symmetry_space_group_name_H-M "P M M M"
_symmetry_group_IT_number 47
_symmetry_cell_setting 'orthorhombic'
loop_
_space_group_symop_operation_xyz
x,y,z
-x,-y,z
x,-y,-z
-x,y,-z
-x,-y,-z
x,y,-z
-x,y,z
x,-y,z
loop_
_atom_site_type_symbol
_atom_site_label
_atom_site_fract_x
_atom_site_fract_y
_atom_site_fract_z
Si Si1 0.562019 0.581106 0.328014
Si Si2 0.000000 0.424039 0.821521
Si Si3 0.673844 0.581093 0.831845
Si Si4 0.932231 0.925830 0.171283
Si Si5 0.889803 0.658407 0.177168
Si Si6 0.066784 0.789818 0.325163
Si Si7 0.789016 0.579196 0.675427
O O1 0.568502 0.598595 0.500000
O O2 0.500000 0.602740 0.278103
O O3 0.562143 0.500000 0.321552
O O4 0.615101 0.604753 0.235688
O O5 0.944288 0.384922 0.777921
O O6 0.000000 0.500000 0.767472
O O7 0.000000 0.425895 0.000000
O O8 0.671566 0.500000 0.832274
O O9 0.727625 0.598373 0.734515
O O10 0.680968 0.603043 0.000000
O O11 0.915222 0.862871 0.268426
O O12 0.000000 0.927097 0.175855
O O13 0.913197 0.000000 0.218220
O O14 0.916698 0.916053 0.000000
O O15 0.900373 0.731850 0.241171
O O16 0.835829 0.622514 0.243918
O O17 0.886761 0.660036 0.000000
O O18 0.073986 0.784098 0.500000
O O19 0.000000 0.782376 0.293101
O O20 0.792100 0.587549 0.500000
O O21 0.797409 0.500000 0.708118
#
# Coordination Sequence:
#
# PCOD9382476 Si02
#       7
#     8   4   8   8   8   8   8
#     4   8  13  21  33  49  69  91 111 132 164 206
#     4   9  18  30  43  57  68  81 106 143 185 226
#     4   9  16  25  37  52  68  87 112 141 172 208
#     4   8  14  25  41  59  77  96 117 137 159 195
#     4  11  20  31  45  57  71  90 115 147 182 222
#     4  10  19  29  41  57  78  97 114 138 171 213
#     4  10  20  32  43  54  69  89 114 147 187 227
#
# _framework density 11.933382
#
# number of rings (size 3 to 8) (size 9 to 14) (size 15 to 20)
#    0.000    2.692    0.769    3.231    0.000    4.615 
#    0.000    3.077    0.000    1.846    0.000    0.000 
#    0.000    0.000    0.000    0.000    0.000    0.000 
#
# Total GULP energy -289590.576177 kJ/mol
# GULP energy per Si atom -5569.049542 kJ/mol
# Density = 1.190622 g / cm^3
# Si number density = 11.933382 Si / 1000 Ang^3
#
#
#
# Elastic Constant Matrix: (Units=GPa)
#
#
# Indices 1 2 3 4 5 6 
#
# 1 80.2415 33.5717 40.9631 0.0000 0.0000 0.0000
# 2 33.5717 66.4184 36.5858 0.0000 0.0000 0.0000
# 3 40.9631 36.5858 59.9949 0.0000 0.0000 0.0000
# 4 0.0000 0.0000 0.0000 14.4945 0.0000 0.0000
# 5 0.0000 0.0000 0.0000 0.0000 19.4132 0.0000
# 6 0.0000 0.0000 0.0000 0.0000 0.0000 0.8147
#
#
#
# Elastic Compliance Matrix: (Units=1/GPa)
#
#
# Indices 1 2 3 4 5 6 
#
# 1 0.019763 -0.003850 -0.011146 0.000000 0.000000 0.000000
# 2 -0.003850 0.023422 -0.011654 0.000000 0.000000 0.000000
# 3 -0.011146 -0.011654 0.031386 0.000000 0.000000 0.000000
# 4 0.000000 0.000000 0.000000 0.068992 0.000000 0.000000
# 5 0.000000 0.000000 0.000000 0.000000 0.051511 0.000000
# 6 0.000000 0.000000 0.000000 0.000000 0.000000 1.227415
#
#
# Mechanical properties :
#
#
# Convention : Reuss Voigt Hill
#
# Bulk Modulus (GPa) = 47.01531 47.65513 47.33522
# Shear Modulus (GPa) = 3.37182 13.31344 8.34263
#
# Velocity S-wave (km/s) = 1.68276 3.34375 2.64692
# Velocity P-wave (km/s) = 6.57718 7.41138 7.00670
#
# Compressibility (1/GPa) = 0.02126967
#
# Stress axis : x y z
#
# Youngs Moduli (GPa) = 50.59923 42.69561 31.86184
#
# Poissons Ratio (x) = 0.16436 0.35514
# Poissons Ratio (y) = 0.19479 0.37133
# Poissons Ratio (z) = 0.56399 0.49759
#
# Static dielectric constant tensor:
#      x y z
#    x 1.379250 0.000000 0.000000 
#    y 0.000000 1.372280 0.000000 
#    z 0.000000 0.000000 1.396560 
# 
# From -- ./inp_files/12798.got.cif
#   From: 2010.05.17/outbox.cif.g08.bks.cpg/sg47_7_cif.got.tgz:12798.got - 2010.06.03 20:15:42.
