data_PCOD9382868
_publ_section_title
;
Structure prediction by ZEFSAII (Michael W. Deem and Ramdas Pophale) SiO2 
 PCOD9382868
Probable space group: P M M M
;
_chemical_formula_sum "Si O2"
_cell_formula_units_Z 48
_cell_length_a 34.965193
_cell_length_b 8.081318
_cell_length_c 9.312346
_cell_angle_alpha 90.000000
_cell_angle_beta 90.000000
_cell_angle_gamma 90.000000
_cell_volume 2631.341591
_symmetry_space_group_name_H-M "P M M M"
_symmetry_group_IT_number 47
_symmetry_cell_setting 'orthorhombic'
loop_
_space_group_symop_operation_xyz
x,y,z
-x,-y,z
x,-y,-z
-x,y,-z
-x,-y,-z
x,y,-z
-x,y,z
x,-y,z
loop_
_atom_site_type_symbol
_atom_site_label
_atom_site_fract_x
_atom_site_fract_y
_atom_site_fract_z
Si Si1 0.544111 0.186469 0.674427
Si Si2 0.117416 0.803565 0.663542
Si Si3 0.957284 0.699974 0.167099
Si Si4 0.404638 0.500000 0.325366
Si Si5 0.808862 0.305531 0.834507
Si Si6 0.272557 0.817091 0.825343
Si Si7 0.322870 0.500000 0.174509
O O1 0.544059 0.186102 0.500000
O O2 0.500000 0.215262 0.718824
O O3 0.571605 0.335746 0.717684
O O4 0.555374 0.000000 0.720452
O O5 0.116039 0.743687 0.500000
O O6 0.077387 0.766932 0.740449
O O7 0.152874 0.723805 0.746344
O O8 0.123607 0.000000 0.664074
O O9 0.956170 0.500000 0.172483
O O10 0.000000 0.752277 0.213710
O O11 0.952576 0.747874 0.000000
O O12 0.400941 0.500000 0.500000
O O13 0.363756 0.500000 0.249924
O O14 0.799330 0.500000 0.835069
O O15 0.771270 0.212316 0.778560
O O16 0.815774 0.254337 0.000000
O O17 0.299205 0.664327 0.782523
O O18 0.285773 0.000000 0.780768
O O19 0.271506 0.813218 0.000000
O O20 0.326507 0.500000 0.000000
#
# Coordination Sequence:
#
# PCOD9382868 Si02
#       7
#     8   8   8   4   8   8   4
#     4   8  14  26  46  72 100 131 171 219 265 308
#     4  11  24  37  49  74 111 143 170 202 248 309
#     4   9  19  37  59  80 101 129 170 216 256 298
#     4  10  19  30  48  74 102 132 170 215 263 310
#     4  10  19  34  58  83 102 124 165 219 264 306
#     4   9  17  32  55  78 100 130 170 216 260 303
#     4  10  20  35  51  73 104 138 177 213 252 314
#
# _framework density 18.241645999999999
#
# number of rings (size 3 to 8) (size 9 to 14) (size 15 to 20)
#    0.000    2.500    0.833    2.750    0.000    7.000 
#    0.000    3.333    0.000    2.000    0.000    1.167 
#    0.000    0.000    0.000    0.000    0.000    0.000 
#
# Total GULP energy -267706.793013 kJ/mol
# GULP energy per Si atom -5577.224854 kJ/mol
# Density = 1.820013 g / cm^3
# Si number density = 18.241646 Si / 1000 Ang^3
#
#
#
# Elastic Constant Matrix: (Units=GPa)
#
#
# Indices 1 2 3 4 5 6 
#
# 1 137.8843 74.4984 39.7064 0.0000 0.0000 0.0000
# 2 74.4984 111.6610 26.0939 0.0000 0.0000 0.0000
# 3 39.7064 26.0939 34.4660 0.0000 0.0000 0.0000
# 4 0.0000 0.0000 0.0000 14.8073 0.0000 0.0000
# 5 0.0000 0.0000 0.0000 0.0000 48.8449 0.0000
# 6 0.0000 0.0000 0.0000 0.0000 0.0000 2.5320
#
#
#
# Elastic Compliance Matrix: (Units=1/GPa)
#
#
# Indices 1 2 3 4 5 6 
#
# 1 0.014153 -0.006843 -0.011124 0.000000 0.000000 0.000000
# 2 -0.006843 0.014189 -0.002859 0.000000 0.000000 0.000000
# 3 -0.011124 -0.002859 0.043994 0.000000 0.000000 0.000000
# 4 0.000000 0.000000 0.000000 0.067534 0.000000 0.000000
# 5 0.000000 0.000000 0.000000 0.000000 0.020473 0.000000
# 6 0.000000 0.000000 0.000000 0.000000 0.000000 0.394944
#
#
# Mechanical properties :
#
#
# Convention : Reuss Voigt Hill
#
# Bulk Modulus (GPa) = 32.59026 62.73430 47.66228
# Shear Modulus (GPa) = 8.23493 22.81769 15.52631
#
# Velocity S-wave (km/s) = 2.12701 3.54058 2.92061
# Velocity P-wave (km/s) = 4.89253 7.15400 6.12848
#
# Compressibility (1/GPa) = 0.03068401
#
# Stress axis : x y z
#
# Youngs Moduli (GPa) = 70.65517 70.47480 22.73024
#
# Poissons Ratio (x) = 0.48227 0.25286
# Poissons Ratio (y) = 0.48351 0.06499
# Poissons Ratio (z) = 0.78599 0.20149
#
# Static dielectric constant tensor:
#      x y z
#    x 1.598850 0.000000 0.000000 
#    y 0.000000 1.654480 0.000000 
#    z 0.000000 0.000000 1.612430 
# 
# From -- ./inp_files/2578.got.cif
#   From: 2010.05.17/outbox.cif.g08.bks.cpg/sg47_2_cif.got.tgz:2578.got - 2010.06.03 20:15:42.
