data_PCOD9382045
_publ_section_title
;
Structure prediction by ZEFSAII (Michael W. Deem and Ramdas Pophale) SiO2 
 PCOD9382045
Probable space group: P M M M
;
_chemical_formula_sum "Si O2"
_cell_formula_units_Z 64
_cell_length_a 32.298722
_cell_length_b 14.855122
_cell_length_c 8.365349
_cell_angle_alpha 90.000000
_cell_angle_beta 90.000000
_cell_angle_gamma 90.000000
_cell_volume 4013.706628
_symmetry_space_group_name_H-M "P M M M"
_symmetry_group_IT_number 47
_symmetry_cell_setting 'orthorhombic'
loop_
_space_group_symop_operation_xyz
x,y,z
-x,-y,z
x,-y,-z
-x,y,-z
-x,-y,-z
x,y,-z
-x,y,z
x,-y,z
loop_
_atom_site_type_symbol
_atom_site_label
_atom_site_fract_x
_atom_site_fract_y
_atom_site_fract_z
Si Si1 0.546958 0.603063 0.307196
Si Si2 0.134927 0.604408 0.806415
Si Si3 0.340598 0.099906 0.194726
Si Si4 0.955478 0.608950 0.810290
Si Si5 0.705908 0.603286 0.806854
Si Si6 0.375187 0.287099 0.193060
Si Si7 0.785889 0.287707 0.310949
Si Si8 0.756038 0.101284 0.807076
O O1 0.547331 0.603526 0.500000
O O2 0.500000 0.625491 0.255601
O O3 0.555845 0.500000 0.255215
O O4 0.582025 0.669583 0.246825
O O5 0.141207 0.500000 0.756021
O O6 0.089554 0.637111 0.747299
O O7 0.172605 0.665603 0.752278
O O8 0.133664 0.603870 0.000000
O O9 0.367154 0.184950 0.249250
O O10 0.292362 0.113451 0.238911
O O11 0.353517 0.000000 0.248515
O O12 0.341494 0.099366 0.000000
O O13 0.955019 0.500000 0.799088
O O14 0.000000 0.639788 0.742196
O O15 0.956067 0.630086 0.000000
O O16 0.708006 0.500000 0.750535
O O17 0.663813 0.652224 0.752406
O O18 0.746011 0.659472 0.756789
O O19 0.705086 0.602084 0.000000
O O20 0.374345 0.286601 0.000000
O O21 0.784964 0.294707 0.500000
O O22 0.781890 0.183686 0.260626
O O23 0.768488 0.000000 0.758246
O O24 0.757569 0.105211 0.000000
#
# Coordination Sequence:
#
# PCOD9382045 Si02
#       8
#     8   8   8   8   8   8   8   8
#     4   9  19  35  51  67  92 125 154 181 220 271
#     4   9  17  29  45  63  87 124 164 197 230 273
#     4   8  14  27  49  73  93 113 140 179 226 272
#     4   7  10  19  38  63  85 106 143 197 245 275
#     4  10  20  33  47  64  90 123 158 194 228 266
#     4  10  18  30  51  75  94 112 146 193 230 263
#     4  12  23  31  42  63  95 128 156 190 227 269
#     4   9  17  33  55  70  84 114 154 192 231 275
#
# _framework density 15.945361
#
# number of rings (size 3 to 8) (size 9 to 14) (size 15 to 20)
#    0.000    2.750    1.250    4.125    0.000    3.750 
#    0.000    0.625    0.000    1.125    0.000    4.375 
#    0.000    0.500    0.000    5.750    0.000    1.875 
#
# Total GULP energy -356546.002564 kJ/mol
# GULP energy per Si atom -5571.031290 kJ/mol
# Density = 1.590907 g / cm^3
# Si number density = 15.945361 Si / 1000 Ang^3
#
#
#
# Elastic Constant Matrix: (Units=GPa)
#
#
# Indices 1 2 3 4 5 6 
#
# 1 136.8446 82.4587 12.8592 0.0000 0.0000 0.0000
# 2 82.4587 124.9105 16.5993 0.0000 0.0000 0.0000
# 3 12.8592 16.5993 7.5512 0.0000 0.0000 0.0000
# 4 0.0000 0.0000 0.0000 2.0655 0.0000 0.0000
# 5 0.0000 0.0000 0.0000 0.0000 -128.7862 0.0000
# 6 0.0000 0.0000 0.0000 0.0000 0.0000 6.5708
#
#
#
# Elastic Compliance Matrix: (Units=1/GPa)
#
#
# Indices 1 2 3 4 5 6 
#
# 1 0.012235 -0.007498 -0.004352 0.000000 0.000000 0.000000
# 2 -0.007498 0.015905 -0.022194 0.000000 0.000000 0.000000
# 3 -0.004352 -0.022194 0.188626 0.000000 0.000000 0.000000
# 4 0.000000 0.000000 0.000000 0.484142 0.000000 0.000000
# 5 0.000000 0.000000 0.000000 0.000000 -0.007765 0.000000
# 6 0.000000 0.000000 0.000000 0.000000 0.000000 0.152189
#
#
# Mechanical properties :
#
#
# Convention : Reuss Voigt Hill
#
# Bulk Modulus (GPa) = 6.72595 54.79342 30.75968
# Shear Modulus (GPa) = 5.19222 -13.53738 -4.17258
#
# Velocity S-wave (km/s) = 1.80647 -2.91690 -1.61941
# Velocity P-wave (km/s) = 2.92889 4.80557 3.97944
#
# Compressibility (1/GPa) = 0.14867796
#
# Stress axis : x y z
#
# Youngs Moduli (GPa) = 81.73379 62.87312 5.30150
#
# Poissons Ratio (x) = 0.47145 0.02307
# Poissons Ratio (y) = 0.61287 0.11766
# Poissons Ratio (z) = 0.35570 1.39538
#
# Static dielectric constant tensor:
#      x y z
#    x 1.541470 0.000000 0.000000 
#    y 0.000000 1.531590 0.000000 
#    z 0.000000 0.000000 1.548900 
# 
# From -- ./inp_files/14349.got.cif
#   From: 2010.05.17/outbox.cif.g08.bks.cpg/sg47_8_cif.got.tgz:14349.got - 2010.06.03 20:15:42.
