data_PCOD9382323
_publ_section_title
;
Structure prediction by ZEFSAII (Michael W. Deem and Ramdas Pophale) SiO2 
 PCOD9382323
Probable space group: P M M M
;
_chemical_formula_sum "Si O2"
_cell_formula_units_Z 48
_cell_length_a 7.818443
_cell_length_b 17.325971
_cell_length_c 15.678686
_cell_angle_alpha 90.000000
_cell_angle_beta 90.000000
_cell_angle_gamma 90.000000
_cell_volume 2123.867992
_symmetry_space_group_name_H-M "P M M M"
_symmetry_group_IT_number 47
_symmetry_cell_setting 'orthorhombic'
loop_
_space_group_symop_operation_xyz
x,y,z
-x,-y,z
x,-y,-z
-x,y,-z
-x,-y,-z
x,y,-z
-x,y,z
x,-y,z
loop_
_atom_site_type_symbol
_atom_site_label
_atom_site_fract_x
_atom_site_fract_y
_atom_site_fract_z
Si Si1 0.709882 0.089131 0.000000
Si Si2 0.195634 0.086659 0.368082
Si Si3 0.694454 0.907010 0.181217
Si Si4 0.790141 0.500000 0.598509
Si Si5 0.793022 0.592034 0.906286
Si Si6 0.696671 0.750165 0.409293
Si Si7 0.799963 0.364209 0.723078
O O1 0.761076 0.124631 0.090823
O O2 0.500000 0.087987 0.000000
O O3 0.770227 0.000000 0.000000
O O4 0.200248 0.102135 0.266529
O O5 0.293512 0.157633 0.407786
O O6 0.000000 0.088298 0.397332
O O7 0.264433 0.000000 0.382416
O O8 0.500000 0.879052 0.196395
O O9 0.683240 0.000000 0.169126
O O10 0.732173 0.500000 0.500000
O O11 0.732695 0.426599 0.654658
O O12 0.000000 0.500000 0.595295
O O13 0.760738 0.500000 0.898375
O O14 0.727496 0.630740 0.818842
O O15 0.000000 0.601441 0.909075
O O16 0.728033 0.617395 0.000000
O O17 0.773031 0.722732 0.500000
O O18 0.500000 0.726396 0.406325
O O19 0.783368 0.716286 0.325586
O O20 0.000000 0.383162 0.732628
#
# Coordination Sequence:
#
# PCOD9382323 Si02
#       7
#     4   8   8   4   8   8   8
#     4   7  10  18  37  67  99 131 167 202 241 300
#     4  10  21  37  58  83 108 135 174 228 289 349
#     4   8  13  24  45  72 101 133 167 204 251 311
#     4   9  16  26  46  80 116 149 189 233 274 321
#     4   8  13  24  48  85 123 154 188 230 274 323
#     4  11  25  42  58  78 107 145 188 235 289 346
#     4  10  18  32  56  85 116 152 192 233 278 327
#
# _framework density 22.600275
#
# number of rings (size 3 to 8) (size 9 to 14) (size 15 to 20)
#    0.000    2.833    0.833    3.000    0.000    3.333 
#    0.000    2.500    1.833    4.500    0.000    1.167 
#    0.000    0.000    0.000    0.000    0.000    0.000 
#
# Total GULP energy -267546.347311 kJ/mol
# GULP energy per Si atom -5573.882236 kJ/mol
# Density = 2.254884 g / cm^3
# Si number density = 22.600275 Si / 1000 Ang^3
#
#
#
# Elastic Constant Matrix: (Units=GPa)
#
#
# Indices 1 2 3 4 5 6 
#
# 1 31.1169 -2.2979 14.2892 0.0000 0.0000 0.0000
# 2 -2.2979 65.0788 44.2890 0.0000 0.0000 0.0000
# 3 14.2892 44.2890 223.4998 0.0000 0.0000 0.0000
# 4 0.0000 0.0000 0.0000 16.5545 0.0000 0.0000
# 5 0.0000 0.0000 0.0000 0.0000 8.2266 0.0000
# 6 0.0000 0.0000 0.0000 0.0000 0.0000 -168.0930
#
#
#
# Elastic Compliance Matrix: (Units=1/GPa)
#
#
# Indices 1 2 3 4 5 6 
#
# 1 0.033629 0.003064 -0.002757 0.000000 0.000000 0.000000
# 2 0.003064 0.018040 -0.003771 0.000000 0.000000 0.000000
# 3 -0.002757 -0.003771 0.005398 0.000000 0.000000 0.000000
# 4 0.000000 0.000000 0.000000 0.060406 0.000000 0.000000
# 5 0.000000 0.000000 0.000000 0.000000 0.121556 0.000000
# 6 0.000000 0.000000 0.000000 0.000000 0.000000 -0.005949
#
#
# Mechanical properties :
#
#
# Convention : Reuss Voigt Hill
#
# Bulk Modulus (GPa) = 19.94449 48.02845 33.98647
# Shear Modulus (GPa) = 19.47630 -11.10135 4.18747
#
# Velocity S-wave (km/s) = 2.93878 -2.21872 1.36267
# Velocity P-wave (km/s) = 4.51213 3.83846 4.18886
#
# Compressibility (1/GPa) = 0.05013916
#
# Stress axis : x y z
#
# Youngs Moduli (GPa) = 29.73598 55.43132 185.26145
#
# Poissons Ratio (x) = -0.16983 0.51080
# Poissons Ratio (y) = -0.09111 0.69858
# Poissons Ratio (z) = 0.08199 0.20902
#
# Static dielectric constant tensor:
#      x y z
#    x 1.837930 0.000000 0.000000 
#    y 0.000000 1.856390 0.000000 
#    z 0.000000 0.000000 1.916990 
# 
# From -- ./inp_files/21062.got.cif
#   From: 2010.05.17/outbox.cif.g08.bks.cpg/sg47_11_cif.got.tgz:21062.got - 2010.06.03 20:15:42.
