data_PCOD9382567
_publ_section_title
;
Structure prediction by ZEFSAII (Michael W. Deem and Ramdas Pophale) SiO2 
 PCOD9382567
Probable space group: P M M M
;
_chemical_formula_sum "Si O2"
_cell_formula_units_Z 56
_cell_length_a 19.913425
_cell_length_b 7.521308
_cell_length_c 19.125919
_cell_angle_alpha 90.000000
_cell_angle_beta 90.000000
_cell_angle_gamma 90.000000
_cell_volume 2864.584571
_symmetry_space_group_name_H-M "P M M M"
_symmetry_group_IT_number 47
_symmetry_cell_setting 'orthorhombic'
loop_
_space_group_symop_operation_xyz
x,y,z
-x,-y,z
x,-y,-z
-x,y,-z
-x,-y,-z
x,y,-z
-x,y,z
x,-y,z
loop_
_atom_site_type_symbol
_atom_site_label
_atom_site_fract_x
_atom_site_fract_y
_atom_site_fract_z
Si Si1 0.709214 0.713758 0.708263
Si Si2 0.797053 0.788354 0.421735
Si Si3 0.926612 0.787280 0.175652
Si Si4 0.352955 0.282904 0.922445
Si Si5 0.575115 0.717067 0.781154
Si Si6 0.925205 0.216993 0.336730
Si Si7 0.219659 0.711919 0.152045
O O1 0.709101 0.500000 0.711820
O O2 0.736845 0.761356 0.632683
O O3 0.634478 0.774261 0.728986
O O4 0.758943 0.779054 0.770430
O O5 0.786613 0.718218 0.500000
O O6 0.864650 0.717904 0.384626
O O7 0.806147 0.000000 0.427376
O O8 0.917951 0.723966 0.256047
O O9 0.857815 0.747252 0.135915
O O10 0.000000 0.723157 0.150262
O O11 0.930349 0.000000 0.178505
O O12 0.353811 0.500000 0.923246
O O13 0.401491 0.229458 0.859120
O O14 0.277437 0.225880 0.900896
O O15 0.370972 0.222324 0.000000
O O16 0.500000 0.777496 0.765110
O O17 0.574671 0.500000 0.780308
O O18 0.000000 0.267427 0.360828
O O19 0.923058 0.000000 0.335860
O O20 0.226461 0.500000 0.154347
#
# Coordination Sequence:
#
# PCOD9382567 Si02
#       7
#     8   8   8   8   8   8   8
#     4   9  17  29  44  63  88 115 142 175 215 256
#     4  10  19  29  44  65  86 112 147 183 217 257
#     4   9  16  26  42  62  82 108 145 187 225 257
#     4   8  14  24  39  63  94 121 142 169 209 255
#     4   8  14  25  43  67  91 115 144 175 207 249
#     4   8  14  25  40  59  83 108 136 174 218 258
#     4   9  16  26  42  63  86 114 146 177 212 256
#
# _framework density 19.549081999999999
#
# number of rings (size 3 to 8) (size 9 to 14) (size 15 to 20)
#    0.000    3.286    1.429    2.571    0.000    1.143 
#    0.000    2.857    0.000    2.143    0.000    7.000 
#    0.000    0.000    0.000    6.286    0.000    6.286 
#
# Total GULP energy -312036.959216 kJ/mol
# GULP energy per Si atom -5572.088557 kJ/mol
# Density = 1.950459 g / cm^3
# Si number density = 19.549082 Si / 1000 Ang^3
#
#
#
# Elastic Constant Matrix: (Units=GPa)
#
#
# Indices 1 2 3 4 5 6 
#
# 1 143.1275 -3.6368 22.9187 0.0000 0.0000 0.0000
# 2 -3.6368 46.5524 -3.5351 0.0000 0.0000 0.0000
# 3 22.9187 -3.5351 41.0682 0.0000 0.0000 0.0000
# 4 0.0000 0.0000 0.0000 -64.2202 0.0000 0.0000
# 5 0.0000 0.0000 0.0000 0.0000 14.7935 0.0000
# 6 0.0000 0.0000 0.0000 0.0000 0.0000 14.1684
#
#
#
# Elastic Compliance Matrix: (Units=1/GPa)
#
#
# Indices 1 2 3 4 5 6 
#
# 1 0.007676 0.000276 -0.004260 0.000000 0.000000 0.000000
# 2 0.000276 0.021632 0.001708 0.000000 0.000000 0.000000
# 3 -0.004260 0.001708 0.026874 0.000000 0.000000 0.000000
# 4 0.000000 0.000000 0.000000 -0.015571 0.000000 0.000000
# 5 0.000000 0.000000 0.000000 0.000000 0.067597 0.000000
# 6 0.000000 0.000000 0.000000 0.000000 0.000000 0.070580
#
#
# Mechanical properties :
#
#
# Convention : Reuss Voigt Hill
#
# Bulk Modulus (GPa) = 19.36823 29.13796 24.25309
# Shear Modulus (GPa) = 24.93146 7.28175 16.10660
#
# Velocity S-wave (km/s) = 3.57505 1.93208 2.87349
# Velocity P-wave (km/s) = 5.19329 4.46258 4.84174
#
# Compressibility (1/GPa) = 0.05163095
#
# Stress axis : x y z
#
# Youngs Moduli (GPa) = 130.27751 46.22682 37.21060
#
# Poissons Ratio (x) = -0.01277 0.15851
# Poissons Ratio (y) = -0.03598 -0.06355
# Poissons Ratio (z) = 0.55497 -0.07895
#
# Static dielectric constant tensor:
#      x y z
#    x 1.709970 0.000000 0.000000 
#    y 0.000000 1.761000 0.000000 
#    z 0.000000 0.000000 1.670690 
# 
# From -- ./inp_files/9829.got.cif
#   From: 2010.05.17/outbox.cif.g08.bks.cpg/sg47_5_cif.got.tgz:9829.got - 2010.06.03 20:15:42.
