data_PCOD9382616
_publ_section_title
;
Structure prediction by ZEFSAII (Michael W. Deem and Ramdas Pophale) SiO2 
 PCOD9382616
Probable space group: P M M M
;
_chemical_formula_sum "Si O2"
_cell_formula_units_Z 44
_cell_length_a 22.305061
_cell_length_b 13.047831
_cell_length_c 9.248681
_cell_angle_alpha 90.000000
_cell_angle_beta 90.000000
_cell_angle_gamma 90.000000
_cell_volume 2691.668292
_symmetry_space_group_name_H-M "P M M M"
_symmetry_group_IT_number 47
_symmetry_cell_setting 'orthorhombic'
loop_
_space_group_symop_operation_xyz
x,y,z
-x,-y,z
x,-y,-z
-x,y,-z
-x,-y,-z
x,y,-z
-x,y,z
x,-y,z
loop_
_atom_site_type_symbol
_atom_site_label
_atom_site_fract_x
_atom_site_fract_y
_atom_site_fract_z
Si Si1 0.316067 0.307865 0.670495
Si Si2 0.138504 0.183034 0.831172
Si Si3 0.434221 0.623109 0.833528
Si Si4 0.183559 0.617792 0.325673
Si Si5 0.276954 0.118668 0.836519
Si Si6 0.071782 0.000000 0.669378
O O1 0.321352 0.319510 0.500000
O O2 0.376213 0.345827 0.745038
O O3 0.253889 0.364591 0.714520
O O4 0.306356 0.191221 0.719146
O O5 0.145558 0.294069 0.754707
O O6 0.205446 0.135125 0.827398
O O7 0.097136 0.101820 0.747584
O O8 0.121171 0.193044 0.000000
O O9 0.500000 0.658180 0.779083
O O10 0.435626 0.500000 0.834706
O O11 0.428299 0.657593 0.000000
O O12 0.178993 0.631913 0.500000
O O13 0.167034 0.500000 0.291950
O O14 0.290880 0.000000 0.816901
O O15 0.294812 0.150061 0.000000
O O16 0.089910 0.000000 0.500000
O O17 0.000000 0.000000 0.677039
#
# Coordination Sequence:
#
# PCOD9382616 Si02
#       6
#     8   8   8   8   8   4
#     4  10  19  29  45  72 100 127 161 201 247 296
#     4  10  19  33  53  78 105 133 170 213 253 292
#     4   9  18  32  48  65  88 122 162 201 243 293
#     4   9  18  32  49  73 107 142 171 202 248 307
#     4   9  17  31  49  70  98 129 161 197 241 293
#     4  11  23  37  55  79 107 139 172 205 248 301
#
# _framework density 16.34674
#
# number of rings (size 3 to 8) (size 9 to 14) (size 15 to 20)
#    0.000    2.455    0.909    2.455    0.000    4.364 
#    0.000    0.909    0.000    1.091    0.000    7.636 
#    0.000    0.000    0.000    0.000    0.000    0.000 
#
# Total GULP energy -245170.725842 kJ/mol
# GULP energy per Si atom -5572.061951 kJ/mol
# Density = 1.630953 g / cm^3
# Si number density = 16.346740 Si / 1000 Ang^3
#
#
#
# Elastic Constant Matrix: (Units=GPa)
#
#
# Indices 1 2 3 4 5 6 
#
# 1 63.1149 40.2169 46.5348 0.0000 0.0000 0.0000
# 2 40.2169 102.6519 52.3458 0.0000 0.0000 0.0000
# 3 46.5348 52.3458 78.0626 0.0000 0.0000 0.0000
# 4 0.0000 0.0000 0.0000 19.9169 0.0000 0.0000
# 5 0.0000 0.0000 0.0000 0.0000 25.2439 0.0000
# 6 0.0000 0.0000 0.0000 0.0000 0.0000 21.6491
#
#
#
# Elastic Compliance Matrix: (Units=1/GPa)
#
#
# Indices 1 2 3 4 5 6 
#
# 1 0.029264 -0.003904 -0.014827 0.000000 0.000000 0.000000
# 2 -0.003904 0.015325 -0.007949 0.000000 0.000000 0.000000
# 3 -0.014827 -0.007949 0.026979 0.000000 0.000000 0.000000
# 4 0.000000 0.000000 0.000000 0.050209 0.000000 0.000000
# 5 0.000000 0.000000 0.000000 0.000000 0.039614 0.000000
# 6 0.000000 0.000000 0.000000 0.000000 0.000000 0.046191
#
#
# Mechanical properties :
#
#
# Convention : Reuss Voigt Hill
#
# Bulk Modulus (GPa) = 54.92131 58.00273 56.46202
# Shear Modulus (GPa) = 18.72596 20.34410 19.53503
#
# Velocity S-wave (km/s) = 3.38826 3.53162 3.46069
# Velocity P-wave (km/s) = 6.99841 7.22424 7.11222
#
# Compressibility (1/GPa) = 0.01820787
#
# Stress axis : x y z
#
# Youngs Moduli (GPa) = 34.17200 65.25464 37.06613
#
# Poissons Ratio (x) = 0.25477 0.54957
# Poissons Ratio (y) = 0.13342 0.29463
# Poissons Ratio (z) = 0.50666 0.51869
#
# Static dielectric constant tensor:
#      x y z
#    x 1.537850 0.000000 0.000000 
#    y 0.000000 1.543940 0.000000 
#    z 0.000000 0.000000 1.558430 
# 
# From -- ./inp_files/12342.got.cif
#   From: 2010.05.17/outbox.cif.g08.bks.cpg/sg47_7_cif.got.tgz:12342.got - 2010.06.03 20:15:42.
