data_PCOD9382041
_publ_section_title
;
Structure prediction by ZEFSAII (Michael W. Deem and Ramdas Pophale) SiO2 
 PCOD9382041
Probable space group: P M M M
;
_chemical_formula_sum "Si O2"
_cell_formula_units_Z 64
_cell_length_a 7.471045
_cell_length_b 20.756709
_cell_length_c 20.839320
_cell_angle_alpha 90.000000
_cell_angle_beta 90.000000
_cell_angle_gamma 90.000000
_cell_volume 3231.643107
_symmetry_space_group_name_H-M "P M M M"
_symmetry_group_IT_number 47
_symmetry_cell_setting 'orthorhombic'
loop_
_space_group_symop_operation_xyz
x,y,z
-x,-y,z
x,-y,-z
-x,y,-z
-x,-y,-z
x,y,-z
-x,y,z
x,-y,z
loop_
_atom_site_type_symbol
_atom_site_label
_atom_site_fract_x
_atom_site_fract_y
_atom_site_fract_z
Si Si1 0.284799 0.573757 0.071395
Si Si2 0.285770 0.113985 0.742365
Si Si3 0.219437 0.788264 0.570094
Si Si4 0.790457 0.070083 0.884575
Si Si5 0.790550 0.069377 0.602041
Si Si6 0.792329 0.740807 0.704231
Si Si7 0.212838 0.685896 0.169207
Si Si8 0.219027 0.792745 0.929138
O O1 0.500000 0.572644 0.069129
O O2 0.223878 0.500000 0.080830
O O3 0.236278 0.620891 0.129094
O O4 0.222200 0.595345 0.000000
O O5 0.500000 0.115414 0.742602
O O6 0.222698 0.082427 0.808269
O O7 0.223795 0.076505 0.679039
O O8 0.217341 0.187274 0.734811
O O9 0.269004 0.763080 0.500000
O O10 0.281307 0.862771 0.576188
O O11 0.284289 0.749774 0.632711
O O12 0.000000 0.789957 0.573464
O O13 0.717018 0.134599 0.916813
O O14 0.000000 0.067895 0.902033
O O15 0.712665 0.000000 0.900240
O O16 0.000000 0.068365 0.584380
O O17 0.713473 0.000000 0.582690
O O18 0.715103 0.693482 0.758460
O O19 0.000000 0.723354 0.694637
O O20 0.283866 0.743781 0.124811
O O21 0.000000 0.696226 0.174911
O O22 0.000000 0.793462 0.926384
O O23 0.270210 0.770686 0.000000
#
# Coordination Sequence:
#
# PCOD9382041 Si02
#       8
#     8   8   8   8   8   8   8   8
#     4   9  19  35  52  73 106 142 167 189 223 270
#     4  11  20  29  43  62  84 109 144 191 238 285
#     4   8  14  25  43  66  89 114 147 188 232 281
#     4  10  19  31  46  60  80 112 148 190 242 291
#     4   9  17  28  42  59  81 110 144 184 234 290
#     4   9  17  31  49  68  93 120 150 189 233 276
#     4  10  18  30  51  74  98 126 158 198 234 268
#     4   9  17  29  45  66  89 112 145 190 235 277
#
# _framework density 19.804168000000001
#
# number of rings (size 3 to 8) (size 9 to 14) (size 15 to 20)
#    0.000    2.625    1.250    3.000    0.000    4.000 
#    0.000    3.125    0.000    6.375    0.000    4.375 
#    0.000    0.500    0.000    6.250    0.000    1.000 
#
# Total GULP energy -357054.832546 kJ/mol
# GULP energy per Si atom -5578.981759 kJ/mol
# Density = 1.975909 g / cm^3
# Si number density = 19.804168 Si / 1000 Ang^3
#
#
#
# Elastic Constant Matrix: (Units=GPa)
#
#
# Indices 1 2 3 4 5 6 
#
# 1 62.9701 -3.0173 1.2127 0.0000 0.0000 0.0000
# 2 -3.0173 75.0071 64.3106 0.0000 0.0000 0.0000
# 3 1.2127 64.3106 156.1167 0.0000 0.0000 0.0000
# 4 0.0000 0.0000 0.0000 20.6547 0.0000 0.0000
# 5 0.0000 0.0000 0.0000 0.0000 -62.0323 0.0000
# 6 0.0000 0.0000 0.0000 0.0000 0.0000 30.1583
#
#
#
# Elastic Compliance Matrix: (Units=1/GPa)
#
#
# Indices 1 2 3 4 5 6 
#
# 1 0.015948 0.001156 -0.000600 0.000000 0.000000 0.000000
# 2 0.001156 0.020696 -0.008534 0.000000 0.000000 0.000000
# 3 -0.000600 -0.008534 0.009926 0.000000 0.000000 0.000000
# 4 0.000000 0.000000 0.000000 0.048415 0.000000 0.000000
# 5 0.000000 0.000000 0.000000 0.000000 -0.016121 0.000000
# 6 0.000000 0.000000 0.000000 0.000000 0.000000 0.033158
#
#
# Mechanical properties :
#
#
# Convention : Reuss Voigt Hill
#
# Bulk Modulus (GPa) = 32.66668 46.56733 39.61700
# Shear Modulus (GPa) = 36.18378 13.19531 24.68954
#
# Velocity S-wave (km/s) = 4.27907 2.58406 3.53467
# Velocity P-wave (km/s) = 6.39880 5.69808 6.05858
#
# Compressibility (1/GPa) = 0.03061224
#
# Stress axis : x y z
#
# Youngs Moduli (GPa) = 62.70571 48.31852 100.74738
#
# Poissons Ratio (x) = -0.05586 0.06046
# Poissons Ratio (y) = -0.07249 0.85983
# Poissons Ratio (z) = 0.03763 0.41237
#
# Static dielectric constant tensor:
#      x y z
#    x 1.755930 0.000000 0.000000 
#    y 0.000000 1.681110 0.000000 
#    z 0.000000 0.000000 1.731190 
# 
# From -- ./inp_files/30145.got.cif
#   From: 2010.05.17/outbox.cif.g08.bks.cpg/sg47_16_cif.got.tgz:30145.got - 2010.06.03 20:15:42.
