data_PCOD9382670
_publ_section_title
;
Structure prediction by ZEFSAII (Michael W. Deem and Ramdas Pophale) SiO2 
 PCOD9382670
Probable space group: P M M M
;
_chemical_formula_sum "Si O2"
_cell_formula_units_Z 44
_cell_length_a 15.892253
_cell_length_b 18.106446
_cell_length_c 7.382449
_cell_angle_alpha 90.000000
_cell_angle_beta 90.000000
_cell_angle_gamma 90.000000
_cell_volume 2124.316094
_symmetry_space_group_name_H-M "P M M M"
_symmetry_group_IT_number 47
_symmetry_cell_setting 'orthorhombic'
loop_
_space_group_symop_operation_xyz
x,y,z
-x,-y,z
x,-y,-z
-x,y,-z
-x,-y,-z
x,y,-z
-x,y,z
x,-y,z
loop_
_atom_site_type_symbol
_atom_site_label
_atom_site_fract_x
_atom_site_fract_y
_atom_site_fract_z
Si Si1 0.000000 0.587817 0.291394
Si Si2 0.094826 0.914795 0.779287
Si Si3 0.179695 0.629528 0.289414
Si Si4 0.637764 0.419733 0.207856
Si Si5 0.592436 0.743256 0.778760
Si Si6 0.769584 0.203825 0.780949
O O1 0.911424 0.611962 0.209693
O O2 0.000000 0.500000 0.296434
O O3 0.000000 0.616661 0.500000
O O4 0.169032 0.860978 0.716933
O O5 0.000000 0.891757 0.724305
O O6 0.107210 0.000000 0.724829
O O7 0.095417 0.913716 0.000000
O O8 0.179277 0.606698 0.500000
O O9 0.261023 0.590012 0.207245
O O10 0.193996 0.716809 0.273770
O O11 0.616385 0.500000 0.288351
O O12 0.605125 0.341864 0.284805
O O13 0.608384 0.421290 0.000000
O O14 0.500000 0.769286 0.725111
O O15 0.672055 0.792345 0.721341
O O16 0.595248 0.740918 0.000000
O O17 0.769267 0.200852 0.000000
#
# Coordination Sequence:
#
# PCOD9382670 Si02
#       6
#     4   8   8   8   8   8
#     4   9  18  30  41  55  78 111 148 178 207 253
#     4   8  14  25  43  68  94 118 143 173 213 258
#     4  10  19  30  44  61  83 115 149 179 216 264
#     4   9  17  29  44  62  83 107 143 189 228 260
#     4   8  14  25  41  62  87 114 144 177 218 265
#     4   9  17  29  46  67  88 112 144 182 216 251
#
# _framework density 20.712548999999999
#
# number of rings (size 3 to 8) (size 9 to 14) (size 15 to 20)
#    0.000    3.182    0.000    2.727    1.273    1.455 
#    0.000    3.182    0.000   13.091    0.000   10.182 
#    0.000    0.000    0.000    6.545    0.000    7.273 
#
# Total GULP energy -245344.073701 kJ/mol
# GULP energy per Si atom -5576.001675 kJ/mol
# Density = 2.066541 g / cm^3
# Si number density = 20.712549 Si / 1000 Ang^3
#
#
#
# Elastic Constant Matrix: (Units=GPa)
#
#
# Indices 1 2 3 4 5 6 
#
# 1 179.8634 64.8965 2.1477 0.0000 0.0000 0.0000
# 2 64.8965 88.5285 -2.0160 0.0000 0.0000 0.0000
# 3 2.1477 -2.0160 76.0420 0.0000 0.0000 0.0000
# 4 0.0000 0.0000 0.0000 -65.0313 0.0000 0.0000
# 5 0.0000 0.0000 0.0000 0.0000 38.5548 0.0000
# 6 0.0000 0.0000 0.0000 0.0000 0.0000 0.7886
#
#
#
# Elastic Compliance Matrix: (Units=1/GPa)
#
#
# Indices 1 2 3 4 5 6 
#
# 1 0.007569 -0.005557 -0.000361 0.000000 0.000000 0.000000
# 2 -0.005557 0.015382 0.000565 0.000000 0.000000 0.000000
# 3 -0.000361 0.000565 0.013176 0.000000 0.000000 0.000000
# 4 0.000000 0.000000 0.000000 -0.015377 0.000000 0.000000
# 5 0.000000 0.000000 0.000000 0.000000 0.025937 0.000000
# 6 0.000000 0.000000 0.000000 0.000000 0.000000 1.268049
#
#
# Mechanical properties :
#
#
# Convention : Reuss Voigt Hill
#
# Bulk Modulus (GPa) = 39.33804 52.72115 46.02959
# Shear Modulus (GPa) = 3.74836 13.48947 8.61892
#
# Velocity S-wave (km/s) = 1.34671 2.55477 2.04212
# Velocity P-wave (km/s) = 4.63161 5.84905 5.27557
#
# Compressibility (1/GPa) = 0.02542069
#
# Stress axis : x y z
#
# Youngs Moduli (GPa) = 132.11752 65.01068 75.89678
#
# Poissons Ratio (x) = 0.36125 0.02741
# Poissons Ratio (y) = 0.73414 -0.04286
# Poissons Ratio (z) = 0.04771 -0.03671
#
# Static dielectric constant tensor:
#      x y z
#    x 1.768680 0.000000 0.000000 
#    y 0.000000 1.694080 0.000000 
#    z 0.000000 0.000000 1.783090 
# 
# From -- ./inp_files/6159.got.cif
#   From: 2010.05.17/outbox.cif.g08.bks.cpg/sg47_4_cif.got.tgz:6159.got - 2010.06.03 20:15:42.
