data_PCOD9382557
_publ_section_title
;
Structure prediction by ZEFSAII (Michael W. Deem and Ramdas Pophale) SiO2 
 PCOD9382557
Probable space group: P M M M
;
_chemical_formula_sum "Si O2"
_cell_formula_units_Z 52
_cell_length_a 14.659720
_cell_length_b 22.374729
_cell_length_c 7.484541
_cell_angle_alpha 90.000000
_cell_angle_beta 90.000000
_cell_angle_gamma 90.000000
_cell_volume 2454.983802
_symmetry_space_group_name_H-M "P M M M"
_symmetry_group_IT_number 47
_symmetry_cell_setting 'orthorhombic'
loop_
_space_group_symop_operation_xyz
x,y,z
-x,-y,z
x,-y,-z
-x,y,-z
-x,-y,-z
x,y,-z
-x,y,z
x,-y,z
loop_
_atom_site_type_symbol
_atom_site_label
_atom_site_fract_x
_atom_site_fract_y
_atom_site_fract_z
Si Si1 0.702489 0.882837 0.219495
Si Si2 0.746761 0.665086 0.197574
Si Si3 0.902368 0.105856 0.794398
Si Si4 0.606792 0.241259 0.780859
Si Si5 0.392921 0.000000 0.794442
Si Si6 0.099750 0.755361 0.714366
Si Si7 0.102142 0.567699 0.286896
O O1 0.802640 0.904007 0.283350
O O2 0.663173 0.818281 0.276089
O O3 0.638714 0.936808 0.279399
O O4 0.706217 0.879092 0.000000
O O5 0.659211 0.698509 0.282930
O O6 0.820204 0.718701 0.198851
O O7 0.811097 0.610593 0.258716
O O8 0.716816 0.648045 0.000000
O O9 0.903676 0.177990 0.788220
O O10 0.000000 0.085917 0.715069
O O11 0.901665 0.085120 0.000000
O O12 0.500000 0.238196 0.730009
O O13 0.609359 0.241632 0.000000
O O14 0.500000 0.000000 0.798017
O O15 0.357776 0.000000 0.000000
O O16 0.113327 0.757469 0.500000
O O17 0.000000 0.727772 0.745762
O O18 0.093957 0.565238 0.500000
O O19 0.118430 0.500000 0.221172
O O20 0.000000 0.586375 0.220715
#
# Coordination Sequence:
#
# PCOD9382557 Si02
#       7
#     8   8   8   8   4   8   8
#     4   9  15  26  42  64  94 128 162 200 249 298
#     4  11  20  30  48  75 101 129 165 203 245 290
#     4   9  16  27  43  64  92 123 155 195 244 297
#     4   9  17  29  45  66  95 129 163 203 253 300
#     4   9  16  24  39  65  94 125 165 209 248 296
#     4  10  19  29  43  66  96 128 160 193 233 286
#     4   9  19  36  55  75 103 138 169 196 234 287
#
# _framework density 21.181401999999999
#
# number of rings (size 3 to 8) (size 9 to 14) (size 15 to 20)
#    0.000    2.538    1.538    2.308    0.000    5.231 
#    0.000    1.154    0.000    4.615    0.000    3.769 
#    0.000    3.077    0.000    0.000    0.000    0.000 
#
# Total GULP energy -289506.469646 kJ/mol
# GULP energy per Si atom -5567.432109 kJ/mol
# Density = 2.113319 g / cm^3
# Si number density = 21.181402 Si / 1000 Ang^3
#
#
#
# Elastic Constant Matrix: (Units=GPa)
#
#
# Indices 1 2 3 4 5 6 
#
# 1 134.1713 48.5493 8.3431 0.0000 0.0000 0.0000
# 2 48.5493 96.3715 3.2795 0.0000 0.0000 0.0000
# 3 8.3431 3.2795 58.9344 0.0000 0.0000 0.0000
# 4 0.0000 0.0000 0.0000 -3.9115 0.0000 0.0000
# 5 0.0000 0.0000 0.0000 0.0000 18.6156 0.0000
# 6 0.0000 0.0000 0.0000 0.0000 0.0000 26.4551
#
#
#
# Elastic Compliance Matrix: (Units=1/GPa)
#
#
# Indices 1 2 3 4 5 6 
#
# 1 0.009178 -0.004588 -0.001044 0.000000 0.000000 0.000000
# 2 -0.004588 0.012690 -0.000057 0.000000 0.000000 0.000000
# 3 -0.001044 -0.000057 0.017119 0.000000 0.000000 0.000000
# 4 0.000000 0.000000 0.000000 -0.255654 0.000000 0.000000
# 5 0.000000 0.000000 0.000000 0.000000 0.053718 0.000000
# 6 0.000000 0.000000 0.000000 0.000000 0.000000 0.037800
#
#
# Mechanical properties :
#
#
# Convention : Reuss Voigt Hill
#
# Bulk Modulus (GPa) = 36.21955 45.53566 40.87761
# Shear Modulus (GPa) = -47.81601 23.51885 -12.14858
#
# Velocity S-wave (km/s) = -4.75642 3.33581 -2.39749
# Velocity P-wave (km/s) = 3.60942 6.03171 3.41713
#
# Compressibility (1/GPa) = 0.02760940
#
# Stress axis : x y z
#
# Youngs Moduli (GPa) = 108.95234 78.80297 58.41478
#
# Poissons Ratio (x) = 0.36157 0.06099
# Poissons Ratio (y) = 0.49990 0.00331
# Poissons Ratio (z) = 0.11375 0.00446
#
# Static dielectric constant tensor:
#      x y z
#    x 1.822950 0.000000 0.000000 
#    y 0.000000 1.761940 0.000000 
#    z 0.000000 0.000000 1.825630 
# 
# From -- ./inp_files/6954.got.cif
#   From: 2010.05.17/outbox.cif.g08.bks.cpg/sg47_4_cif.got.tgz:6954.got - 2010.06.03 20:15:42.
