data_PCOD9382903
_publ_section_title
;
Structure prediction by ZEFSAII (Michael W. Deem and Ramdas Pophale) SiO2 
 PCOD9382903
Probable space group: P M M M
;
_chemical_formula_sum "Si O2"
_cell_formula_units_Z 37
_cell_length_a 16.759060
_cell_length_b 14.157498
_cell_length_c 7.315274
_cell_angle_alpha 90.000000
_cell_angle_beta 90.000000
_cell_angle_gamma 90.000000
_cell_volume 1735.668423
_symmetry_space_group_name_H-M "P M M M"
_symmetry_group_IT_number 47
_symmetry_cell_setting 'orthorhombic'
loop_
_space_group_symop_operation_xyz
x,y,z
-x,-y,z
x,-y,-z
-x,y,-z
-x,-y,-z
x,y,-z
-x,y,z
x,-y,z
loop_
_atom_site_type_symbol
_atom_site_label
_atom_site_fract_x
_atom_site_fract_y
_atom_site_fract_z
Si Si1 0.594420 0.397624 0.779662
Si Si2 0.154823 0.800668 0.279744
Si Si3 0.091378 0.000000 0.277302
Si Si4 0.000000 0.324818 0.278575
Si Si5 0.338035 0.798077 0.209904
Si Si6 0.000000 0.500000 0.000000
Si Si7 0.405611 0.000000 0.777905
O O1 0.500000 0.398285 0.747987
O O2 0.626694 0.500000 0.714400
O O3 0.626552 0.298161 0.707258
O O4 0.607259 0.397385 0.000000
O O5 0.158783 0.800109 0.500000
O O6 0.080579 0.733685 0.232344
O O7 0.243345 0.781171 0.212261
O O8 0.133610 0.905594 0.216846
O O9 0.091396 0.000000 0.500000
O O10 0.000000 0.000000 0.219998
O O11 0.000000 0.339249 0.500000
O O12 0.000000 0.418087 0.160061
O O13 0.363659 0.901539 0.284784
O O14 0.366965 0.800714 0.000000
O O15 0.500000 0.000000 0.730426
O O16 0.400095 0.000000 0.000000
#
# Coordination Sequence:
#
# PCOD9382903 Si02
#       7
#     8   8   4   4   8   1   4
#     4   8  14  27  47  71  97 129 174 227 278 331
#     4  10  20  36  58  83 116 150 191 239 295 365
#     4   9  15  30  57  81 100 139 187 226 275 337
#     4  10  23  44  65  90 120 161 207 250 309 373
#     4  10  19  30  49  78 110 141 184 236 288 351
#     4  12  26  44  72  88 116 160 208 268 304 368
#     4   9  17  30  49  76 113 156 194 237 299 360
#
# _framework density 21.317436000000001
#
# number of rings (size 3 to 8) (size 9 to 14) (size 15 to 20)
#    0.000    2.595    1.081    2.108    1.514    2.595 
#    1.946    0.000    0.000    4.541    0.000    1.514 
#    0.000    0.000    0.000    0.000    0.000    0.000 
#
# Total GULP energy -206102.863311 kJ/mol
# GULP energy per Si atom -5570.347657 kJ/mol
# Density = 2.126892 g / cm^3
# Si number density = 21.317436 Si / 1000 Ang^3
#
#
#
# Elastic Constant Matrix: (Units=GPa)
#
#
# Indices 1 2 3 4 5 6 
#
# 1 94.3121 84.6514 5.7318 0.0000 0.0000 0.0000
# 2 84.6514 254.7245 35.6849 0.0000 0.0000 0.0000
# 3 5.7318 35.6849 89.3183 0.0000 0.0000 0.0000
# 4 0.0000 0.0000 0.0000 -3.7522 0.0000 0.0000
# 5 0.0000 0.0000 0.0000 0.0000 7.5567 0.0000
# 6 0.0000 0.0000 0.0000 0.0000 0.0000 8.8914
#
#
#
# Elastic Compliance Matrix: (Units=1/GPa)
#
#
# Indices 1 2 3 4 5 6 
#
# 1 0.015213 -0.005210 0.001105 0.000000 0.000000 0.000000
# 2 -0.005210 0.005943 -0.002040 0.000000 0.000000 0.000000
# 3 0.001105 -0.002040 0.011940 0.000000 0.000000 0.000000
# 4 0.000000 0.000000 0.000000 -0.266512 0.000000 0.000000
# 5 0.000000 0.000000 0.000000 0.000000 0.132334 0.000000
# 6 0.000000 0.000000 0.000000 0.000000 0.000000 0.112469
#
#
# Mechanical properties :
#
#
# Convention : Reuss Voigt Hill
#
# Bulk Modulus (GPa) = 48.06362 76.72122 62.39242
# Shear Modulus (GPa) = 163.33804 23.35828 93.34816
#
# Velocity S-wave (km/s) = 8.76288 3.31378 6.62455
# Velocity P-wave (km/s) = 11.17943 7.12106 9.37255
#
# Compressibility (1/GPa) = 0.02080576
#
# Stress axis : x y z
#
# Youngs Moduli (GPa) = 65.73503 168.26080 83.75180
#
# Poissons Ratio (x) = 0.87670 -0.09258
# Poissons Ratio (y) = 0.34251 0.17086
# Poissons Ratio (z) = -0.07267 0.34327
#
# Static dielectric constant tensor:
#      x y z
#    x 3.950640 0.000000 0.000000 
#    y 0.000000 1.781430 0.000000 
#    z 0.000000 0.000000 1.823070 
# 
# From -- ./inp_files/8700.got.cif
#   From: 2010.05.17/outbox.cif.g08.bks.cpg/sg47_5_cif.got.tgz:8700.got - 2010.06.03 20:15:42.
