data_PCOD9382409
_publ_section_title
;
Structure prediction by ZEFSAII (Michael W. Deem and Ramdas Pophale) SiO2 
 PCOD9382409
Probable space group: P M M M
;
_chemical_formula_sum "Si O2"
_cell_formula_units_Z 52
_cell_length_a 7.962061
_cell_length_b 28.558604
_cell_length_c 14.089500
_cell_angle_alpha 90.000000
_cell_angle_beta 90.000000
_cell_angle_gamma 90.000000
_cell_volume 3203.745848
_symmetry_space_group_name_H-M "P M M M"
_symmetry_group_IT_number 47
_symmetry_cell_setting 'orthorhombic'
loop_
_space_group_symop_operation_xyz
x,y,z
-x,-y,z
x,-y,-z
-x,y,-z
-x,-y,-z
x,y,-z
-x,y,z
x,-y,z
loop_
_atom_site_type_symbol
_atom_site_label
_atom_site_fract_x
_atom_site_fract_y
_atom_site_fract_z
Si Si1 0.500000 0.943954 0.611133
Si Si2 0.696670 0.796599 0.392150
Si Si3 0.801383 0.255521 0.215965
Si Si4 0.795883 0.836900 0.893296
Si Si5 0.699077 0.347994 0.891191
Si Si6 0.194139 0.890084 0.293767
Si Si7 0.202242 0.550552 0.888622
O O1 0.500000 0.929713 0.500000
O O2 0.667501 0.923751 0.660675
O O3 0.500000 0.000000 0.616077
O O4 0.744884 0.785737 0.500000
O O5 0.500000 0.809697 0.390777
O O6 0.722612 0.754491 0.318459
O O7 0.796221 0.841173 0.351748
O O8 0.739444 0.213814 0.146135
O O9 0.768152 0.305728 0.170919
O O10 0.000000 0.249169 0.226418
O O11 0.754859 0.875310 0.813517
O O12 0.000000 0.835644 0.896361
O O13 0.734975 0.845477 0.000000
O O14 0.500000 0.342538 0.896141
O O15 0.736417 0.399751 0.850671
O O16 0.767008 0.345436 0.000000
O O17 0.000000 0.906745 0.295240
O O18 0.258799 0.500000 0.848588
O O19 0.000000 0.551061 0.885354
O O20 0.252574 0.550556 0.000000
#
# Coordination Sequence:
#
# PCOD9382409 Si02
#       7
#     4   8   8   8   8   8   8
#     4  11  24  40  57  79 107 135 166 210 258 299
#     4  10  19  32  51  73  99 129 159 195 238 285
#     4  10  19  29  44  67  95 127 162 197 234 283
#     4   8  15  29  50  75 101 131 167 203 239 284
#     4  10  19  28  39  58  88 124 157 194 241 288
#     4  10  20  35  57  81 105 135 169 204 244 295
#     4   8  14  25  40  56  75 106 151 196 236 283
#
# _framework density 16.231000000000002
#
# number of rings (size 3 to 8) (size 9 to 14) (size 15 to 20)
#    0.000    2.538    0.769    3.692    0.000    4.308 
#    0.000    2.692    0.000    0.923    0.000    2.154 
#    0.000    0.615    0.000    6.462    0.000    3.077 
#
# Total GULP energy -289746.951415 kJ/mol
# GULP energy per Si atom -5572.056758 kJ/mol
# Density = 1.619406 g / cm^3
# Si number density = 16.231000 Si / 1000 Ang^3
#
#
#
# Elastic Constant Matrix: (Units=GPa)
#
#
# Indices 1 2 3 4 5 6 
#
# 1 53.6337 25.2599 27.8852 0.0000 0.0000 0.0000
# 2 25.2599 82.9787 47.3489 0.0000 0.0000 0.0000
# 3 27.8852 47.3489 121.5423 0.0000 0.0000 0.0000
# 4 0.0000 0.0000 0.0000 17.7349 0.0000 0.0000
# 5 0.0000 0.0000 0.0000 0.0000 17.8628 0.0000
# 6 0.0000 0.0000 0.0000 0.0000 0.0000 19.9573
#
#
#
# Elastic Compliance Matrix: (Units=1/GPa)
#
#
# Indices 1 2 3 4 5 6 
#
# 1 0.022715 -0.005067 -0.003237 0.000000 0.000000 0.000000
# 2 -0.005067 0.016626 -0.005314 0.000000 0.000000 0.000000
# 3 -0.003237 -0.005314 0.011041 0.000000 0.000000 0.000000
# 4 0.000000 0.000000 0.000000 0.056386 0.000000 0.000000
# 5 0.000000 0.000000 0.000000 0.000000 0.055982 0.000000
# 6 0.000000 0.000000 0.000000 0.000000 0.000000 0.050107
#
#
# Mechanical properties :
#
#
# Convention : Reuss Voigt Hill
#
# Bulk Modulus (GPa) = 43.20890 51.01584 47.11237
# Shear Modulus (GPa) = 20.17678 21.62173 20.89925
#
# Velocity S-wave (km/s) = 3.52959 3.65379 3.59223
# Velocity P-wave (km/s) = 6.57949 7.02137 6.80402
#
# Compressibility (1/GPa) = 0.02314338
#
# Stress axis : x y z
#
# Youngs Moduli (GPa) = 44.02431 60.14524 90.57425
#
# Poissons Ratio (x) = 0.30478 0.29321
# Poissons Ratio (y) = 0.22309 0.48136
# Poissons Ratio (z) = 0.14252 0.31964
#
# Static dielectric constant tensor:
#      x y z
#    x 1.571260 0.000000 0.000000 
#    y 0.000000 1.547870 0.000000 
#    z 0.000000 0.000000 1.547520 
# 
# From -- ./inp_files/21976.got.cif
#   From: 2010.05.17/outbox.cif.g08.bks.cpg/sg47_11_cif.got.tgz:21976.got - 2010.06.03 20:15:42.
