data_PCOD9382897
_publ_section_title
;
Structure prediction by ZEFSAII (Michael W. Deem and Ramdas Pophale) SiO2 
 PCOD9382897
Probable space group: P M M M
;
_chemical_formula_sum "Si O2"
_cell_formula_units_Z 48
_cell_length_a 17.158077
_cell_length_b 9.524039
_cell_length_c 15.419631
_cell_angle_alpha 90.000000
_cell_angle_beta 90.000000
_cell_angle_gamma 90.000000
_cell_volume 2519.786580
_symmetry_space_group_name_H-M "P M M M"
_symmetry_group_IT_number 47
_symmetry_cell_setting 'orthorhombic'
loop_
_space_group_symop_operation_xyz
x,y,z
-x,-y,z
x,-y,-z
-x,y,-z
-x,-y,-z
x,y,-z
-x,y,z
x,-y,z
loop_
_atom_site_type_symbol
_atom_site_label
_atom_site_fract_x
_atom_site_fract_y
_atom_site_fract_z
Si Si1 0.500000 0.755925 0.907314
Si Si2 0.192146 0.666024 0.398451
Si Si3 0.500000 0.159317 0.715904
Si Si4 0.326991 0.660879 0.094132
Si Si5 0.905446 0.660998 0.902472
Si Si6 0.094060 0.837082 0.736846
Si Si7 0.343098 0.668608 0.714965
O O1 0.500000 0.846218 0.820988
O O2 0.578627 0.665733 0.905008
O O3 0.500000 0.832090 0.000000
O O4 0.190683 0.700039 0.500000
O O5 0.174762 0.500000 0.388274
O O6 0.131580 0.755514 0.343031
O O7 0.277212 0.689773 0.356871
O O8 0.578054 0.246911 0.694241
O O9 0.500000 0.000000 0.681903
O O10 0.300103 0.500000 0.092456
O O11 0.309364 0.717031 0.190486
O O12 0.304243 0.725240 0.000000
O O13 0.882688 0.500000 0.883999
O O14 0.880089 0.763172 0.826421
O O15 0.000000 0.663571 0.903781
O O16 0.879632 0.697464 0.000000
O O17 0.000000 0.827564 0.732801
O O18 0.115907 0.000000 0.736275
O O19 0.358994 0.500000 0.721670
#
# Coordination Sequence:
#
# PCOD9382897 Si02
#       7
#     4   8   4   8   8   8   8
#     4   8  13  21  35  60  96 134 167 199 239 291
#     4  10  22  40  60  80 103 136 181 233 287 338
#     4  10  19  30  49  77 105 135 172 213 259 314
#     4   8  12  20  39  67  96 126 162 203 247 299
#     4   8  14  27  50  80 113 149 187 223 258 302
#     4  10  21  36  56  84 116 148 181 220 270 330
#     4   9  18  34  54  75 102 136 174 217 266 320
#
# _framework density 19.049230999999999
#
# number of rings (size 3 to 8) (size 9 to 14) (size 15 to 20)
#    0.000    3.000    0.000    1.500    0.000    5.833 
#    0.000    4.583    0.000    5.500    0.000    2.333 
#    0.000    0.000    0.000    0.000    0.000    0.000 
#
# Total GULP energy -267418.975503 kJ/mol
# GULP energy per Si atom -5571.228656 kJ/mol
# Density = 1.900587 g / cm^3
# Si number density = 19.049231 Si / 1000 Ang^3
#
#
#
# Elastic Constant Matrix: (Units=GPa)
#
#
# Indices 1 2 3 4 5 6 
#
# 1 70.3707 46.3765 36.7736 0.0000 0.0000 0.0000
# 2 46.3765 86.7203 79.9562 0.0000 0.0000 0.0000
# 3 36.7736 79.9562 159.6901 0.0000 0.0000 0.0000
# 4 0.0000 0.0000 0.0000 4.2363 0.0000 0.0000
# 5 0.0000 0.0000 0.0000 0.0000 28.0838 0.0000
# 6 0.0000 0.0000 0.0000 0.0000 0.0000 11.8510
#
#
#
# Elastic Compliance Matrix: (Units=1/GPa)
#
#
# Indices 1 2 3 4 5 6 
#
# 1 0.022147 -0.013266 0.001542 0.000000 0.000000 0.000000
# 2 -0.013266 0.029365 -0.011648 0.000000 0.000000 0.000000
# 3 0.001542 -0.011648 0.011739 0.000000 0.000000 0.000000
# 4 0.000000 0.000000 0.000000 0.236053 0.000000 0.000000
# 5 0.000000 0.000000 0.000000 0.000000 0.035608 0.000000
# 6 0.000000 0.000000 0.000000 0.000000 0.000000 0.084381
#
#
# Mechanical properties :
#
#
# Convention : Reuss Voigt Hill
#
# Bulk Modulus (GPa) = 60.57709 71.44373 66.01041
# Shear Modulus (GPa) = 10.60357 19.07922 14.84139
#
# Velocity S-wave (km/s) = 2.36188 3.16820 2.79428
# Velocity P-wave (km/s) = 6.26955 7.13929 6.71851
#
# Compressibility (1/GPa) = 0.01650789
#
# Stress axis : x y z
#
# Youngs Moduli (GPa) = 45.15269 34.05394 85.18425
#
# Poissons Ratio (x) = 0.45174 -0.13135
# Poissons Ratio (y) = 0.59898 0.99224
# Poissons Ratio (z) = -0.06962 0.39667
#
# Static dielectric constant tensor:
#      x y z
#    x 1.686800 0.000000 0.000000 
#    y 0.000000 1.644330 0.000000 
#    z 0.000000 0.000000 1.682480 
# 
# From -- ./inp_files/24483.got.cif
#   From: 2010.05.17/outbox.cif.g08.bks.cpg/sg47_13_cif.got.tgz:24483.got - 2010.06.03 20:15:42.
