data_PCOD9382786
_publ_section_title
;
Structure prediction by ZEFSAII (Michael W. Deem and Ramdas Pophale) SiO2 
 PCOD9382786
Probable space group: P M M M
;
_chemical_formula_sum "Si O2"
_cell_formula_units_Z 64
_cell_length_a 19.800273
_cell_length_b 7.900735
_cell_length_c 24.651420
_cell_angle_alpha 90.000000
_cell_angle_beta 90.000000
_cell_angle_gamma 90.000000
_cell_volume 3856.387039
_symmetry_space_group_name_H-M "P M M M"
_symmetry_group_IT_number 47
_symmetry_cell_setting 'orthorhombic'
loop_
_space_group_symop_operation_xyz
x,y,z
-x,-y,z
x,-y,-z
-x,y,-z
-x,-y,-z
x,y,-z
-x,y,z
x,-y,z
loop_
_atom_site_type_symbol
_atom_site_label
_atom_site_fract_x
_atom_site_fract_y
_atom_site_fract_z
Si Si1 0.213010 0.796481 0.060576
Si Si2 0.576615 0.201718 0.229994
Si Si3 0.296899 0.701855 0.836249
Si Si4 0.577862 0.293020 0.561205
Si Si5 0.925914 0.796553 0.759273
Si Si6 0.782219 0.703209 0.730367
Si Si7 0.341201 0.299215 0.336128
Si Si8 0.075205 0.206651 0.115050
O O1 0.268553 0.755713 0.105836
O O2 0.139572 0.733838 0.081144
O O3 0.208473 0.000000 0.058248
O O4 0.227958 0.733638 0.000000
O O5 0.500000 0.262233 0.221461
O O6 0.628343 0.242710 0.181459
O O7 0.608561 0.275974 0.285115
O O8 0.575295 0.000000 0.236502
O O9 0.295460 0.500000 0.834376
O O10 0.246940 0.767093 0.788320
O O11 0.596568 0.241348 0.500000
O O12 0.500000 0.242858 0.571216
O O13 0.578538 0.500000 0.562047
O O14 0.625877 0.229377 0.609123
O O15 0.860564 0.744542 0.725872
O O16 0.917186 0.740317 0.822032
O O17 0.000000 0.737165 0.740664
O O18 0.927258 0.000000 0.760389
O O19 0.776028 0.500000 0.731182
O O20 0.731048 0.768778 0.684369
O O21 0.333119 0.500000 0.344801
O O22 0.000000 0.258487 0.096390
O O23 0.075861 0.000000 0.114319
#
# Coordination Sequence:
#
# PCOD9382786 Si02
#       8
#     8   8   8   8   8   8   8   8
#     4  10  19  30  47  68  88 113 144 178 215 256
#     4  10  20  32  48  70  92 113 140 178 222 265
#     4  10  20  33  48  65  87 115 144 175 215 263
#     4   8  13  22  39  63  90 123 160 190 213 242
#     4   9  16  26  42  61  81 110 145 178 214 258
#     4   9  17  27  40  61  86 113 143 176 218 260
#     4   9  17  28  43  66  95 122 151 185 217 254
#     4   8  14  25  41  62  86 111 142 178 212 249
#
# _framework density 16.595844
#
# number of rings (size 3 to 8) (size 9 to 14) (size 15 to 20)
#    0.000    2.875    1.250    3.000    0.000    4.250 
#    0.000    1.250    0.000    1.125    0.000    5.250 
#    0.000    0.500    0.000    6.250    0.000    1.000 
#
# Total GULP energy -356581.225594 kJ/mol
# GULP energy per Si atom -5571.581650 kJ/mol
# Density = 1.655807 g / cm^3
# Si number density = 16.595844 Si / 1000 Ang^3
#
#
#
# Elastic Constant Matrix: (Units=GPa)
#
#
# Indices 1 2 3 4 5 6 
#
# 1 146.1872 -0.5738 77.3352 0.0000 0.0000 0.0000
# 2 -0.5738 12.0701 2.0549 0.0000 0.0000 0.0000
# 3 77.3352 2.0549 109.1462 0.0000 0.0000 0.0000
# 4 0.0000 0.0000 0.0000 0.6418 0.0000 0.0000
# 5 0.0000 0.0000 0.0000 0.0000 24.5943 0.0000
# 6 0.0000 0.0000 0.0000 0.0000 0.0000 12.2533
#
#
#
# Elastic Compliance Matrix: (Units=1/GPa)
#
#
# Indices 1 2 3 4 5 6 
#
# 1 0.010983 0.001853 -0.007817 0.000000 0.000000 0.000000
# 2 0.001853 0.083429 -0.002884 0.000000 0.000000 0.000000
# 3 -0.007817 -0.002884 0.014755 0.000000 0.000000 0.000000
# 4 0.000000 0.000000 0.000000 1.558163 0.000000 0.000000
# 5 0.000000 0.000000 0.000000 0.000000 0.040660 0.000000
# 6 0.000000 0.000000 0.000000 0.000000 0.000000 0.081611
#
#
# Mechanical properties :
#
#
# Convention : Reuss Voigt Hill
#
# Bulk Modulus (GPa) = 10.93236 47.22621 29.07929
# Shear Modulus (GPa) = 2.72066 20.07035 11.39551
#
# Velocity S-wave (km/s) = 1.28177 3.48136 2.62324
# Velocity P-wave (km/s) = 2.96518 6.68418 5.17061
#
# Compressibility (1/GPa) = 0.09147158
#
# Stress axis : x y z
#
# Youngs Moduli (GPa) = 91.04920 11.98628 67.77383
#
# Poissons Ratio (x) = -0.02221 0.52978
# Poissons Ratio (y) = -0.16871 0.19543
# Poissons Ratio (z) = 0.71172 0.03456
#
# Static dielectric constant tensor:
#      x y z
#    x 1.580510 0.000000 0.000000 
#    y 0.000000 1.602780 0.000000 
#    z 0.000000 0.000000 1.558350 
# 
# From -- ./inp_files/32895.got.cif
#   From: 2010.05.17/outbox.cif.g08.bks.cpg/sg47_17_cif.got.tgz:32895.got - 2010.06.03 20:15:42.
