data_PCOD9382040
_publ_section_title
;
Structure prediction by ZEFSAII (Michael W. Deem and Ramdas Pophale) SiO2 
 PCOD9382040
Probable space group: P M M M
;
_chemical_formula_sum "Si O2"
_cell_formula_units_Z 52
_cell_length_a 14.426074
_cell_length_b 7.740110
_cell_length_c 22.404855
_cell_angle_alpha 90.000000
_cell_angle_beta 90.000000
_cell_angle_gamma 90.000000
_cell_volume 2501.712658
_symmetry_space_group_name_H-M "P M M M"
_symmetry_group_IT_number 47
_symmetry_cell_setting 'orthorhombic'
loop_
_space_group_symop_operation_xyz
x,y,z
-x,-y,z
x,-y,-z
-x,y,-z
-x,-y,-z
x,y,-z
-x,y,z
x,-y,z
loop_
_atom_site_type_symbol
_atom_site_label
_atom_site_fract_x
_atom_site_fract_y
_atom_site_fract_z
Si Si1 0.607267 0.712566 0.741198
Si Si2 0.891511 0.710864 0.066425
Si Si3 0.396879 0.205104 0.929577
Si Si4 0.706455 0.297354 0.378033
Si Si5 0.103810 0.207121 0.567983
Si Si6 0.749538 0.306792 0.840918
Si Si7 0.395830 0.793798 0.500000
O O1 0.500000 0.767340 0.750854
O O2 0.605527 0.500000 0.743974
O O3 0.646539 0.773099 0.677104
O O4 0.684933 0.771456 0.789107
O O5 0.884167 0.500000 0.067207
O O6 0.836975 0.776091 0.124887
O O7 0.000000 0.753857 0.069713
O O8 0.857279 0.767136 0.000000
O O9 0.500000 0.247572 0.907833
O O10 0.321915 0.313443 0.895654
O O11 0.381369 0.000000 0.919617
O O12 0.393884 0.234103 0.000000
O O13 0.706392 0.500000 0.368619
O O14 0.813593 0.246579 0.386764
O O15 0.657114 0.258514 0.440445
O O16 0.124943 0.269934 0.500000
O O17 0.000000 0.268994 0.583834
O O18 0.099924 0.000000 0.564353
O O19 0.776622 0.500000 0.820562
O O20 0.500000 0.722834 0.500000
O O21 0.399714 0.000000 0.500000
#
# Coordination Sequence:
#
# PCOD9382040 Si02
#       7
#     8   8   8   8   8   8   4
#     4   9  19  34  49  70 105 140 167 206 262 312
#     4   8  14  25  43  71 104 131 159 204 259 304
#     4   9  18  31  45  65  97 131 159 197 255 311
#     4  11  21  34  54  79 105 137 174 214 263 322
#     4   9  18  34  56  80 108 139 166 202 258 313
#     4  10  18  30  51  74  94 127 175 216 247 293
#     4  11  23  37  54  77 104 133 171 222 272 319
#
# _framework density 20.78576
#
# number of rings (size 3 to 8) (size 9 to 14) (size 15 to 20)
#    0.000    2.538    0.769    3.462    0.000    3.385 
#    0.000    3.846    0.000    6.923    0.000    2.154 
#    0.000    0.000    0.000    0.000    0.000    0.000 
#
# Total GULP energy -289840.838683 kJ/mol
# GULP energy per Si atom -5573.862282 kJ/mol
# Density = 2.073845 g / cm^3
# Si number density = 20.785760 Si / 1000 Ang^3
#
#
#
# Elastic Constant Matrix: (Units=GPa)
#
#
# Indices 1 2 3 4 5 6 
#
# 1 131.8077 3.3600 75.6085 0.0000 0.0000 0.0000
# 2 3.3600 23.8896 -1.1755 0.0000 0.0000 0.0000
# 3 75.6085 -1.1755 114.9939 0.0000 0.0000 0.0000
# 4 0.0000 0.0000 0.0000 362.8429 0.0000 0.0000
# 5 0.0000 0.0000 0.0000 0.0000 72.5512 0.0000
# 6 0.0000 0.0000 0.0000 0.0000 0.0000 -8.8768
#
#
#
# Elastic Compliance Matrix: (Units=1/GPa)
#
#
# Indices 1 2 3 4 5 6 
#
# 1 0.012288 -0.002127 -0.008101 0.000000 0.000000 0.000000
# 2 -0.002127 0.042248 0.001830 0.000000 0.000000 0.000000
# 3 -0.008101 0.001830 0.014041 0.000000 0.000000 0.000000
# 4 0.000000 0.000000 0.000000 0.002756 0.000000 0.000000
# 5 0.000000 0.000000 0.000000 0.000000 0.013783 0.000000
# 6 0.000000 0.000000 0.000000 0.000000 0.000000 -0.112653
#
#
# Mechanical properties :
#
#
# Convention : Reuss Voigt Hill
#
# Bulk Modulus (GPa) = 19.31162 47.36415 33.33788
# Shear Modulus (GPa) = 766.78898 98.16332 432.47615
#
# Velocity S-wave (km/s) = 19.22764 6.87959 14.44006
# Velocity P-wave (km/s) = 22.41087 9.27045 17.14917
#
# Compressibility (1/GPa) = 0.05178229
#
# Stress axis : x y z
#
# Youngs Moduli (GPa) = 81.37973 23.66957 71.21828
#
# Poissons Ratio (x) = 0.05034 0.57695
# Poissons Ratio (y) = 0.17309 -0.13035
# Poissons Ratio (z) = 0.65927 -0.04332
#
# Static dielectric constant tensor:
#      x y z
#    x 1.788090 0.000000 0.000000 
#    y 0.000000 1.772480 0.000000 
#    z 0.000000 0.000000 1.758840 
# 
# From -- ./inp_files/30840.got.cif
#   From: 2010.05.17/outbox.cif.g08.bks.cpg/sg47_16_cif.got.tgz:30840.got - 2010.06.03 20:15:42.
