data_PCOD9382411
_publ_section_title
;
Structure prediction by ZEFSAII (Michael W. Deem and Ramdas Pophale) SiO2 
 PCOD9382411
Probable space group: P M M M
;
_chemical_formula_sum "Si O2"
_cell_formula_units_Z 52
_cell_length_a 9.257413
_cell_length_b 13.918125
_cell_length_c 26.919607
_cell_angle_alpha 90.000000
_cell_angle_beta 90.000000
_cell_angle_gamma 90.000000
_cell_volume 3468.479142
_symmetry_space_group_name_H-M "P M M M"
_symmetry_group_IT_number 47
_symmetry_cell_setting 'orthorhombic'
loop_
_space_group_symop_operation_xyz
x,y,z
-x,-y,z
x,-y,-z
-x,y,-z
-x,-y,-z
x,y,-z
-x,y,z
x,-y,z
loop_
_atom_site_type_symbol
_atom_site_label
_atom_site_fract_x
_atom_site_fract_y
_atom_site_fract_z
Si Si1 0.833028 0.382849 0.000000
Si Si2 0.829410 0.384842 0.200138
Si Si3 0.671756 0.389371 0.598654
Si Si4 0.672451 0.109163 0.352890
Si Si5 0.666614 0.383086 0.099396
Si Si6 0.670993 0.298138 0.705762
Si Si7 0.172256 0.207250 0.443334
O O1 0.750378 0.351865 0.049825
O O2 0.832288 0.500000 0.000000
O O3 0.000000 0.352784 0.000000
O O4 0.808800 0.500000 0.205746
O O5 0.748323 0.354568 0.149691
O O6 0.762135 0.333703 0.247887
O O7 0.000000 0.366963 0.195912
O O8 0.500000 0.375921 0.589385
O O9 0.708576 0.500000 0.588796
O O10 0.695517 0.363580 0.656764
O O11 0.761598 0.312539 0.567438
O O12 0.500000 0.117633 0.362025
O O13 0.707400 0.190098 0.312035
O O14 0.755105 0.137820 0.403028
O O15 0.704357 0.000000 0.338118
O O16 0.500000 0.351993 0.099215
O O17 0.666835 0.500000 0.098696
O O18 0.500000 0.303155 0.717425
O O19 0.203704 0.178896 0.500000
O O20 0.000000 0.209250 0.436496
#
# Coordination Sequence:
#
# PCOD9382411 Si02
#       7
#     4   8   8   8   8   8   8
#     4   9  15  23  35  51  75 107 144 187 228 261
#     4  10  19  28  39  59  87 117 148 180 214 252
#     4   9  18  32  49  67  87 115 150 182 211 248
#     4   9  19  36  55  71  86 108 140 176 215 261
#     4   9  16  25  37  53  75 108 150 189 221 253
#     4   9  17  30  47  65  85 108 136 173 215 257
#     4  10  21  34  47  67  94 118 140 171 212 257
#
# _framework density 14.992162
#
# number of rings (size 3 to 8) (size 9 to 14) (size 15 to 20)
#    0.000    2.692    0.000    3.000    0.000    9.231 
#    0.000    3.077    0.000    0.000    0.000    0.000 
#    0.000    0.000    0.000    0.692    0.000   14.385 
#
# Total GULP energy -289880.623293 kJ/mol
# GULP energy per Si atom -5574.627371 kJ/mol
# Density = 1.495804 g / cm^3
# Si number density = 14.992162 Si / 1000 Ang^3
#
#
#
# Elastic Constant Matrix: (Units=GPa)
#
#
# Indices 1 2 3 4 5 6 
#
# 1 82.9579 24.1133 67.3986 0.0000 0.0000 0.0000
# 2 24.1133 41.3672 13.5607 0.0000 0.0000 0.0000
# 3 67.3986 13.5607 99.9953 0.0000 0.0000 0.0000
# 4 0.0000 0.0000 0.0000 8.9633 0.0000 0.0000
# 5 0.0000 0.0000 0.0000 0.0000 34.0662 0.0000
# 6 0.0000 0.0000 0.0000 0.0000 0.0000 10.3787
#
#
#
# Elastic Compliance Matrix: (Units=1/GPa)
#
#
# Indices 1 2 3 4 5 6 
#
# 1 0.031389 -0.011890 -0.019544 0.000000 0.000000 0.000000
# 2 -0.011890 0.029802 0.003973 0.000000 0.000000 0.000000
# 3 -0.019544 0.003973 0.022635 0.000000 0.000000 0.000000
# 4 0.000000 0.000000 0.000000 0.111566 0.000000 0.000000
# 5 0.000000 0.000000 0.000000 0.000000 0.029355 0.000000
# 6 0.000000 0.000000 0.000000 0.000000 0.000000 0.096351
#
#
# Mechanical properties :
#
#
# Convention : Reuss Voigt Hill
#
# Bulk Modulus (GPa) = 34.59896 48.27393 41.43645
# Shear Modulus (GPa) = 12.96493 18.63150 15.79821
#
# Velocity S-wave (km/s) = 2.94390 3.52909 3.24970
# Velocity P-wave (km/s) = 5.88928 6.99109 6.46370
#
# Compressibility (1/GPa) = 0.02890260
#
# Stress axis : x y z
#
# Youngs Moduli (GPa) = 31.85824 33.55448 44.17940
#
# Poissons Ratio (x) = 0.39896 0.86346
# Poissons Ratio (y) = 0.37880 -0.17550
# Poissons Ratio (z) = 0.62265 -0.13330
#
# Static dielectric constant tensor:
#      x y z
#    x 1.498740 0.000000 0.000000 
#    y 0.000000 1.482190 0.000000 
#    z 0.000000 0.000000 1.481670 
# 
# From -- ./inp_files/7587.got.cif
#   From: 2010.05.17/outbox.cif.g08.bks.cpg/sg47_4_cif.got.tgz:7587.got - 2010.06.03 20:15:42.
