data_PCOD9382783
_publ_section_title
;
Structure prediction by ZEFSAII (Michael W. Deem and Ramdas Pophale) SiO2 
 PCOD9382783
Probable space group: P M M M
;
_chemical_formula_sum "Si O2"
_cell_formula_units_Z 52
_cell_length_a 28.752065
_cell_length_b 12.136373
_cell_length_c 8.676683
_cell_angle_alpha 90.000000
_cell_angle_beta 90.000000
_cell_angle_gamma 90.000000
_cell_volume 3027.691964
_symmetry_space_group_name_H-M "P M M M"
_symmetry_group_IT_number 47
_symmetry_cell_setting 'orthorhombic'
loop_
_space_group_symop_operation_xyz
x,y,z
-x,-y,z
x,-y,-z
-x,y,-z
-x,-y,-z
x,y,-z
-x,y,z
x,-y,z
loop_
_atom_site_type_symbol
_atom_site_label
_atom_site_fract_x
_atom_site_fract_y
_atom_site_fract_z
Si Si1 0.347140 0.500000 0.687235
Si Si2 0.239933 0.500000 0.313206
Si Si3 0.099182 0.370736 0.815641
Si Si4 0.270638 0.871731 0.184855
Si Si5 0.360323 0.255915 0.684201
Si Si6 0.000000 0.366640 0.323464
Si Si7 0.552037 0.131323 0.816214
Si Si8 0.809587 0.275037 0.685291
O O1 0.349490 0.500000 0.500000
O O2 0.293219 0.500000 0.733676
O O3 0.366655 0.382467 0.738519
O O4 0.238779 0.500000 0.500000
O O5 0.215151 0.388861 0.262314
O O6 0.106771 0.500000 0.765917
O O7 0.138092 0.291236 0.744465
O O8 0.047740 0.336484 0.761189
O O9 0.101941 0.368796 0.000000
O O10 0.314064 0.800009 0.246308
O O11 0.222414 0.822102 0.248953
O O12 0.276420 0.000000 0.230056
O O13 0.270282 0.865796 0.000000
O O14 0.354235 0.256403 0.500000
O O15 0.405946 0.189119 0.730450
O O16 0.000000 0.500000 0.325601
O O17 0.000000 0.327898 0.500000
O O18 0.500000 0.167327 0.768691
O O19 0.554851 0.000000 0.792302
O O20 0.556487 0.150197 0.000000
O O21 0.809160 0.269604 0.500000
#
# Coordination Sequence:
#
# PCOD9382783 Si02
#       8
#     4   4   8   8   8   4   8   8
#     4   9  18  34  51  75 107 140 169 206 257 307
#     4   9  16  30  50  72 102 136 169 210 255 300
#     4  10  19  30  46  72 106 141 176 216 264 318
#     4  11  24  39  53  74 107 141 173 214 265 316
#     4  11  21  35  57  81 106 137 174 214 257 309
#     4   9  17  29  45  67  98 139 182 221 263 310
#     4   9  19  37  58  78 104 138 173 214 266 314
#     4  11  20  33  54  77 103 137 179 220 261 310
#
# _framework density 17.174797999999999
#
# number of rings (size 3 to 8) (size 9 to 14) (size 15 to 20)
#    0.000    1.923    2.308    3.000    0.000    5.231 
#    0.000    3.462    0.000    2.308    0.000    0.538 
#    0.000    4.308    0.000    0.000    0.000    0.000 
#
# Total GULP energy -290082.401191 kJ/mol
# GULP energy per Si atom -5578.507715 kJ/mol
# Density = 1.713571 g / cm^3
# Si number density = 17.174798 Si / 1000 Ang^3
#
#
#
# Elastic Constant Matrix: (Units=GPa)
#
#
# Indices 1 2 3 4 5 6 
#
# 1 115.5917 46.1242 35.8163 0.0000 0.0000 0.0000
# 2 46.1242 85.7279 35.4045 0.0000 0.0000 0.0000
# 3 35.8163 35.4045 48.0738 0.0000 0.0000 0.0000
# 4 0.0000 0.0000 0.0000 15.2328 0.0000 0.0000
# 5 0.0000 0.0000 0.0000 0.0000 31.6242 0.0000
# 6 0.0000 0.0000 0.0000 0.0000 0.0000 19.0110
#
#
#
# Elastic Compliance Matrix: (Units=1/GPa)
#
#
# Indices 1 2 3 4 5 6 
#
# 1 0.012140 -0.004019 -0.006085 0.000000 0.000000 0.000000
# 2 -0.004019 0.018094 -0.010331 0.000000 0.000000 0.000000
# 3 -0.006085 -0.010331 0.032944 0.000000 0.000000 0.000000
# 4 0.000000 0.000000 0.000000 0.065648 0.000000 0.000000
# 5 0.000000 0.000000 0.000000 0.000000 0.031621 0.000000
# 6 0.000000 0.000000 0.000000 0.000000 0.000000 0.052601
#
#
# Mechanical properties :
#
#
# Convention : Reuss Voigt Hill
#
# Bulk Modulus (GPa) = 44.82862 53.78704 49.30783
# Shear Modulus (GPa) = 19.13117 21.97683 20.55400
#
# Velocity S-wave (km/s) = 3.34115 3.58103 3.46317
# Velocity P-wave (km/s) = 6.40644 6.96303 6.69052
#
# Compressibility (1/GPa) = 0.02230718
#
# Stress axis : x y z
#
# Youngs Moduli (GPa) = 82.37082 55.26806 30.35499
#
# Poissons Ratio (x) = 0.22211 0.18472
# Poissons Ratio (y) = 0.33102 0.31360
# Poissons Ratio (z) = 0.50124 0.57099
#
# Static dielectric constant tensor:
#      x y z
#    x 1.572330 0.000000 0.000000 
#    y 0.000000 1.584610 0.000000 
#    z 0.000000 0.000000 1.584030 
# 
# From -- ./inp_files/13305.got.cif
#   From: 2010.05.17/outbox.cif.g08.bks.cpg/sg47_7_cif.got.tgz:13305.got - 2010.06.03 20:15:42.
