data_PCOD9382893
_publ_section_title
;
Structure prediction by ZEFSAII (Michael W. Deem and Ramdas Pophale) SiO2 
 PCOD9382893
Probable space group: P M M M
;
_chemical_formula_sum "Si O2"
_cell_formula_units_Z 64
_cell_length_a 24.866229
_cell_length_b 7.666906
_cell_length_c 15.113609
_cell_angle_alpha 90.000000
_cell_angle_beta 90.000000
_cell_angle_gamma 90.000000
_cell_volume 2881.364824
_symmetry_space_group_name_H-M "P M M M"
_symmetry_group_IT_number 47
_symmetry_cell_setting 'orthorhombic'
loop_
_space_group_symop_operation_xyz
x,y,z
-x,-y,z
x,-y,-z
-x,y,-z
-x,-y,-z
x,y,-z
-x,y,z
x,-y,z
loop_
_atom_site_type_symbol
_atom_site_label
_atom_site_fract_x
_atom_site_fract_y
_atom_site_fract_z
Si Si1 0.101904 0.298167 0.100108
Si Si2 0.325545 0.709742 0.218112
Si Si3 0.157567 0.789224 0.602250
Si Si4 0.223009 0.207117 0.100333
Si Si5 0.435616 0.299547 0.406749
Si Si6 0.439928 0.713559 0.207489
Si Si7 0.058541 0.203433 0.716362
Si Si8 0.719845 0.293807 0.599696
O O1 0.085943 0.500000 0.098175
O O2 0.165299 0.287208 0.123463
O O3 0.069572 0.211466 0.179046
O O4 0.095736 0.226770 0.000000
O O5 0.328655 0.500000 0.224561
O O6 0.272578 0.752298 0.163062
O O7 0.381428 0.765560 0.170107
O O8 0.315533 0.776004 0.318899
O O9 0.147223 0.741450 0.500000
O O10 0.109946 0.722043 0.664676
O O11 0.217491 0.727714 0.624951
O O12 0.159501 0.000000 0.608013
O O13 0.214469 0.000000 0.101397
O O14 0.235883 0.263151 0.000000
O O15 0.415643 0.221610 0.500000
O O16 0.500000 0.309363 0.414404
O O17 0.415446 0.500000 0.403604
O O18 0.430870 0.225972 0.309001
O O19 0.500000 0.771508 0.177724
O O20 0.442669 0.500000 0.206366
O O21 0.000000 0.281168 0.696254
O O22 0.056486 0.000000 0.690653
O O23 0.712813 0.220509 0.500000
O O24 0.709564 0.500000 0.593700
#
# Coordination Sequence:
#
# PCOD9382893 Si02
#       8
#     8   8   8   8   8   8   8   8
#     4  10  21  37  57  80 106 135 166 204 253 307
#     4  10  19  30  49  76 103 133 167 206 252 299
#     4   9  18  33  52  72  96 131 176 221 259 295
#     4  10  21  37  57  79 101 126 160 206 260 313
#     4   7   9  14  26  46  75 113 154 191 225 264
#     4   8  14  24  38  60  92 128 164 200 240 289
#     4  10  21  35  52  77 108 142 179 216 253 295
#     4   9  18  31  46  69 103 137 167 204 254 307
#
# _framework density 22.211696
#
# number of rings (size 3 to 8) (size 9 to 14) (size 15 to 20)
#    0.000    2.875    0.000    2.625    0.000    5.750 
#    0.000    5.000    0.000    0.750    0.000    5.250 
#    0.000    0.000    0.000    7.375    0.000    7.000 
#
# Total GULP energy -356651.452685 kJ/mol
# GULP energy per Si atom -5572.678948 kJ/mol
# Density = 2.216114 g / cm^3
# Si number density = 22.211696 Si / 1000 Ang^3
#
#
#
# Elastic Constant Matrix: (Units=GPa)
#
#
# Indices 1 2 3 4 5 6 
#
# 1 139.2478 3.7242 39.5762 0.0000 0.0000 0.0000
# 2 3.7242 38.1894 0.3185 0.0000 0.0000 0.0000
# 3 39.5762 0.3185 35.3249 0.0000 0.0000 0.0000
# 4 0.0000 0.0000 0.0000 24.9144 0.0000 0.0000
# 5 0.0000 0.0000 0.0000 0.0000 3.4433 0.0000
# 6 0.0000 0.0000 0.0000 0.0000 0.0000 5.5475
#
#
#
# Elastic Compliance Matrix: (Units=1/GPa)
#
#
# Indices 1 2 3 4 5 6 
#
# 1 0.010569 -0.000932 -0.011833 0.000000 0.000000 0.000000
# 2 -0.000932 0.026269 0.000807 0.000000 0.000000 0.000000
# 3 -0.011833 0.000807 0.041558 0.000000 0.000000 0.000000
# 4 0.000000 0.000000 0.000000 0.040137 0.000000 0.000000
# 5 0.000000 0.000000 0.000000 0.000000 0.290419 0.000000
# 6 0.000000 0.000000 0.000000 0.000000 0.000000 0.180262
#
#
# Mechanical properties :
#
#
# Convention : Reuss Voigt Hill
#
# Bulk Modulus (GPa) = 18.35476 33.33334 25.84405
# Shear Modulus (GPa) = 7.92025 18.05725 12.98875
#
# Velocity S-wave (km/s) = 1.89038 2.85434 2.42083
# Velocity P-wave (km/s) = 3.61196 5.08947 4.41299
#
# Compressibility (1/GPa) = 0.05448179
#
# Stress axis : x y z
#
# Youngs Moduli (GPa) = 94.61191 38.06708 24.06248
#
# Poissons Ratio (x) = 0.03548 0.28473
# Poissons Ratio (y) = 0.08818 -0.01943
# Poissons Ratio (z) = 1.11955 -0.03073
#
# Static dielectric constant tensor:
#      x y z
#    x 1.855780 0.000000 0.000000 
#    y 0.000000 1.821710 0.000000 
#    z 0.000000 0.000000 1.864540 
# 
# From -- ./inp_files/25607.got.cif
#   From: 2010.05.17/outbox.cif.g08.bks.cpg/sg47_13_cif.got.tgz:25607.got - 2010.06.03 20:15:42.
