data_PCOD9382831
_publ_section_title
;
Structure prediction by ZEFSAII (Michael W. Deem and Ramdas Pophale) SiO2 
 PCOD9382831
Probable space group: P M M M
;
_chemical_formula_sum "Si O2"
_cell_formula_units_Z 44
_cell_length_a 8.130129
_cell_length_b 7.391094
_cell_length_c 34.554921
_cell_angle_alpha 90.000000
_cell_angle_beta 90.000000
_cell_angle_gamma 90.000000
_cell_volume 2076.424128
_symmetry_space_group_name_H-M "P M M M"
_symmetry_group_IT_number 47
_symmetry_cell_setting 'orthorhombic'
loop_
_space_group_symop_operation_xyz
x,y,z
-x,-y,z
x,-y,-z
-x,y,-z
-x,-y,-z
x,y,-z
-x,y,z
x,-y,z
loop_
_atom_site_type_symbol
_atom_site_label
_atom_site_fract_x
_atom_site_fract_y
_atom_site_fract_z
Si Si1 0.500000 0.784761 0.683267
Si Si2 0.500000 0.283109 0.592290
Si Si3 0.815599 0.279620 0.455130
Si Si4 0.201232 0.500000 0.044158
Si Si5 0.179723 0.778870 0.271273
Si Si6 0.198598 0.207162 0.105577
Si Si7 0.310884 0.219723 0.189636
O O1 0.500000 0.755084 0.637644
O O2 0.666269 0.715581 0.703401
O O3 0.500000 0.000000 0.690276
O O4 0.500000 0.500000 0.587503
O O5 0.334035 0.216230 0.571444
O O6 0.789574 0.228077 0.500000
O O7 0.815753 0.500000 0.454278
O O8 0.000000 0.221977 0.443427
O O9 0.252788 0.327666 0.069558
O O10 0.000000 0.500000 0.043187
O O11 0.258535 0.500000 0.000000
O O12 0.206594 0.722804 0.226678
O O13 0.000000 0.721558 0.285229
O O14 0.181591 0.000000 0.271687
O O15 0.255999 0.280112 0.147208
O O16 0.000000 0.207347 0.106284
O O17 0.255028 0.000000 0.101585
O O18 0.500000 0.268381 0.196607
O O19 0.300237 0.000000 0.188590
#
# Coordination Sequence:
#
# PCOD9382831 Si02
#       7
#     4   4   8   4   8   8   8
#     4  10  20  33  47  69 100 134 170 205 242 299
#     4  10  19  30  48  70  96 128 160 200 249 299
#     4   8  14  26  46  72  96 119 158 210 256 297
#     4   9  18  32  49  71 103 137 169 211 257 308
#     4   9  16  28  48  71  95 127 168 210 251 296
#     4   9  17  29  48  74  99 126 166 211 258 313
#     4   9  15  26  47  73  97 119 152 204 256 297
#
# _framework density 21.190275
#
# number of rings (size 3 to 8) (size 9 to 14) (size 15 to 20)
#    0.000    3.000    0.909    1.364    0.000    4.364 
#    0.000    2.273    2.000    2.182    0.000    3.818 
#    0.000    0.000    0.000    0.000    0.000    0.000 
#
# Total GULP energy -245627.864880 kJ/mol
# GULP energy per Si atom -5582.451475 kJ/mol
# Density = 2.114204 g / cm^3
# Si number density = 21.190275 Si / 1000 Ang^3
#
#
#
# Elastic Constant Matrix: (Units=GPa)
#
#
# Indices 1 2 3 4 5 6 
#
# 1 150.3349 21.5680 104.9980 0.0000 0.0000 0.0000
# 2 21.5680 74.8937 17.9602 0.0000 0.0000 0.0000
# 3 104.9980 17.9602 162.7713 0.0000 0.0000 0.0000
# 4 0.0000 0.0000 0.0000 17.8445 0.0000 0.0000
# 5 0.0000 0.0000 0.0000 0.0000 28.9650 0.0000
# 6 0.0000 0.0000 0.0000 0.0000 0.0000 -6.6520
#
#
#
# Elastic Compliance Matrix: (Units=1/GPa)
#
#
# Indices 1 2 3 4 5 6 
#
# 1 0.012310 -0.001685 -0.007755 0.000000 0.000000 0.000000
# 2 -0.001685 0.013946 -0.000452 0.000000 0.000000 0.000000
# 3 -0.007755 -0.000452 0.011196 0.000000 0.000000 0.000000
# 4 0.000000 0.000000 0.000000 0.056040 0.000000 0.000000
# 5 0.000000 0.000000 0.000000 0.000000 0.034524 0.000000
# 6 0.000000 0.000000 0.000000 0.000000 0.000000 -0.150330
#
#
# Mechanical properties :
#
#
# Convention : Reuss Voigt Hill
#
# Bulk Modulus (GPa) = 56.59918 75.22802 65.91360
# Shear Modulus (GPa) = 1489.18210 24.26307 756.72258
#
# Velocity S-wave (km/s) = 26.53851 3.38747 18.91781
# Velocity P-wave (km/s) = 31.07772 7.13290 22.54665
#
# Compressibility (1/GPa) = 0.01766810
#
# Stress axis : x y z
#
# Youngs Moduli (GPa) = 81.23761 71.70560 89.32093
#
# Poissons Ratio (x) = 0.12085 0.69264
# Poissons Ratio (y) = 0.13691 0.04034
# Poissons Ratio (z) = 0.62996 0.03239
#
# Static dielectric constant tensor:
#      x y z
#    x 1.759030 0.000000 0.000000 
#    y 0.000000 1.820280 0.000000 
#    z 0.000000 0.000000 1.706680 
# 
# From -- ./inp_files/33961.got.cif
#   From: 2010.05.17/outbox.cif.g08.bks.cpg/sg47_17_cif.got.tgz:33961.got - 2010.06.03 20:15:42.
