data_PCOD9382403
_publ_section_title
;
Structure prediction by ZEFSAII (Michael W. Deem and Ramdas Pophale) SiO2 
 PCOD9382403
Probable space group: P M M M
;
_chemical_formula_sum "Si O2"
_cell_formula_units_Z 56
_cell_length_a 30.228556
_cell_length_b 8.635328
_cell_length_c 14.199728
_cell_angle_alpha 90.000000
_cell_angle_beta 90.000000
_cell_angle_gamma 90.000000
_cell_volume 3706.604642
_symmetry_space_group_name_H-M "P M M M"
_symmetry_group_IT_number 47
_symmetry_cell_setting 'orthorhombic'
loop_
_space_group_symop_operation_xyz
x,y,z
-x,-y,z
x,-y,-z
-x,y,-z
-x,-y,-z
x,y,-z
-x,y,z
x,-y,z
loop_
_atom_site_type_symbol
_atom_site_label
_atom_site_fract_x
_atom_site_fract_y
_atom_site_fract_z
Si Si1 0.141688 0.184537 0.390143
Si Si2 0.951630 0.317061 0.613759
Si Si3 0.450227 0.311274 0.891156
Si Si4 0.636316 0.312689 0.216921
Si Si5 0.685671 0.814385 0.392543
Si Si6 0.275396 0.688217 0.105970
Si Si7 0.227734 0.314268 0.707383
O O1 0.146151 0.235968 0.500000
O O2 0.092916 0.232929 0.355156
O O3 0.180771 0.256853 0.329225
O O4 0.145518 0.000000 0.388823
O O5 0.952436 0.301368 0.500000
O O6 0.948192 0.500000 0.634333
O O7 0.000000 0.261548 0.647975
O O8 0.500000 0.262052 0.864729
O O9 0.449866 0.500000 0.889949
O O10 0.410607 0.259450 0.824065
O O11 0.442176 0.266018 0.000000
O O12 0.636189 0.500000 0.222184
O O13 0.649934 0.247591 0.318160
O O14 0.676087 0.268878 0.145450
O O15 0.676965 0.766626 0.500000
O O16 0.733134 0.750443 0.358587
O O17 0.686948 0.000000 0.388410
O O18 0.274528 0.500000 0.103001
O O19 0.240480 0.735938 0.186197
O O20 0.267870 0.745047 0.000000
O O21 0.229333 0.500000 0.704084
#
# Coordination Sequence:
#
# PCOD9382403 Si02
#       7
#     8   8   8   8   8   8   8
#     4  10  19  28  39  57  84 117 146 173 207 245
#     4   8  14  25  40  57  78 106 141 179 214 246
#     4   8  13  22  40  68  96 115 133 164 207 251
#     4   9  16  26  44  67  86 108 138 169 201 241
#     4  10  20  32  44  58  80 110 141 174 211 247
#     4   8  14  25  41  61  83 105 131 164 201 242
#     4  10  19  29  44  64  83 107 139 173 207 244
#
# _framework density 15.108167
#
# number of rings (size 3 to 8) (size 9 to 14) (size 15 to 20)
#    0.000    3.000    0.000    3.857    0.000    5.714 
#    0.000    1.429    0.000   15.429    0.000    4.000 
#    0.000    0.571    0.000    6.571    0.000    2.143 
#
# Total GULP energy -311841.526689 kJ/mol
# GULP energy per Si atom -5568.598691 kJ/mol
# Density = 1.507378 g / cm^3
# Si number density = 15.108167 Si / 1000 Ang^3
#
#
#
# Elastic Constant Matrix: (Units=GPa)
#
#
# Indices 1 2 3 4 5 6 
#
# 1 142.5400 29.2986 75.9132 0.0000 0.0000 0.0000
# 2 29.2986 18.1600 22.8091 0.0000 0.0000 0.0000
# 3 75.9132 22.8091 110.1012 0.0000 0.0000 0.0000
# 4 0.0000 0.0000 0.0000 -10.5591 0.0000 0.0000
# 5 0.0000 0.0000 0.0000 0.0000 19.8786 0.0000
# 6 0.0000 0.0000 0.0000 0.0000 0.0000 2.6088
#
#
#
# Elastic Compliance Matrix: (Units=1/GPa)
#
#
# Indices 1 2 3 4 5 6 
#
# 1 0.013074 -0.013208 -0.006278 0.000000 0.000000 0.000000
# 2 -0.013208 0.087777 -0.009078 0.000000 0.000000 0.000000
# 3 -0.006278 -0.009078 0.015292 0.000000 0.000000 0.000000
# 4 0.000000 0.000000 0.000000 -0.094705 0.000000 0.000000
# 5 0.000000 0.000000 0.000000 0.000000 0.050305 0.000000
# 6 0.000000 0.000000 0.000000 0.000000 0.000000 0.383317
#
#
# Mechanical properties :
#
#
# Convention : Reuss Voigt Hill
#
# Bulk Modulus (GPa) = 16.94473 58.53812 37.74142
# Shear Modulus (GPa) = 9.40099 11.90435 10.65267
#
# Velocity S-wave (km/s) = 2.49719 2.81008 2.65824
# Velocity P-wave (km/s) = 4.42206 7.02558 5.86998
#
# Compressibility (1/GPa) = 0.05901541
#
# Stress axis : x y z
#
# Youngs Moduli (GPa) = 76.48804 11.39254 65.39437
#
# Poissons Ratio (x) = 0.15047 0.41055
# Poissons Ratio (y) = 1.01023 0.59363
# Poissons Ratio (z) = 0.48020 0.10342
#
# Static dielectric constant tensor:
#      x y z
#    x 1.506690 0.000000 0.000000 
#    y 0.000000 1.508800 0.000000 
#    z 0.000000 0.000000 1.492920 
# 
# From -- ./inp_files/25800.got.cif
#   From: 2010.05.17/outbox.cif.g08.bks.cpg/sg47_13_cif.got.tgz:25800.got - 2010.06.03 20:15:42.
