data_PCOD9382277
_publ_section_title
;
Structure prediction by ZEFSAII (Michael W. Deem and Ramdas Pophale) SiO2 
 PCOD9382277
Probable space group: P M M M
;
_chemical_formula_sum "Si O2"
_cell_formula_units_Z 52
_cell_length_a 17.731927
_cell_length_b 7.467772
_cell_length_c 16.800978
_cell_angle_alpha 90.000000
_cell_angle_beta 90.000000
_cell_angle_gamma 90.000000
_cell_volume 2224.751702
_symmetry_space_group_name_H-M "P M M M"
_symmetry_group_IT_number 47
_symmetry_cell_setting 'orthorhombic'
loop_
_space_group_symop_operation_xyz
x,y,z
-x,-y,z
x,-y,-z
-x,y,-z
-x,-y,-z
x,y,-z
-x,y,z
x,-y,z
loop_
_atom_site_type_symbol
_atom_site_label
_atom_site_fract_x
_atom_site_fract_y
_atom_site_fract_z
Si Si1 0.364706 0.218954 0.411385
Si Si2 0.080835 0.779513 0.250955
Si Si3 0.200860 0.204146 0.636349
Si Si4 0.583377 0.214451 0.235798
Si Si5 0.303608 0.712533 0.089554
Si Si6 0.086760 0.716499 0.500000
Si Si7 0.870815 0.208477 0.914161
O O1 0.391834 0.276866 0.500000
O O2 0.277059 0.276173 0.401554
O O3 0.400125 0.277486 0.326778
O O4 0.369682 0.000000 0.413404
O O5 0.158421 0.711379 0.289417
O O6 0.085139 0.718741 0.160512
O O7 0.000000 0.725732 0.287301
O O8 0.083232 0.000000 0.254809
O O9 0.133187 0.209171 0.573854
O O10 0.221004 0.000000 0.657856
O O11 0.500000 0.278428 0.212101
O O12 0.643288 0.251288 0.165681
O O13 0.581831 0.000000 0.242159
O O14 0.296537 0.500000 0.085466
O O15 0.219230 0.785980 0.100998
O O16 0.329937 0.773359 0.000000
O O17 0.091098 0.500000 0.500000
O O18 0.000000 0.769820 0.500000
O O19 0.892136 0.000000 0.918187
O O20 0.884809 0.291244 0.000000
#
# Coordination Sequence:
#
# PCOD9382277 Si02
#       7
#     8   8   8   8   8   4   8
#     4   9  17  32  56  83 109 138 177 222 264 310
#     4   9  17  28  46  76 109 138 173 219 267 315
#     4  10  18  32  54  74  95 133 178 212 247 303
#     4  10  21  36  57  86 115 142 174 216 267 321
#     4  10  21  37  57  80 108 144 183 222 267 321
#     4  11  23  35  47  69 102 131 160 212 271 309
#     4   9  17  31  53  78 104 137 177 221 266 312
#
# _framework density 23.373396
#
# number of rings (size 3 to 8) (size 9 to 14) (size 15 to 20)
#    0.000    2.385    0.769    2.077    0.000    5.846 
#    0.000    7.692    0.000    1.385    0.000    3.231 
#    0.000    0.000    0.000    0.000    0.000    0.000 
#
# Total GULP energy -289962.449899 kJ/mol
# GULP energy per Si atom -5576.200960 kJ/mol
# Density = 2.332020 g / cm^3
# Si number density = 23.373396 Si / 1000 Ang^3
#
#
#
# Elastic Constant Matrix: (Units=GPa)
#
#
# Indices 1 2 3 4 5 6 
#
# 1 38.9194 -8.6420 13.5038 0.0000 0.0000 0.0000
# 2 -8.6420 75.6711 -4.1332 0.0000 0.0000 0.0000
# 3 13.5038 -4.1332 129.0053 0.0000 0.0000 0.0000
# 4 0.0000 0.0000 0.0000 -235.1145 0.0000 0.0000
# 5 0.0000 0.0000 0.0000 0.0000 23.2427 0.0000
# 6 0.0000 0.0000 0.0000 0.0000 0.0000 -277.3191
#
#
#
# Elastic Compliance Matrix: (Units=1/GPa)
#
#
# Indices 1 2 3 4 5 6 
#
# 1 0.027312 0.002968 -0.002764 0.000000 0.000000 0.000000
# 2 0.002968 0.013561 0.000124 0.000000 0.000000 0.000000
# 3 -0.002764 0.000124 0.008045 0.000000 0.000000 0.000000
# 4 0.000000 0.000000 0.000000 -0.004253 0.000000 0.000000
# 5 0.000000 0.000000 0.000000 0.000000 0.043024 0.000000
# 6 0.000000 0.000000 0.000000 0.000000 0.000000 -0.003606
#
#
# Mechanical properties :
#
#
# Convention : Reuss Voigt Hill
#
# Bulk Modulus (GPa) = 20.17180 27.22811 23.69996
# Shear Modulus (GPa) = 50.02430 -81.64705 -15.81138
#
# Velocity S-wave (km/s) = 4.63127 -5.91671 -2.60372
# Velocity P-wave (km/s) = 6.10305 5.91626 1.05951
#
# Compressibility (1/GPa) = 0.04957416
#
# Stress axis : x y z
#
# Youngs Moduli (GPa) = 36.61376 73.74179 124.30252
#
# Poissons Ratio (x) = -0.21888 0.34355
# Poissons Ratio (y) = -0.10868 -0.01539
# Poissons Ratio (z) = 0.10119 -0.00913
#
# Static dielectric constant tensor:
#      x y z
#    x 1.854610 0.000000 0.000000 
#    y 0.000000 1.902650 0.000000 
#    z 0.000000 0.000000 2.011730 
# 
# From -- ./inp_files/28495.got.cif
#   From: 2010.05.17/outbox.cif.g08.bks.cpg/sg47_15_cif.got.tgz:28495.got - 2010.06.03 20:15:42.
