data_PCOD9382926
_publ_section_title
;
Structure prediction by ZEFSAII (Michael W. Deem and Ramdas Pophale) SiO2 
 PCOD9382926
Probable space group: P M M M
;
_chemical_formula_sum "Si O2"
_cell_formula_units_Z 64
_cell_length_a 26.963880
_cell_length_b 14.302108
_cell_length_c 8.970152
_cell_angle_alpha 90.000000
_cell_angle_beta 90.000000
_cell_angle_gamma 90.000000
_cell_volume 3459.252322
_symmetry_space_group_name_H-M "P M M M"
_symmetry_group_IT_number 47
_symmetry_cell_setting 'orthorhombic'
loop_
_space_group_symop_operation_xyz
x,y,z
-x,-y,z
x,-y,-z
-x,y,-z
-x,-y,-z
x,y,-z
-x,y,z
x,-y,z
loop_
_atom_site_type_symbol
_atom_site_label
_atom_site_fract_x
_atom_site_fract_y
_atom_site_fract_z
Si Si1 0.055734 0.107710 0.681473
Si Si2 0.445363 0.787843 0.677849
Si Si3 0.150382 0.226111 0.680227
Si Si4 0.248649 0.110223 0.678319
Si Si5 0.799000 0.610439 0.823330
Si Si6 0.592976 0.390788 0.822567
Si Si7 0.696010 0.386719 0.330948
Si Si8 0.648257 0.887290 0.174168
O O1 0.056111 0.108049 0.500000
O O2 0.100337 0.174137 0.729062
O O3 0.000000 0.134959 0.728441
O O4 0.064438 0.000000 0.726836
O O5 0.440548 0.787884 0.500000
O O6 0.500000 0.826049 0.717250
O O7 0.441463 0.682163 0.738493
O O8 0.399765 0.843927 0.748056
O O9 0.150009 0.234569 0.500000
O O10 0.198779 0.164532 0.721364
O O11 0.158117 0.326173 0.755064
O O12 0.254356 0.118562 0.500000
O O13 0.299528 0.143699 0.754029
O O14 0.242474 0.000000 0.713400
O O15 0.806433 0.500000 0.796506
O O16 0.748046 0.640002 0.741592
O O17 0.794008 0.624417 0.000000
O O18 0.584221 0.500000 0.784709
O O19 0.648654 0.364848 0.769808
O O20 0.588439 0.381004 0.000000
O O21 0.690749 0.350569 0.500000
O O22 0.696889 0.500000 0.338801
O O23 0.646275 0.000000 0.189224
O O24 0.647745 0.863119 0.000000
#
# Coordination Sequence:
#
# PCOD9382926 Si02
#       8
#     8   8   8   8   8   8   8   8
#     4   8  14  27  50  81 115 147 181 225 275 327
#     4  11  25  42  60  82 107 139 181 227 273 325
#     4  10  19  30  51  82 111 143 183 227 273 321
#     4   9  18  33  53  79 112 144 172 208 260 326
#     4  10  21  35  49  69 103 146 188 228 273 323
#     4  10  21  37  58  83 111 143 177 217 268 325
#     4   9  17  31  52  76 102 134 174 218 263 316
#     4  10  22  40  61  83 108 140 177 221 274 329
#
# _framework density 18.501107999999999
#
# number of rings (size 3 to 8) (size 9 to 14) (size 15 to 20)
#    0.000    2.375    0.000    2.625    1.750    7.250 
#    0.000    2.500    0.000    1.875    0.000    3.500 
#    0.000    0.000    0.000    0.000    0.000    0.000 
#
# Total GULP energy -357348.057628 kJ/mol
# GULP energy per Si atom -5583.563400 kJ/mol
# Density = 1.845900 g / cm^3
# Si number density = 18.501108 Si / 1000 Ang^3
#
#
#
# Elastic Constant Matrix: (Units=GPa)
#
#
# Indices 1 2 3 4 5 6 
#
# 1 133.1057 47.8630 41.3485 0.0000 0.0000 0.0000
# 2 47.8630 51.1527 28.1439 0.0000 0.0000 0.0000
# 3 41.3485 28.1439 46.0043 0.0000 0.0000 0.0000
# 4 0.0000 0.0000 0.0000 24.0117 0.0000 0.0000
# 5 0.0000 0.0000 0.0000 0.0000 -3.6869 0.0000
# 6 0.0000 0.0000 0.0000 0.0000 0.0000 28.6780
#
#
#
# Elastic Compliance Matrix: (Units=1/GPa)
#
#
# Indices 1 2 3 4 5 6 
#
# 1 0.012356 -0.008217 -0.006079 0.000000 0.000000 0.000000
# 2 -0.008217 0.034932 -0.013985 0.000000 0.000000 0.000000
# 3 -0.006079 -0.013985 0.035756 0.000000 0.000000 0.000000
# 4 0.000000 0.000000 0.000000 0.041646 0.000000 0.000000
# 5 0.000000 0.000000 0.000000 0.000000 -0.271234 0.000000
# 6 0.000000 0.000000 0.000000 0.000000 0.000000 0.034870
#
#
# Mechanical properties :
#
#
# Convention : Reuss Voigt Hill
#
# Bulk Modulus (GPa) = 37.75988 51.66372 44.71180
# Shear Modulus (GPa) = -108.02638 17.32772 -45.34933
#
# Velocity S-wave (km/s) = -7.64957 3.06368 -4.95630
# Velocity P-wave (km/s) = 7.58732 6.36397 2.92124
#
# Compressibility (1/GPa) = 0.02648313
#
# Stress axis : x y z
#
# Youngs Moduli (GPa) = 80.93417 28.62688 27.96718
#
# Poissons Ratio (x) = 0.23522 0.17000
# Poissons Ratio (y) = 0.66501 0.39113
# Poissons Ratio (z) = 0.49196 0.40035
#
# Static dielectric constant tensor:
#      x y z
#    x 1.627320 0.000000 0.000000 
#    y 0.000000 1.670790 0.000000 
#    z 0.000000 0.000000 1.616600 
# 
# From -- ./inp_files/7827.got.cif
#   From: 2010.05.17/outbox.cif.g08.bks.cpg/sg47_4_cif.got.tgz:7827.got - 2010.06.03 20:15:42.
