data_PCOD9382183
_publ_section_title
;
Structure prediction by ZEFSAII (Michael W. Deem and Ramdas Pophale) SiO2 
 PCOD9382183
Probable space group: P M M M
;
_chemical_formula_sum "Si O2"
_cell_formula_units_Z 44
_cell_length_a 10.095195
_cell_length_b 7.589664
_cell_length_c 27.594268
_cell_angle_alpha 90.000000
_cell_angle_beta 90.000000
_cell_angle_gamma 90.000000
_cell_volume 2114.249030
_symmetry_space_group_name_H-M "P M M M"
_symmetry_group_IT_number 47
_symmetry_cell_setting 'orthorhombic'
loop_
_space_group_symop_operation_xyz
x,y,z
-x,-y,z
x,-y,-z
-x,y,-z
-x,-y,-z
x,y,-z
-x,y,z
x,-y,z
loop_
_atom_site_type_symbol
_atom_site_label
_atom_site_fract_x
_atom_site_fract_y
_atom_site_fract_z
Si Si1 0.155610 0.214408 0.500000
Si Si2 0.000000 0.215984 0.944131
Si Si3 0.149063 0.708661 0.781631
Si Si4 0.748953 0.788665 0.883730
Si Si5 0.150702 0.793489 0.327801
Si Si6 0.500000 0.783656 0.944337
Si Si7 0.345599 0.784607 0.589522
O O1 0.245311 0.266741 0.453833
O O2 0.000000 0.272955 0.500000
O O3 0.149672 0.000000 0.500000
O O4 0.124758 0.276158 0.913301
O O5 0.000000 0.000000 0.945006
O O6 0.000000 0.272257 0.000000
O O7 0.141804 0.500000 0.776303
O O8 0.241375 0.746750 0.827157
O O9 0.185849 0.779466 0.728866
O O10 0.000000 0.776489 0.793231
O O11 0.624597 0.723863 0.913527
O O12 0.748912 0.000000 0.886786
O O13 0.267749 0.724597 0.362034
O O14 0.000000 0.719475 0.334218
O O15 0.140118 0.000000 0.339943
O O16 0.500000 0.000000 0.945484
O O17 0.500000 0.726487 0.000000
O O18 0.500000 0.726196 0.585409
O O19 0.351830 0.000000 0.589038
#
# Coordination Sequence:
#
# PCOD9382183 Si02
#       7
#     4   4   8   8   8   4   8
#     4   9  15  23  39  65 100 137 168 197 240 296
#     4   9  16  26  47  77 101 123 157 198 237 284
#     4  10  20  34  52  73  98 128 165 210 255 296
#     4  10  18  31  52  76 101 129 162 200 244 294
#     4   9  17  30  49  70  94 126 166 206 245 292
#     4   9  18  32  51  77 105 129 157 198 245 292
#     4   9  16  26  41  66  99 132 164 203 247 290
#
# _framework density 20.811173
#
# number of rings (size 3 to 8) (size 9 to 14) (size 15 to 20)
#    0.000    2.636    0.909    1.909    0.000    6.182 
#    1.636    0.455    0.000    3.273    0.000    0.636 
#    0.000    5.091    0.000    0.000    0.000    0.000 
#
# Total GULP energy -245367.865798 kJ/mol
# GULP energy per Si atom -5576.542404 kJ/mol
# Density = 2.076381 g / cm^3
# Si number density = 20.811173 Si / 1000 Ang^3
#
#
#
# Elastic Constant Matrix: (Units=GPa)
#
#
# Indices 1 2 3 4 5 6 
#
# 1 201.8727 7.6325 117.1159 0.0000 0.0000 0.0000
# 2 7.6325 43.3167 -5.2057 0.0000 0.0000 0.0000
# 3 117.1159 -5.2057 172.7439 0.0000 0.0000 0.0000
# 4 0.0000 0.0000 0.0000 -50.1128 0.0000 0.0000
# 5 0.0000 0.0000 0.0000 0.0000 31.6206 0.0000
# 6 0.0000 0.0000 0.0000 0.0000 0.0000 -3.5659
#
#
#
# Elastic Compliance Matrix: (Units=1/GPa)
#
#
# Indices 1 2 3 4 5 6 
#
# 1 0.008362 -0.002163 -0.005735 0.000000 0.000000 0.000000
# 2 -0.002163 0.023729 0.002181 0.000000 0.000000 0.000000
# 3 -0.005735 0.002181 0.009743 0.000000 0.000000 0.000000
# 4 0.000000 0.000000 0.000000 -0.019955 0.000000 0.000000
# 5 0.000000 0.000000 0.000000 0.000000 0.031625 0.000000
# 6 0.000000 0.000000 0.000000 0.000000 0.000000 -0.280436
#
#
# Mechanical properties :
#
#
# Convention : Reuss Voigt Hill
#
# Bulk Modulus (GPa) = 32.89256 73.00207 52.94731
# Shear Modulus (GPa) = -24.34676 15.48109 -4.43284
#
# Velocity S-wave (km/s) = -3.42407 2.73038 -1.46104
# Velocity P-wave (km/s) = 0.45516 6.71524 4.75929
#
# Compressibility (1/GPa) = 0.03040201
#
# Stress axis : x y z
#
# Youngs Moduli (GPa) = 119.58442 42.14250 102.64247
#
# Poissons Ratio (x) = 0.09114 0.58861
# Poissons Ratio (y) = 0.25862 -0.22389
# Poissons Ratio (z) = 0.68577 -0.09193
#
# Static dielectric constant tensor:
#      x y z
#    x 1.712390 0.000000 0.000000 
#    y 0.000000 1.768360 0.000000 
#    z 0.000000 0.000000 1.726620 
# 
# From -- ./inp_files/34004.got.cif
#   From: 2010.05.17/outbox.cif.g08.bks.cpg/sg47_18_cif.got.tgz:34004.got - 2010.06.03 20:15:42.
