data_PCOD9382936
_publ_section_title
;
Structure prediction by ZEFSAII (Michael W. Deem and Ramdas Pophale) SiO2 
 PCOD9382936
Probable space group: P M M M
;
_chemical_formula_sum "Si O2"
_cell_formula_units_Z 60
_cell_length_a 19.291628
_cell_length_b 25.232090
_cell_length_c 7.973147
_cell_angle_alpha 90.000000
_cell_angle_beta 90.000000
_cell_angle_gamma 90.000000
_cell_volume 3881.073568
_symmetry_space_group_name_H-M "P M M M"
_symmetry_group_IT_number 47
_symmetry_cell_setting 'orthorhombic'
loop_
_space_group_symop_operation_xyz
x,y,z
-x,-y,z
x,-y,-z
-x,y,-z
-x,-y,-z
x,y,-z
-x,y,z
x,-y,z
loop_
_atom_site_type_symbol
_atom_site_label
_atom_site_fract_x
_atom_site_fract_y
_atom_site_fract_z
Si Si1 0.711151 0.057833 0.700370
Si Si2 0.420910 0.328141 0.298802
Si Si3 0.915524 0.000000 0.193225
Si Si4 0.785785 0.836758 0.699771
Si Si5 0.420695 0.883123 0.796606
Si Si6 0.343458 0.223263 0.198109
Si Si7 0.920977 0.115521 0.797527
Si Si8 0.415997 0.442973 0.698614
O O1 0.721650 0.056911 0.500000
O O2 0.752700 0.108286 0.770028
O O3 0.630922 0.071325 0.734937
O O4 0.730612 0.000000 0.768043
O O5 0.425373 0.333471 0.500000
O O6 0.500000 0.318351 0.237064
O O7 0.372404 0.278561 0.262809
O O8 0.394716 0.385421 0.232771
O O9 0.897418 0.057134 0.269835
O O10 0.000000 0.000000 0.188755
O O11 0.891290 0.000000 0.000000
O O12 0.780112 0.837133 0.500000
O O13 0.736431 0.790041 0.762902
O O14 0.865921 0.840247 0.747839
O O15 0.500000 0.888773 0.742410
O O16 0.388314 0.826981 0.736139
O O17 0.419293 0.883230 0.000000
O O18 0.352683 0.223674 0.000000
O O19 0.000000 0.125185 0.741879
O O20 0.922261 0.111435 0.000000
O O21 0.398664 0.444090 0.500000
O O22 0.500000 0.442111 0.708732
O O23 0.392959 0.500000 0.770895
#
# Coordination Sequence:
#
# PCOD9382936 Si02
#       8
#     8   8   4   8   8   8   8   8
#     4   9  19  33  44  56  75  97 120 148 190 242
#     4   9  16  25  40  62  84 107 139 178 214 245
#     4   7  12  24  41  61  83 103 122 145 174 217
#     4  10  20  32  46  61  80 103 128 162 200 239
#     4   9  18  31  44  57  72  91 120 160 200 237
#     4  10  19  31  44  57  77 104 136 169 205 247
#     4   9  17  30  47  66  86 106 128 153 185 231
#     4   7  10  18  33  54  80 108 137 169 204 241
#
# _framework density 15.459638999999999
#
# number of rings (size 3 to 8) (size 9 to 14) (size 15 to 20)
#    0.000    3.133    0.000    3.200    0.933    2.933 
#    0.000    1.333    0.000    1.600    0.000    1.867 
#    0.000    0.000    0.000    0.000    0.000    0.667 
#
# Total GULP energy -334100.715140 kJ/mol
# GULP energy per Si atom -5568.345252 kJ/mol
# Density = 1.542445 g / cm^3
# Si number density = 15.459639 Si / 1000 Ang^3
#
#
#
# Elastic Constant Matrix: (Units=GPa)
#
#
# Indices 1 2 3 4 5 6 
#
# 1 58.6998 31.7800 -3.5079 0.0000 0.0000 0.0000
# 2 31.7800 105.7585 7.3960 0.0000 0.0000 0.0000
# 3 -3.5079 7.3960 13.9660 0.0000 0.0000 0.0000
# 4 0.0000 0.0000 0.0000 1.9965 0.0000 0.0000
# 5 0.0000 0.0000 0.0000 0.0000 14.2099 0.0000
# 6 0.0000 0.0000 0.0000 0.0000 0.0000 12.2492
#
#
#
# Elastic Compliance Matrix: (Units=1/GPa)
#
#
# Indices 1 2 3 4 5 6 
#
# 1 0.021409 -0.007071 0.009122 0.000000 0.000000 0.000000
# 2 -0.007071 0.012155 -0.008213 0.000000 0.000000 0.000000
# 3 0.009122 -0.008213 0.078243 0.000000 0.000000 0.000000
# 4 0.000000 0.000000 0.000000 0.500879 0.000000 0.000000
# 5 0.000000 0.000000 0.000000 0.000000 0.070374 0.000000
# 6 0.000000 0.000000 0.000000 0.000000 0.000000 0.081638
#
#
# Mechanical properties :
#
#
# Convention : Reuss Voigt Hill
#
# Bulk Modulus (GPa) = 10.05196 27.75116 18.90156
# Shear Modulus (GPa) = 6.17144 15.20820 10.68982
#
# Velocity S-wave (km/s) = 2.00016 3.13986 2.63243
# Velocity P-wave (km/s) = 3.44244 5.57984 4.63600
#
# Compressibility (1/GPa) = 0.09948310
#
# Stress axis : x y z
#
# Youngs Moduli (GPa) = 46.70837 82.27214 12.78071
#
# Poissons Ratio (x) = 0.58178 -0.11659
# Poissons Ratio (y) = 0.33029 0.10497
# Poissons Ratio (z) = -0.42609 0.67570
#
# Static dielectric constant tensor:
#      x y z
#    x 1.522790 0.000000 0.000000 
#    y 0.000000 1.552930 0.000000 
#    z 0.000000 0.000000 1.554350 
# 
# From -- ./inp_files/10166.got.cif
#   From: 2010.05.17/outbox.cif.g08.bks.cpg/sg47_6_cif.got.tgz:10166.got - 2010.06.03 20:15:42.
