data_PCOD9382051
_publ_section_title
;
Structure prediction by ZEFSAII (Michael W. Deem and Ramdas Pophale) SiO2 
 PCOD9382051
Probable space group: P M M M
;
_chemical_formula_sum "Si O2"
_cell_formula_units_Z 40
_cell_length_a 12.982069
_cell_length_b 20.732877
_cell_length_c 8.173730
_cell_angle_alpha 90.000000
_cell_angle_beta 90.000000
_cell_angle_gamma 90.000000
_cell_volume 2200.005528
_symmetry_space_group_name_H-M "P M M M"
_symmetry_group_IT_number 47
_symmetry_cell_setting 'orthorhombic'
loop_
_space_group_symop_operation_xyz
x,y,z
-x,-y,z
x,-y,-z
-x,y,-z
-x,-y,-z
x,y,-z
-x,y,z
x,-y,z
loop_
_atom_site_type_symbol
_atom_site_label
_atom_site_fract_x
_atom_site_fract_y
_atom_site_fract_z
Si Si1 0.716058 0.244690 0.695423
Si Si2 0.500000 0.402534 0.310740
Si Si3 0.500000 0.259708 0.810698
Si Si4 0.874791 0.000000 0.189159
Si Si5 0.117119 0.500000 0.804799
Si Si6 0.723773 0.393557 0.302131
Si Si7 0.881374 0.859243 0.198406
O O1 0.706836 0.245128 0.500000
O O2 0.606233 0.224314 0.770768
O O3 0.735503 0.318933 0.749910
O O4 0.806557 0.197126 0.746191
O O5 0.500000 0.423120 0.500000
O O6 0.500000 0.324369 0.299859
O O7 0.612139 0.419707 0.240431
O O8 0.500000 0.279575 0.000000
O O9 0.846319 0.069711 0.260427
O O10 0.000000 0.000000 0.186366
O O11 0.839675 0.000000 0.000000
O O12 0.182542 0.438011 0.750279
O O13 0.000000 0.500000 0.740387
O O14 0.112543 0.500000 0.000000
O O15 0.718496 0.394300 0.500000
O O16 0.000000 0.848397 0.250054
O O17 0.881491 0.861865 0.000000
#
# Coordination Sequence:
#
# PCOD9382051 Si02
#       7
#     8   4   4   4   4   8   8
#     4  10  20  34  52  76 105 134 166 206 252 300
#     4   8  16  33  55  80 104 123 151 198 253 299
#     4  10  18  30  51  76 101 132 168 204 248 298
#     4   7  12  26  47  70  99 134 169 205 247 295
#     4  11  25  40  51  68  98 133 168 209 252 289
#     4   9  19  36  56  74  96 129 164 198 243 303
#     4   9  17  30  50  76 104 135 171 209 249 295
#
# _framework density 18.181773
#
# number of rings (size 3 to 8) (size 9 to 14) (size 15 to 20)
#    0.000    2.800    0.000    4.200    0.000    6.400 
#    0.000    6.500    0.000    2.400    0.000    4.200 
#    0.000    0.000    0.000    0.000    0.000    0.000 
#
# Total GULP energy -222858.016737 kJ/mol
# GULP energy per Si atom -5571.450418 kJ/mol
# Density = 1.814039 g / cm^3
# Si number density = 18.181773 Si / 1000 Ang^3
#
#
#
# Elastic Constant Matrix: (Units=GPa)
#
#
# Indices 1 2 3 4 5 6 
#
# 1 163.0044 88.0305 19.4957 0.0000 0.0000 0.0000
# 2 88.0305 122.7774 20.2574 0.0000 0.0000 0.0000
# 3 19.4957 20.2574 28.0537 0.0000 0.0000 0.0000
# 4 0.0000 0.0000 0.0000 25.7286 0.0000 0.0000
# 5 0.0000 0.0000 0.0000 0.0000 26.2280 0.0000
# 6 0.0000 0.0000 0.0000 0.0000 0.0000 -89.7720
#
#
#
# Elastic Compliance Matrix: (Units=1/GPa)
#
#
# Indices 1 2 3 4 5 6 
#
# 1 0.010113 -0.006915 -0.002034 0.000000 0.000000 0.000000
# 2 -0.006915 0.013975 -0.005286 0.000000 0.000000 0.000000
# 3 -0.002034 -0.005286 0.040877 0.000000 0.000000 0.000000
# 4 0.000000 0.000000 0.000000 0.038867 0.000000 0.000000
# 5 0.000000 0.000000 0.000000 0.000000 0.038127 0.000000
# 6 0.000000 0.000000 0.000000 0.000000 0.000000 -0.011139
#
#
# Mechanical properties :
#
#
# Convention : Reuss Voigt Hill
#
# Bulk Modulus (GPa) = 27.40187 63.26697 45.33442
# Shear Modulus (GPa) = 29.16237 4.84036 17.00137
#
# Velocity S-wave (km/s) = 4.00926 1.63340 3.06122
# Velocity P-wave (km/s) = 6.04450 6.19918 6.12233
#
# Compressibility (1/GPa) = 0.03649386
#
# Stress axis : x y z
#
# Youngs Moduli (GPa) = 98.88703 71.55679 24.46393
#
# Poissons Ratio (x) = 0.49481 0.04977
# Poissons Ratio (y) = 0.68380 0.12931
# Poissons Ratio (z) = 0.20117 0.37823
#
# Static dielectric constant tensor:
#      x y z
#    x 1.635570 0.000000 0.000000 
#    y 0.000000 1.638220 0.000000 
#    z 0.000000 0.000000 1.648870 
# 
# From -- ./inp_files/4180.got.cif
#   From: 2010.05.17/outbox.cif.g08.bks.cpg/sg47_3_cif.got.tgz:4180.got - 2010.06.03 20:15:42.
