data_PCOD9382275
_publ_section_title
;
Structure prediction by ZEFSAII (Michael W. Deem and Ramdas Pophale) SiO2 
 PCOD9382275
Probable space group: P M M M
;
_chemical_formula_sum "Si O2"
_cell_formula_units_Z 64
_cell_length_a 18.270512
_cell_length_b 14.495139
_cell_length_c 13.868342
_cell_angle_alpha 90.000000
_cell_angle_beta 90.000000
_cell_angle_gamma 90.000000
_cell_volume 3672.803091
_symmetry_space_group_name_H-M "P M M M"
_symmetry_group_IT_number 47
_symmetry_cell_setting 'orthorhombic'
loop_
_space_group_symop_operation_xyz
x,y,z
-x,-y,z
x,-y,-z
-x,y,-z
-x,-y,-z
x,y,-z
-x,y,z
x,-y,z
loop_
_atom_site_type_symbol
_atom_site_label
_atom_site_fract_x
_atom_site_fract_y
_atom_site_fract_z
Si Si1 0.087922 0.605391 0.613404
Si Si2 0.413133 0.343064 0.608434
Si Si3 0.685416 0.840117 0.607422
Si Si4 0.580083 0.718592 0.889945
Si Si5 0.198696 0.892392 0.887399
Si Si6 0.812120 0.748104 0.722180
Si Si7 0.638028 0.901362 0.190958
Si Si8 0.310956 0.397095 0.219132
O O1 0.107190 0.616687 0.500000
O O2 0.110627 0.500000 0.641005
O O3 0.124638 0.686086 0.675383
O O4 0.000000 0.609370 0.620878
O O5 0.405560 0.382068 0.500000
O O6 0.500000 0.337929 0.629734
O O7 0.373774 0.243170 0.605827
O O8 0.366058 0.394675 0.689102
O O9 0.688213 0.879912 0.500000
O O10 0.764679 0.800407 0.639689
O O11 0.660901 0.901374 0.697127
O O12 0.500000 0.678987 0.871245
O O13 0.591836 0.810213 0.827556
O O14 0.640756 0.643916 0.866488
O O15 0.584678 0.748319 0.000000
O O16 0.168092 0.820968 0.807103
O O17 0.286488 0.889894 0.868884
O O18 0.176673 0.000000 0.871108
O O19 0.183736 0.869442 0.000000
O O20 0.754056 0.674560 0.764152
O O21 0.604132 0.000000 0.165186
O O22 0.284644 0.500000 0.203011
#
# Coordination Sequence:
#
# PCOD9382275 Si02
#       8
#     8   8   8   8   8   8   8   8
#     4   9  18  33  55  84 117 152 186 217 252 302
#     4   9  17  30  47  64  87 123 162 199 244 299
#     4   9  17  29  46  73 103 131 163 204 253 305
#     4  11  23  38  52  67  93 129 171 222 273 320
#     4   9  17  31  54  80 104 135 177 222 268 317
#     4  10  18  32  53  81 110 138 175 216 265 303
#     4  10  19  32  51  73  97 128 168 215 264 316
#     4  11  22  34  49  72  99 127 165 213 262 311
#
# _framework density 17.425381999999999
#
# number of rings (size 3 to 8) (size 9 to 14) (size 15 to 20)
#    0.000    2.250    3.750    1.875    0.000    3.250 
#    0.000    1.875    0.000    3.000    0.000    5.250 
#    0.000    0.000    0.000    0.000    0.000    0.000 
#
# Total GULP energy -356499.946392 kJ/mol
# GULP energy per Si atom -5570.311662 kJ/mol
# Density = 1.738572 g / cm^3
# Si number density = 17.425382 Si / 1000 Ang^3
#
#
#
# Elastic Constant Matrix: (Units=GPa)
#
#
# Indices 1 2 3 4 5 6 
#
# 1 35.4538 19.4995 23.6431 0.0000 0.0000 0.0000
# 2 19.4995 79.6861 41.7510 0.0000 0.0000 0.0000
# 3 23.6431 41.7510 106.8814 0.0000 0.0000 0.0000
# 4 0.0000 0.0000 0.0000 12.5861 0.0000 0.0000
# 5 0.0000 0.0000 0.0000 0.0000 18.3686 0.0000
# 6 0.0000 0.0000 0.0000 0.0000 0.0000 0.3485
#
#
#
# Elastic Compliance Matrix: (Units=1/GPa)
#
#
# Indices 1 2 3 4 5 6 
#
# 1 0.035012 -0.005670 -0.005530 0.000000 0.000000 0.000000
# 2 -0.005670 0.016697 -0.005268 0.000000 0.000000 0.000000
# 3 -0.005530 -0.005268 0.012637 0.000000 0.000000 0.000000
# 4 0.000000 0.000000 0.000000 0.079453 0.000000 0.000000
# 5 0.000000 0.000000 0.000000 0.000000 0.054441 0.000000
# 6 0.000000 0.000000 0.000000 0.000000 0.000000 2.869078
#
#
# Mechanical properties :
#
#
# Convention : Reuss Voigt Hill
#
# Bulk Modulus (GPa) = 31.83712 43.53427 37.68569
# Shear Modulus (GPa) = 1.60734 15.40250 8.50492
#
# Velocity S-wave (km/s) = 0.96147 2.97629 2.21164
# Velocity P-wave (km/s) = 4.42072 6.07030 5.30996
#
# Compressibility (1/GPa) = 0.03140988
#
# Stress axis : x y z
#
# Youngs Moduli (GPa) = 28.56152 59.89140 79.13093
#
# Poissons Ratio (x) = 0.33959 0.43760
# Poissons Ratio (y) = 0.16195 0.41686
# Poissons Ratio (z) = 0.15795 0.31551
#
# Static dielectric constant tensor:
#      x y z
#    x 1.570930 0.000000 0.000000 
#    y 0.000000 1.605540 0.000000 
#    z 0.000000 0.000000 1.619870 
# 
# From -- ./inp_files/24792.got.cif
#   From: 2010.05.17/outbox.cif.g08.bks.cpg/sg47_13_cif.got.tgz:24792.got - 2010.06.03 20:15:42.
