data_PCOD9382387
_publ_section_title
;
Structure prediction by ZEFSAII (Michael W. Deem and Ramdas Pophale) SiO2 
 PCOD9382387
Probable space group: P M M M
;
_chemical_formula_sum "Si O2"
_cell_formula_units_Z 64
_cell_length_a 8.939820
_cell_length_b 24.796364
_cell_length_c 19.371684
_cell_angle_alpha 90.000000
_cell_angle_beta 90.000000
_cell_angle_gamma 90.000000
_cell_volume 4294.218648
_symmetry_space_group_name_H-M "P M M M"
_symmetry_group_IT_number 47
_symmetry_cell_setting 'orthorhombic'
loop_
_space_group_symop_operation_xyz
x,y,z
-x,-y,z
x,-y,-z
-x,y,-z
-x,-y,-z
x,y,-z
-x,y,z
x,-y,z
loop_
_atom_site_type_symbol
_atom_site_label
_atom_site_fract_x
_atom_site_fract_y
_atom_site_fract_z
Si Si1 0.679237 0.562296 0.284440
Si Si2 0.324645 0.668364 0.078840
Si Si3 0.820392 0.391411 0.421150
Si Si4 0.168367 0.559238 0.917452
Si Si5 0.178909 0.723675 0.358743
Si Si6 0.321836 0.169720 0.580969
Si Si7 0.823141 0.059138 0.416577
Si Si8 0.821272 0.667237 0.217787
O O1 0.500000 0.568602 0.279652
O O2 0.717100 0.500000 0.268538
O O3 0.734872 0.575626 0.362207
O O4 0.757643 0.607617 0.236723
O O5 0.500000 0.679695 0.083196
O O6 0.291751 0.604774 0.089877
O O7 0.237225 0.690512 0.145108
O O8 0.273905 0.681565 0.000000
O O9 0.783365 0.405822 0.500000
O O10 0.787894 0.328009 0.407328
O O11 0.000000 0.398352 0.411347
O O12 0.205918 0.500000 0.890171
O O13 0.000000 0.574760 0.892937
O O14 0.154898 0.554577 0.000000
O O15 0.257308 0.778104 0.381603
O O16 0.223999 0.704681 0.282136
O O17 0.000000 0.731554 0.360501
O O18 0.278330 0.173912 0.500000
O O19 0.500000 0.169157 0.585010
O O20 0.258949 0.112747 0.608348
O O21 0.806014 0.058477 0.500000
O O22 0.000000 0.063372 0.402441
O O23 0.770472 0.000000 0.391703
O O24 0.000000 0.664406 0.217689
#
# Coordination Sequence:
#
# PCOD9382387 Si02
#       8
#     8   8   8   8   8   8   8   8
#     4  10  21  35  49  65  85 108 133 164 208 261
#     4  10  20  32  47  67  87 105 126 155 195 244
#     4   9  18  32  49  67  85 107 137 174 214 254
#     4   8  14  25  40  57  77 100 124 149 178 216
#     4   9  18  32  47  62  81 107 141 177 212 251
#     4  10  19  27  39  63  90 116 147 182 220 257
#     4   8  14  25  40  57  80 114 153 188 220 250
#     4  10  21  36  52  66  81 106 138 171 208 250
#
# _framework density 14.903759000000001
#
# number of rings (size 3 to 8) (size 9 to 14) (size 15 to 20)
#    0.000    2.750    0.000    3.375    0.000    7.000 
#    0.000    3.750    0.000    0.000    0.000    0.000 
#    0.000    0.000    0.000    0.000    0.000    0.625 
#
# Total GULP energy -356455.294111 kJ/mol
# GULP energy per Si atom -5569.613970 kJ/mol
# Density = 1.486984 g / cm^3
# Si number density = 14.903759 Si / 1000 Ang^3
#
#
#
# Elastic Constant Matrix: (Units=GPa)
#
#
# Indices 1 2 3 4 5 6 
#
# 1 33.0090 28.6563 27.3638 0.0000 0.0000 0.0000
# 2 28.6563 83.8990 25.7917 0.0000 0.0000 0.0000
# 3 27.3638 25.7917 92.6286 0.0000 0.0000 0.0000
# 4 0.0000 0.0000 0.0000 8.9813 0.0000 0.0000
# 5 0.0000 0.0000 0.0000 0.0000 19.9499 0.0000
# 6 0.0000 0.0000 0.0000 0.0000 0.0000 12.1017
#
#
#
# Elastic Compliance Matrix: (Units=1/GPa)
#
#
# Indices 1 2 3 4 5 6 
#
# 1 0.052201 -0.014314 -0.011435 0.000000 0.000000 0.000000
# 2 -0.014314 0.016960 -0.000494 0.000000 0.000000 0.000000
# 3 -0.011435 -0.000494 0.014311 0.000000 0.000000 0.000000
# 4 0.000000 0.000000 0.000000 0.111342 0.000000 0.000000
# 5 0.000000 0.000000 0.000000 0.000000 0.050126 0.000000
# 6 0.000000 0.000000 0.000000 0.000000 0.000000 0.082633
#
#
# Mechanical properties :
#
#
# Convention : Reuss Voigt Hill
#
# Bulk Modulus (GPa) = 32.27270 41.46226 36.86748
# Shear Modulus (GPa) = 12.80777 16.72158 14.76468
#
# Velocity S-wave (km/s) = 2.93467 3.35322 3.15090
# Velocity P-wave (km/s) = 5.76057 6.54771 6.16671
#
# Compressibility (1/GPa) = 0.03098594
#
# Stress axis : x y z
#
# Youngs Moduli (GPa) = 19.15672 58.96221 69.87429
#
# Poissons Ratio (x) = 0.84400 0.79903
# Poissons Ratio (y) = 0.27421 0.03450
# Poissons Ratio (z) = 0.21906 0.02911
#
# Static dielectric constant tensor:
#      x y z
#    x 1.508180 0.000000 0.000000 
#    y 0.000000 1.490890 0.000000 
#    z 0.000000 0.000000 1.530560 
# 
# From -- ./inp_files/30221.got.cif
#   From: 2010.05.17/outbox.cif.g08.bks.cpg/sg47_16_cif.got.tgz:30221.got - 2010.06.03 20:15:42.
