data_PCOD9382155
_publ_section_title
;
Structure prediction by ZEFSAII (Michael W. Deem and Ramdas Pophale) SiO2 
 PCOD9382155
Probable space group: P M M M
;
_chemical_formula_sum "Si O2"
_cell_formula_units_Z 44
_cell_length_a 7.385333
_cell_length_b 15.411808
_cell_length_c 16.363485
_cell_angle_alpha 90.000000
_cell_angle_beta 90.000000
_cell_angle_gamma 90.000000
_cell_volume 1862.513695
_symmetry_space_group_name_H-M "P M M M"
_symmetry_group_IT_number 47
_symmetry_cell_setting 'orthorhombic'
loop_
_space_group_symop_operation_xyz
x,y,z
-x,-y,z
x,-y,-z
-x,y,-z
-x,-y,-z
x,y,-z
-x,y,z
x,-y,z
loop_
_atom_site_type_symbol
_atom_site_label
_atom_site_fract_x
_atom_site_fract_y
_atom_site_fract_z
Si Si1 0.792305 0.136445 0.591502
Si Si2 0.220128 0.903654 0.228132
Si Si3 0.279696 0.322155 0.657830
Si Si4 0.784755 0.772238 0.089133
Si Si5 0.283641 0.399388 0.170679
Si Si6 0.700291 0.500000 0.405458
O O1 0.715244 0.120137 0.500000
O O2 0.712879 0.102647 0.677700
O O3 0.791494 0.239075 0.610899
O O4 0.000000 0.105685 0.588098
O O5 0.286016 0.829501 0.165633
O O6 0.000000 0.895213 0.233665
O O7 0.261031 0.000000 0.196789
O O8 0.500000 0.315045 0.654061
O O9 0.223256 0.342835 0.750556
O O10 0.214419 0.410003 0.616331
O O11 0.757127 0.668710 0.099415
O O12 0.000000 0.786909 0.089067
O O13 0.714233 0.799240 0.000000
O O14 0.500000 0.406302 0.176439
O O15 0.216607 0.500000 0.167996
O O16 0.500000 0.500000 0.363160
O O17 0.674797 0.500000 0.500000
#
# Coordination Sequence:
#
# PCOD9382155 Si02
#       6
#     8   8   8   8   8   4
#     4  10  20  33  51  77 108 140 175 215 261 315
#     4   9  18  34  56  81 109 140 175 219 270 320
#     4  10  18  31  51  74 100 137 181 221 262 310
#     4  10  21  37  58  83 109 139 177 221 270 322
#     4  10  20  35  56  81 109 143 183 223 266 318
#     4   9  16  26  43  69  98 129 172 220 257 297
#
# _framework density 23.623985999999999
#
# number of rings (size 3 to 8) (size 9 to 14) (size 15 to 20)
#    0.000    2.273    2.727    0.545    0.000    2.909 
#    0.000    5.909    0.000    3.818    0.000    2.545 
#    0.000    0.000    0.000    0.000    0.000    0.000 
#
# Total GULP energy -245256.417790 kJ/mol
# GULP energy per Si atom -5574.009495 kJ/mol
# Density = 2.357022 g / cm^3
# Si number density = 23.623986 Si / 1000 Ang^3
#
#
#
# Elastic Constant Matrix: (Units=GPa)
#
#
# Indices 1 2 3 4 5 6 
#
# 1 85.6438 -2.3680 8.1152 0.0000 0.0000 0.0000
# 2 -2.3680 146.2560 59.8887 0.0000 0.0000 0.0000
# 3 8.1152 59.8887 173.6448 0.0000 0.0000 0.0000
# 4 0.0000 0.0000 0.0000 68.0688 0.0000 0.0000
# 5 0.0000 0.0000 0.0000 0.0000 1.5450 0.0000
# 6 0.0000 0.0000 0.0000 0.0000 0.0000 14.9952
#
#
#
# Elastic Compliance Matrix: (Units=1/GPa)
#
#
# Indices 1 2 3 4 5 6 
#
# 1 0.011758 0.000484 -0.000716 0.000000 0.000000 0.000000
# 2 0.000484 0.007982 -0.002775 0.000000 0.000000 0.000000
# 3 -0.000716 -0.002775 0.006750 0.000000 0.000000 0.000000
# 4 0.000000 0.000000 0.000000 0.014691 0.000000 0.000000
# 5 0.000000 0.000000 0.000000 0.000000 0.647259 0.000000
# 6 0.000000 0.000000 0.000000 0.000000 0.000000 0.066688
#
#
# Mechanical properties :
#
#
# Convention : Reuss Voigt Hill
#
# Bulk Modulus (GPa) = 48.84564 59.64627 54.24596
# Shear Modulus (GPa) = 6.51070 39.58237 23.04653
#
# Velocity S-wave (km/s) = 1.66191 4.09775 3.12678
# Velocity P-wave (km/s) = 4.94002 6.90592 6.00398
#
# Compressibility (1/GPa) = 0.02047266
#
# Stress axis : x y z
#
# Youngs Moduli (GPa) = 85.05199 125.28776 148.15752
#
# Poissons Ratio (x) = -0.06060 0.10612
# Poissons Ratio (y) = -0.04114 0.41120
# Poissons Ratio (z) = 0.06092 0.34772
#
# Static dielectric constant tensor:
#      x y z
#    x 1.938390 0.000000 0.000000 
#    y 0.000000 1.866430 0.000000 
#    z 0.000000 0.000000 1.941320 
# 
# From -- ./inp_files/26363.got.cif
#   From: 2010.05.17/outbox.cif.g08.bks.cpg/sg47_14_cif.got.tgz:26363.got - 2010.06.03 20:15:42.
