data_PCOD9382856
_publ_section_title
;
Structure prediction by ZEFSAII (Michael W. Deem and Ramdas Pophale) SiO2 
 PCOD9382856
Probable space group: P M M M
;
_chemical_formula_sum "Si O2"
_cell_formula_units_Z 40
_cell_length_a 14.864630
_cell_length_b 7.315549
_cell_length_c 16.312022
_cell_angle_alpha 90.000000
_cell_angle_beta 90.000000
_cell_angle_gamma 90.000000
_cell_volume 1773.817052
_symmetry_space_group_name_H-M "P M M M"
_symmetry_group_IT_number 47
_symmetry_cell_setting 'orthorhombic'
loop_
_space_group_symop_operation_xyz
x,y,z
-x,-y,z
x,-y,-z
-x,y,-z
-x,-y,-z
x,y,-z
-x,y,z
x,-y,z
loop_
_atom_site_type_symbol
_atom_site_label
_atom_site_fract_x
_atom_site_fract_y
_atom_site_fract_z
Si Si1 0.212656 0.723850 0.839531
Si Si2 0.896762 0.722815 0.000000
Si Si3 0.401928 0.721905 0.095743
Si Si4 0.104580 0.723594 0.500000
Si Si5 0.205759 0.288111 0.339180
Si Si6 0.600097 0.779790 0.404447
O O1 0.211839 0.500000 0.838994
O O2 0.315348 0.782325 0.854940
O O3 0.182707 0.788008 0.750098
O O4 0.153973 0.780855 0.917395
O O5 0.894600 0.500000 0.000000
O O6 0.000000 0.779692 0.000000
O O7 0.500000 0.782735 0.125364
O O8 0.401850 0.500000 0.097044
O O9 0.392426 0.773411 0.000000
O O10 0.109262 0.500000 0.500000
O O11 0.156092 0.789202 0.581314
O O12 0.000000 0.773631 0.500000
O O13 0.179000 0.500000 0.336242
O O14 0.313244 0.281220 0.354050
O O15 0.611248 0.723458 0.500000
O O16 0.500000 0.719852 0.377158
O O17 0.600373 0.000000 0.403367
#
# Coordination Sequence:
#
# PCOD9382856 Si02
#       6
#     8   4   8   4   8   8
#     4   9  16  25  38  60  89 118 153 195 236 278
#     4   9  16  26  39  57  88 127 161 197 242 288
#     4   8  12  19  32  48  72 108 139 166 212 268
#     4   9  18  32  46  63  94 130 159 193 242 293
#     4  10  19  30  48  73  98 127 164 203 242 286
#     4   9  18  33  52  72  97 131 164 194 237 294
#
# _framework density 22.550241
#
# number of rings (size 3 to 8) (size 9 to 14) (size 15 to 20)
#    0.000    3.000    2.000    1.200    0.000    2.000 
#    0.000    7.000    0.000    1.200    0.000    0.700 
#    0.000    2.400    0.000    0.000    0.000    0.000 
#
# Total GULP energy -223376.381155 kJ/mol
# GULP energy per Si atom -5584.409529 kJ/mol
# Density = 2.249892 g / cm^3
# Si number density = 22.550241 Si / 1000 Ang^3
#
#
#
# Elastic Constant Matrix: (Units=GPa)
#
#
# Indices 1 2 3 4 5 6 
#
# 1 149.4097 -2.0981 109.8373 0.0000 0.0000 0.0000
# 2 -2.0981 91.4041 8.4140 0.0000 0.0000 0.0000
# 3 109.8373 8.4140 203.9561 0.0000 0.0000 0.0000
# 4 0.0000 0.0000 0.0000 -31.3904 0.0000 0.0000
# 5 0.0000 0.0000 0.0000 0.0000 -2.9306 0.0000
# 6 0.0000 0.0000 0.0000 0.0000 0.0000 59.7819
#
#
#
# Elastic Compliance Matrix: (Units=1/GPa)
#
#
# Indices 1 2 3 4 5 6 
#
# 1 0.011139 0.000811 -0.006032 0.000000 0.000000 0.000000
# 2 0.000811 0.011041 -0.000892 0.000000 0.000000 0.000000
# 3 -0.006032 -0.000892 0.008188 0.000000 0.000000 0.000000
# 4 0.000000 0.000000 0.000000 -0.031857 0.000000 0.000000
# 5 0.000000 0.000000 0.000000 0.000000 -0.341221 0.000000
# 6 0.000000 0.000000 0.000000 0.000000 0.000000 0.016727
#
#
# Mechanical properties :
#
#
# Convention : Reuss Voigt Hill
#
# Bulk Modulus (GPa) = 55.12195 75.23071 65.17633
# Shear Modulus (GPa) = -16.24914 26.99995 5.37540
#
# Velocity S-wave (km/s) = -2.68726 3.46399 1.54561
# Velocity P-wave (km/s) = 3.85598 7.03084 5.67016
#
# Compressibility (1/GPa) = 0.01814159
#
# Stress axis : x y z
#
# Youngs Moduli (GPa) = 89.77597 90.57012 122.12532
#
# Poissons Ratio (x) = -0.07345 0.73667
# Poissons Ratio (y) = -0.07280 0.10896
# Poissons Ratio (z) = 0.54154 0.08081
#
# Static dielectric constant tensor:
#      x y z
#    x 1.786990 0.000000 0.000000 
#    y 0.000000 1.844470 0.000000 
#    z 0.000000 0.000000 1.818280 
# 
# From -- ./inp_files/23340.got.cif
#   From: 2010.05.17/outbox.cif.g08.bks.cpg/sg47_12_cif.got.tgz:23340.got - 2010.06.03 20:15:42.
