data_PCOD9382243
_publ_section_title
;
Structure prediction by ZEFSAII (Michael W. Deem and Ramdas Pophale) SiO2 
 PCOD9382243
Probable space group: P M M M
;
_chemical_formula_sum "Si O2"
_cell_formula_units_Z 48
_cell_length_a 14.628651
_cell_length_b 7.384887
_cell_length_c 19.155082
_cell_angle_alpha 90.000000
_cell_angle_beta 90.000000
_cell_angle_gamma 90.000000
_cell_volume 2069.341411
_symmetry_space_group_name_H-M "P M M M"
_symmetry_group_IT_number 47
_symmetry_cell_setting 'orthorhombic'
loop_
_space_group_symop_operation_xyz
x,y,z
-x,-y,z
x,-y,-z
-x,y,-z
-x,-y,-z
x,y,-z
-x,y,z
x,-y,z
loop_
_atom_site_type_symbol
_atom_site_label
_atom_site_fract_x
_atom_site_fract_y
_atom_site_fract_z
Si Si1 0.255103 0.202160 0.878914
Si Si2 0.391965 0.221806 0.000000
Si Si3 0.892503 0.706185 0.500000
Si Si4 0.106850 0.222012 0.224050
Si Si5 0.402579 0.717587 0.227551
Si Si6 0.597649 0.791892 0.390266
Si Si7 0.791240 0.207906 0.635518
O O1 0.161900 0.281631 0.845986
O O2 0.318813 0.195767 0.810982
O O3 0.232672 0.000000 0.904703
O O4 0.327378 0.281151 0.934879
O O5 0.500000 0.280009 0.000000
O O6 0.396105 0.000000 0.000000
O O7 0.859019 0.500000 0.500000
O O8 0.860253 0.792824 0.428326
O O9 0.000000 0.705993 0.500000
O O10 0.161313 0.283255 0.294285
O O11 0.000000 0.275048 0.225699
O O12 0.108619 0.000000 0.224047
O O13 0.500000 0.761472 0.192533
O O14 0.392466 0.500000 0.228405
O O15 0.407242 0.784831 0.306185
O O16 0.500000 0.712945 0.414753
O O17 0.698268 0.709638 0.397915
O O18 0.599201 0.000000 0.415365
O O19 0.767520 0.000000 0.653005
#
# Coordination Sequence:
#
# PCOD9382243 Si02
#       7
#     8   4   4   8   8   8   8
#     4  10  18  32  51  73 102 138 180 221 264 314
#     4   9  18  30  48  76 106 139 179 223 268 317
#     4  11  25  41  56  79 110 144 181 223 272 321
#     4   9  17  30  51  79 106 132 172 226 274 314
#     4  10  19  29  45  73 106 137 168 207 258 311
#     4   9  17  31  53  81 108 135 171 212 255 308
#     4  10  19  35  58  82 106 139 179 220 268 319
#
# _framework density 23.195786999999999
#
# number of rings (size 3 to 8) (size 9 to 14) (size 15 to 20)
#    0.000    2.333    1.667    1.750    0.000    3.667 
#    0.000    1.250    0.000    7.000    0.000    0.000 
#    0.000    1.333    0.000    0.000    0.000    0.000 
#
# Total GULP energy -267375.881737 kJ/mol
# GULP energy per Si atom -5570.330870 kJ/mol
# Density = 2.314299 g / cm^3
# Si number density = 23.195787 Si / 1000 Ang^3
#
#
#
# Elastic Constant Matrix: (Units=GPa)
#
#
# Indices 1 2 3 4 5 6 
#
# 1 190.4895 18.3431 58.6756 0.0000 0.0000 0.0000
# 2 18.3431 89.4328 -0.7901 0.0000 0.0000 0.0000
# 3 58.6756 -0.7901 107.4388 0.0000 0.0000 0.0000
# 4 0.0000 0.0000 0.0000 7.4160 0.0000 0.0000
# 5 0.0000 0.0000 0.0000 0.0000 3.4416 0.0000
# 6 0.0000 0.0000 0.0000 0.0000 0.0000 13.6788
#
#
#
# Elastic Compliance Matrix: (Units=1/GPa)
#
#
# Indices 1 2 3 4 5 6 
#
# 1 0.006472 -0.001359 -0.003545 0.000000 0.000000 0.000000
# 2 -0.001359 0.011468 0.000826 0.000000 0.000000 0.000000
# 3 -0.003545 0.000826 0.011250 0.000000 0.000000 0.000000
# 4 0.000000 0.000000 0.000000 0.134844 0.000000 0.000000
# 5 0.000000 0.000000 0.000000 0.000000 0.290566 0.000000
# 6 0.000000 0.000000 0.000000 0.000000 0.000000 0.073106
#
#
# Mechanical properties :
#
#
# Convention : Reuss Voigt Hill
#
# Bulk Modulus (GPa) = 47.53925 59.97983 53.75954
# Shear Modulus (GPa) = 9.21028 25.64944 17.42986
#
# Velocity S-wave (km/s) = 1.99482 3.32893 2.74418
# Velocity P-wave (km/s) = 5.08380 6.37887 5.76780
#
# Compressibility (1/GPa) = 0.02103525
#
# Stress axis : x y z
#
# Youngs Moduli (GPa) = 154.50340 87.20231 88.89214
#
# Poissons Ratio (x) = 0.11849 0.31510
# Poissons Ratio (y) = 0.20994 -0.07346
# Poissons Ratio (z) = 0.54767 -0.07207
#
# Static dielectric constant tensor:
#      x y z
#    x 1.962760 0.000000 0.000000 
#    y 0.000000 1.928820 0.000000 
#    z 0.000000 0.000000 1.861870 
# 
# From -- ./inp_files/28046.got.cif
#   From: 2010.05.17/outbox.cif.g08.bks.cpg/sg47_15_cif.got.tgz:28046.got - 2010.06.03 20:15:42.
