data_PCOD9382797
_publ_section_title
;
Structure prediction by ZEFSAII (Michael W. Deem and Ramdas Pophale) SiO2 
 PCOD9382797
Probable space group: P M M M
;
_chemical_formula_sum "Si O2"
_cell_formula_units_Z 52
_cell_length_a 27.298411
_cell_length_b 8.757223
_cell_length_c 14.175907
_cell_angle_alpha 90.000000
_cell_angle_beta 90.000000
_cell_angle_gamma 90.000000
_cell_volume 3388.867841
_symmetry_space_group_name_H-M "P M M M"
_symmetry_group_IT_number 47
_symmetry_cell_setting 'orthorhombic'
loop_
_space_group_symop_operation_xyz
x,y,z
-x,-y,z
x,-y,-z
-x,y,-z
-x,-y,-z
x,y,-z
-x,y,z
x,-y,z
loop_
_atom_site_type_symbol
_atom_site_label
_atom_site_fract_x
_atom_site_fract_y
_atom_site_fract_z
Si Si1 0.397310 0.316108 0.609877
Si Si2 0.297153 0.685117 0.293136
Si Si3 0.755364 0.685437 0.893918
Si Si4 0.056288 0.816030 0.109398
Si Si5 0.798306 0.183026 0.391569
Si Si6 0.852976 0.317136 0.782243
Si Si7 0.500000 0.822246 0.614205
O O1 0.390697 0.269105 0.500000
O O2 0.399322 0.500000 0.611215
O O3 0.350293 0.266657 0.670012
O O4 0.449253 0.253642 0.645682
O O5 0.294706 0.500000 0.298079
O O6 0.283631 0.731495 0.186120
O O7 0.254078 0.750806 0.358513
O O8 0.754467 0.500000 0.897053
O O9 0.808849 0.728649 0.853732
O O10 0.747252 0.742080 0.000000
O O11 0.096091 0.741823 0.176929
O O12 0.000000 0.773595 0.131228
O O13 0.059696 0.000000 0.115178
O O14 0.065885 0.773036 0.000000
O O15 0.807847 0.225362 0.500000
O O16 0.837937 0.248593 0.318542
O O17 0.797159 0.000000 0.384309
O O18 0.852888 0.500000 0.776216
O O19 0.500000 0.806212 0.500000
O O20 0.500000 0.000000 0.637591
#
# Coordination Sequence:
#
# PCOD9382797 Si02
#       7
#     8   8   8   8   8   8   4
#     4   9  16  26  40  58  83 113 142 174 214 260
#     4   9  17  28  44  66  89 116 148 180 217 261
#     4   8  14  25  41  63  90 115 140 173 213 254
#     4   9  18  32  49  70  97 126 152 181 222 270
#     4  10  20  32  46  65  90 120 152 185 223 268
#     4  10  19  30  47  69  92 120 153 188 224 263
#     4   9  17  27  39  57  80 107 140 176 215 259
#
# _framework density 15.344359000000001
#
# number of rings (size 3 to 8) (size 9 to 14) (size 15 to 20)
#    0.000    2.846    0.000    3.462    0.000    4.615 
#    0.000    2.308    0.000    4.615    0.000    3.769 
#    0.000    4.308    0.000    0.000    0.000    0.000 
#
# Total GULP energy -289736.496650 kJ/mol
# GULP energy per Si atom -5571.855705 kJ/mol
# Density = 1.530943 g / cm^3
# Si number density = 15.344359 Si / 1000 Ang^3
#
#
#
# Elastic Constant Matrix: (Units=GPa)
#
#
# Indices 1 2 3 4 5 6 
#
# 1 141.4209 35.4901 85.4488 0.0000 0.0000 0.0000
# 2 35.4901 21.0780 32.1936 0.0000 0.0000 0.0000
# 3 85.4488 32.1936 126.7571 0.0000 0.0000 0.0000
# 4 0.0000 0.0000 0.0000 14.8923 0.0000 0.0000
# 5 0.0000 0.0000 0.0000 0.0000 23.4358 0.0000
# 6 0.0000 0.0000 0.0000 0.0000 0.0000 15.5672
#
#
#
# Elastic Compliance Matrix: (Units=1/GPa)
#
#
# Indices 1 2 3 4 5 6 
#
# 1 0.014475 -0.015470 -0.005829 0.000000 0.000000 0.000000
# 2 -0.015470 0.094043 -0.013456 0.000000 0.000000 0.000000
# 3 -0.005829 -0.013456 0.015236 0.000000 0.000000 0.000000
# 4 0.000000 0.000000 0.000000 0.067149 0.000000 0.000000
# 5 0.000000 0.000000 0.000000 0.000000 0.042670 0.000000
# 6 0.000000 0.000000 0.000000 0.000000 0.000000 0.064238
#
#
# Mechanical properties :
#
#
# Convention : Reuss Voigt Hill
#
# Bulk Modulus (GPa) = 18.43528 66.16898 42.30213
# Shear Modulus (GPa) = 12.97347 19.85397 16.41372
#
# Velocity S-wave (km/s) = 2.91088 3.60098 3.27416
# Velocity P-wave (km/s) = 4.83095 7.77854 6.47471
#
# Compressibility (1/GPa) = 0.05424383
#
# Stress axis : x y z
#
# Youngs Moduli (GPa) = 69.08343 10.63345 65.63340
#
# Poissons Ratio (x) = 0.16450 0.38258
# Poissons Ratio (y) = 1.06871 0.88319
# Poissons Ratio (z) = 0.40269 0.14309
#
# Static dielectric constant tensor:
#      x y z
#    x 1.497550 0.000000 0.000000 
#    y 0.000000 1.513470 0.000000 
#    z 0.000000 0.000000 1.506580 
# 
# From -- ./inp_files/25689.got.cif
#   From: 2010.05.17/outbox.cif.g08.bks.cpg/sg47_13_cif.got.tgz:25689.got - 2010.06.03 20:15:42.
