data_PCOD9382193
_publ_section_title
;
Structure prediction by ZEFSAII (Michael W. Deem and Ramdas Pophale) SiO2 
 PCOD9382193
Probable space group: P M M M
;
_chemical_formula_sum "Si O2"
_cell_formula_units_Z 40
_cell_length_a 21.385273
_cell_length_b 7.473937
_cell_length_c 11.341080
_cell_angle_alpha 90.000000
_cell_angle_beta 90.000000
_cell_angle_gamma 90.000000
_cell_volume 1812.669575
_symmetry_space_group_name_H-M "P M M M"
_symmetry_group_IT_number 47
_symmetry_cell_setting 'orthorhombic'
loop_
_space_group_symop_operation_xyz
x,y,z
-x,-y,z
x,-y,-z
-x,y,-z
-x,-y,-z
x,y,-z
-x,y,z
x,-y,z
loop_
_atom_site_type_symbol
_atom_site_label
_atom_site_fract_x
_atom_site_fract_y
_atom_site_fract_z
Si Si1 0.371204 0.295145 0.255847
Si Si2 0.133815 0.715200 0.776137
Si Si3 0.000000 0.718867 0.861550
Si Si4 0.641972 0.720080 0.000000
Si Si5 0.213929 0.282028 0.000000
Si Si6 0.573576 0.283874 0.500000
Si Si7 0.247908 0.789703 0.631168
O O1 0.393812 0.500000 0.252626
O O2 0.385303 0.219673 0.126098
O O3 0.397989 0.214149 0.376861
O O4 0.296117 0.295816 0.276548
O O5 0.131540 0.500000 0.779745
O O6 0.175490 0.777730 0.886292
O O7 0.175577 0.764337 0.664167
O O8 0.063159 0.778042 0.796020
O O9 0.000000 0.500000 0.862541
O O10 0.000000 0.771796 0.000000
O O11 0.714621 0.775644 0.000000
O O12 0.640532 0.500000 0.000000
O O13 0.213926 0.500000 0.000000
O O14 0.584690 0.500000 0.500000
O O15 0.500000 0.252312 0.500000
O O16 0.260733 0.718953 0.500000
O O17 0.260957 0.000000 0.632957
#
# Coordination Sequence:
#
# PCOD9382193 Si02
#       7
#     8   8   4   4   4   4   8
#     4  10  18  32  56  80 106 141 177 214 261 314
#     4  10  18  31  52  77 103 133 168 210 263 320
#     4   9  16  28  52  81 104 130 169 216 263 318
#     4   9  16  26  46  82 111 131 168 215 263 313
#     4   9  14  23  46  76 104 126 158 207 256 311
#     4   9  18  32  53  83 113 142 181 220 251 299
#     4  11  23  36  50  72 103 135 176 226 268 308
#
# _framework density 22.0669
#
# number of rings (size 3 to 8) (size 9 to 14) (size 15 to 20)
#    0.000    2.200    4.000    0.600    0.000    1.200 
#    0.000    3.500    0.000    7.800    0.000    0.000 
#    0.000    1.600    0.000    0.000    0.000    0.000 
#
# Total GULP energy -223241.042775 kJ/mol
# GULP energy per Si atom -5581.026069 kJ/mol
# Density = 2.201667 g / cm^3
# Si number density = 22.066900 Si / 1000 Ang^3
#
#
#
# Elastic Constant Matrix: (Units=GPa)
#
#
# Indices 1 2 3 4 5 6 
#
# 1 74.7617 0.2917 45.2732 0.0000 0.0000 0.0000
# 2 0.2917 68.5853 5.4683 0.0000 0.0000 0.0000
# 3 45.2732 5.4683 180.7064 0.0000 0.0000 0.0000
# 4 0.0000 0.0000 0.0000 154.0588 0.0000 0.0000
# 5 0.0000 0.0000 0.0000 0.0000 25.5042 0.0000
# 6 0.0000 0.0000 0.0000 0.0000 0.0000 -12.8694
#
#
#
# Elastic Compliance Matrix: (Units=1/GPa)
#
#
# Indices 1 2 3 4 5 6 
#
# 1 0.015772 0.000249 -0.003959 0.000000 0.000000 0.000000
# 2 0.000249 0.014620 -0.000505 0.000000 0.000000 0.000000
# 3 -0.003959 -0.000505 0.006541 0.000000 0.000000 0.000000
# 4 0.000000 0.000000 0.000000 0.006491 0.000000 0.000000
# 5 0.000000 0.000000 0.000000 0.000000 0.039209 0.000000
# 6 0.000000 0.000000 0.000000 0.000000 0.000000 -0.077704
#
#
# Mechanical properties :
#
#
# Convention : Reuss Voigt Hill
#
# Bulk Modulus (GPa) = 35.08450 47.34663 41.21556
# Shear Modulus (GPa) = 218.71508 51.54005 135.12756
#
# Velocity S-wave (km/s) = 9.96643 4.83808 7.83380
# Velocity P-wave (km/s) = 12.18086 7.26029 10.02709
#
# Compressibility (1/GPa) = 0.02850262
#
# Stress axis : x y z
#
# Youngs Moduli (GPa) = 63.40217 68.40148 152.88214
#
# Poissons Ratio (x) = -0.01700 0.60527
# Poissons Ratio (y) = -0.01576 0.07716
# Poissons Ratio (z) = 0.25101 0.03452
#
# Static dielectric constant tensor:
#      x y z
#    x 1.783020 0.000000 0.000000 
#    y 0.000000 1.825090 0.000000 
#    z 0.000000 0.000000 1.841530 
# 
# From -- ./inp_files/18999.got.cif
#   From: 2010.05.17/outbox.cif.g08.bks.cpg/sg47_10_cif.got.tgz:18999.got - 2010.06.03 20:15:42.
