data_PCOD9382953
_publ_section_title
;
Structure prediction by ZEFSAII (Michael W. Deem and Ramdas Pophale) SiO2 
 PCOD9382953
Probable space group: P M M M
;
_chemical_formula_sum "Si O2"
_cell_formula_units_Z 40
_cell_length_a 19.072896
_cell_length_b 19.017956
_cell_length_c 7.800533
_cell_angle_alpha 90.000000
_cell_angle_beta 90.000000
_cell_angle_gamma 90.000000
_cell_volume 2829.467810
_symmetry_space_group_name_H-M "P M M M"
_symmetry_group_IT_number 47
_symmetry_cell_setting 'orthorhombic'
loop_
_space_group_symop_operation_xyz
x,y,z
-x,-y,z
x,-y,-z
-x,y,-z
-x,-y,-z
x,y,-z
-x,y,z
x,-y,z
loop_
_atom_site_type_symbol
_atom_site_label
_atom_site_fract_x
_atom_site_fract_y
_atom_site_fract_z
Si Si1 0.084487 0.424434 0.705087
Si Si2 0.580019 0.914518 0.500000
Si Si3 0.170103 0.136952 0.296842
Si Si4 0.318936 0.916507 0.807162
Si Si5 0.919230 0.000000 0.206211
Si Si6 0.081460 0.729423 0.289929
O O1 0.097550 0.425222 0.500000
O O2 0.110054 0.500000 0.774672
O O3 0.107324 0.347767 0.769073
O O4 0.000000 0.423938 0.725731
O O5 0.500000 0.889229 0.500000
O O6 0.624553 0.893773 0.333228
O O7 0.577388 0.000000 0.500000
O O8 0.181931 0.144194 0.500000
O O9 0.245202 0.122637 0.213421
O O10 0.129625 0.206203 0.233666
O O11 0.121052 0.069314 0.267531
O O12 0.304436 0.000000 0.779185
O O13 0.345808 0.908344 0.000000
O O14 0.000000 0.000000 0.264204
O O15 0.918036 0.000000 0.000000
O O16 0.081352 0.728936 0.500000
O O17 0.000000 0.739358 0.238510
#
# Coordination Sequence:
#
# PCOD9382953 Si02
#       6
#     8   4   8   8   4   8
#     4   7   9  15  28  45  67  95 125 162 211 257
#     4   9  18  32  50  70  86 102 129 164 205 249
#     4  11  19  28  42  56  76 106 142 176 212 252
#     4  10  19  31  46  63  84 109 137 168 205 248
#     4  11  23  33  39  51  71 100 143 189 225 255
#     4   8  14  22  32  50  74 100 136 180 216 248
#
# _framework density 14.136934
#
# number of rings (size 3 to 8) (size 9 to 14) (size 15 to 20)
#    0.000    2.800    2.000    3.300    0.000    2.000 
#    0.000    2.000    0.000    0.000    0.000    0.000 
#    0.000    3.200    0.000   22.600    0.000   20.400 
#
# Total GULP energy -222790.781178 kJ/mol
# GULP energy per Si atom -5569.769529 kJ/mol
# Density = 1.410476 g / cm^3
# Si number density = 14.136934 Si / 1000 Ang^3
#
#
#
# Elastic Constant Matrix: (Units=GPa)
#
#
# Indices 1 2 3 4 5 6 
#
# 1 85.2804 40.6087 29.2096 0.0000 0.0000 0.0000
# 2 40.6087 112.1152 18.3377 0.0000 0.0000 0.0000
# 3 29.2096 18.3377 48.3056 0.0000 0.0000 0.0000
# 4 0.0000 0.0000 0.0000 -4.6783 0.0000 0.0000
# 5 0.0000 0.0000 0.0000 0.0000 1.8429 0.0000
# 6 0.0000 0.0000 0.0000 0.0000 0.0000 0.1323
#
#
#
# Elastic Compliance Matrix: (Units=1/GPa)
#
#
# Indices 1 2 3 4 5 6 
#
# 1 0.016855 -0.004732 -0.008396 0.000000 0.000000 0.000000
# 2 -0.004732 0.010838 -0.001253 0.000000 0.000000 0.000000
# 3 -0.008396 -0.001253 0.026254 0.000000 0.000000 0.000000
# 4 0.000000 0.000000 0.000000 -0.213753 0.000000 0.000000
# 5 0.000000 0.000000 0.000000 0.000000 0.542613 0.000000
# 6 0.000000 0.000000 0.000000 0.000000 0.000000 7.561229
#
#
# Mechanical properties :
#
#
# Convention : Reuss Voigt Hill
#
# Bulk Modulus (GPa) = 39.70459 46.89033 43.29746
# Shear Modulus (GPa) = 0.62647 9.96239 5.29443
#
# Velocity S-wave (km/s) = 0.66641 2.65751 1.93733
# Velocity P-wave (km/s) = 5.36086 6.53125 5.97478
#
# Compressibility (1/GPa) = 0.02518601
#
# Stress axis : x y z
#
# Youngs Moduli (GPa) = 59.33048 92.26612 38.08951
#
# Poissons Ratio (x) = 0.43657 0.31978
# Poissons Ratio (y) = 0.28073 0.04773
# Poissons Ratio (z) = 0.49811 0.11563
#
# Static dielectric constant tensor:
#      x y z
#    x 1.429240 0.000000 0.000000 
#    y 0.000000 1.490930 0.000000 
#    z 0.000000 0.000000 1.512290 
# 
# From -- ./inp_files/9390.got.cif
#   From: 2010.05.17/outbox.cif.g08.bks.cpg/sg47_5_cif.got.tgz:9390.got - 2010.06.03 20:15:42.
