data_PCOD9382970
_publ_section_title
;
Structure prediction by ZEFSAII (Michael W. Deem and Ramdas Pophale) SiO2 
 PCOD9382970
Probable space group: P M M M
;
_chemical_formula_sum "Si O2"
_cell_formula_units_Z 44
_cell_length_a 11.871590
_cell_length_b 13.940010
_cell_length_c 18.434451
_cell_angle_alpha 90.000000
_cell_angle_beta 90.000000
_cell_angle_gamma 90.000000
_cell_volume 3050.718832
_symmetry_space_group_name_H-M "P M M M"
_symmetry_group_IT_number 47
_symmetry_cell_setting 'orthorhombic'
loop_
_space_group_symop_operation_xyz
x,y,z
-x,-y,z
x,-y,-z
-x,y,-z
-x,-y,-z
x,y,-z
-x,y,z
x,-y,z
loop_
_atom_site_type_symbol
_atom_site_label
_atom_site_fract_x
_atom_site_fract_y
_atom_site_fract_z
Si Si1 0.271961 0.388211 0.914536
Si Si2 0.255654 0.885427 0.274228
Si Si3 0.870078 0.883658 0.581632
Si Si4 0.137028 0.890201 0.000000
Si Si5 0.500000 0.733610 0.083629
Si Si6 0.865411 0.223843 0.855542
Si Si7 0.500000 0.112466 0.788581
O O1 0.282139 0.500000 0.895845
O O2 0.390169 0.332797 0.906284
O O3 0.181763 0.330273 0.867482
O O4 0.240398 0.382508 0.000000
O O5 0.212901 0.855127 0.353771
O O6 0.186441 0.828129 0.213778
O O7 0.387313 0.870132 0.258057
O O8 0.233519 0.000000 0.266418
O O9 0.840665 0.851055 0.500000
O O10 0.000000 0.855458 0.597040
O O11 0.869018 0.000000 0.580033
O O12 0.172434 0.835140 0.072538
O O13 0.000000 0.891091 0.000000
O O14 0.176019 0.000000 0.000000
O O15 0.500000 0.819097 0.141467
O O16 0.500000 0.768338 0.000000
O O17 0.000000 0.222422 0.852265
O O18 0.500000 0.000000 0.810042
#
# Coordination Sequence:
#
# PCOD9382970 Si02
#       7
#     8   8   8   4   4   8   4
#     4  10  20  34  51  67  85 115 157 205 247 282
#     4  10  19  31  46  66  95 128 159 193 234 276
#     4   8  14  26  45  68  93 123 159 192 221 265
#     4   9  18  30  41  58  87 122 159 190 218 271
#     4  10  19  35  52  66  86 119 165 205 234 276
#     4  11  20  30  45  66  91 123 157 191 237 285
#     4  10  20  32  46  68  96 127 157 193 239 279
#
# _framework density 14.422829999999999
#
# number of rings (size 3 to 8) (size 9 to 14) (size 15 to 20)
#    0.000    2.273    2.727    1.909    0.000    3.455 
#    0.000    1.364    0.000    2.727    0.000    0.000 
#    0.000    0.727    0.000    5.455    0.000    0.364 
#
# Total GULP energy -245260.280271 kJ/mol
# GULP energy per Si atom -5574.097279 kJ/mol
# Density = 1.439000 g / cm^3
# Si number density = 14.422830 Si / 1000 Ang^3
#
#
#
# Elastic Constant Matrix: (Units=GPa)
#
#
# Indices 1 2 3 4 5 6 
#
# 1 89.9767 41.2868 64.1681 0.0000 0.0000 0.0000
# 2 41.2868 65.6564 52.1148 0.0000 0.0000 0.0000
# 3 64.1681 52.1148 122.4813 0.0000 0.0000 0.0000
# 4 0.0000 0.0000 0.0000 6.4088 0.0000 0.0000
# 5 0.0000 0.0000 0.0000 0.0000 17.8377 0.0000
# 6 0.0000 0.0000 0.0000 0.0000 0.0000 13.7659
#
#
#
# Elastic Compliance Matrix: (Units=1/GPa)
#
#
# Indices 1 2 3 4 5 6 
#
# 1 0.019282 -0.006201 -0.007463 0.000000 0.000000 0.000000
# 2 -0.006201 0.024992 -0.007385 0.000000 0.000000 0.000000
# 3 -0.007463 -0.007385 0.015217 0.000000 0.000000 0.000000
# 4 0.000000 0.000000 0.000000 0.156035 0.000000 0.000000
# 5 0.000000 0.000000 0.000000 0.000000 0.056061 0.000000
# 6 0.000000 0.000000 0.000000 0.000000 0.000000 0.072643
#
#
# Mechanical properties :
#
#
# Convention : Reuss Voigt Hill
#
# Bulk Modulus (GPa) = 57.49821 65.91707 61.70764
# Shear Modulus (GPa) = 12.75096 15.63880 14.19488
#
# Velocity S-wave (km/s) = 2.97658 3.29646 3.14059
# Velocity P-wave (km/s) = 7.19486 7.76475 7.48523
#
# Compressibility (1/GPa) = 0.01739185
#
# Stress axis : x y z
#
# Youngs Moduli (GPa) = 51.86177 40.01231 65.71622
#
# Poissons Ratio (x) = 0.24812 0.49046
# Poissons Ratio (y) = 0.32160 0.48533
# Poissons Ratio (z) = 0.38706 0.29550
#
# Static dielectric constant tensor:
#      x y z
#    x 1.487580 0.000000 0.000000 
#    y 0.000000 1.460350 0.000000 
#    z 0.000000 0.000000 1.465220 
# 
# From -- ./inp_files/22643.got.cif
#   From: 2010.05.17/outbox.cif.g08.bks.cpg/sg47_12_cif.got.tgz:22643.got - 2010.06.03 20:15:42.
