data_PCOD9382332
_publ_section_title
;
Structure prediction by ZEFSAII (Michael W. Deem and Ramdas Pophale) SiO2 
 PCOD9382332
Probable space group: P M M M
;
_chemical_formula_sum "Si O2"
_cell_formula_units_Z 52
_cell_length_a 10.450067
_cell_length_b 16.996508
_cell_length_c 17.537004
_cell_angle_alpha 90.000000
_cell_angle_beta 90.000000
_cell_angle_gamma 90.000000
_cell_volume 3114.828781
_symmetry_space_group_name_H-M "P M M M"
_symmetry_group_IT_number 47
_symmetry_cell_setting 'orthorhombic'
loop_
_space_group_symop_operation_xyz
x,y,z
-x,-y,z
x,-y,-z
-x,y,-z
-x,-y,-z
x,y,-z
-x,y,z
x,-y,z
loop_
_atom_site_type_symbol
_atom_site_label
_atom_site_fract_x
_atom_site_fract_y
_atom_site_fract_z
Si Si1 0.780143 0.668392 0.808251
Si Si2 0.355221 0.788470 0.088046
Si Si3 0.650365 0.750557 0.589782
Si Si4 0.856838 0.812681 0.297783
Si Si5 0.852280 0.907612 0.149909
Si Si6 0.000000 0.594528 0.089154
Si Si7 0.652797 0.412810 0.668826
O O1 0.674570 0.715856 0.856372
O O2 0.847661 0.735550 0.756647
O O3 0.877928 0.628953 0.866493
O O4 0.719886 0.607599 0.748682
O O5 0.500000 0.817246 0.101268
O O6 0.250027 0.854964 0.105563
O O7 0.344195 0.764280 0.000000
O O8 0.667519 0.762709 0.500000
O O9 0.500000 0.764274 0.608585
O O10 0.745567 0.802759 0.640451
O O11 0.679743 0.659549 0.611924
O O12 0.838222 0.884549 0.239106
O O13 0.000000 0.816641 0.330784
O O14 0.000000 0.887523 0.129116
O O15 0.833546 0.000000 0.137512
O O16 0.000000 0.500000 0.093450
O O17 0.000000 0.617477 0.000000
O O18 0.500000 0.412714 0.680085
O O19 0.690611 0.500000 0.641793
#
# Coordination Sequence:
#
# PCOD9382332 Si02
#       7
#     8   8   8   8   8   4   8
#     4  10  18  33  49  67  94 129 166 214 253 297
#     4  10  21  34  50  73 101 135 172 211 257 308
#     4   9  18  31  48  72 102 131 161 201 247 297
#     4   9  17  31  52  74  94 125 165 200 241 291
#     4   9  19  35  54  77 104 132 165 207 254 303
#     4  11  22  32  46  70  96 128 170 215 266 314
#     4   9  17  29  48  71  93 124 165 206 252 302
#
# _framework density 16.694337000000001
#
# number of rings (size 3 to 8) (size 9 to 14) (size 15 to 20)
#    0.000    2.538    0.769    1.385    1.077    5.231 
#    0.000    3.077    0.000    0.462    0.000   11.846 
#    0.000    0.000    0.000    0.000    0.000    0.000 
#
# Total GULP energy -289764.389211 kJ/mol
# GULP energy per Si atom -5572.392100 kJ/mol
# Density = 1.665634 g / cm^3
# Si number density = 16.694337 Si / 1000 Ang^3
#
#
#
# Elastic Constant Matrix: (Units=GPa)
#
#
# Indices 1 2 3 4 5 6 
#
# 1 74.5039 4.8064 34.6642 0.0000 0.0000 0.0000
# 2 4.8064 13.6859 -8.4720 0.0000 0.0000 0.0000
# 3 34.6642 -8.4720 62.3502 0.0000 0.0000 0.0000
# 4 0.0000 0.0000 0.0000 13.2969 0.0000 0.0000
# 5 0.0000 0.0000 0.0000 0.0000 21.7006 0.0000
# 6 0.0000 0.0000 0.0000 0.0000 0.0000 21.4380
#
#
#
# Elastic Compliance Matrix: (Units=1/GPa)
#
#
# Indices 1 2 3 4 5 6 
#
# 1 0.020830 -0.015814 -0.013730 0.000000 0.000000 0.000000
# 2 -0.015814 0.091784 0.021264 0.000000 0.000000 0.000000
# 3 -0.013730 0.021264 0.026561 0.000000 0.000000 0.000000
# 4 0.000000 0.000000 0.000000 0.075205 0.000000 0.000000
# 5 0.000000 0.000000 0.000000 0.000000 0.046082 0.000000
# 6 0.000000 0.000000 0.000000 0.000000 0.000000 0.046646
#
#
# Mechanical properties :
#
#
# Convention : Reuss Voigt Hill
#
# Bulk Modulus (GPa) = 8.15563 23.61524 15.88544
# Shear Modulus (GPa) = 13.71587 19.25653 16.48620
#
# Velocity S-wave (km/s) = 2.86945 3.39997 3.14591
# Velocity P-wave (km/s) = 3.98424 5.43962 4.76779
#
# Compressibility (1/GPa) = 0.12261466
#
# Stress axis : x y z
#
# Youngs Moduli (GPa) = 48.00709 10.89509 37.64944
#
# Poissons Ratio (x) = 0.17230 0.51691
# Poissons Ratio (y) = 0.75921 -0.80057
# Poissons Ratio (z) = 0.65912 -0.23167
#
# Static dielectric constant tensor:
#      x y z
#    x 1.565400 0.000000 0.000000 
#    y 0.000000 1.554490 0.000000 
#    z 0.000000 0.000000 1.546020 
# 
# From -- ./inp_files/9576.got.cif
#   From: 2010.05.17/outbox.cif.g08.bks.cpg/sg47_5_cif.got.tgz:9576.got - 2010.06.03 20:15:42.
