data_PCOD9382756
_publ_section_title
;
Structure prediction by ZEFSAII (Michael W. Deem and Ramdas Pophale) SiO2 
 PCOD9382756
Probable space group: P M M M
;
_chemical_formula_sum "Si O2"
_cell_formula_units_Z 44
_cell_length_a 14.118124
_cell_length_b 8.277980
_cell_length_c 22.277082
_cell_angle_alpha 90.000000
_cell_angle_beta 90.000000
_cell_angle_gamma 90.000000
_cell_volume 2603.512507
_symmetry_space_group_name_H-M "P M M M"
_symmetry_group_IT_number 47
_symmetry_cell_setting 'orthorhombic'
loop_
_space_group_symop_operation_xyz
x,y,z
-x,-y,z
x,-y,-z
-x,y,-z
-x,-y,-z
x,y,-z
-x,y,z
x,-y,z
loop_
_atom_site_type_symbol
_atom_site_label
_atom_site_fract_x
_atom_site_fract_y
_atom_site_fract_z
Si Si1 0.798274 0.195736 0.932743
Si Si2 0.293356 0.807854 0.749454
Si Si3 0.608574 0.305152 0.369603
Si Si4 0.615236 0.313110 0.500000
Si Si5 0.893691 0.307088 0.812183
Si Si6 0.605966 0.803057 0.870885
O O1 0.864545 0.260763 0.880053
O O2 0.690445 0.244281 0.915640
O O3 0.802055 0.000000 0.930569
O O4 0.822822 0.247817 0.000000
O O5 0.326681 0.740130 0.686124
O O6 0.187319 0.763143 0.769206
O O7 0.361041 0.750726 0.804279
O O8 0.301525 0.000000 0.747279
O O9 0.500000 0.249457 0.358924
O O10 0.605435 0.500000 0.374053
O O11 0.641649 0.242030 0.435141
O O12 0.647629 0.500000 0.500000
O O13 0.500000 0.315427 0.500000
O O14 0.891644 0.500000 0.806832
O O15 0.000000 0.249033 0.799220
O O16 0.500000 0.746951 0.885088
O O17 0.604365 0.000000 0.871035
#
# Coordination Sequence:
#
# PCOD9382756 Si02
#       6
#     8   8   8   4   8   8
#     4   9  18  31  47  69  94 119 148 182 225 278
#     4  10  19  30  46  69  95 121 152 191 236 284
#     4   9  16  27  45  69  99 134 167 195 222 256
#     4   7  12  24  41  63  94 133 170 195 217 252
#     4  10  21  36  52  68  86 111 148 194 240 286
#     4   8  14  25  41  62  89 119 149 180 213 254
#
# _framework density 16.900245999999999
#
# number of rings (size 3 to 8) (size 9 to 14) (size 15 to 20)
#    0.000    3.000    0.000    3.818    0.000    3.636 
#    0.000    4.091    0.000    6.545    0.000    5.727 
#    0.000    5.091    0.000    0.000    0.000    0.000 
#
# Total GULP energy -245111.951168 kJ/mol
# GULP energy per Si atom -5570.726163 kJ/mol
# Density = 1.686178 g / cm^3
# Si number density = 16.900246 Si / 1000 Ang^3
#
#
#
# Elastic Constant Matrix: (Units=GPa)
#
#
# Indices 1 2 3 4 5 6 
#
# 1 61.8693 -0.4295 21.3744 0.0000 0.0000 0.0000
# 2 -0.4295 9.2821 7.8370 0.0000 0.0000 0.0000
# 3 21.3744 7.8370 117.0556 0.0000 0.0000 0.0000
# 4 0.0000 0.0000 0.0000 -15.7385 0.0000 0.0000
# 5 0.0000 0.0000 0.0000 0.0000 10.5230 0.0000
# 6 0.0000 0.0000 0.0000 0.0000 0.0000 14.1306
#
#
#
# Elastic Compliance Matrix: (Units=1/GPa)
#
#
# Indices 1 2 3 4 5 6 
#
# 1 0.017370 0.003690 -0.003419 0.000000 0.000000 0.000000
# 2 0.003690 0.114974 -0.008371 0.000000 0.000000 0.000000
# 3 -0.003419 -0.008371 0.009728 0.000000 0.000000 0.000000
# 4 0.000000 0.000000 0.000000 -0.063538 0.000000 0.000000
# 5 0.000000 0.000000 0.000000 0.000000 0.095030 0.000000
# 6 0.000000 0.000000 0.000000 0.000000 0.000000 0.070769
#
#
# Mechanical properties :
#
#
# Convention : Reuss Voigt Hill
#
# Bulk Modulus (GPa) = 7.94463 27.30786 17.62624
# Shear Modulus (GPa) = 16.52956 12.41135 14.47046
#
# Velocity S-wave (km/s) = 3.13080 2.71290 2.92931
# Velocity P-wave (km/s) = 4.21667 5.09965 4.67904
#
# Compressibility (1/GPa) = 0.12587126
#
# Stress axis : x y z
#
# Youngs Moduli (GPa) = 57.57107 8.69765 102.79922
#
# Poissons Ratio (x) = -0.03210 0.35145
# Poissons Ratio (y) = -0.21246 0.86058
# Poissons Ratio (z) = 0.19682 0.07281
#
# Static dielectric constant tensor:
#      x y z
#    x 1.565550 0.000000 0.000000 
#    y 0.000000 1.598580 0.000000 
#    z 0.000000 0.000000 1.585850 
# 
# From -- ./inp_files/30772.got.cif
#   From: 2010.05.17/outbox.cif.g08.bks.cpg/sg47_16_cif.got.tgz:30772.got - 2010.06.03 20:15:42.
