data_PCOD9382920
_publ_section_title
;
Structure prediction by ZEFSAII (Michael W. Deem and Ramdas Pophale) SiO2 
 PCOD9382920
Probable space group: P M M M
;
_chemical_formula_sum "Si O2"
_cell_formula_units_Z 64
_cell_length_a 24.625379
_cell_length_b 7.529485
_cell_length_c 16.111590
_cell_angle_alpha 90.000000
_cell_angle_beta 90.000000
_cell_angle_gamma 90.000000
_cell_volume 2987.353367
_symmetry_space_group_name_H-M "P M M M"
_symmetry_group_IT_number 47
_symmetry_cell_setting 'orthorhombic'
loop_
_space_group_symop_operation_xyz
x,y,z
-x,-y,z
x,-y,-z
-x,y,-z
-x,-y,-z
x,y,-z
-x,y,z
x,-y,z
loop_
_atom_site_type_symbol
_atom_site_label
_atom_site_fract_x
_atom_site_fract_y
_atom_site_fract_z
Si Si1 0.937565 0.785270 0.230121
Si Si2 0.766286 0.715004 0.588937
Si Si3 0.771569 0.293135 0.768766
Si Si4 0.065894 0.788874 0.410441
Si Si5 0.849888 0.710507 0.906439
Si Si6 0.637064 0.789902 0.588250
Si Si7 0.561080 0.285872 0.094069
Si Si8 0.353218 0.208784 0.234906
O O1 0.915909 0.719205 0.320313
O O2 0.902754 0.732834 0.150822
O O3 0.000000 0.727634 0.221397
O O4 0.937384 0.000000 0.234483
O O5 0.789054 0.778107 0.500000
O O6 0.769906 0.500000 0.589696
O O7 0.786596 0.783723 0.677895
O O8 0.702369 0.763880 0.588288
O O9 0.787280 0.500000 0.764965
O O10 0.801968 0.214065 0.847982
O O11 0.706606 0.286600 0.778805
O O12 0.084091 0.713752 0.500000
O O13 0.000000 0.772152 0.408822
O O14 0.077491 0.000000 0.412062
O O15 0.840365 0.500000 0.915383
O O16 0.853844 0.783303 0.000000
O O17 0.617124 0.714262 0.500000
O O18 0.621065 0.719612 0.678784
O O19 0.624865 0.000000 0.586437
O O20 0.500000 0.225805 0.116300
O O21 0.560253 0.500000 0.092677
O O22 0.606326 0.232178 0.159174
O O23 0.572722 0.225665 0.000000
O O24 0.343654 0.000000 0.247257
#
# Coordination Sequence:
#
# PCOD9382920 Si02
#       8
#     8   8   8   8   8   8   8   8
#     4   9  18  33  54  78  99 121 155 199 244 290
#     4   8  13  23  42  66  89 116 154 198 239 279
#     4   9  18  33  50  68  95 131 167 199 236 290
#     4   7  10  20  42  71  99 124 149 179 221 279
#     4  10  22  38  52  67  92 129 169 206 246 291
#     4   8  14  25  41  64  97 133 163 191 229 280
#     4   9  19  36  55  73  96 130 169 205 245 296
#     4  10  19  30  50  80 106 129 162 204 247 288
#
# _framework density 21.423645
#
# number of rings (size 3 to 8) (size 9 to 14) (size 15 to 20)
#    0.000    3.250    0.000    1.875    0.000    2.750 
#    0.000    3.750    0.000    1.500    0.000    7.875 
#    0.000    0.000    0.000    0.000    0.000    0.000 
#
# Total GULP energy -356542.679692 kJ/mol
# GULP energy per Si atom -5570.979370 kJ/mol
# Density = 2.137488 g / cm^3
# Si number density = 21.423645 Si / 1000 Ang^3
#
#
#
# Elastic Constant Matrix: (Units=GPa)
#
#
# Indices 1 2 3 4 5 6 
#
# 1 63.7510 -9.8408 71.8624 0.0000 0.0000 0.0000
# 2 -9.8408 58.4299 4.5359 0.0000 0.0000 0.0000
# 3 71.8624 4.5359 253.2162 0.0000 0.0000 0.0000
# 4 0.0000 0.0000 0.0000 -11.8946 0.0000 0.0000
# 5 0.0000 0.0000 0.0000 0.0000 62.2173 0.0000
# 6 0.0000 0.0000 0.0000 0.0000 0.0000 15.7047
#
#
#
# Elastic Compliance Matrix: (Units=1/GPa)
#
#
# Indices 1 2 3 4 5 6 
#
# 1 0.024252 0.004625 -0.006965 0.000000 0.000000 0.000000
# 2 0.004625 0.018020 -0.001635 0.000000 0.000000 0.000000
# 3 -0.006965 -0.001635 0.005955 0.000000 0.000000 0.000000
# 4 0.000000 0.000000 0.000000 -0.084072 0.000000 0.000000
# 5 0.000000 0.000000 0.000000 0.000000 0.016073 0.000000
# 6 0.000000 0.000000 0.000000 0.000000 0.000000 0.063675
#
#
# Mechanical properties :
#
#
# Convention : Reuss Voigt Hill
#
# Bulk Modulus (GPa) = 24.82864 56.50135 40.66500
# Shear Modulus (GPa) = 76.59290 33.79480 55.19385
#
# Velocity S-wave (km/s) = 5.98575 3.97603 5.08124
# Velocity P-wave (km/s) = 7.70628 6.89268 7.31081
#
# Compressibility (1/GPa) = 0.04027607
#
# Stress axis : x y z
#
# Youngs Moduli (GPa) = 41.23425 55.49247 167.91838
#
# Poissons Ratio (x) = -0.25666 1.16963
# Poissons Ratio (y) = -0.19072 0.27462
# Poissons Ratio (z) = 0.28722 0.09075
#
# Static dielectric constant tensor:
#      x y z
#    x 1.749530 0.000000 0.000000 
#    y 0.000000 1.604450 0.000000 
#    z 0.000000 0.000000 1.857610 
# 
# From -- ./inp_files/25545.got.cif
#   From: 2010.05.17/outbox.cif.g08.bks.cpg/sg47_13_cif.got.tgz:25545.got - 2010.06.03 20:15:42.
