data_PCOD9382571
_publ_section_title
;
Structure prediction by ZEFSAII (Michael W. Deem and Ramdas Pophale) SiO2 
 PCOD9382571
Probable space group: P M M M
;
_chemical_formula_sum "Si O2"
_cell_formula_units_Z 48
_cell_length_a 14.335560
_cell_length_b 7.701317
_cell_length_c 24.592913
_cell_angle_alpha 90.000000
_cell_angle_beta 90.000000
_cell_angle_gamma 90.000000
_cell_volume 2715.123798
_symmetry_space_group_name_H-M "P M M M"
_symmetry_group_IT_number 47
_symmetry_cell_setting 'orthorhombic'
loop_
_space_group_symop_operation_xyz
x,y,z
-x,-y,z
x,-y,-z
-x,y,-z
-x,-y,-z
x,y,-z
-x,y,z
x,-y,z
loop_
_atom_site_type_symbol
_atom_site_label
_atom_site_fract_x
_atom_site_fract_y
_atom_site_fract_z
Si Si1 0.103710 0.292196 0.777454
Si Si2 0.291677 0.294794 0.169998
Si Si3 0.603319 0.795451 0.723438
Si Si4 0.790458 0.210200 0.331647
Si Si5 0.107832 0.211893 0.561046
Si Si6 0.393389 0.790570 0.061089
O O1 0.099212 0.500000 0.784822
O O2 0.188422 0.225997 0.815232
O O3 0.136982 0.257557 0.715889
O O4 0.000000 0.221580 0.787296
O O5 0.290798 0.500000 0.180119
O O6 0.363915 0.219483 0.213971
O O7 0.325474 0.263989 0.109118
O O8 0.500000 0.720164 0.715804
O O9 0.688955 0.723716 0.687592
O O10 0.597906 0.000000 0.710918
O O11 0.826900 0.271919 0.389928
O O12 0.786396 0.000000 0.333121
O O13 0.134562 0.267070 0.500000
O O14 0.000000 0.262839 0.570526
O O15 0.109249 0.000000 0.561370
O O16 0.500000 0.732002 0.072103
O O17 0.394874 0.000000 0.060550
O O18 0.367885 0.732324 0.000000
#
# Coordination Sequence:
#
# PCOD9382571 Si02
#       6
#     8   8   8   8   8   8
#     4   9  18  31  44  60  86 115 137 164 208 253
#     4  10  19  29  44  66  87 108 138 173 205 240
#     4   9  17  28  41  58  83 113 139 166 206 251
#     4   9  16  26  42  62  81 105 141 177 203 239
#     4   8  13  21  35  57  82 104 129 168 215 252
#     4   9  18  32  48  65  87 115 141 165 201 247
#
# _framework density 17.678751999999999
#
# number of rings (size 3 to 8) (size 9 to 14) (size 15 to 20)
#    0.000    3.000    0.000    2.500    0.000    4.667 
#    0.000    0.833    0.000    1.500    0.000    9.333 
#    0.000    0.000    0.000    8.333    0.000    9.000 
#
# Total GULP energy -267493.141353 kJ/mol
# GULP energy per Si atom -5572.773778 kJ/mol
# Density = 1.763851 g / cm^3
# Si number density = 17.678752 Si / 1000 Ang^3
#
#
#
# Elastic Constant Matrix: (Units=GPa)
#
#
# Indices 1 2 3 4 5 6 
#
# 1 134.4983 1.8036 80.6678 0.0000 0.0000 0.0000
# 2 1.8036 27.5839 -6.6585 0.0000 0.0000 0.0000
# 3 80.6678 -6.6585 135.5559 0.0000 0.0000 0.0000
# 4 0.0000 0.0000 0.0000 -40.9892 0.0000 0.0000
# 5 0.0000 0.0000 0.0000 0.0000 21.7553 0.0000
# 6 0.0000 0.0000 0.0000 0.0000 0.0000 12.5254
#
#
#
# Elastic Compliance Matrix: (Units=1/GPa)
#
#
# Indices 1 2 3 4 5 6 
#
# 1 0.011727 -0.002481 -0.007100 0.000000 0.000000 0.000000
# 2 -0.002481 0.037213 0.003304 0.000000 0.000000 0.000000
# 3 -0.007100 0.003304 0.011765 0.000000 0.000000 0.000000
# 4 0.000000 0.000000 0.000000 -0.024397 0.000000 0.000000
# 5 0.000000 0.000000 0.000000 0.000000 0.045966 0.000000
# 6 0.000000 0.000000 0.000000 0.000000 0.000000 0.079838
#
#
# Mechanical properties :
#
#
# Convention : Reuss Voigt Hill
#
# Bulk Modulus (GPa) = 20.76823 49.91821 35.34322
# Shear Modulus (GPa) = 26.21708 13.44665 19.83186
#
# Velocity S-wave (km/s) = 3.85511 2.76091 3.35295
# Velocity P-wave (km/s) = 5.62040 6.20170 5.91819
#
# Compressibility (1/GPa) = 0.04815046
#
# Stress axis : x y z
#
# Youngs Moduli (GPa) = 85.27404 26.87245 85.00003
#
# Poissons Ratio (x) = 0.06666 0.60353
# Poissons Ratio (y) = 0.21154 -0.28085
# Poissons Ratio (z) = 0.60548 -0.08879
#
# Static dielectric constant tensor:
#      x y z
#    x 1.625430 0.000000 0.000000 
#    y 0.000000 1.661650 0.000000 
#    z 0.000000 0.000000 1.583740 
# 
# From -- ./inp_files/7467.got.cif
#   From: 2010.05.17/outbox.cif.g08.bks.cpg/sg47_4_cif.got.tgz:7467.got - 2010.06.03 20:15:42.
