data_PCOD9382396
_publ_section_title
;
Structure prediction by ZEFSAII (Michael W. Deem and Ramdas Pophale) SiO2 
 PCOD9382396
Probable space group: P M M M
;
_chemical_formula_sum "Si O2"
_cell_formula_units_Z 64
_cell_length_a 8.452746
_cell_length_b 22.313116
_cell_length_c 19.301385
_cell_angle_alpha 90.000000
_cell_angle_beta 90.000000
_cell_angle_gamma 90.000000
_cell_volume 3640.378290
_symmetry_space_group_name_H-M "P M M M"
_symmetry_group_IT_number 47
_symmetry_cell_setting 'orthorhombic'
loop_
_space_group_symop_operation_xyz
x,y,z
-x,-y,z
x,-y,-z
-x,y,-z
-x,-y,-z
x,y,-z
-x,y,z
x,-y,z
loop_
_atom_site_type_symbol
_atom_site_label
_atom_site_fract_x
_atom_site_fract_y
_atom_site_fract_z
Si Si1 0.808879 0.564849 0.131045
Si Si2 0.679623 0.262984 0.578862
Si Si3 0.182386 0.828741 0.320942
Si Si4 0.312652 0.735357 0.219728
Si Si5 0.189625 0.602297 0.576063
Si Si6 0.807003 0.930420 0.578363
Si Si7 0.190842 0.307937 0.075845
Si Si8 0.689462 0.393939 0.721984
O O1 0.758115 0.500000 0.103689
O O2 0.755828 0.623330 0.089160
O O3 0.749527 0.572663 0.209648
O O4 0.000000 0.566076 0.131618
O O5 0.675733 0.241678 0.500000
O O6 0.500000 0.258911 0.607771
O O7 0.799232 0.222719 0.621125
O O8 0.733648 0.331549 0.576985
O O9 0.264542 0.797266 0.255911
O O10 0.249983 0.887154 0.360172
O O11 0.000000 0.839723 0.303722
O O12 0.500000 0.731166 0.216082
O O13 0.245704 0.728528 0.142650
O O14 0.259240 0.676118 0.264174
O O15 0.233117 0.575524 0.500000
O O16 0.245701 0.578381 0.650450
O O17 0.000000 0.605831 0.577462
O O18 0.756273 0.912971 0.500000
O O19 0.000000 0.926840 0.578506
O O20 0.764719 0.000000 0.588806
O O21 0.000000 0.307688 0.075802
O O22 0.245529 0.287512 0.000000
O O23 0.500000 0.395152 0.719030
#
# Coordination Sequence:
#
# PCOD9382396 Si02
#       8
#     8   8   8   8   8   8   8   8
#     4   9  18  32  51  74  98 125 157 192 230 275
#     4  10  19  28  38  57  88 121 151 188 236 285
#     4  11  19  27  45  68  91 122 163 208 246 283
#     4  10  20  32  46  67  96 128 159 192 236 289
#     4  10  19  29  43  63  86 114 150 192 237 286
#     4   8  15  28  44  64  93 129 170 214 255 291
#     4   9  18  33  53  76 102 129 156 189 229 278
#     4  10  19  31  47  65  91 125 156 193 240 286
#
# _framework density 17.580590000000001
#
# number of rings (size 3 to 8) (size 9 to 14) (size 15 to 20)
#    0.000    2.375    1.250    2.625    0.000    3.750 
#    0.000    1.250    0.000    1.875    0.000   10.500 
#    0.000    0.500    0.000    5.750    0.000    1.625 
#
# Total GULP energy -356675.512937 kJ/mol
# GULP energy per Si atom -5573.054890 kJ/mol
# Density = 1.754058 g / cm^3
# Si number density = 17.580590 Si / 1000 Ang^3
#
#
#
# Elastic Constant Matrix: (Units=GPa)
#
#
# Indices 1 2 3 4 5 6 
#
# 1 20.1228 6.0740 16.6195 0.0000 0.0000 0.0000
# 2 6.0740 69.6900 32.0369 0.0000 0.0000 0.0000
# 3 16.6195 32.0369 127.0241 0.0000 0.0000 0.0000
# 4 0.0000 0.0000 0.0000 -4.7034 0.0000 0.0000
# 5 0.0000 0.0000 0.0000 0.0000 8.4384 0.0000
# 6 0.0000 0.0000 0.0000 0.0000 0.0000 4.5168
#
#
#
# Elastic Compliance Matrix: (Units=1/GPa)
#
#
# Indices 1 2 3 4 5 6 
#
# 1 0.055895 -0.001708 -0.006882 0.000000 0.000000 0.000000
# 2 -0.001708 0.016283 -0.003883 0.000000 0.000000 0.000000
# 3 -0.006882 -0.003883 0.009752 0.000000 0.000000 0.000000
# 4 0.000000 0.000000 0.000000 -0.212610 0.000000 0.000000
# 5 0.000000 0.000000 0.000000 0.000000 0.118506 0.000000
# 6 0.000000 0.000000 0.000000 0.000000 0.000000 0.221397
#
#
# Mechanical properties :
#
#
# Convention : Reuss Voigt Hill
#
# Bulk Modulus (GPa) = 17.54901 36.25531 26.90216
# Shear Modulus (GPa) = 19.75001 12.45745 16.10373
#
# Velocity S-wave (km/s) = 3.35535 2.66483 3.02982
# Velocity P-wave (km/s) = 5.00149 5.48958 5.25121
#
# Compressibility (1/GPa) = 0.05698328
#
# Stress axis : x y z
#
# Youngs Moduli (GPa) = 17.89083 61.41255 102.53854
#
# Poissons Ratio (x) = 0.10488 0.70571
# Poissons Ratio (y) = 0.03055 0.39820
# Poissons Ratio (z) = 0.12313 0.23849
#
# Static dielectric constant tensor:
#      x y z
#    x 1.599180 0.000000 0.000000 
#    y 0.000000 1.617780 0.000000 
#    z 0.000000 0.000000 1.643970 
# 
# From -- ./inp_files/12861.got.cif
#   From: 2010.05.17/outbox.cif.g08.bks.cpg/sg47_7_cif.got.tgz:12861.got - 2010.06.03 20:15:42.
