data_PCOD9382220
_publ_section_title
;
Structure prediction by ZEFSAII (Michael W. Deem and Ramdas Pophale) SiO2 
 PCOD9382220
Probable space group: P M M M
;
_chemical_formula_sum "Si O2"
_cell_formula_units_Z 52
_cell_length_a 12.417528
_cell_length_b 28.358117
_cell_length_c 8.160738
_cell_angle_alpha 90.000000
_cell_angle_beta 90.000000
_cell_angle_gamma 90.000000
_cell_volume 2873.703607
_symmetry_space_group_name_H-M "P M M M"
_symmetry_group_IT_number 47
_symmetry_cell_setting 'orthorhombic'
loop_
_space_group_symop_operation_xyz
x,y,z
-x,-y,z
x,-y,-z
-x,y,-z
-x,-y,-z
x,y,-z
-x,y,z
x,-y,z
loop_
_atom_site_type_symbol
_atom_site_label
_atom_site_fract_x
_atom_site_fract_y
_atom_site_fract_z
Si Si1 0.000000 0.554394 0.695685
Si Si2 0.624392 0.500000 0.799862
Si Si3 0.375024 0.323348 0.799857
Si Si4 0.500000 0.945349 0.299090
Si Si5 0.621930 0.782324 0.196291
Si Si6 0.767390 0.410698 0.801907
Si Si7 0.696550 0.880187 0.308047
Si Si8 0.874181 0.051859 0.802746
O O1 0.110057 0.579940 0.749461
O O2 0.000000 0.500000 0.759254
O O3 0.000000 0.552354 0.500000
O O4 0.500000 0.500000 0.745548
O O5 0.691443 0.454111 0.747910
O O6 0.622238 0.500000 0.000000
O O7 0.500000 0.333053 0.752407
O O8 0.346510 0.270068 0.746107
O O9 0.290462 0.362692 0.744348
O O10 0.374447 0.324196 0.000000
O O11 0.500000 0.946586 0.500000
O O12 0.603332 0.915235 0.242384
O O13 0.500000 0.000000 0.245024
O O14 0.500000 0.791581 0.257023
O O15 0.691228 0.827630 0.239214
O O16 0.617539 0.779473 0.000000
O O17 0.766628 0.410304 0.000000
O O18 0.677331 0.875976 0.500000
O O19 0.807205 0.906416 0.273706
O O20 0.000000 0.054744 0.762247
O O21 0.833905 0.000000 0.748764
O O22 0.864870 0.053846 0.000000
#
# Coordination Sequence:
#
# PCOD9382220 Si02
#       8
#     4   4   8   4   8   8   8   8
#     4  11  23  37  51  69 103 147 181 209 250 303
#     4   9  16  25  45  80 112 131 154 203 262 303
#     4   8  15  29  52  81 107 130 161 209 262 306
#     4   9  18  30  43  67 105 139 163 196 247 296
#     4   9  17  31  51  74 103 138 172 205 249 306
#     4  10  18  31  54  80 104 131 172 216 252 299
#     4  11  20  31  50  75 105 137 170 209 251 298
#     4   9  19  36  55  74  98 129 166 209 256 306
#
# _framework density 18.095116000000001
#
# number of rings (size 3 to 8) (size 9 to 14) (size 15 to 20)
#    0.000    2.538    1.538    3.000    0.000    3.385 
#    0.000    1.538    1.692    5.077    0.000    0.000 
#    0.000    0.000    0.000    0.000    0.000    0.000 
#
# Total GULP energy -289929.926973 kJ/mol
# GULP energy per Si atom -5575.575519 kJ/mol
# Density = 1.805393 g / cm^3
# Si number density = 18.095116 Si / 1000 Ang^3
#
#
#
# Elastic Constant Matrix: (Units=GPa)
#
#
# Indices 1 2 3 4 5 6 
#
# 1 101.5598 82.3778 9.2341 0.0000 0.0000 0.0000
# 2 82.3778 177.0507 17.5448 0.0000 0.0000 0.0000
# 3 9.2341 17.5448 7.4074 0.0000 0.0000 0.0000
# 4 0.0000 0.0000 0.0000 6.4719 0.0000 0.0000
# 5 0.0000 0.0000 0.0000 0.0000 4.5158 0.0000
# 6 0.0000 0.0000 0.0000 0.0000 0.0000 18.4748
#
#
#
# Elastic Compliance Matrix: (Units=1/GPa)
#
#
# Indices 1 2 3 4 5 6 
#
# 1 0.015866 -0.007085 -0.002997 0.000000 0.000000 0.000000
# 2 -0.007085 0.010544 -0.016142 0.000000 0.000000 0.000000
# 3 -0.002997 -0.016142 0.176969 0.000000 0.000000 0.000000
# 4 0.000000 0.000000 0.000000 0.154514 0.000000 0.000000
# 5 0.000000 0.000000 0.000000 0.000000 0.221445 0.000000
# 6 0.000000 0.000000 0.000000 0.000000 0.000000 0.054128
#
#
# Mechanical properties :
#
#
# Convention : Reuss Voigt Hill
#
# Bulk Modulus (GPa) = 6.62558 56.03681 31.33119
# Shear Modulus (GPa) = 6.79140 17.68324 12.23732
#
# Velocity S-wave (km/s) = 1.93941 3.12947 2.60335
# Velocity P-wave (km/s) = 2.94696 6.64028 5.13701
#
# Compressibility (1/GPa) = 0.15093029
#
# Stress axis : x y z
#
# Youngs Moduli (GPa) = 63.02890 94.83914 5.65070
#
# Poissons Ratio (x) = 0.67193 0.01694
# Poissons Ratio (y) = 0.44656 0.09121
# Poissons Ratio (z) = 0.18892 1.53090
#
# Static dielectric constant tensor:
#      x y z
#    x 1.601190 0.000000 0.000000 
#    y 0.000000 1.641500 0.000000 
#    z 0.000000 0.000000 1.638000 
# 
# From -- ./inp_files/4638.got.cif
#   From: 2010.05.17/outbox.cif.g08.bks.cpg/sg47_3_cif.got.tgz:4638.got - 2010.06.03 20:15:42.
