data_PCOD9382171
_publ_section_title
;
Structure prediction by ZEFSAII (Michael W. Deem and Ramdas Pophale) SiO2 
 PCOD9382171
Probable space group: P M M M
;
_chemical_formula_sum "Si O2"
_cell_formula_units_Z 52
_cell_length_a 16.092890
_cell_length_b 7.410729
_cell_length_c 20.175166
_cell_angle_alpha 90.000000
_cell_angle_beta 90.000000
_cell_angle_gamma 90.000000
_cell_volume 2406.091238
_symmetry_space_group_name_H-M "P M M M"
_symmetry_group_IT_number 47
_symmetry_cell_setting 'orthorhombic'
loop_
_space_group_symop_operation_xyz
x,y,z
-x,-y,z
x,-y,-z
-x,y,-z
-x,-y,-z
x,y,-z
-x,y,z
x,-y,z
loop_
_atom_site_type_symbol
_atom_site_label
_atom_site_fract_x
_atom_site_fract_y
_atom_site_fract_z
Si Si1 0.878695 0.288577 0.308427
Si Si2 0.596364 0.219558 0.570877
Si Si3 0.684683 0.218141 0.297559
Si Si4 0.247647 0.284178 0.074942
Si Si5 0.405190 0.216049 0.836209
Si Si6 0.909640 0.279537 0.160939
Si Si7 0.000000 0.720232 0.577099
O O1 0.899661 0.500000 0.307387
O O2 0.780239 0.268574 0.304487
O O3 0.907868 0.215522 0.237227
O O4 0.922003 0.221605 0.376062
O O5 0.632330 0.277586 0.500000
O O6 0.500000 0.270010 0.572717
O O7 0.640271 0.284377 0.636335
O O8 0.599183 0.000000 0.571885
O O9 0.638080 0.283674 0.231588
O O10 0.680521 0.000000 0.295867
O O11 0.237886 0.500000 0.072372
O O12 0.338098 0.250869 0.106444
O O13 0.171970 0.216994 0.121323
O O14 0.242082 0.214743 0.000000
O O15 0.500000 0.282937 0.845550
O O16 0.411332 0.000000 0.830252
O O17 0.905720 0.500000 0.162261
O O18 0.000000 0.231328 0.131723
O O19 0.000000 0.500000 0.572917
O O20 0.000000 0.782096 0.500000
#
# Coordination Sequence:
#
# PCOD9382171 Si02
#       7
#     8   8   8   8   8   8   4
#     4  10  18  31  52  73  97 134 171 204 247 300
#     4   8  14  26  45  68  94 125 160 199 244 292
#     4  10  19  31  50  76 102 127 166 217 259 298
#     4  10  21  36  55  81 109 134 167 216 267 313
#     4  10  21  36  54  76 104 142 182 217 259 315
#     4   9  16  30  54  79 102 131 168 207 251 307
#     4   9  18  32  51  77 106 138 179 218 251 304
#
# _framework density 21.611816999999999
#
# number of rings (size 3 to 8) (size 9 to 14) (size 15 to 20)
#    0.000    2.538    2.308    0.923    0.000    3.692 
#    0.000    3.462    0.000    3.231    0.000    2.154 
#    0.000    0.000    0.000    0.000    0.000    0.000 
#
# Total GULP energy -290084.006719 kJ/mol
# GULP energy per Si atom -5578.538591 kJ/mol
# Density = 2.156263 g / cm^3
# Si number density = 21.611817 Si / 1000 Ang^3
#
#
#
# Elastic Constant Matrix: (Units=GPa)
#
#
# Indices 1 2 3 4 5 6 
#
# 1 183.1854 -0.1626 107.7649 0.0000 0.0000 0.0000
# 2 -0.1626 72.5856 7.4557 0.0000 0.0000 0.0000
# 3 107.7649 7.4557 195.0659 0.0000 0.0000 0.0000
# 4 0.0000 0.0000 0.0000 2.2461 0.0000 0.0000
# 5 0.0000 0.0000 0.0000 0.0000 25.3980 0.0000
# 6 0.0000 0.0000 0.0000 0.0000 0.0000 19.7387
#
#
#
# Elastic Compliance Matrix: (Units=1/GPa)
#
#
# Indices 1 2 3 4 5 6 
#
# 1 0.008104 0.000480 -0.004495 0.000000 0.000000 0.000000
# 2 0.000480 0.013860 -0.000795 0.000000 0.000000 0.000000
# 3 -0.004495 -0.000795 0.007640 0.000000 0.000000 0.000000
# 4 0.000000 0.000000 0.000000 0.445214 0.000000 0.000000
# 5 0.000000 0.000000 0.000000 0.000000 0.039373 0.000000
# 6 0.000000 0.000000 0.000000 0.000000 0.000000 0.050662
#
#
# Mechanical properties :
#
#
# Convention : Reuss Voigt Hill
#
# Bulk Modulus (GPa) = 50.04215 75.66143 62.85179
# Shear Modulus (GPa) = 8.60386 31.86182 20.23284
#
# Velocity S-wave (km/s) = 1.99743 3.84380 3.06305
# Velocity P-wave (km/s) = 5.34087 7.40169 6.45406
#
# Compressibility (1/GPa) = 0.01998315
#
# Stress axis : x y z
#
# Youngs Moduli (GPa) = 123.39667 72.15238 130.88397
#
# Poissons Ratio (x) = -0.03463 0.58838
# Poissons Ratio (y) = -0.05922 0.10403
# Poissons Ratio (z) = 0.55472 0.05735
#
# Static dielectric constant tensor:
#      x y z
#    x 1.785190 0.000000 0.000000 
#    y 0.000000 1.875740 0.000000 
#    z 0.000000 0.000000 1.778710 
# 
# From -- ./inp_files/6997.got.cif
#   From: 2010.05.17/outbox.cif.g08.bks.cpg/sg47_4_cif.got.tgz:6997.got - 2010.06.03 20:15:42.
