data_PCOD9382958
_publ_section_title
;
Structure prediction by ZEFSAII (Michael W. Deem and Ramdas Pophale) SiO2 
 PCOD9382958
Probable space group: P M M M
;
_chemical_formula_sum "Si O2"
_cell_formula_units_Z 52
_cell_length_a 8.056332
_cell_length_b 17.032427
_cell_length_c 21.523996
_cell_angle_alpha 90.000000
_cell_angle_beta 90.000000
_cell_angle_gamma 90.000000
_cell_volume 2953.498768
_symmetry_space_group_name_H-M "P M M M"
_symmetry_group_IT_number 47
_symmetry_cell_setting 'orthorhombic'
loop_
_space_group_symop_operation_xyz
x,y,z
-x,-y,z
x,-y,-z
-x,y,-z
-x,-y,-z
x,y,-z
-x,y,z
x,-y,z
loop_
_atom_site_type_symbol
_atom_site_label
_atom_site_fract_x
_atom_site_fract_y
_atom_site_fract_z
Si Si1 0.799956 0.825893 0.626155
Si Si2 0.697190 0.089686 0.500000
Si Si3 0.202707 0.087862 0.751555
Si Si4 0.199736 0.671172 0.693501
Si Si5 0.703495 0.500000 0.857470
Si Si6 0.697201 0.500000 0.285182
Si Si7 0.799808 0.242326 0.818560
Si Si8 0.699233 0.655435 0.929688
O O1 0.747144 0.862325 0.561251
O O2 0.746890 0.881742 0.683296
O O3 0.743252 0.737608 0.644407
O O4 0.000000 0.824324 0.626699
O O5 0.500000 0.083478 0.500000
O O6 0.766239 0.000000 0.500000
O O7 0.254709 0.154863 0.799890
O O8 0.000000 0.086904 0.751861
O O9 0.261221 0.000000 0.763817
O O10 0.250290 0.581575 0.683435
O O11 0.257325 0.700649 0.762002
O O12 0.000000 0.673891 0.694179
O O13 0.500000 0.500000 0.856404
O O14 0.762412 0.500000 0.786193
O O15 0.759223 0.577058 0.894526
O O16 0.500000 0.500000 0.281703
O O17 0.741098 0.273007 0.884507
O O18 0.000000 0.243843 0.817889
O O19 0.500000 0.649147 0.933147
O O20 0.763176 0.661699 0.000000
#
# Coordination Sequence:
#
# PCOD9382958 Si02
#       8
#     8   4   8   8   4   4   8   8
#     4   9  18  33  54  76  98 131 170 200 233 286
#     4  11  23  35  49  76 113 142 161 193 242 285
#     4   8  14  27  49  74  95 117 152 197 239 280
#     4   9  18  32  49  72 100 127 159 204 250 282
#     4   9  17  29  44  65  90 120 160 195 226 275
#     4  11  19  28  49  74  97 130 167 197 237 292
#     4   9  17  29  46  68  93 119 150 195 245 286
#     4  10  19  31  46  63  89 125 160 195 235 282
#
# _framework density 17.606237
#
# number of rings (size 3 to 8) (size 9 to 14) (size 15 to 20)
#    0.000    2.692    1.538    3.000    0.000    3.077 
#    0.000    2.692    0.000    3.231    0.000    6.462 
#    0.000    0.000    0.000    0.000    0.000    0.000 
#
# Total GULP energy -289876.258574 kJ/mol
# GULP energy per Si atom -5574.543434 kJ/mol
# Density = 1.756616 g / cm^3
# Si number density = 17.606237 Si / 1000 Ang^3
#
#
#
# Elastic Constant Matrix: (Units=GPa)
#
#
# Indices 1 2 3 4 5 6 
#
# 1 11.9119 10.3898 7.0918 0.0000 0.0000 0.0000
# 2 10.3898 172.6033 75.2642 0.0000 0.0000 0.0000
# 3 7.0918 75.2642 111.8702 0.0000 0.0000 0.0000
# 4 0.0000 0.0000 0.0000 18.5643 0.0000 0.0000
# 5 0.0000 0.0000 0.0000 0.0000 12.6195 0.0000
# 6 0.0000 0.0000 0.0000 0.0000 0.0000 14.4013
#
#
#
# Elastic Compliance Matrix: (Units=1/GPa)
#
#
# Indices 1 2 3 4 5 6 
#
# 1 0.089258 -0.004112 -0.002892 0.000000 0.000000 0.000000
# 2 -0.004112 0.008388 -0.005383 0.000000 0.000000 0.000000
# 3 -0.002892 -0.005383 0.012744 0.000000 0.000000 0.000000
# 4 0.000000 0.000000 0.000000 0.053867 0.000000 0.000000
# 5 0.000000 0.000000 0.000000 0.000000 0.079243 0.000000
# 6 0.000000 0.000000 0.000000 0.000000 0.000000 0.069438
#
#
# Mechanical properties :
#
#
# Convention : Reuss Voigt Hill
#
# Bulk Modulus (GPa) = 11.68001 53.54189 32.61095
# Shear Modulus (GPa) = 13.65190 22.69299 18.17245
#
# Velocity S-wave (km/s) = 2.78762 3.59404 3.21621
# Velocity P-wave (km/s) = 4.12426 6.90649 5.68811
#
# Compressibility (1/GPa) = 0.08561635
#
# Stress axis : x y z
#
# Youngs Moduli (GPa) = 11.20354 119.21291 78.46978
#
# Poissons Ratio (x) = 0.49017 0.22694
# Poissons Ratio (y) = 0.04607 0.42239
# Poissons Ratio (z) = 0.03240 0.64171
#
# Static dielectric constant tensor:
#      x y z
#    x 1.632630 0.000000 0.000000 
#    y 0.000000 1.619320 0.000000 
#    z 0.000000 0.000000 1.582500 
# 
# From -- ./inp_files/26844.got.cif
#   From: 2010.05.17/outbox.cif.g08.bks.cpg/sg47_14_cif.got.tgz:26844.got - 2010.06.03 20:15:42.
