data_PCOD9382535
_publ_section_title
;
Structure prediction by ZEFSAII (Michael W. Deem and Ramdas Pophale) SiO2 
 PCOD9382535
Probable space group: P M M M
;
_chemical_formula_sum "Si O2"
_cell_formula_units_Z 56
_cell_length_a 18.725622
_cell_length_b 22.058553
_cell_length_c 9.113371
_cell_angle_alpha 90.000000
_cell_angle_beta 90.000000
_cell_angle_gamma 90.000000
_cell_volume 3764.370168
_symmetry_space_group_name_H-M "P M M M"
_symmetry_group_IT_number 47
_symmetry_cell_setting 'orthorhombic'
loop_
_space_group_symop_operation_xyz
x,y,z
-x,-y,z
x,-y,-z
-x,y,-z
-x,-y,-z
x,y,-z
-x,y,z
x,-y,z
loop_
_atom_site_type_symbol
_atom_site_label
_atom_site_fract_x
_atom_site_fract_y
_atom_site_fract_z
Si Si1 0.915631 0.704655 0.825603
Si Si2 0.672978 0.568196 0.823800
Si Si3 0.418393 0.685203 0.823460
Si Si4 0.798821 0.631674 0.331093
Si Si5 0.840054 0.180796 0.676597
Si Si6 0.297996 0.753973 0.668088
Si Si7 0.084139 0.929247 0.174628
O O1 0.869962 0.650107 0.755483
O O2 0.887881 0.766445 0.749955
O O3 0.000000 0.697839 0.801843
O O4 0.901998 0.708070 0.000000
O O5 0.649408 0.500000 0.787774
O O6 0.616766 0.620468 0.780092
O O7 0.748376 0.583180 0.748020
O O8 0.681634 0.572340 0.000000
O O9 0.500000 0.689928 0.772670
O O10 0.366773 0.737484 0.762605
O O11 0.417907 0.687338 0.000000
O O12 0.813353 0.615945 0.500000
O O13 0.751200 0.693339 0.330294
O O14 0.844885 0.185817 0.500000
O O15 0.757498 0.194495 0.718111
O O16 0.868532 0.116993 0.733827
O O17 0.319086 0.765524 0.500000
O O18 0.000000 0.918395 0.205044
O O19 0.098806 0.000000 0.205518
O O20 0.094520 0.919397 0.000000
#
# Coordination Sequence:
#
# PCOD9382535 Si02
#       7
#     8   8   8   8   8   8   8
#     4  10  19  29  43  63  85 109 138 174 218 265
#     4   9  17  29  45  63  84 113 144 170 202 249
#     4   9  17  28  43  65  90 113 139 172 208 247
#     4   9  17  29  44  61  82 107 137 176 216 252
#     4  10  19  29  43  64  88 114 148 186 217 250
#     4   8  16  29  42  59  83 111 141 172 210 254
#     4   9  18  31  44  60  87 123 158 188 219 256
#
# _framework density 14.876326000000001
#
# number of rings (size 3 to 8) (size 9 to 14) (size 15 to 20)
#    0.000    2.857    0.000    3.000    0.000    8.286 
#    0.000    2.143    0.000    0.429    0.000    7.000 
#    0.000    0.571    0.000    6.286    0.000    4.571 
#
# Total GULP energy -311898.914360 kJ/mol
# GULP energy per Si atom -5569.623471 kJ/mol
# Density = 1.484247 g / cm^3
# Si number density = 14.876326 Si / 1000 Ang^3
#
#
#
# Elastic Constant Matrix: (Units=GPa)
#
#
# Indices 1 2 3 4 5 6 
#
# 1 117.1016 49.3398 55.2864 0.0000 0.0000 0.0000
# 2 49.3398 52.5572 27.6446 0.0000 0.0000 0.0000
# 3 55.2864 27.6446 47.0480 0.0000 0.0000 0.0000
# 4 0.0000 0.0000 0.0000 17.7229 0.0000 0.0000
# 5 0.0000 0.0000 0.0000 0.0000 15.5137 0.0000
# 6 0.0000 0.0000 0.0000 0.0000 0.0000 17.6426
#
#
#
# Elastic Compliance Matrix: (Units=1/GPa)
#
#
# Indices 1 2 3 4 5 6 
#
# 1 0.022568 -0.010474 -0.020365 0.000000 0.000000 0.000000
# 2 -0.010474 0.032399 -0.006729 0.000000 0.000000 0.000000
# 3 -0.020365 -0.006729 0.049139 0.000000 0.000000 0.000000
# 4 0.000000 0.000000 0.000000 0.056424 0.000000 0.000000
# 5 0.000000 0.000000 0.000000 0.000000 0.064459 0.000000
# 6 0.000000 0.000000 0.000000 0.000000 0.000000 0.056681
#
#
# Mechanical properties :
#
#
# Convention : Reuss Voigt Hill
#
# Bulk Modulus (GPa) = 34.51789 53.47203 43.99496
# Shear Modulus (GPa) = 13.64395 15.80491 14.72443
#
# Velocity S-wave (km/s) = 3.03175 3.26302 3.14951
# Velocity P-wave (km/s) = 5.95894 7.08652 6.54705
#
# Compressibility (1/GPa) = 0.02897048
#
# Stress axis : x y z
#
# Youngs Moduli (GPa) = 44.31136 30.86484 20.35031
#
# Poissons Ratio (x) = 0.32329 0.41443
# Poissons Ratio (y) = 0.46414 0.13693
# Poissons Ratio (z) = 0.90239 0.20768
#
# Static dielectric constant tensor:
#      x y z
#    x 1.487670 0.000000 0.000000 
#    y 0.000000 1.486170 0.000000 
#    z 0.000000 0.000000 1.501560 
# 
# From -- ./inp_files/9818.got.cif
#   From: 2010.05.17/outbox.cif.g08.bks.cpg/sg47_5_cif.got.tgz:9818.got - 2010.06.03 20:15:42.
