data_PCOD9382555
_publ_section_title
;
Structure prediction by ZEFSAII (Michael W. Deem and Ramdas Pophale) SiO2 
 PCOD9382555
Probable space group: P M M M
;
_chemical_formula_sum "Si O2"
_cell_formula_units_Z 52
_cell_length_a 29.055900
_cell_length_b 14.224343
_cell_length_c 7.822020
_cell_angle_alpha 90.000000
_cell_angle_beta 90.000000
_cell_angle_gamma 90.000000
_cell_volume 3232.849375
_symmetry_space_group_name_H-M "P M M M"
_symmetry_group_IT_number 47
_symmetry_cell_setting 'orthorhombic'
loop_
_space_group_symop_operation_xyz
x,y,z
-x,-y,z
x,-y,-z
-x,y,-z
-x,-y,-z
x,y,-z
-x,y,z
x,-y,z
loop_
_atom_site_type_symbol
_atom_site_label
_atom_site_fract_x
_atom_site_fract_y
_atom_site_fract_z
Si Si1 0.188175 0.895902 0.201596
Si Si2 0.051173 0.607403 0.705774
Si Si3 0.621941 0.887160 0.298430
Si Si4 0.447605 0.886072 0.000000
Si Si5 0.718565 0.202717 0.702371
Si Si6 0.855925 0.708789 0.205160
Si Si7 0.764091 0.605633 0.206823
O O1 0.240251 0.857931 0.217091
O O2 0.156302 0.812545 0.273579
O O3 0.183488 0.000000 0.276856
O O4 0.177869 0.902644 0.000000
O O5 0.049979 0.604799 0.500000
O O6 0.059041 0.500000 0.765998
O O7 0.093656 0.671868 0.755385
O O8 0.000000 0.636870 0.764762
O O9 0.612522 0.868120 0.500000
O O10 0.580962 0.860203 0.170059
O O11 0.668528 0.833713 0.244816
O O12 0.629453 0.000000 0.283319
O O13 0.500000 0.850996 0.000000
O O14 0.449556 0.000000 0.000000
O O15 0.721657 0.187637 0.500000
O O16 0.729349 0.311783 0.739937
O O17 0.815059 0.639178 0.265112
O O18 0.851512 0.712045 0.000000
O O19 0.753975 0.500000 0.267193
O O20 0.764336 0.604020 0.000000
#
# Coordination Sequence:
#
# PCOD9382555 Si02
#       7
#     8   8   8   4   8   8   8
#     4   9  18  31  46  63  86 118 150 181 217 259
#     4   9  18  31  45  62  84 109 138 173 215 265
#     4   9  18  30  44  66  96 126 157 197 236 273
#     4   9  18  30  46  68  91 125 167 197 233 282
#     4  10  19  29  43  66  93 120 152 187 224 266
#     4   9  17  29  45  65  86 109 141 179 218 260
#     4   9  18  31  45  63  90 122 151 180 217 265
#
# _framework density 16.084882
#
# number of rings (size 3 to 8) (size 9 to 14) (size 15 to 20)
#    0.000    2.846    0.000    2.769    2.154    5.231 
#    0.000    2.308    0.000    0.462    0.000    3.231 
#    0.000    1.231    0.000    3.385    0.000    0.154 
#
# Total GULP energy -289693.214655 kJ/mol
# GULP energy per Si atom -5571.023359 kJ/mol
# Density = 1.604827 g / cm^3
# Si number density = 16.084882 Si / 1000 Ang^3
#
#
#
# Elastic Constant Matrix: (Units=GPa)
#
#
# Indices 1 2 3 4 5 6 
#
# 1 138.7936 63.8157 27.7752 0.0000 0.0000 0.0000
# 2 63.8157 97.1903 16.7450 0.0000 0.0000 0.0000
# 3 27.7752 16.7450 30.8831 0.0000 0.0000 0.0000
# 4 0.0000 0.0000 0.0000 13.2241 0.0000 0.0000
# 5 0.0000 0.0000 0.0000 0.0000 27.5176 0.0000
# 6 0.0000 0.0000 0.0000 0.0000 0.0000 19.6724
#
#
#
# Elastic Compliance Matrix: (Units=1/GPa)
#
#
# Indices 1 2 3 4 5 6 
#
# 1 0.011516 -0.006372 -0.006902 0.000000 0.000000 0.000000
# 2 -0.006372 0.014875 -0.002334 0.000000 0.000000 0.000000
# 3 -0.006902 -0.002334 0.039853 0.000000 0.000000 0.000000
# 4 0.000000 0.000000 0.000000 0.075620 0.000000 0.000000
# 5 0.000000 0.000000 0.000000 0.000000 0.036340 0.000000
# 6 0.000000 0.000000 0.000000 0.000000 0.000000 0.050833
#
#
# Mechanical properties :
#
#
# Convention : Reuss Voigt Hill
#
# Bulk Modulus (GPa) = 28.54926 53.72653 41.13789
# Shear Modulus (GPa) = 18.38700 22.65156 20.51928
#
# Velocity S-wave (km/s) = 3.38468 3.75674 3.57555
# Velocity P-wave (km/s) = 5.74999 7.23131 6.53277
#
# Compressibility (1/GPa) = 0.03502718
#
# Stress axis : x y z
#
# Youngs Moduli (GPa) = 86.83476 67.22491 25.09195
#
# Poissons Ratio (x) = 0.42838 0.17319
# Poissons Ratio (y) = 0.55334 0.05858
# Poissons Ratio (z) = 0.59934 0.15693
#
# Static dielectric constant tensor:
#      x y z
#    x 1.524450 0.000000 0.000000 
#    y 0.000000 1.550230 0.000000 
#    z 0.000000 0.000000 1.580650 
# 
# From -- ./inp_files/12507.got.cif
#   From: 2010.05.17/outbox.cif.g08.bks.cpg/sg47_7_cif.got.tgz:12507.got - 2010.06.03 20:15:42.
