data_PCOD9382459
_publ_section_title
;
Structure prediction by ZEFSAII (Michael W. Deem and Ramdas Pophale) SiO2 
 PCOD9382459
Probable space group: P M M M
;
_chemical_formula_sum "Si O2"
_cell_formula_units_Z 44
_cell_length_a 21.957008
_cell_length_b 7.546946
_cell_length_c 14.813977
_cell_angle_alpha 90.000000
_cell_angle_beta 90.000000
_cell_angle_gamma 90.000000
_cell_volume 2454.799740
_symmetry_space_group_name_H-M "P M M M"
_symmetry_group_IT_number 47
_symmetry_cell_setting 'orthorhombic'
loop_
_space_group_symop_operation_xyz
x,y,z
-x,-y,z
x,-y,-z
-x,y,-z
-x,-y,-z
x,y,-z
-x,y,z
x,-y,z
loop_
_atom_site_type_symbol
_atom_site_label
_atom_site_fract_x
_atom_site_fract_y
_atom_site_fract_z
Si Si1 0.816895 0.787242 0.281984
Si Si2 0.932832 0.215875 0.605387
Si Si3 0.000000 0.711417 0.105166
Si Si4 0.865939 0.208102 0.898213
Si Si5 0.697822 0.712955 0.603131
Si Si6 0.434470 0.711007 0.609058
O O1 0.874769 0.719878 0.339177
O O2 0.822400 0.718402 0.179511
O O3 0.754271 0.752299 0.333020
O O4 0.823373 0.000000 0.277498
O O5 0.927286 0.265656 0.500000
O O6 0.000000 0.273153 0.638323
O O7 0.932540 0.000000 0.607979
O O8 0.064913 0.776208 0.139919
O O9 0.000000 0.500000 0.108720
O O10 0.000000 0.770043 0.000000
O O11 0.853301 0.000000 0.907466
O O12 0.863575 0.285401 0.000000
O O13 0.708547 0.777037 0.500000
O O14 0.692709 0.500000 0.597726
O O15 0.631825 0.780151 0.637636
O O16 0.433757 0.728879 0.500000
O O17 0.500000 0.783992 0.640829
O O18 0.435599 0.500000 0.628204
#
# Coordination Sequence:
#
# PCOD9382459 Si02
#       6
#     8   8   4   8   8   8
#     4  10  19  28  43  61  79 108 143 175 208 250
#     4   8  14  24  37  53  72  95 129 170 200 226
#     4   9  17  29  45  63  80  99 126 165 217 268
#     4   9  18  31  45  61  81 105 136 176 217 255
#     4   9  17  28  42  62  89 116 139 168 204 240
#     4   7  10  19  37  59  81 108 141 168 190 227
#
# _framework density 17.92407
#
# number of rings (size 3 to 8) (size 9 to 14) (size 15 to 20)
#    0.000    3.364    0.000    3.000    1.273    2.909 
#    0.000    0.000    0.000    0.545    0.000    5.091 
#    0.000    0.727    0.000    9.091    0.000    0.364 
#
# Total GULP energy -245017.998426 kJ/mol
# GULP energy per Si atom -5568.590873 kJ/mol
# Density = 1.788327 g / cm^3
# Si number density = 17.924070 Si / 1000 Ang^3
#
#
#
# Elastic Constant Matrix: (Units=GPa)
#
#
# Indices 1 2 3 4 5 6 
#
# 1 175.3194 2.2661 82.9674 0.0000 0.0000 0.0000
# 2 2.2661 42.3173 5.6713 0.0000 0.0000 0.0000
# 3 82.9674 5.6713 82.4334 0.0000 0.0000 0.0000
# 4 0.0000 0.0000 0.0000 5.8898 0.0000 0.0000
# 5 0.0000 0.0000 0.0000 0.0000 25.8097 0.0000
# 6 0.0000 0.0000 0.0000 0.0000 0.0000 16.4108
#
#
#
# Elastic Compliance Matrix: (Units=1/GPa)
#
#
# Indices 1 2 3 4 5 6 
#
# 1 0.010925 0.000897 -0.011058 0.000000 0.000000 0.000000
# 2 0.000897 0.023925 -0.002549 0.000000 0.000000 0.000000
# 3 -0.011058 -0.002549 0.023436 0.000000 0.000000 0.000000
# 4 0.000000 0.000000 0.000000 0.169785 0.000000 0.000000
# 5 0.000000 0.000000 0.000000 0.000000 0.038745 0.000000
# 6 0.000000 0.000000 0.000000 0.000000 0.000000 0.060935
#
#
# Mechanical properties :
#
#
# Convention : Reuss Voigt Hill
#
# Bulk Modulus (GPa) = 30.42617 53.54219 41.98418
# Shear Modulus (GPa) = 13.73156 23.56643 18.64899
#
# Velocity S-wave (km/s) = 2.77085 3.62994 3.22909
# Velocity P-wave (km/s) = 5.22003 6.89240 6.11367
#
# Compressibility (1/GPa) = 0.03286645
#
# Stress axis : x y z
#
# Youngs Moduli (GPa) = 91.53206 41.79811 42.67017
#
# Poissons Ratio (x) = -0.03749 0.47183
# Poissons Ratio (y) = -0.08209 0.10875
# Poissons Ratio (z) = 1.01213 0.10653
#
# Static dielectric constant tensor:
#      x y z
#    x 1.653140 0.000000 0.000000 
#    y 0.000000 1.683070 0.000000 
#    z 0.000000 0.000000 1.633320 
# 
# From -- ./inp_files/24894.got.cif
#   From: 2010.05.17/outbox.cif.g08.bks.cpg/sg47_13_cif.got.tgz:24894.got - 2010.06.03 20:15:42.
