data_PCOD9382858
_publ_section_title
;
Structure prediction by ZEFSAII (Michael W. Deem and Ramdas Pophale) SiO2 
 PCOD9382858
Probable space group: P M M M
;
_chemical_formula_sum "Si O2"
_cell_formula_units_Z 64
_cell_length_a 23.547341
_cell_length_b 8.987149
_cell_length_c 15.844364
_cell_angle_alpha 90.000000
_cell_angle_beta 90.000000
_cell_angle_gamma 90.000000
_cell_volume 3353.039165
_symmetry_space_group_name_H-M "P M M M"
_symmetry_group_IT_number 47
_symmetry_cell_setting 'orthorhombic'
loop_
_space_group_symop_operation_xyz
x,y,z
-x,-y,z
x,-y,-z
-x,y,-z
-x,-y,-z
x,y,-z
-x,y,z
x,-y,z
loop_
_atom_site_type_symbol
_atom_site_label
_atom_site_fract_x
_atom_site_fract_y
_atom_site_fract_z
Si Si1 0.777658 0.323567 0.151220
Si Si2 0.599581 0.324445 0.599503
Si Si3 0.901944 0.322015 0.910630
Si Si4 0.350043 0.320573 0.096535
Si Si5 0.175714 0.175453 0.318181
Si Si6 0.711893 0.834615 0.401397
Si Si7 0.062769 0.679552 0.274521
Si Si8 0.563879 0.823034 0.230577
O O1 0.776398 0.500000 0.172542
O O2 0.833760 0.302715 0.094419
O O3 0.716586 0.284627 0.113167
O O4 0.792506 0.229628 0.233643
O O5 0.588770 0.282871 0.500000
O O6 0.589333 0.500000 0.605602
O O7 0.664982 0.285003 0.623588
O O8 0.567120 0.238771 0.673511
O O9 0.912600 0.500000 0.911059
O O10 0.928046 0.267718 0.822728
O O11 0.923110 0.260777 0.000000
O O12 0.355039 0.500000 0.101737
O O13 0.389949 0.249477 0.167992
O O14 0.364611 0.276010 0.000000
O O15 0.223250 0.208522 0.387302
O O16 0.116043 0.258017 0.325223
O O17 0.165187 0.000000 0.315470
O O18 0.702958 0.850790 0.500000
O O19 0.702491 0.000000 0.361870
O O20 0.065999 0.500000 0.274310
O O21 0.000000 0.723352 0.303547
O O22 0.500000 0.792472 0.198551
O O23 0.572731 0.000000 0.233061
#
# Coordination Sequence:
#
# PCOD9382858 Si02
#       8
#     8   8   8   8   8   8   8   8
#     4   9  17  30  49  74 103 131 161 201 253 312
#     4  10  21  37  60  90 118 142 172 216 271 327
#     4   8  13  23  42  67  92 117 149 192 238 286
#     4  10  21  37  59  85 110 140 182 234 286 327
#     4  10  19  30  48  73  99 130 167 206 250 301
#     4   9  18  33  53  78 108 137 164 199 248 310
#     4   9  18  31  46  65  90 124 166 209 253 299
#     4  11  25  42  58  78 108 149 192 228 266 320
#
# _framework density 19.087160999999998
#
# number of rings (size 3 to 8) (size 9 to 14) (size 15 to 20)
#    0.000    2.500    0.000    3.000    0.000    8.000 
#    0.000    3.750    0.000    9.375    0.000    6.125 
#    0.000    0.000    0.000    0.000    0.000    0.000 
#
# Total GULP energy -356501.301762 kJ/mol
# GULP energy per Si atom -5570.332840 kJ/mol
# Density = 1.904372 g / cm^3
# Si number density = 19.087161 Si / 1000 Ang^3
#
#
#
# Elastic Constant Matrix: (Units=GPa)
#
#
# Indices 1 2 3 4 5 6 
#
# 1 97.2368 28.3880 24.5658 0.0000 0.0000 0.0000
# 2 28.3880 24.4153 22.2673 0.0000 0.0000 0.0000
# 3 24.5658 22.2673 39.1332 0.0000 0.0000 0.0000
# 4 0.0000 0.0000 0.0000 9.4853 0.0000 0.0000
# 5 0.0000 0.0000 0.0000 0.0000 38.1838 0.0000
# 6 0.0000 0.0000 0.0000 0.0000 0.0000 30.1409
#
#
#
# Elastic Compliance Matrix: (Units=1/GPa)
#
#
# Indices 1 2 3 4 5 6 
#
# 1 0.015592 -0.019129 0.001097 0.000000 0.000000 0.000000
# 2 -0.019129 0.108613 -0.049794 0.000000 0.000000 0.000000
# 3 0.001097 -0.049794 0.053198 0.000000 0.000000 0.000000
# 4 0.000000 0.000000 0.000000 0.105426 0.000000 0.000000
# 5 0.000000 0.000000 0.000000 0.000000 0.026189 0.000000
# 6 0.000000 0.000000 0.000000 0.000000 0.000000 0.033178
#
#
# Mechanical properties :
#
#
# Convention : Reuss Voigt Hill
#
# Bulk Modulus (GPa) = 23.95150 34.58085 29.26617
# Shear Modulus (GPa) = 10.16744 21.26626 15.71685
#
# Velocity S-wave (km/s) = 2.31050 3.34153 2.87265
# Velocity P-wave (km/s) = 4.43775 5.74843 5.13508
#
# Compressibility (1/GPa) = 0.04175103
#
# Stress axis : x y z
#
# Youngs Moduli (GPa) = 64.13646 9.20698 18.79754
#
# Poissons Ratio (x) = 0.17612 -0.02063
# Poissons Ratio (y) = 1.22690 0.93600
# Poissons Ratio (z) = -0.07037 0.45845
#
# Static dielectric constant tensor:
#      x y z
#    x 1.682860 0.000000 0.000000 
#    y 0.000000 1.655380 0.000000 
#    z 0.000000 0.000000 1.699650 
# 
# From -- ./inp_files/25558.got.cif
#   From: 2010.05.17/outbox.cif.g08.bks.cpg/sg47_13_cif.got.tgz:25558.got - 2010.06.03 20:15:42.
