data_PCOD9382472
_publ_section_title
;
Structure prediction by ZEFSAII (Michael W. Deem and Ramdas Pophale) SiO2 
 PCOD9382472
Probable space group: P M M M
;
_chemical_formula_sum "Si O2"
_cell_formula_units_Z 40
_cell_length_a 23.128153
_cell_length_b 8.968403
_cell_length_c 12.986284
_cell_angle_alpha 90.000000
_cell_angle_beta 90.000000
_cell_angle_gamma 90.000000
_cell_volume 2693.648749
_symmetry_space_group_name_H-M "P M M M"
_symmetry_group_IT_number 47
_symmetry_cell_setting 'orthorhombic'
loop_
_space_group_symop_operation_xyz
x,y,z
-x,-y,z
x,-y,-z
-x,y,-z
-x,-y,-z
x,y,-z
-x,y,z
x,-y,z
loop_
_atom_site_type_symbol
_atom_site_label
_atom_site_fract_x
_atom_site_fract_y
_atom_site_fract_z
Si Si1 0.625698 0.326453 0.374636
Si Si2 0.744990 0.822653 0.621995
Si Si3 0.066962 0.179035 0.880022
Si Si4 0.860178 0.321138 0.299705
Si Si5 0.066302 0.681293 0.500000
Si Si6 0.500000 0.318056 0.619323
O O1 0.622796 0.322067 0.500000
O O2 0.633696 0.500000 0.346300
O O3 0.681623 0.232872 0.344335
O O4 0.562442 0.273592 0.336284
O O5 0.751199 0.784720 0.500000
O O6 0.796433 0.743248 0.682396
O O7 0.749382 0.000000 0.632103
O O8 0.109638 0.260036 0.802478
O O9 0.000000 0.218667 0.856888
O O10 0.072194 0.000000 0.868980
O O11 0.077738 0.215149 0.000000
O O12 0.858254 0.500000 0.298395
O O13 0.899220 0.272703 0.397858
O O14 0.065171 0.500000 0.500000
O O15 0.000000 0.733604 0.500000
O O16 0.500000 0.500000 0.618508
O O17 0.500000 0.268846 0.500000
#
# Coordination Sequence:
#
# PCOD9382472 Si02
#       6
#     8   8   8   8   4   4
#     4   8  13  22  37  54  75 105 144 183 219 256
#     4  10  19  29  40  57  85 118 151 183 219 265
#     4   9  19  36  54  70  90 115 142 176 222 273
#     4  11  20  31  48  67  90 117 148 185 223 263
#     4   9  18  30  43  63  89 112 137 176 223 261
#     4   7  10  18  33  53  73  99 138 183 220 253
#
# _framework density 14.849746
#
# number of rings (size 3 to 8) (size 9 to 14) (size 15 to 20)
#    0.000    2.800    1.000    3.600    0.000    2.400 
#    0.000    1.500    0.000    5.400    0.000    0.000 
#    0.000    0.000    0.000    0.900    0.000   17.500 
#
# Total GULP energy -222776.472827 kJ/mol
# GULP energy per Si atom -5569.411821 kJ/mol
# Density = 1.481595 g / cm^3
# Si number density = 14.849746 Si / 1000 Ang^3
#
#
#
# Elastic Constant Matrix: (Units=GPa)
#
#
# Indices 1 2 3 4 5 6 
#
# 1 160.9838 50.5652 56.1261 0.0000 0.0000 0.0000
# 2 50.5652 37.1084 29.8814 0.0000 0.0000 0.0000
# 3 56.1261 29.8814 49.9341 0.0000 0.0000 0.0000
# 4 0.0000 0.0000 0.0000 17.4463 0.0000 0.0000
# 5 0.0000 0.0000 0.0000 0.0000 11.6638 0.0000
# 6 0.0000 0.0000 0.0000 0.0000 0.0000 18.8376
#
#
#
# Elastic Compliance Matrix: (Units=1/GPa)
#
#
# Indices 1 2 3 4 5 6 
#
# 1 0.012062 -0.010651 -0.007184 0.000000 0.000000 0.000000
# 2 -0.010651 0.061416 -0.024780 0.000000 0.000000 0.000000
# 3 -0.007184 -0.024780 0.042930 0.000000 0.000000 0.000000
# 4 0.000000 0.000000 0.000000 0.057319 0.000000 0.000000
# 5 0.000000 0.000000 0.000000 0.000000 0.085735 0.000000
# 6 0.000000 0.000000 0.000000 0.000000 0.000000 0.053085
#
#
# Mechanical properties :
#
#
# Convention : Reuss Voigt Hill
#
# Bulk Modulus (GPa) = 32.07468 57.90799 44.99133
# Shear Modulus (GPa) = 12.24977 17.01978 14.63478
#
# Velocity S-wave (km/s) = 2.87525 3.38913 3.14271
# Velocity P-wave (km/s) = 5.71569 7.37533 6.59790
#
# Compressibility (1/GPa) = 0.03117724
#
# Stress axis : x y z
#
# Youngs Moduli (GPa) = 82.90497 16.28230 23.29379
#
# Poissons Ratio (x) = 0.17343 0.16734
# Poissons Ratio (y) = 0.88306 0.57723
# Poissons Ratio (z) = 0.59557 0.40348
#
# Static dielectric constant tensor:
#      x y z
#    x 1.514750 0.000000 0.000000 
#    y 0.000000 1.490290 0.000000 
#    z 0.000000 0.000000 1.463490 
# 
# From -- ./inp_files/18962.got.cif
#   From: 2010.05.17/outbox.cif.g08.bks.cpg/sg47_10_cif.got.tgz:18962.got - 2010.06.03 20:15:42.
