data_PCOD9382066
_publ_section_title
;
Structure prediction by ZEFSAII (Michael W. Deem and Ramdas Pophale) SiO2 
 PCOD9382066
Probable space group: P M M M
;
_chemical_formula_sum "Si O2"
_cell_formula_units_Z 64
_cell_length_a 25.250864
_cell_length_b 8.886100
_cell_length_c 15.787010
_cell_angle_alpha 90.000000
_cell_angle_beta 90.000000
_cell_angle_gamma 90.000000
_cell_volume 3542.316183
_symmetry_space_group_name_H-M "P M M M"
_symmetry_group_IT_number 47
_symmetry_cell_setting 'orthorhombic'
loop_
_space_group_symop_operation_xyz
x,y,z
-x,-y,z
x,-y,-z
-x,y,-z
-x,-y,-z
x,y,-z
-x,y,z
x,-y,z
loop_
_atom_site_type_symbol
_atom_site_label
_atom_site_fract_x
_atom_site_fract_y
_atom_site_fract_z
Si Si1 0.642406 0.178930 0.404721
Si Si2 0.062201 0.181058 0.403506
Si Si3 0.262460 0.679649 0.320739
Si Si4 0.856082 0.319855 0.272800
Si Si5 0.169475 0.180083 0.093845
Si Si6 0.289845 0.179234 0.142644
Si Si7 0.559776 0.318421 0.273775
Si Si8 0.601819 0.681077 0.908735
O O1 0.624223 0.213278 0.500000
O O2 0.701221 0.244464 0.391065
O O3 0.602924 0.249342 0.336226
O O4 0.644179 0.000000 0.393379
O O5 0.077296 0.226007 0.500000
O O6 0.097903 0.255842 0.331929
O O7 0.000000 0.217111 0.392455
O O8 0.067377 0.000000 0.398320
O O9 0.266308 0.500000 0.326464
O O10 0.200631 0.722280 0.315220
O O11 0.286866 0.737304 0.232447
O O12 0.858650 0.500000 0.268931
O O13 0.855565 0.256285 0.176822
O O14 0.232891 0.206698 0.099670
O O15 0.161587 0.000000 0.100146
O O16 0.151121 0.229457 0.000000
O O17 0.340359 0.244524 0.095400
O O18 0.295356 0.000000 0.154144
O O19 0.500000 0.274286 0.297063
O O20 0.563534 0.500000 0.278062
O O21 0.571328 0.273535 0.176390
O O22 0.607567 0.500000 0.905167
O O23 0.576862 0.718377 0.000000
#
# Coordination Sequence:
#
# PCOD9382066 Si02
#       8
#     8   8   8   8   8   8   8   8
#     4  11  24  40  59  83 108 138 177 223 277 330
#     4   9  19  37  60  84 111 147 191 235 278 328
#     4  10  20  35  54  79 113 148 181 217 266 326
#     4  10  21  34  53  84 118 151 186 228 278 329
#     4   9  18  32  50  75 110 152 193 229 268 319
#     4  10  18  30  51  78 108 142 180 221 267 317
#     4  10  22  40  60  80 105 140 180 222 269 326
#     4  10  20  33  52  79 109 141 176 215 263 321
#
# _framework density 18.067276
#
# number of rings (size 3 to 8) (size 9 to 14) (size 15 to 20)
#    0.000    2.125    1.250    2.250    0.000    5.750 
#    0.000    5.625    0.000    0.375    0.000    4.375 
#    0.000    0.000    0.000    0.000    0.000    0.000 
#
# Total GULP energy -357074.561719 kJ/mol
# GULP energy per Si atom -5579.290027 kJ/mol
# Density = 1.802615 g / cm^3
# Si number density = 18.067276 Si / 1000 Ang^3
#
#
#
# Elastic Constant Matrix: (Units=GPa)
#
#
# Indices 1 2 3 4 5 6 
#
# 1 78.4170 31.9371 71.2525 0.0000 0.0000 0.0000
# 2 31.9371 27.9187 45.2975 0.0000 0.0000 0.0000
# 3 71.2525 45.2975 126.6410 0.0000 0.0000 0.0000
# 4 0.0000 0.0000 0.0000 21.2320 0.0000 0.0000
# 5 0.0000 0.0000 0.0000 0.0000 0.7300 0.0000
# 6 0.0000 0.0000 0.0000 0.0000 0.0000 22.7370
#
#
#
# Elastic Compliance Matrix: (Units=1/GPa)
#
#
# Indices 1 2 3 4 5 6 
#
# 1 0.028756 -0.015833 -0.010516 0.000000 0.000000 0.000000
# 2 -0.015833 0.094067 -0.024738 0.000000 0.000000 0.000000
# 3 -0.010516 -0.024738 0.022661 0.000000 0.000000 0.000000
# 4 0.000000 0.000000 0.000000 0.047099 0.000000 0.000000
# 5 0.000000 0.000000 0.000000 0.000000 1.369953 0.000000
# 6 0.000000 0.000000 0.000000 0.000000 0.000000 0.043981
#
#
# Mechanical properties :
#
#
# Convention : Reuss Voigt Hill
#
# Bulk Modulus (GPa) = 23.08919 58.88344 40.98632
# Shear Modulus (GPa) = 2.90170 14.57244 8.73707
#
# Velocity S-wave (km/s) = 1.26868 2.84309 2.20144
# Velocity P-wave (km/s) = 3.86696 6.59087 5.40337
#
# Compressibility (1/GPa) = 0.04331030
#
# Stress axis : x y z
#
# Youngs Moduli (GPa) = 34.77583 10.63073 44.12827
#
# Poissons Ratio (x) = 0.16832 0.46404
# Poissons Ratio (y) = 0.55061 1.09165
# Poissons Ratio (z) = 0.36569 0.26298
#
# Static dielectric constant tensor:
#      x y z
#    x 1.602010 0.000000 0.000000 
#    y 0.000000 1.599370 0.000000 
#    z 0.000000 0.000000 1.649070 
# 
# From -- ./inp_files/7832.got.cif
#   From: 2010.05.17/outbox.cif.g08.bks.cpg/sg47_4_cif.got.tgz:7832.got - 2010.06.03 20:15:42.
