data_PCOD9382481
_publ_section_title
;
Structure prediction by ZEFSAII (Michael W. Deem and Ramdas Pophale) SiO2 
 PCOD9382481
Probable space group: P M M M
;
_chemical_formula_sum "Si O2"
_cell_formula_units_Z 56
_cell_length_a 13.903556
_cell_length_b 29.900509
_cell_length_c 9.228193
_cell_angle_alpha 90.000000
_cell_angle_beta 90.000000
_cell_angle_gamma 90.000000
_cell_volume 3836.375782
_symmetry_space_group_name_H-M "P M M M"
_symmetry_group_IT_number 47
_symmetry_cell_setting 'orthorhombic'
loop_
_space_group_symop_operation_xyz
x,y,z
-x,-y,z
x,-y,-z
-x,y,-z
-x,-y,-z
x,y,-z
-x,y,z
x,-y,z
loop_
_atom_site_type_symbol
_atom_site_label
_atom_site_fract_x
_atom_site_fract_y
_atom_site_fract_z
Si Si1 0.384433 0.270925 0.671276
Si Si2 0.391491 0.899957 0.327985
Si Si3 0.196714 0.949368 0.673500
Si Si4 0.616897 0.549822 0.668990
Si Si5 0.382958 0.638261 0.166274
Si Si6 0.107775 0.864996 0.173432
Si Si7 0.698041 0.184451 0.826431
O O1 0.365057 0.269990 0.500000
O O2 0.500000 0.265933 0.690797
O O3 0.355794 0.318531 0.739923
O O4 0.332838 0.230393 0.752486
O O5 0.385331 0.889116 0.500000
O O6 0.500000 0.915400 0.298318
O O7 0.308006 0.935861 0.297812
O O8 0.366984 0.855662 0.237298
O O9 0.182405 0.946897 0.500000
O O10 0.133406 0.911766 0.750464
O O11 0.176929 0.000000 0.720692
O O12 0.642799 0.555751 0.500000
O O13 0.500000 0.549922 0.674252
O O14 0.647834 0.500000 0.716258
O O15 0.650382 0.591636 0.763503
O O16 0.500000 0.637086 0.166936
O O17 0.351983 0.642735 0.000000
O O18 0.192507 0.830215 0.209900
O O19 0.000000 0.850547 0.212744
O O20 0.111708 0.871412 0.000000
O O21 0.687880 0.187109 0.000000
#
# Coordination Sequence:
#
# PCOD9382481 Si02
#       7
#     8   8   8   8   8   8   8
#     4  10  19  29  41  57  80 109 136 163 199 243
#     4   9  17  29  44  61  83 111 138 161 189 229
#     4   9  18  31  46  66  89 109 132 163 195 227
#     4   8  13  21  32  45  64  94 132 172 212 250
#     4   9  16  24  34  50  72  98 132 173 210 241
#     4   9  19  35  51  65  82 105 131 159 195 240
#     4  10  19  30  45  63  81 101 129 165 200 235
#
# _framework density 14.597111
#
# number of rings (size 3 to 8) (size 9 to 14) (size 15 to 20)
#    0.000    2.857    0.000    2.143    0.000    6.571 
#    0.000    4.286    0.000    0.000    0.000    4.000 
#    0.000    0.000    0.000    0.000    0.000    0.714 
#
# Total GULP energy -311936.138105 kJ/mol
# GULP energy per Si atom -5570.288180 kJ/mol
# Density = 1.456389 g / cm^3
# Si number density = 14.597111 Si / 1000 Ang^3
#
#
#
# Elastic Constant Matrix: (Units=GPa)
#
#
# Indices 1 2 3 4 5 6 
#
# 1 40.0060 11.1138 19.0350 0.0000 0.0000 0.0000
# 2 11.1138 104.7635 49.7297 0.0000 0.0000 0.0000
# 3 19.0350 49.7297 53.6847 0.0000 0.0000 0.0000
# 4 0.0000 0.0000 0.0000 17.0829 0.0000 0.0000
# 5 0.0000 0.0000 0.0000 0.0000 14.0034 0.0000
# 6 0.0000 0.0000 0.0000 0.0000 0.0000 8.4473
#
#
#
# Elastic Compliance Matrix: (Units=1/GPa)
#
#
# Indices 1 2 3 4 5 6 
#
# 1 0.030738 0.003414 -0.014061 0.000000 0.000000 0.000000
# 2 0.003414 0.017416 -0.017343 0.000000 0.000000 0.000000
# 3 -0.014061 -0.017343 0.039678 0.000000 0.000000 0.000000
# 4 0.000000 0.000000 0.000000 0.058538 0.000000 0.000000
# 5 0.000000 0.000000 0.000000 0.000000 0.071411 0.000000
# 6 0.000000 0.000000 0.000000 0.000000 0.000000 0.118381
#
#
# Mechanical properties :
#
#
# Convention : Reuss Voigt Hill
#
# Bulk Modulus (GPa) = 31.39584 39.80125 35.59855
# Shear Modulus (GPa) = 12.41432 15.81175 14.11304
#
# Velocity S-wave (km/s) = 2.91944 3.29479 3.11277
# Velocity P-wave (km/s) = 5.73752 6.46528 6.11224
#
# Compressibility (1/GPa) = 0.03185135
#
# Stress axis : x y z
#
# Youngs Moduli (GPa) = 32.53281 57.41971 25.20271
#
# Poissons Ratio (x) = -0.19601 0.35438
# Poissons Ratio (y) = -0.11106 0.43709
# Poissons Ratio (z) = 0.45745 0.99583
#
# Static dielectric constant tensor:
#      x y z
#    x 1.472070 0.000000 0.000000 
#    y 0.000000 1.473110 0.000000 
#    z 0.000000 0.000000 1.486640 
# 
# From -- ./inp_files/8107.got.cif
#   From: 2010.05.17/outbox.cif.g08.bks.cpg/sg47_5_cif.got.tgz:8107.got - 2010.06.03 20:15:42.
