data_PCOD9382693
_publ_section_title
;
Structure prediction by ZEFSAII (Michael W. Deem and Ramdas Pophale) SiO2 
 PCOD9382693
Probable space group: P M M M
;
_chemical_formula_sum "Si O2"
_cell_formula_units_Z 52
_cell_length_a 27.264096
_cell_length_b 14.144695
_cell_length_c 8.802600
_cell_angle_alpha 90.000000
_cell_angle_beta 90.000000
_cell_angle_gamma 90.000000
_cell_volume 3394.655107
_symmetry_space_group_name_H-M "P M M M"
_symmetry_group_IT_number 47
_symmetry_cell_setting 'orthorhombic'
loop_
_space_group_symop_operation_xyz
x,y,z
-x,-y,z
x,-y,-z
-x,y,-z
-x,-y,-z
x,y,-z
-x,y,z
x,-y,z
loop_
_atom_site_type_symbol
_atom_site_label
_atom_site_fract_x
_atom_site_fract_y
_atom_site_fract_z
Si Si1 0.696274 0.715439 0.318117
Si Si2 0.055005 0.109490 0.185113
Si Si3 0.396685 0.610813 0.181761
Si Si4 0.848770 0.217421 0.816889
Si Si5 0.749234 0.108898 0.183227
Si Si6 0.500000 0.385339 0.325162
Si Si7 0.203939 0.607867 0.316998
O O1 0.692909 0.717214 0.500000
O O2 0.646933 0.672999 0.249170
O O3 0.710844 0.818644 0.256431
O O4 0.742217 0.647739 0.274878
O O5 0.099650 0.174740 0.236866
O O6 0.000000 0.137631 0.233231
O O7 0.063023 0.000000 0.229193
O O8 0.055466 0.110944 0.000000
O O9 0.389688 0.500000 0.226179
O O10 0.449735 0.642859 0.243147
O O11 0.396367 0.615321 0.000000
O O12 0.803610 0.147549 0.776496
O O13 0.835065 0.319173 0.750632
O O14 0.849868 0.223240 0.000000
O O15 0.743306 0.000000 0.229408
O O16 0.745091 0.113867 0.000000
O O17 0.500000 0.500000 0.322616
O O18 0.500000 0.354561 0.500000
O O19 0.200955 0.610260 0.500000
O O20 0.197855 0.500000 0.266109
#
# Coordination Sequence:
#
# PCOD9382693 Si02
#       7
#     8   8   8   8   8   4   8
#     4  10  19  30  45  65  88 115 148 183 219 260
#     4   8  13  22  39  64  90 112 135 168 213 262
#     4  10  19  30  45  66  93 122 151 184 221 261
#     4   9  16  26  43  66  87 109 141 178 214 255
#     4   9  17  29  44  63  89 117 143 175 217 263
#     4   9  17  29  45  65  90 121 154 185 219 259
#     4   9  18  31  44  59  83 115 147 178 215 259
#
# _framework density 15.318198000000001
#
# number of rings (size 3 to 8) (size 9 to 14) (size 15 to 20)
#    0.000    2.846    0.000    2.538    0.000    5.538 
#    0.000    0.000    0.000    2.308    0.000    4.846 
#    0.000    4.308    0.000    0.000    0.000    0.000 
#
# Total GULP energy -289769.755034 kJ/mol
# GULP energy per Si atom -5572.495289 kJ/mol
# Density = 1.528333 g / cm^3
# Si number density = 15.318198 Si / 1000 Ang^3
#
#
#
# Elastic Constant Matrix: (Units=GPa)
#
#
# Indices 1 2 3 4 5 6 
#
# 1 147.5551 84.5603 36.2502 0.0000 0.0000 0.0000
# 2 84.5603 129.1435 33.6670 0.0000 0.0000 0.0000
# 3 36.2502 33.6670 23.0005 0.0000 0.0000 0.0000
# 4 0.0000 0.0000 0.0000 18.1376 0.0000 0.0000
# 5 0.0000 0.0000 0.0000 0.0000 16.3733 0.0000
# 6 0.0000 0.0000 0.0000 0.0000 0.0000 26.2550
#
#
#
# Elastic Compliance Matrix: (Units=1/GPa)
#
#
# Indices 1 2 3 4 5 6 
#
# 1 0.012821 -0.005057 -0.012805 0.000000 0.000000 0.000000
# 2 -0.005057 0.014516 -0.013278 0.000000 0.000000 0.000000
# 3 -0.012805 -0.013278 0.083094 0.000000 0.000000 0.000000
# 4 0.000000 0.000000 0.000000 0.055134 0.000000 0.000000
# 5 0.000000 0.000000 0.000000 0.000000 0.061075 0.000000
# 6 0.000000 0.000000 0.000000 0.000000 0.000000 0.038088
#
#
# Mechanical properties :
#
#
# Convention : Reuss Voigt Hill
#
# Bulk Modulus (GPa) = 20.76761 67.62823 44.19792
# Shear Modulus (GPa) = 14.57488 21.83462 18.20475
#
# Velocity S-wave (km/s) = 3.08795 3.77955 3.45112
# Velocity P-wave (km/s) = 5.12843 7.95559 6.69299
#
# Compressibility (1/GPa) = 0.04815190
#
# Stress axis : x y z
#
# Youngs Moduli (GPa) = 77.99885 68.89072 12.03462
#
# Poissons Ratio (x) = 0.34835 0.15410
# Poissons Ratio (y) = 0.39441 0.15979
# Poissons Ratio (z) = 0.99874 0.91472
#
# Static dielectric constant tensor:
#      x y z
#    x 1.500500 0.000000 0.000000 
#    y 0.000000 1.490670 0.000000 
#    z 0.000000 0.000000 1.515420 
# 
# From -- ./inp_files/7996.got.cif
#   From: 2010.05.17/outbox.cif.g08.bks.cpg/sg47_4_cif.got.tgz:7996.got - 2010.06.03 20:15:42.
