data_PCOD9382005
_publ_section_title
;
Structure prediction by ZEFSAII (Michael W. Deem and Ramdas Pophale) SiO2 
 PCOD9382005
Probable space group: P M M M
;
_chemical_formula_sum "Si O2"
_cell_formula_units_Z 56
_cell_length_a 24.412249
_cell_length_b 14.248686
_cell_length_c 8.021819
_cell_angle_alpha 90.000000
_cell_angle_beta 90.000000
_cell_angle_gamma 90.000000
_cell_volume 2790.329339
_symmetry_space_group_name_H-M "P M M M"
_symmetry_group_IT_number 47
_symmetry_cell_setting 'orthorhombic'
loop_
_space_group_symop_operation_xyz
x,y,z
-x,-y,z
x,-y,-z
-x,y,-z
-x,-y,-z
x,y,-z
-x,y,z
x,-y,z
loop_
_atom_site_type_symbol
_atom_site_label
_atom_site_fract_x
_atom_site_fract_y
_atom_site_fract_z
Si Si1 0.611536 0.396068 0.694085
Si Si2 0.061202 0.205959 0.305212
Si Si3 0.734784 0.893999 0.201336
Si Si4 0.621352 0.191601 0.701427
Si Si5 0.563325 0.000000 0.296709
Si Si6 0.934172 0.000000 0.185340
Si Si7 0.265317 0.393808 0.804557
Si Si8 0.177152 0.753943 0.199721
O O1 0.594815 0.397701 0.500000
O O2 0.595736 0.500000 0.765599
O O3 0.597271 0.291932 0.763537
O O4 0.677598 0.391942 0.707452
O O5 0.056657 0.221860 0.500000
O O6 0.114155 0.260626 0.243430
O O7 0.000000 0.221802 0.230618
O O8 0.077359 0.097316 0.274142
O O9 0.684871 0.826494 0.253358
O O10 0.792772 0.849951 0.255849
O O11 0.726228 0.000000 0.264618
O O12 0.734390 0.897434 0.000000
O O13 0.617402 0.194717 0.500000
O O14 0.591266 0.096799 0.761104
O O15 0.500000 0.000000 0.250682
O O16 0.567064 0.000000 0.500000
O O17 0.000000 0.000000 0.170490
O O18 0.909317 0.000000 0.000000
O O19 0.244788 0.500000 0.801012
O O20 0.218269 0.326317 0.739909
O O21 0.277734 0.370658 0.000000
O O22 0.179330 0.754266 0.000000
#
# Coordination Sequence:
#
# PCOD9382005 Si02
#       8
#     8   8   8   8   4   4   8   8
#     4   9  17  28  44  69  99 128 159 200 251 302
#     4  10  21  35  49  67  92 123 162 205 243 283
#     4  10  20  32  46  70 104 134 157 195 249 296
#     4  10  18  30  50  72  97 131 170 208 244 292
#     4   9  18  32  50  73 100 135 179 217 246 281
#     4   9  17  31  50  67  84 111 148 189 234 281
#     4   9  17  30  48  70  96 124 157 198 243 296
#     4  10  20  32  48  70  95 126 161 195 243 303
#
# _framework density 20.069316000000001
#
# number of rings (size 3 to 8) (size 9 to 14) (size 15 to 20)
#    0.000    2.429    2.143    0.643    1.000    2.857 
#    0.000    0.000    0.000    1.714    0.000    6.000 
#    0.000    0.000    0.000    4.857    0.000    5.143 
#
# Total GULP energy -311866.119815 kJ/mol
# GULP energy per Si atom -5569.037854 kJ/mol
# Density = 2.002364 g / cm^3
# Si number density = 20.069316 Si / 1000 Ang^3
#
#
#
# Elastic Constant Matrix: (Units=GPa)
#
#
# Indices 1 2 3 4 5 6 
#
# 1 57.8528 18.5111 -4.6110 0.0000 0.0000 0.0000
# 2 18.5111 124.7783 4.7073 0.0000 0.0000 0.0000
# 3 -4.6110 4.7073 12.1155 0.0000 0.0000 0.0000
# 4 0.0000 0.0000 0.0000 13.9357 0.0000 0.0000
# 5 0.0000 0.0000 0.0000 0.0000 17.0270 0.0000
# 6 0.0000 0.0000 0.0000 0.0000 0.0000 10.9374
#
#
#
# Elastic Compliance Matrix: (Units=1/GPa)
#
#
# Indices 1 2 3 4 5 6 
#
# 1 0.018959 -0.003131 0.008432 0.000000 0.000000 0.000000
# 2 -0.003131 0.008650 -0.004552 0.000000 0.000000 0.000000
# 3 0.008432 -0.004552 0.087517 0.000000 0.000000 0.000000
# 4 0.000000 0.000000 0.000000 0.071758 0.000000 0.000000
# 5 0.000000 0.000000 0.000000 0.000000 0.058730 0.000000
# 6 0.000000 0.000000 0.000000 0.000000 0.000000 0.091430
#
#
# Mechanical properties :
#
#
# Convention : Reuss Voigt Hill
#
# Bulk Modulus (GPa) = 8.57458 25.77349 17.17404
# Shear Modulus (GPa) = 13.35393 20.12263 16.73828
#
# Velocity S-wave (km/s) = 2.58231 3.16991 2.89108
# Velocity P-wave (km/s) = 3.62945 5.12522 4.44076
#
# Compressibility (1/GPa) = 0.11662375
#
# Stress axis : x y z
#
# Youngs Moduli (GPa) = 52.74537 115.60152 11.42636
#
# Poissons Ratio (x) = 0.36191 -0.09635
# Poissons Ratio (y) = 0.16513 0.05202
# Poissons Ratio (z) = -0.44474 0.52627
#
# Static dielectric constant tensor:
#      x y z
#    x 1.716890 0.000000 0.000000 
#    y 0.000000 1.781080 0.000000 
#    z 0.000000 0.000000 1.723370 
# 
# From -- ./inp_files/11358.got.cif
#   From: 2010.05.17/outbox.cif.g08.bks.cpg/sg47_6_cif.got.tgz:11358.got - 2010.06.03 20:15:42.
