data_PCOD9382628
_publ_section_title
;
Structure prediction by ZEFSAII (Michael W. Deem and Ramdas Pophale) SiO2 
 PCOD9382628
Probable space group: P M M M
;
_chemical_formula_sum "Si O2"
_cell_formula_units_Z 52
_cell_length_a 8.011105
_cell_length_b 19.169120
_cell_length_c 16.572948
_cell_angle_alpha 90.000000
_cell_angle_beta 90.000000
_cell_angle_gamma 90.000000
_cell_volume 2545.038566
_symmetry_space_group_name_H-M "P M M M"
_symmetry_group_IT_number 47
_symmetry_cell_setting 'orthorhombic'
loop_
_space_group_symop_operation_xyz
x,y,z
-x,-y,z
x,-y,-z
-x,y,-z
-x,-y,-z
x,y,-z
-x,y,z
x,-y,z
loop_
_atom_site_type_symbol
_atom_site_label
_atom_site_fract_x
_atom_site_fract_y
_atom_site_fract_z
Si Si1 0.500000 0.918528 0.098283
Si Si2 0.203303 0.289597 0.306460
Si Si3 0.696330 0.696613 0.877136
Si Si4 0.176231 0.846249 0.093075
Si Si5 0.796703 0.576146 0.593281
Si Si6 0.297062 0.579272 0.000000
Si Si7 0.806253 0.000000 0.598259
Si Si8 0.204341 0.153171 0.594147
O O1 0.334844 0.882517 0.131572
O O2 0.500000 0.000000 0.112678
O O3 0.500000 0.907582 0.000000
O O4 0.274126 0.301751 0.217830
O O5 0.257564 0.355938 0.359194
O O6 0.255064 0.217212 0.348904
O O7 0.000000 0.288877 0.301738
O O8 0.500000 0.706871 0.895275
O O9 0.793931 0.763909 0.908644
O O10 0.750313 0.626028 0.922356
O O11 0.000000 0.862034 0.133597
O O12 0.168001 0.870421 0.000000
O O13 0.746134 0.580780 0.500000
O O14 0.743231 0.500000 0.625247
O O15 0.000000 0.576585 0.594498
O O16 0.233657 0.500000 0.000000
O O17 0.500000 0.575222 0.000000
O O18 0.735118 0.924022 0.620747
O O19 0.806545 0.000000 0.500000
O O20 0.000000 0.000000 0.624659
O O21 0.252049 0.165111 0.500000
O O22 0.000000 0.151284 0.594553
#
# Coordination Sequence:
#
# PCOD9382628 Si02
#       8
#     4   8   8   8   8   4   4   8
#     4   9  18  32  54  86 118 146 181 228 283 335
#     4  10  19  29  46  75 105 132 172 222 270 327
#     4  11  21  36  57  76 105 143 183 229 289 353
#     4  10  19  33  58  84 109 145 189 232 278 337
#     4   8  14  26  45  69  99 136 174 213 265 330
#     4   9  20  38  61  83  99 129 181 236 291 356
#     4   7  10  18  36  64  95 128 165 208 262 310
#     4   8  13  23  42  68  99 134 172 216 263 315
#
# _framework density 20.431912000000001
#
# number of rings (size 3 to 8) (size 9 to 14) (size 15 to 20)
#    0.000    2.846    1.538    2.308    0.000    2.769 
#    0.000    1.538    1.692    5.077    0.000    1.077 
#    0.000    1.846    0.000    0.000    0.000    0.000 
#
# Total GULP energy -289874.312629 kJ/mol
# GULP energy per Si atom -5574.506012 kJ/mol
# Density = 2.038541 g / cm^3
# Si number density = 20.431912 Si / 1000 Ang^3
#
#
#
# Elastic Constant Matrix: (Units=GPa)
#
#
# Indices 1 2 3 4 5 6 
#
# 1 72.0829 43.4646 5.3958 0.0000 0.0000 0.0000
# 2 43.4646 163.8901 60.9128 0.0000 0.0000 0.0000
# 3 5.3958 60.9128 80.3383 0.0000 0.0000 0.0000
# 4 0.0000 0.0000 0.0000 -2.9270 0.0000 0.0000
# 5 0.0000 0.0000 0.0000 0.0000 -0.7762 0.0000
# 6 0.0000 0.0000 0.0000 0.0000 0.0000 -13.8795
#
#
#
# Elastic Compliance Matrix: (Units=1/GPa)
#
#
# Indices 1 2 3 4 5 6 
#
# 1 0.017079 -0.005713 0.003185 0.000000 0.000000 0.000000
# 2 -0.005713 0.010407 -0.007507 0.000000 0.000000 0.000000
# 3 0.003185 -0.007507 0.017925 0.000000 0.000000 0.000000
# 4 0.000000 0.000000 0.000000 -0.341641 0.000000 0.000000
# 5 0.000000 0.000000 0.000000 0.000000 -1.288295 0.000000
# 6 0.000000 0.000000 0.000000 0.000000 0.000000 -0.072049
#
#
# Mechanical properties :
#
#
# Convention : Reuss Voigt Hill
#
# Bulk Modulus (GPa) = 39.46206 59.53975 49.50090
# Shear Modulus (GPa) = -3.07115 10.25266 3.59076
#
# Velocity S-wave (km/s) = -1.22735 2.24251 1.32712
# Velocity P-wave (km/s) = 4.16502 5.99241 5.16025
#
# Compressibility (1/GPa) = 0.02534080
#
# Stress axis : x y z
#
# Youngs Moduli (GPa) = 58.54976 96.09026 55.78751
#
# Poissons Ratio (x) = 0.54899 -0.17767
# Poissons Ratio (y) = 0.33451 0.41879
# Poissons Ratio (z) = -0.18646 0.72133
#
# Static dielectric constant tensor:
#      x y z
#    x 1.765570 0.000000 0.000000 
#    y 0.000000 1.724870 0.000000 
#    z 0.000000 0.000000 1.701190 
# 
# From -- ./inp_files/26824.got.cif
#   From: 2010.05.17/outbox.cif.g08.bks.cpg/sg47_14_cif.got.tgz:26824.got - 2010.06.03 20:15:42.
