data_PCOD9382373
_publ_section_title
;
Structure prediction by ZEFSAII (Michael W. Deem and Ramdas Pophale) SiO2 
 PCOD9382373
Probable space group: P M M M
;
_chemical_formula_sum "Si O2"
_cell_formula_units_Z 45
_cell_length_a 7.530455
_cell_length_b 21.187574
_cell_length_c 14.106319
_cell_angle_alpha 90.000000
_cell_angle_beta 90.000000
_cell_angle_gamma 90.000000
_cell_volume 2250.692433
_symmetry_space_group_name_H-M "P M M M"
_symmetry_group_IT_number 47
_symmetry_cell_setting 'orthorhombic'
loop_
_space_group_symop_operation_xyz
x,y,z
-x,-y,z
x,-y,-z
-x,y,-z
-x,-y,-z
x,y,-z
-x,y,z
x,-y,z
loop_
_atom_site_type_symbol
_atom_site_label
_atom_site_fract_x
_atom_site_fract_y
_atom_site_fract_z
Si Si1 0.213651 0.680798 0.393857
Si Si2 0.783757 0.189242 0.689046
Si Si3 0.710355 0.429124 0.736117
Si Si4 0.794486 0.813167 0.104719
Si Si5 0.286225 0.666452 0.894093
Si Si6 0.000000 0.000000 0.500000
Si Si7 0.299118 0.109597 0.500000
O O1 0.276992 0.692816 0.500000
O O2 0.275361 0.738168 0.327354
O O3 0.266197 0.612078 0.357990
O O4 0.000000 0.683309 0.394065
O O5 0.720827 0.165411 0.792739
O O6 0.727291 0.150879 0.595972
O O7 0.000000 0.188298 0.691247
O O8 0.500000 0.434269 0.754016
O O9 0.782710 0.500000 0.732643
O O10 0.783251 0.383207 0.817910
O O11 0.789846 0.736885 0.112105
O O12 0.000000 0.833484 0.101882
O O13 0.716401 0.828843 0.000000
O O14 0.500000 0.673108 0.883606
O O15 0.250855 0.642595 0.000000
O O16 0.154343 0.944879 0.500000
O O17 0.500000 0.085568 0.500000
#
# Coordination Sequence:
#
# PCOD9382373 Si02
#       7
#     8   8   8   8   8   1   4
#     4  10  20  34  53  73 100 137 180 236 299 355
#     4  10  18  35  58  87 127 160 198 253 304 352
#     4  10  21  34  46  64  93 133 184 242 303 365
#     4   9  17  29  51  82 116 154 193 241 308 367
#     4   9  17  29  45  66  95 133 178 234 299 361
#     4  12  26  52  68  98 158 172 200 252 284 336
#     4  12  25  41  71 104 132 178 213 239 292 351
#
# _framework density 19.993846000000001
#
# number of rings (size 3 to 8) (size 9 to 14) (size 15 to 20)
#    0.000    2.133    3.556    0.133    0.000    2.844 
#    0.000    3.556    0.000    0.000    0.000    4.978 
#    0.000    1.422    0.000    0.000    0.000    0.000 
#
# Total GULP energy -250645.603396 kJ/mol
# GULP energy per Si atom -5569.902298 kJ/mol
# Density = 1.994834 g / cm^3
# Si number density = 19.993846 Si / 1000 Ang^3
#
#
#
# Elastic Constant Matrix: (Units=GPa)
#
#
# Indices 1 2 3 4 5 6 
#
# 1 72.4658 9.8437 9.3068 0.0000 0.0000 0.0000
# 2 9.8437 63.6690 19.8010 0.0000 0.0000 0.0000
# 3 9.3068 19.8010 153.2725 0.0000 0.0000 0.0000
# 4 0.0000 0.0000 0.0000 -3.5572 0.0000 0.0000
# 5 0.0000 0.0000 0.0000 0.0000 9.7043 0.0000
# 6 0.0000 0.0000 0.0000 0.0000 0.0000 17.2968
#
#
#
# Elastic Compliance Matrix: (Units=1/GPa)
#
#
# Indices 1 2 3 4 5 6 
#
# 1 0.014149 -0.002001 -0.000601 0.000000 0.000000 0.000000
# 2 -0.002001 0.016647 -0.002029 0.000000 0.000000 0.000000
# 3 -0.000601 -0.002029 0.006823 0.000000 0.000000 0.000000
# 4 0.000000 0.000000 0.000000 -0.281122 0.000000 0.000000
# 5 0.000000 0.000000 0.000000 0.000000 0.103047 0.000000
# 6 0.000000 0.000000 0.000000 0.000000 0.000000 0.057814
#
#
# Mechanical properties :
#
#
# Convention : Reuss Voigt Hill
#
# Bulk Modulus (GPa) = 35.26429 40.81225 38.03827
# Shear Modulus (GPa) = -78.21159 21.38583 -28.41288
#
# Velocity S-wave (km/s) = -6.26121 3.27405 -3.77381
# Velocity P-wave (km/s) = 5.88171 5.89485 0.27822
#
# Compressibility (1/GPa) = 0.02835730
#
# Stress axis : x y z
#
# Youngs Moduli (GPa) = 70.67881 60.07238 146.56460
#
# Poissons Ratio (x) = 0.12018 0.08803
# Poissons Ratio (y) = 0.14140 0.29739
# Poissons Ratio (z) = 0.04245 0.12189
#
# Static dielectric constant tensor:
#      x y z
#    x 1.764520 0.000000 0.000000 
#    y 0.000000 1.653000 0.000000 
#    z 0.000000 0.000000 1.768270 
# 
# From -- ./inp_files/21327.got.cif
#   From: 2010.05.17/outbox.cif.g08.bks.cpg/sg47_11_cif.got.tgz:21327.got - 2010.06.03 20:15:42.
