data_PCOD9382215
_publ_section_title
;
Structure prediction by ZEFSAII (Michael W. Deem and Ramdas Pophale) SiO2 
 PCOD9382215
Probable space group: P M M M
;
_chemical_formula_sum "Si O2"
_cell_formula_units_Z 48
_cell_length_a 9.427404
_cell_length_b 17.607389
_cell_length_c 15.380478
_cell_angle_alpha 90.000000
_cell_angle_beta 90.000000
_cell_angle_gamma 90.000000
_cell_volume 2553.035835
_symmetry_space_group_name_H-M "P M M M"
_symmetry_group_IT_number 47
_symmetry_cell_setting 'orthorhombic'
loop_
_space_group_symop_operation_xyz
x,y,z
-x,-y,z
x,-y,-z
-x,y,-z
-x,-y,-z
x,y,-z
-x,y,z
x,-y,z
loop_
_atom_site_type_symbol
_atom_site_label
_atom_site_fract_x
_atom_site_fract_y
_atom_site_fract_z
Si Si1 0.168923 0.682121 0.900322
Si Si2 0.666498 0.299827 0.401314
Si Si3 0.670131 0.588095 0.755059
Si Si4 0.164305 0.149091 0.355474
Si Si5 0.163807 0.147495 0.855408
Si Si6 0.663751 0.000000 0.643837
Si Si7 0.337586 0.000000 0.143500
O O1 0.252308 0.629121 0.834425
O O2 0.212263 0.770293 0.888444
O O3 0.000000 0.679247 0.881644
O O4 0.191346 0.659443 0.000000
O O5 0.682123 0.327346 0.500000
O O6 0.500000 0.279467 0.388099
O O7 0.703770 0.364078 0.331574
O O8 0.761204 0.225505 0.387479
O O9 0.500000 0.591556 0.767327
O O10 0.710863 0.500000 0.747672
O O11 0.167353 0.150499 0.249887
O O12 0.000000 0.144455 0.382121
O O13 0.252678 0.075357 0.384002
O O14 0.257050 0.076297 0.884198
O O15 0.000000 0.136234 0.881904
O O16 0.664205 0.000000 0.750119
O O17 0.500000 0.000000 0.615895
O O18 0.500000 0.000000 0.115416
#
# Coordination Sequence:
#
# PCOD9382215 Si02
#       7
#     8   8   8   8   8   4   4
#     4  10  21  38  60  86 115 150 192 234 279 334
#     4  10  21  37  58  84 114 149 188 230 280 339
#     4  10  22  40  62  87 115 147 183 228 283 341
#     4  10  18  31  53  80 111 148 191 237 283 331
#     4   9  17  31  51  76 108 147 188 231 277 325
#     4   9  17  29  48  77 112 150 192 235 280 331
#     4   9  17  27  46  77 108 145 190 232 275 324
#
# _framework density 18.801145000000002
#
# number of rings (size 3 to 8) (size 9 to 14) (size 15 to 20)
#    0.000    2.333    1.667    1.000    0.000    5.000 
#    0.000    4.167    0.000    5.000    0.000    2.333 
#    0.000    0.000    0.000    0.000    0.000    0.000 
#
# Total GULP energy -268063.793336 kJ/mol
# GULP energy per Si atom -5584.662361 kJ/mol
# Density = 1.875835 g / cm^3
# Si number density = 18.801145 Si / 1000 Ang^3
#
#
#
# Elastic Constant Matrix: (Units=GPa)
#
#
# Indices 1 2 3 4 5 6 
#
# 1 91.8575 91.5836 49.4769 0.0000 0.0000 0.0000
# 2 91.5836 185.3107 68.6862 0.0000 0.0000 0.0000
# 3 49.4769 68.6862 77.7570 0.0000 0.0000 0.0000
# 4 0.0000 0.0000 0.0000 -10.9394 0.0000 0.0000
# 5 0.0000 0.0000 0.0000 0.0000 15.3114 0.0000
# 6 0.0000 0.0000 0.0000 0.0000 0.0000 32.3747
#
#
#
# Elastic Compliance Matrix: (Units=1/GPa)
#
#
# Indices 1 2 3 4 5 6 
#
# 1 0.023819 -0.009150 -0.007074 0.000000 0.000000 0.000000
# 2 -0.009150 0.011538 -0.004370 0.000000 0.000000 0.000000
# 3 -0.007074 -0.004370 0.021222 0.000000 0.000000 0.000000
# 4 0.000000 0.000000 0.000000 -0.091413 0.000000 0.000000
# 5 0.000000 0.000000 0.000000 0.000000 0.065311 0.000000
# 6 0.000000 0.000000 0.000000 0.000000 0.000000 0.030888
#
#
# Mechanical properties :
#
#
# Convention : Reuss Voigt Hill
#
# Bulk Modulus (GPa) = 64.96930 86.04652 75.50791
# Shear Modulus (GPa) = 46.43234 17.02790 31.73012
#
# Velocity S-wave (km/s) = 4.97495 3.01272 4.11258
# Velocity P-wave (km/s) = 8.22382 7.61367 7.92462
#
# Compressibility (1/GPa) = 0.01539189
#
# Stress axis : x y z
#
# Youngs Moduli (GPa) = 41.98311 86.66887 47.12136
#
# Poissons Ratio (x) = 0.79301 0.33332
# Poissons Ratio (y) = 0.38414 0.20592
# Poissons Ratio (z) = 0.29697 0.37875
#
# Static dielectric constant tensor:
#      x y z
#    x 1.631620 0.000000 0.000000 
#    y 0.000000 1.611210 0.000000 
#    z 0.000000 0.000000 1.670170 
# 
# From -- ./inp_files/21101.got.cif
#   From: 2010.05.17/outbox.cif.g08.bks.cpg/sg47_11_cif.got.tgz:21101.got - 2010.06.03 20:15:42.
