data_PCOD9382828
_publ_section_title
;
Structure prediction by ZEFSAII (Michael W. Deem and Ramdas Pophale) SiO2 
 PCOD9382828
Probable space group: P M M M
;
_chemical_formula_sum "Si O2"
_cell_formula_units_Z 52
_cell_length_a 22.803481
_cell_length_b 14.314448
_cell_length_c 9.411538
_cell_angle_alpha 90.000000
_cell_angle_beta 90.000000
_cell_angle_gamma 90.000000
_cell_volume 3072.107109
_symmetry_space_group_name_H-M "P M M M"
_symmetry_group_IT_number 47
_symmetry_cell_setting 'orthorhombic'
loop_
_space_group_symop_operation_xyz
x,y,z
-x,-y,z
x,-y,-z
-x,y,-z
-x,-y,-z
x,y,-z
-x,y,z
x,-y,z
loop_
_atom_site_type_symbol
_atom_site_label
_atom_site_fract_x
_atom_site_fract_y
_atom_site_fract_z
Si Si1 0.376658 0.893168 0.332567
Si Si2 0.670287 0.612356 0.836479
Si Si3 0.160141 0.778037 0.661221
Si Si4 0.069606 0.889313 0.500000
Si Si5 0.804978 0.609630 0.170440
Si Si6 0.742266 0.888021 0.835515
Si Si7 0.564582 0.295294 0.669076
O O1 0.360331 0.888813 0.500000
O O2 0.320056 0.868959 0.238485
O O3 0.425696 0.815432 0.308636
O O4 0.394397 0.000000 0.301972
O O5 0.666792 0.500000 0.833215
O O6 0.737156 0.635301 0.792876
O O7 0.618934 0.654371 0.742612
O O8 0.662861 0.642630 0.000000
O O9 0.182563 0.760739 0.500000
O O10 0.101160 0.837641 0.632729
O O11 0.154405 0.680528 0.743533
O O12 0.206281 0.838876 0.749140
O O13 0.000000 0.877782 0.500000
O O14 0.083287 0.000000 0.500000
O O15 0.813891 0.500000 0.203171
O O16 0.811032 0.620272 0.000000
O O17 0.750336 0.000000 0.830384
O O18 0.742173 0.858290 0.000000
O O19 0.567071 0.312319 0.500000
O O20 0.500000 0.324178 0.720731
#
# Coordination Sequence:
#
# PCOD9382828 Si02
#       7
#     8   8   8   4   8   8   8
#     4   9  18  32  49  68  94 127 163 206 259 317
#     4   9  19  35  53  72  96 128 163 202 254 313
#     4  10  20  30  53  81 106 139 180 218 252 300
#     4   9  20  38  57  79 111 151 187 218 252 288
#     4   9  18  34  55  81 113 141 168 212 271 326
#     4  10  19  30  47  74 106 133 162 210 271 328
#     4  10  21  34  47  66  92 124 167 213 256 304
#
# _framework density 16.926492
#
# number of rings (size 3 to 8) (size 9 to 14) (size 15 to 20)
#    0.462    2.077    0.000    3.231    0.000    5.846 
#    0.000    4.615    0.000    2.769    0.000    9.692 
#    0.000    0.000    0.000    0.000    0.000    0.000 
#
# Total GULP energy -289793.556262 kJ/mol
# GULP energy per Si atom -5572.953005 kJ/mol
# Density = 1.688797 g / cm^3
# Si number density = 16.926492 Si / 1000 Ang^3
#
#
#
# Elastic Constant Matrix: (Units=GPa)
#
#
# Indices 1 2 3 4 5 6 
#
# 1 69.4629 52.3694 33.7468 0.0000 0.0000 0.0000
# 2 52.3694 75.2783 35.8397 0.0000 0.0000 0.0000
# 3 33.7468 35.8397 53.4463 0.0000 0.0000 0.0000
# 4 0.0000 0.0000 0.0000 31.7413 0.0000 0.0000
# 5 0.0000 0.0000 0.0000 0.0000 7.8263 0.0000
# 6 0.0000 0.0000 0.0000 0.0000 0.0000 17.3355
#
#
#
# Elastic Compliance Matrix: (Units=1/GPa)
#
#
# Indices 1 2 3 4 5 6 
#
# 1 0.032367 -0.018784 -0.007841 0.000000 0.000000 0.000000
# 2 -0.018784 0.030415 -0.008535 0.000000 0.000000 0.000000
# 3 -0.007841 -0.008535 0.029385 0.000000 0.000000 0.000000
# 4 0.000000 0.000000 0.000000 0.031505 0.000000 0.000000
# 5 0.000000 0.000000 0.000000 0.000000 0.127774 0.000000
# 6 0.000000 0.000000 0.000000 0.000000 0.000000 0.057685
#
#
# Mechanical properties :
#
#
# Convention : Reuss Voigt Hill
#
# Bulk Modulus (GPa) = 45.77342 49.12214 47.44778
# Shear Modulus (GPa) = 12.92881 16.46275 14.69578
#
# Velocity S-wave (km/s) = 2.76673 3.12204 2.94974
# Velocity P-wave (km/s) = 6.10799 6.48691 6.30030
#
# Compressibility (1/GPa) = 0.02184674
#
# Stress axis : x y z
#
# Youngs Moduli (GPa) = 30.89558 32.87835 34.03128
#
# Poissons Ratio (x) = 0.61759 0.26684
# Poissons Ratio (y) = 0.58034 0.29046
# Poissons Ratio (z) = 0.24225 0.28062
#
# Static dielectric constant tensor:
#      x y z
#    x 1.540400 0.000000 0.000000 
#    y 0.000000 1.608250 0.000000 
#    z 0.000000 0.000000 1.564280 
# 
# From -- ./inp_files/12468.got.cif
#   From: 2010.05.17/outbox.cif.g08.bks.cpg/sg47_7_cif.got.tgz:12468.got - 2010.06.03 20:15:42.
