data_PCOD9382874
_publ_section_title
;
Structure prediction by ZEFSAII (Michael W. Deem and Ramdas Pophale) SiO2 
 PCOD9382874
Probable space group: P M M M
;
_chemical_formula_sum "Si O2"
_cell_formula_units_Z 52
_cell_length_a 12.177349
_cell_length_b 8.044224
_cell_length_c 30.387089
_cell_angle_alpha 90.000000
_cell_angle_beta 90.000000
_cell_angle_gamma 90.000000
_cell_volume 2976.637895
_symmetry_space_group_name_H-M "P M M M"
_symmetry_group_IT_number 47
_symmetry_cell_setting 'orthorhombic'
loop_
_space_group_symop_operation_xyz
x,y,z
-x,-y,z
x,-y,-z
-x,y,-z
-x,-y,-z
x,y,-z
-x,y,z
x,-y,z
loop_
_atom_site_type_symbol
_atom_site_label
_atom_site_fract_x
_atom_site_fract_y
_atom_site_fract_z
Si Si1 0.260154 0.303939 0.133825
Si Si2 0.280785 0.800871 0.702561
Si Si3 0.369138 0.309434 0.388107
Si Si4 0.500000 0.202551 0.246654
Si Si5 0.500000 0.197007 0.852224
Si Si6 0.127187 0.200629 0.951572
Si Si7 0.632711 0.000000 0.549967
Si Si8 0.126959 0.298638 0.219467
O O1 0.262257 0.500000 0.139662
O O2 0.384738 0.246564 0.127195
O O3 0.191894 0.262297 0.090480
O O4 0.201492 0.235501 0.178342
O O5 0.294836 0.717882 0.655052
O O6 0.389847 0.746112 0.728947
O O7 0.179743 0.757137 0.734325
O O8 0.284652 0.000000 0.696431
O O9 0.500000 0.283871 0.376862
O O10 0.358797 0.500000 0.403766
O O11 0.338701 0.167220 0.423222
O O12 0.500000 0.267680 0.197272
O O13 0.500000 0.000000 0.245935
O O14 0.500000 0.000000 0.849069
O O15 0.000000 0.252003 0.948039
O O16 0.129973 0.000000 0.951126
O O17 0.168156 0.255142 0.000000
O O18 0.500000 0.000000 0.547725
O O19 0.674944 0.000000 0.500000
O O20 0.127972 0.500000 0.218673
O O21 0.000000 0.245194 0.214577
#
# Coordination Sequence:
#
# PCOD9382874 Si02
#       8
#     8   8   8   4   4   8   4   8
#     4  11  22  36  55  80 109 139 174 218 267 320
#     4  11  19  32  52  75 105 137 181 230 265 314
#     4  10  19  30  48  74 104 142 184 225 274 328
#     4   9  18  29  49  74 100 135 175 222 265 298
#     4  11  21  37  54  76 105 139 180 219 262 315
#     4   9  19  37  60  83 105 133 173 218 264 318
#     4   9  18  32  48  70 105 145 185 231 275 321
#     4  10  22  37  50  71 107 145 178 215 263 319
#
# _framework density 17.469373000000001
#
# number of rings (size 3 to 8) (size 9 to 14) (size 15 to 20)
#    0.000    1.923    3.077    2.077    0.000    2.462 
#    0.000    2.692    0.000    2.308    0.000    0.000 
#    0.000    1.231    0.000    3.231    0.000    0.154 
#
# Total GULP energy -290035.572625 kJ/mol
# GULP energy per Si atom -5577.607166 kJ/mol
# Density = 1.742961 g / cm^3
# Si number density = 17.469373 Si / 1000 Ang^3
#
#
#
# Elastic Constant Matrix: (Units=GPa)
#
#
# Indices 1 2 3 4 5 6 
#
# 1 86.2735 23.8855 44.2067 0.0000 0.0000 0.0000
# 2 23.8855 62.3885 35.3537 0.0000 0.0000 0.0000
# 3 44.2067 35.3537 112.1941 0.0000 0.0000 0.0000
# 4 0.0000 0.0000 0.0000 18.2372 0.0000 0.0000
# 5 0.0000 0.0000 0.0000 0.0000 12.9582 0.0000
# 6 0.0000 0.0000 0.0000 0.0000 0.0000 8.1899
#
#
#
# Elastic Compliance Matrix: (Units=1/GPa)
#
#
# Indices 1 2 3 4 5 6 
#
# 1 0.014943 -0.002903 -0.004973 0.000000 0.000000 0.000000
# 2 -0.002903 0.020077 -0.005183 0.000000 0.000000 0.000000
# 3 -0.004973 -0.005183 0.012506 0.000000 0.000000 0.000000
# 4 0.000000 0.000000 0.000000 0.054833 0.000000 0.000000
# 5 0.000000 0.000000 0.000000 0.000000 0.077171 0.000000
# 6 0.000000 0.000000 0.000000 0.000000 0.000000 0.122102
#
#
# Mechanical properties :
#
#
# Convention : Reuss Voigt Hill
#
# Bulk Modulus (GPa) = 46.71081 51.97198 49.34140
# Shear Modulus (GPa) = 14.93051 18.37107 16.65079
#
# Velocity S-wave (km/s) = 2.92664 3.24638 3.09065
# Velocity P-wave (km/s) = 6.18199 6.62321 6.40640
#
# Compressibility (1/GPa) = 0.02140832
#
# Stress axis : x y z
#
# Youngs Moduli (GPa) = 66.92120 49.80870 79.96322
#
# Poissons Ratio (x) = 0.14459 0.39767
# Poissons Ratio (y) = 0.19426 0.41442
# Poissons Ratio (z) = 0.33281 0.25814
#
# Static dielectric constant tensor:
#      x y z
#    x 1.565160 0.000000 0.000000 
#    y 0.000000 1.616390 0.000000 
#    z 0.000000 0.000000 1.651870 
# 
# From -- ./inp_files/13303.got.cif
#   From: 2010.05.17/outbox.cif.g08.bks.cpg/sg47_7_cif.got.tgz:13303.got - 2010.06.03 20:15:42.
