data_PCOD9382691
_publ_section_title
;
Structure prediction by ZEFSAII (Michael W. Deem and Ramdas Pophale) SiO2 
 PCOD9382691
Probable space group: P M M M
;
_chemical_formula_sum "Si O2"
_cell_formula_units_Z 64
_cell_length_a 14.288821
_cell_length_b 8.045062
_cell_length_c 24.217397
_cell_angle_alpha 90.000000
_cell_angle_beta 90.000000
_cell_angle_gamma 90.000000
_cell_volume 2783.897573
_symmetry_space_group_name_H-M "P M M M"
_symmetry_group_IT_number 47
_symmetry_cell_setting 'orthorhombic'
loop_
_space_group_symop_operation_xyz
x,y,z
-x,-y,z
x,-y,-z
-x,y,-z
-x,-y,-z
x,y,-z
-x,y,z
x,-y,z
loop_
_atom_site_type_symbol
_atom_site_label
_atom_site_fract_x
_atom_site_fract_y
_atom_site_fract_z
Si Si1 0.307983 0.700971 0.439248
Si Si2 0.900634 0.693131 0.586678
Si Si3 0.194968 0.798778 0.062489
Si Si4 0.598917 0.809954 0.934072
Si Si5 0.809130 0.301544 0.179754
Si Si6 0.600528 0.691962 0.209226
Si Si7 0.860878 0.812267 0.296793
Si Si8 0.640346 0.813639 0.676209
O O1 0.342232 0.748721 0.500000
O O2 0.305439 0.500000 0.435866
O O3 0.199632 0.762145 0.432821
O O4 0.367515 0.762140 0.387245
O O5 0.900405 0.500000 0.570037
O O6 0.900362 0.703865 0.653398
O O7 0.000000 0.767674 0.567767
O O8 0.300221 0.728797 0.073231
O O9 0.148125 0.751970 0.120634
O O10 0.199723 0.000000 0.060338
O O11 0.164339 0.746758 0.000000
O O12 0.500000 0.728261 0.918586
O O13 0.600973 0.000000 0.912023
O O14 0.595796 0.826415 0.000000
O O15 0.804114 0.500000 0.181498
O O16 0.700696 0.235584 0.188773
O O17 0.867037 0.244933 0.233548
O O18 0.500000 0.770721 0.193658
O O19 0.599746 0.500000 0.191283
O O20 0.602219 0.698381 0.275665
O O21 0.750790 0.813260 0.310871
O O22 0.895505 0.000000 0.302262
O O23 0.605416 0.000000 0.684718
#
# Coordination Sequence:
#
# PCOD9382691 Si02
#       8
#     8   8   8   8   8   8   8   8
#     4   9  17  29  46  68  95 130 166 190 213 256
#     4   9  17  29  46  70 100 129 155 186 221 254
#     4   9  17  28  41  58  82 112 145 181 221 266
#     4   7  10  18  32  48  66  92 128 166 202 243
#     4  10  19  30  45  64  87 115 148 187 230 277
#     4   9  18  32  48  65  86 113 146 188 240 292
#     4   9  17  30  47  65  87 117 153 189 225 268
#     4   9  17  29  46  67  89 115 150 193 237 275
#
# _framework density 22.989353000000001
#
# number of rings (size 3 to 8) (size 9 to 14) (size 15 to 20)
#    0.000    3.125    0.000    2.250    0.000    5.250 
#    0.000    1.250    0.000    0.375    0.000    9.625 
#    0.000    0.500    0.000    5.250    0.000    2.250 
#
# Total GULP energy -356282.661983 kJ/mol
# GULP energy per Si atom -5566.916593 kJ/mol
# Density = 2.293703 g / cm^3
# Si number density = 22.989353 Si / 1000 Ang^3
#
#
#
# Elastic Constant Matrix: (Units=GPa)
#
#
# Indices 1 2 3 4 5 6 
#
# 1 28.8924 -1.7102 -7.3599 0.0000 0.0000 0.0000
# 2 -1.7102 37.2911 9.9972 0.0000 0.0000 0.0000
# 3 -7.3599 9.9972 186.0080 0.0000 0.0000 0.0000
# 4 0.0000 0.0000 0.0000 25.3783 0.0000 0.0000
# 5 0.0000 0.0000 0.0000 0.0000 -9.1255 0.0000
# 6 0.0000 0.0000 0.0000 0.0000 0.0000 -9.1549
#
#
#
# Elastic Compliance Matrix: (Units=1/GPa)
#
#
# Indices 1 2 3 4 5 6 
#
# 1 0.035021 0.001253 0.001318 0.000000 0.000000 0.000000
# 2 0.001253 0.027253 -0.001415 0.000000 0.000000 0.000000
# 3 0.001318 -0.001415 0.005504 0.000000 0.000000 0.000000
# 4 0.000000 0.000000 0.000000 0.039404 0.000000 0.000000
# 5 0.000000 0.000000 0.000000 0.000000 -0.109584 0.000000
# 6 0.000000 0.000000 0.000000 0.000000 0.000000 -0.109231
#
#
# Mechanical properties :
#
#
# Convention : Reuss Voigt Hill
#
# Bulk Modulus (GPa) = 14.26735 28.22729 21.24732
# Shear Modulus (GPa) = -55.19947 18.17055 -18.51446
#
# Velocity S-wave (km/s) = -4.90541 2.81444 -2.84095
# Velocity P-wave (km/s) = 5.08571 4.78189 1.22433
#
# Compressibility (1/GPa) = 0.07009011
#
# Stress axis : x y z
#
# Youngs Moduli (GPa) = 28.55420 36.69340 181.67486
#
# Poissons Ratio (x) = -0.04597 -0.23952
# Poissons Ratio (y) = -0.03577 0.25710
# Poissons Ratio (z) = -0.03765 0.05193
#
# Static dielectric constant tensor:
#      x y z
#    x 1.923450 0.000000 0.000000 
#    y 0.000000 1.835800 0.000000 
#    z 0.000000 0.000000 1.892790 
# 
# From -- ./inp_files/32889.got.cif
#   From: 2010.05.17/outbox.cif.g08.bks.cpg/sg47_17_cif.got.tgz:32889.got - 2010.06.03 20:15:42.
