data_PCOD9382164
_publ_section_title
;
Structure prediction by ZEFSAII (Michael W. Deem and Ramdas Pophale) SiO2 
 PCOD9382164
Probable space group: P M M M
;
_chemical_formula_sum "Si O2"
_cell_formula_units_Z 48
_cell_length_a 12.332295
_cell_length_b 15.705187
_cell_length_c 14.153867
_cell_angle_alpha 90.000000
_cell_angle_beta 90.000000
_cell_angle_gamma 90.000000
_cell_volume 2741.335102
_symmetry_space_group_name_H-M "P M M M"
_symmetry_group_IT_number 47
_symmetry_cell_setting 'orthorhombic'
loop_
_space_group_symop_operation_xyz
x,y,z
-x,-y,z
x,-y,-z
-x,y,-z
-x,-y,-z
x,y,-z
-x,y,z
x,-y,z
loop_
_atom_site_type_symbol
_atom_site_label
_atom_site_fract_x
_atom_site_fract_y
_atom_site_fract_z
Si Si1 0.870039 0.098110 0.730090
Si Si2 0.629427 0.645477 0.105905
Si Si3 0.276903 0.834438 0.108593
Si Si4 0.869361 0.738259 0.389423
Si Si5 0.000000 0.602618 0.893442
Si Si6 0.197029 0.403099 0.755600
Si Si7 0.500000 0.099903 0.106794
O O1 0.820332 0.135919 0.826254
O O2 0.841260 0.167816 0.650273
O O3 0.000000 0.096844 0.736241
O O4 0.834201 0.000000 0.714482
O O5 0.500000 0.657073 0.119430
O O6 0.693166 0.735249 0.106410
O O7 0.688674 0.596401 0.189670
O O8 0.644113 0.608262 0.000000
O O9 0.387259 0.873959 0.151182
O O10 0.261975 0.863651 0.000000
O O11 0.844552 0.731308 0.500000
O O12 0.811369 0.665471 0.327622
O O13 0.000000 0.727088 0.377639
O O14 0.893776 0.624024 0.833083
O O15 0.000000 0.500000 0.901424
O O16 0.000000 0.638211 0.000000
O O17 0.171312 0.500000 0.724638
O O18 0.500000 0.000000 0.097249
O O19 0.500000 0.139765 0.000000
#
# Coordination Sequence:
#
# PCOD9382164 Si02
#       7
#     8   8   8   8   4   8   4
#     4  10  21  36  54  80 113 145 179 218 269 335
#     4  10  20  35  55  80 114 154 193 229 268 322
#     4  10  18  31  51  76 109 148 186 224 266 319
#     4  10  21  38  59  82 109 142 184 234 285 331
#     4   9  18  32  51  79 114 147 177 215 265 325
#     4  11  21  35  56  83 114 146 186 231 276 331
#     4   9  16  26  44  72 102 136 181 224 260 302
#
# _framework density 17.509716000000001
#
# number of rings (size 3 to 8) (size 9 to 14) (size 15 to 20)
#    0.000    2.000    3.333    1.000    0.000    3.333 
#    0.000    4.167    0.000    0.500    0.000    1.167 
#    0.000    3.333    0.000    0.000    0.000    0.000 
#
# Total GULP energy -267505.535798 kJ/mol
# GULP energy per Si atom -5573.031996 kJ/mol
# Density = 1.746986 g / cm^3
# Si number density = 17.509716 Si / 1000 Ang^3
#
#
#
# Elastic Constant Matrix: (Units=GPa)
#
#
# Indices 1 2 3 4 5 6 
#
# 1 44.7206 30.5988 37.1545 0.0000 0.0000 0.0000
# 2 30.5988 106.7283 57.2404 0.0000 0.0000 0.0000
# 3 37.1545 57.2404 117.9744 0.0000 0.0000 0.0000
# 4 0.0000 0.0000 0.0000 11.7383 0.0000 0.0000
# 5 0.0000 0.0000 0.0000 0.0000 15.5508 0.0000
# 6 0.0000 0.0000 0.0000 0.0000 0.0000 21.4508
#
#
#
# Elastic Compliance Matrix: (Units=1/GPa)
#
#
# Indices 1 2 3 4 5 6 
#
# 1 0.032240 -0.005133 -0.007663 0.000000 0.000000 0.000000
# 2 -0.005133 0.013483 -0.004925 0.000000 0.000000 0.000000
# 3 -0.007663 -0.004925 0.013279 0.000000 0.000000 0.000000
# 4 0.000000 0.000000 0.000000 0.085191 0.000000 0.000000
# 5 0.000000 0.000000 0.000000 0.000000 0.064305 0.000000
# 6 0.000000 0.000000 0.000000 0.000000 0.000000 0.046618
#
#
# Mechanical properties :
#
#
# Convention : Reuss Voigt Hill
#
# Bulk Modulus (GPa) = 42.44595 57.71231 50.07913
# Shear Modulus (GPa) = 16.75535 19.37663 18.06599
#
# Velocity S-wave (km/s) = 3.09676 3.33020 3.21560
# Velocity P-wave (km/s) = 6.08938 6.91511 6.51534
#
# Compressibility (1/GPa) = 0.02355937
#
# Stress axis : x y z
#
# Youngs Moduli (GPa) = 31.01748 74.16911 75.30509
#
# Poissons Ratio (x) = 0.38074 0.57705
# Poissons Ratio (y) = 0.15922 0.37088
# Poissons Ratio (z) = 0.23768 0.36528
#
# Static dielectric constant tensor:
#      x y z
#    x 1.616510 0.000000 0.000000 
#    y 0.000000 1.634740 0.000000 
#    z 0.000000 0.000000 1.578970 
# 
# From -- ./inp_files/22707.got.cif
#   From: 2010.05.17/outbox.cif.g08.bks.cpg/sg47_12_cif.got.tgz:22707.got - 2010.06.03 20:15:42.
