data_PCOD9382573
_publ_section_title
;
Structure prediction by ZEFSAII (Michael W. Deem and Ramdas Pophale) SiO2 
 PCOD9382573
Probable space group: P M M M
;
_chemical_formula_sum "Si O2"
_cell_formula_units_Z 64
_cell_length_a 20.870495
_cell_length_b 8.261985
_cell_length_c 18.527710
_cell_angle_alpha 90.000000
_cell_angle_beta 90.000000
_cell_angle_gamma 90.000000
_cell_volume 3194.764841
_symmetry_space_group_name_H-M "P M M M"
_symmetry_group_IT_number 47
_symmetry_cell_setting 'orthorhombic'
loop_
_space_group_symop_operation_xyz
x,y,z
-x,-y,z
x,-y,-z
-x,y,-z
-x,-y,-z
x,y,-z
-x,y,z
x,-y,z
loop_
_atom_site_type_symbol
_atom_site_label
_atom_site_fract_x
_atom_site_fract_y
_atom_site_fract_z
Si Si1 0.790385 0.808835 0.421854
Si Si2 0.600671 0.302795 0.921422
Si Si3 0.569337 0.697552 0.759643
Si Si4 0.879055 0.304439 0.922642
Si Si5 0.075923 0.177726 0.229246
Si Si6 0.290180 0.694920 0.715638
Si Si7 0.926129 0.687100 0.379850
Si Si8 0.741163 0.303505 0.124319
O O1 0.768659 0.742405 0.500000
O O2 0.750619 0.743258 0.353835
O O3 0.866594 0.775461 0.416067
O O4 0.781005 0.000000 0.421524
O O5 0.595885 0.500000 0.921943
O O6 0.572072 0.252374 0.844314
O O7 0.675319 0.256643 0.913564
O O8 0.576428 0.247510 0.000000
O O9 0.500000 0.748351 0.729653
O O10 0.570801 0.500000 0.759349
O O11 0.635065 0.749919 0.720433
O O12 0.882936 0.500000 0.920353
O O13 0.909083 0.237540 0.850195
O O14 0.804787 0.254782 0.916631
O O15 0.906054 0.251129 0.000000
O O16 0.091033 0.297276 0.294663
O O17 0.000000 0.162814 0.232852
O O18 0.104955 0.000000 0.243251
O O19 0.291065 0.500000 0.717621
O O20 0.259057 0.749951 0.791917
O O21 0.925546 0.500000 0.401313
O O22 0.000000 0.747037 0.391196
O O23 0.740853 0.500000 0.125193
#
# Coordination Sequence:
#
# PCOD9382573 Si02
#       8
#     8   8   8   8   8   8   8   8
#     4  11  24  39  56  81 112 141 167 202 251 304
#     4   8  12  18  31  55  92 135 169 199 245 304
#     4   8  14  24  40  67 101 135 175 223 270 312
#     4  10  19  29  44  66  91 123 168 224 277 317
#     4  10  21  36  52  69  93 128 168 210 258 310
#     4   9  17  31  53  76 100 137 180 219 260 310
#     4  10  21  38  61  86 110 137 170 206 243 294
#     4   8  14  25  41  63  90 121 162 209 255 302
#
# _framework density 20.032772999999999
#
# number of rings (size 3 to 8) (size 9 to 14) (size 15 to 20)
#    0.000    2.750    0.000    3.750    0.000    6.000 
#    0.000    3.750    0.000    0.750    0.000    2.625 
#    0.000    4.500    0.000    4.500    0.000    5.000 
#
# Total GULP energy -356583.137171 kJ/mol
# GULP energy per Si atom -5571.611518 kJ/mol
# Density = 1.998718 g / cm^3
# Si number density = 20.032773 Si / 1000 Ang^3
#
#
#
# Elastic Constant Matrix: (Units=GPa)
#
#
# Indices 1 2 3 4 5 6 
#
# 1 56.9602 9.3434 44.0618 0.0000 0.0000 0.0000
# 2 9.3434 12.1525 6.6951 0.0000 0.0000 0.0000
# 3 44.0618 6.6951 115.3010 0.0000 0.0000 0.0000
# 4 0.0000 0.0000 0.0000 21.9744 0.0000 0.0000
# 5 0.0000 0.0000 0.0000 0.0000 -10.6772 0.0000
# 6 0.0000 0.0000 0.0000 0.0000 0.0000 -4.0842
#
#
#
# Elastic Compliance Matrix: (Units=1/GPa)
#
#
# Indices 1 2 3 4 5 6 
#
# 1 0.027618 -0.015929 -0.009629 0.000000 0.000000 0.000000
# 2 -0.015929 0.094194 0.000618 0.000000 0.000000 0.000000
# 3 -0.009629 0.000618 0.012317 0.000000 0.000000 0.000000
# 4 0.000000 0.000000 0.000000 0.045508 0.000000 0.000000
# 5 0.000000 0.000000 0.000000 0.000000 -0.093658 0.000000
# 6 0.000000 0.000000 0.000000 0.000000 0.000000 -0.244847
#
#
# Mechanical properties :
#
#
# Convention : Reuss Voigt Hill
#
# Bulk Modulus (GPa) = 11.86973 33.84603 22.85788
# Shear Modulus (GPa) = -61.80028 9.73016 -26.03506
#
# Velocity S-wave (km/s) = -5.56027 2.20628 -3.60894
# Velocity P-wave (km/s) = 5.94004 4.83965 2.43535
#
# Compressibility (1/GPa) = 0.08424791
#
# Stress axis : x y z
#
# Youngs Moduli (GPa) = 36.20883 10.61639 81.19010
#
# Poissons Ratio (x) = 0.16911 0.78178
# Poissons Ratio (y) = 0.57676 -0.05015
# Poissons Ratio (z) = 0.34866 -0.00656
#
# Static dielectric constant tensor:
#      x y z
#    x 1.734550 0.000000 0.000000 
#    y 0.000000 1.726950 0.000000 
#    z 0.000000 0.000000 1.744850 
# 
# From -- ./inp_files/28805.got.cif
#   From: 2010.05.17/outbox.cif.g08.bks.cpg/sg47_15_cif.got.tgz:28805.got - 2010.06.03 20:15:42.
