data_PCOD9382734
_publ_section_title
;
Structure prediction by ZEFSAII (Michael W. Deem and Ramdas Pophale) SiO2 
 PCOD9382734
Probable space group: P M M M
;
_chemical_formula_sum "Si O2"
_cell_formula_units_Z 52
_cell_length_a 7.990909
_cell_length_b 29.078250
_cell_length_c 14.120055
_cell_angle_alpha 90.000000
_cell_angle_beta 90.000000
_cell_angle_gamma 90.000000
_cell_volume 3280.959273
_symmetry_space_group_name_H-M "P M M M"
_symmetry_group_IT_number 47
_symmetry_cell_setting 'orthorhombic'
loop_
_space_group_symop_operation_xyz
x,y,z
-x,-y,z
x,-y,-z
-x,y,-z
-x,-y,-z
x,y,-z
-x,y,z
x,-y,z
loop_
_atom_site_type_symbol
_atom_site_label
_atom_site_fract_x
_atom_site_fract_y
_atom_site_fract_z
Si Si1 0.500000 0.447478 0.385113
Si Si2 0.700480 0.948942 0.107454
Si Si3 0.201765 0.716765 0.297184
Si Si4 0.795221 0.764027 0.106629
Si Si5 0.196378 0.856921 0.795531
Si Si6 0.196535 0.618900 0.614029
Si Si7 0.301582 0.810279 0.394381
O O1 0.500000 0.500000 0.350786
O O2 0.500000 0.448850 0.500000
O O3 0.331147 0.419927 0.358535
O O4 0.500000 0.951415 0.102570
O O5 0.740304 0.906622 0.174799
O O6 0.761428 0.000000 0.136133
O O7 0.762420 0.939749 0.000000
O O8 0.255498 0.728908 0.189838
O O9 0.245550 0.666618 0.335421
O O10 0.267776 0.757761 0.363160
O O11 0.000000 0.719843 0.300016
O O12 0.735855 0.814648 0.140399
O O13 0.000000 0.764423 0.106108
O O14 0.739795 0.753739 0.000000
O O15 0.228494 0.842434 0.687526
O O16 0.000000 0.857392 0.812234
O O17 0.206414 0.625252 0.500000
O O18 0.000000 0.608447 0.635567
O O19 0.234735 0.818357 0.500000
O O20 0.500000 0.817453 0.395246
#
# Coordination Sequence:
#
# PCOD9382734 Si02
#       7
#     4   8   8   8   8   8   8
#     4   9  18  30  44  64  89 121 159 193 231 278
#     4   9  18  32  49  69  93 119 146 180 223 269
#     4   9  17  28  43  65  91 119 151 186 226 270
#     4   8  14  25  41  62  89 118 145 175 214 262
#     4  10  19  30  46  67  91 119 149 183 224 267
#     4   9  17  28  43  64  91 122 154 191 233 275
#     4  10  20  31  45  65  88 118 154 188 222 266
#
# _framework density 15.849024
#
# number of rings (size 3 to 8) (size 9 to 14) (size 15 to 20)
#    0.000    2.846    0.000    3.231    1.077    3.385 
#    0.000    2.308    0.000    4.615    0.000    3.231 
#    0.000    1.231    0.000    6.000    0.000    0.154 
#
# Total GULP energy -289651.886397 kJ/mol
# GULP energy per Si atom -5570.228585 kJ/mol
# Density = 1.581295 g / cm^3
# Si number density = 15.849024 Si / 1000 Ang^3
#
#
#
# Elastic Constant Matrix: (Units=GPa)
#
#
# Indices 1 2 3 4 5 6 
#
# 1 34.0337 39.1735 11.3887 0.0000 0.0000 0.0000
# 2 39.1735 130.4995 45.3278 0.0000 0.0000 0.0000
# 3 11.3887 45.3278 70.2108 0.0000 0.0000 0.0000
# 4 0.0000 0.0000 0.0000 11.8317 0.0000 0.0000
# 5 0.0000 0.0000 0.0000 0.0000 10.4892 0.0000
# 6 0.0000 0.0000 0.0000 0.0000 0.0000 -377.8235
#
#
#
# Elastic Compliance Matrix: (Units=1/GPa)
#
#
# Indices 1 2 3 4 5 6 
#
# 1 0.045077 -0.014169 0.001836 0.000000 0.000000 0.000000
# 2 -0.014169 0.014332 -0.006954 0.000000 0.000000 0.000000
# 3 0.001836 -0.006954 0.018435 0.000000 0.000000 0.000000
# 4 0.000000 0.000000 0.000000 0.084519 0.000000 0.000000
# 5 0.000000 0.000000 0.000000 0.000000 0.095336 0.000000
# 6 0.000000 0.000000 0.000000 0.000000 0.000000 -0.002647
#
#
# Mechanical properties :
#
#
# Convention : Reuss Voigt Hill
#
# Bulk Modulus (GPa) = 25.46577 47.39156 36.42866
# Shear Modulus (GPa) = 16.30171 -61.84361 -22.77095
#
# Velocity S-wave (km/s) = 3.21060 -6.25341 -3.79455
# Velocity P-wave (km/s) = 5.46320 4.70887 1.95871
#
# Compressibility (1/GPa) = 0.03926840
#
# Stress axis : x y z
#
# Youngs Moduli (GPa) = 22.18421 69.77623 54.24574
#
# Poissons Ratio (x) = 0.98865 -0.09957
# Poissons Ratio (y) = 0.31432 0.37723
# Poissons Ratio (z) = -0.04072 0.48523
#
# Static dielectric constant tensor:
#      x y z
#    x 1.564310 0.000000 0.000000 
#    y 0.000000 1.523870 0.000000 
#    z 0.000000 0.000000 1.544050 
# 
# From -- ./inp_files/21810.got.cif
#   From: 2010.05.17/outbox.cif.g08.bks.cpg/sg47_11_cif.got.tgz:21810.got - 2010.06.03 20:15:42.
