data_PCOD9382894
_publ_section_title
;
Structure prediction by ZEFSAII (Michael W. Deem and Ramdas Pophale) SiO2 
 PCOD9382894
Probable space group: P M M M
;
_chemical_formula_sum "Si O2"
_cell_formula_units_Z 52
_cell_length_a 9.677575
_cell_length_b 21.575162
_cell_length_c 14.161879
_cell_angle_alpha 90.000000
_cell_angle_beta 90.000000
_cell_angle_gamma 90.000000
_cell_volume 2956.933044
_symmetry_space_group_name_H-M "P M M M"
_symmetry_group_IT_number 47
_symmetry_cell_setting 'orthorhombic'
loop_
_space_group_symop_operation_xyz
x,y,z
-x,-y,z
x,-y,-z
-x,y,-z
-x,-y,-z
x,y,-z
-x,y,z
x,-y,z
loop_
_atom_site_type_symbol
_atom_site_label
_atom_site_fract_x
_atom_site_fract_y
_atom_site_fract_z
Si Si1 0.664314 0.256600 0.611457
Si Si2 0.338111 0.068634 0.885287
Si Si3 0.162188 0.813567 0.113074
Si Si4 0.831989 0.569479 0.108831
Si Si5 0.842008 0.000000 0.615937
Si Si6 0.657659 0.115046 0.614761
Si Si7 0.833972 0.688450 0.772483
O O1 0.690382 0.264009 0.500000
O O2 0.500000 0.264424 0.626836
O O3 0.698341 0.185231 0.638422
O O4 0.754590 0.301323 0.675175
O O5 0.500000 0.075040 0.862356
O O6 0.252255 0.128082 0.853122
O O7 0.290667 0.000000 0.854106
O O8 0.328540 0.068534 0.000000
O O9 0.196478 0.748772 0.163092
O O10 0.000000 0.826463 0.129526
O O11 0.181468 0.806485 0.000000
O O12 0.788616 0.500000 0.137729
O O13 0.788525 0.625876 0.174755
O O14 0.000000 0.569952 0.108855
O O15 0.789365 0.579483 0.000000
O O16 0.759971 0.938646 0.646091
O O17 0.842645 0.000000 0.500000
O O18 0.000000 0.000000 0.647487
O O19 0.655110 0.113278 0.500000
O O20 0.500000 0.103231 0.645657
O O21 0.000000 0.686368 0.759075
#
# Coordination Sequence:
#
# PCOD9382894 Si02
#       7
#     8   8   8   8   4   8   8
#     4   9  19  35  52  69  92 127 170 211 251 299
#     4   8  14  25  41  61  86 119 161 205 242 278
#     4   9  17  28  43  67  99 129 155 189 239 297
#     4   8  14  27  50  80 112 143 170 195 231 287
#     4   9  15  21  35  63  91 111 138 185 248 307
#     4   8  14  26  43  60  80 111 152 195 239 292
#     4  10  19  30  49  77 104 128 161 206 250 290
#
# _framework density 17.585788000000001
#
# number of rings (size 3 to 8) (size 9 to 14) (size 15 to 20)
#    0.000    3.308    0.000    2.538    0.000    4.615 
#    0.000    3.077    1.692    2.308    0.000    4.308 
#    0.000    0.000    0.000    0.000    0.000    0.000 
#
# Total GULP energy -289977.421534 kJ/mol
# GULP energy per Si atom -5576.488876 kJ/mol
# Density = 1.754576 g / cm^3
# Si number density = 17.585788 Si / 1000 Ang^3
#
#
#
# Elastic Constant Matrix: (Units=GPa)
#
#
# Indices 1 2 3 4 5 6 
#
# 1 38.2009 67.1882 31.4869 0.0000 0.0000 0.0000
# 2 67.1882 161.3140 68.9205 0.0000 0.0000 0.0000
# 3 31.4869 68.9205 73.6838 0.0000 0.0000 0.0000
# 4 0.0000 0.0000 0.0000 25.3030 0.0000 0.0000
# 5 0.0000 0.0000 0.0000 0.0000 10.0585 0.0000
# 6 0.0000 0.0000 0.0000 0.0000 0.0000 1.8221
#
#
#
# Elastic Compliance Matrix: (Units=1/GPa)
#
#
# Indices 1 2 3 4 5 6 
#
# 1 0.099585 -0.038803 -0.006261 0.000000 0.000000 0.000000
# 2 -0.038803 0.025445 -0.007218 0.000000 0.000000 0.000000
# 3 -0.006261 -0.007218 0.022999 0.000000 0.000000 0.000000
# 4 0.000000 0.000000 0.000000 0.039521 0.000000 0.000000
# 5 0.000000 0.000000 0.000000 0.000000 0.099418 0.000000
# 6 0.000000 0.000000 0.000000 0.000000 0.000000 0.548816
#
#
# Mechanical properties :
#
#
# Convention : Reuss Voigt Hill
#
# Bulk Modulus (GPa) = 23.00741 67.59888 45.30315
# Shear Modulus (GPa) = 5.23651 14.47693 9.85672
#
# Velocity S-wave (km/s) = 1.72747 2.87229 2.37004
# Velocity P-wave (km/s) = 4.13403 7.03726 5.77119
#
# Compressibility (1/GPa) = 0.04346425
#
# Stress axis : x y z
#
# Youngs Moduli (GPa) = 10.04172 39.30092 43.48088
#
# Poissons Ratio (x) = 1.52498 0.27222
# Poissons Ratio (y) = 0.38965 0.31386
# Poissons Ratio (z) = 0.06287 0.28369
#
# Static dielectric constant tensor:
#      x y z
#    x 1.581200 0.000000 0.000000 
#    y 0.000000 1.586290 0.000000 
#    z 0.000000 0.000000 1.627570 
# 
# From -- ./inp_files/21386.got.cif
#   From: 2010.05.17/outbox.cif.g08.bks.cpg/sg47_11_cif.got.tgz:21386.got - 2010.06.03 20:15:42.
