data_PCOD9382732
_publ_section_title
;
Structure prediction by ZEFSAII (Michael W. Deem and Ramdas Pophale) SiO2 
 PCOD9382732
Probable space group: P M M M
;
_chemical_formula_sum "Si O2"
_cell_formula_units_Z 64
_cell_length_a 8.473022
_cell_length_b 19.735285
_cell_length_c 24.518235
_cell_angle_alpha 90.000000
_cell_angle_beta 90.000000
_cell_angle_gamma 90.000000
_cell_volume 4099.878059
_symmetry_space_group_name_H-M "P M M M"
_symmetry_group_IT_number 47
_symmetry_cell_setting 'orthorhombic'
loop_
_space_group_symop_operation_xyz
x,y,z
-x,-y,z
x,-y,-z
-x,y,-z
-x,-y,-z
x,y,-z
-x,y,z
x,-y,z
loop_
_atom_site_type_symbol
_atom_site_label
_atom_site_fract_x
_atom_site_fract_y
_atom_site_fract_z
Si Si1 0.809243 0.575440 0.618659
Si Si2 0.309054 0.840214 0.166347
Si Si3 0.692153 0.923418 0.273846
Si Si4 0.813016 0.284025 0.769800
Si Si5 0.311181 0.424135 0.742551
Si Si6 0.190587 0.712675 0.438621
Si Si7 0.692433 0.077974 0.938234
Si Si8 0.311079 0.206738 0.336669
O O1 0.764245 0.500000 0.599028
O O2 0.743759 0.583674 0.679729
O O3 0.757367 0.637860 0.581355
O O4 0.000000 0.577642 0.621888
O O5 0.500000 0.836580 0.166261
O O6 0.263539 0.891653 0.215280
O O7 0.244486 0.767023 0.183275
O O8 0.255011 0.871145 0.108950
O O9 0.500000 0.925158 0.274647
O O10 0.741945 0.868772 0.319217
O O11 0.749254 0.000000 0.280894
O O12 0.758413 0.361336 0.775632
O O13 0.741528 0.255102 0.713161
O O14 0.000000 0.281279 0.765389
O O15 0.500000 0.420665 0.744154
O O16 0.261630 0.500000 0.760047
O O17 0.245998 0.726692 0.500000
O O18 0.245518 0.765651 0.393230
O O19 0.000000 0.712443 0.439019
O O20 0.500000 0.078624 0.937748
O O21 0.738957 0.000000 0.926506
O O22 0.742347 0.094826 0.000000
O O23 0.500000 0.207627 0.338593
#
# Coordination Sequence:
#
# PCOD9382732 Si02
#       8
#     8   8   8   8   8   8   8   8
#     4   9  17  29  45  64  86 114 145 175 210 255
#     4   9  16  26  43  67  94 123 155 191 227 262
#     4   8  14  25  43  66  87 108 139 182 227 267
#     4  11  20  30  45  64  90 121 151 184 223 268
#     4  10  19  30  46  67  90 115 144 180 222 268
#     4  10  20  32  46  64  87 116 146 178 217 264
#     4   8  13  22  40  68  99 130 165 202 234 263
#     4  10  19  31  48  67  86 110 142 180 226 272
#
# _framework density 15.61022
#
# number of rings (size 3 to 8) (size 9 to 14) (size 15 to 20)
#    0.000    2.625    1.250    3.375    0.000    2.750 
#    0.000    1.250    0.000   13.500    0.000    6.125 
#    0.000    0.500    0.000    5.750    0.000    1.625 
#
# Total GULP energy -356677.599834 kJ/mol
# GULP energy per Si atom -5573.087497 kJ/mol
# Density = 1.557469 g / cm^3
# Si number density = 15.610220 Si / 1000 Ang^3
#
#
#
# Elastic Constant Matrix: (Units=GPa)
#
#
# Indices 1 2 3 4 5 6 
#
# 1 14.0458 19.5353 16.1577 0.0000 0.0000 0.0000
# 2 19.5353 142.0520 75.6614 0.0000 0.0000 0.0000
# 3 16.1577 75.6614 107.5714 0.0000 0.0000 0.0000
# 4 0.0000 0.0000 0.0000 24.7649 0.0000 0.0000
# 5 0.0000 0.0000 0.0000 0.0000 24.9071 0.0000
# 6 0.0000 0.0000 0.0000 0.0000 0.0000 6.9941
#
#
#
# Elastic Compliance Matrix: (Units=1/GPa)
#
#
# Indices 1 2 3 4 5 6 
#
# 1 0.092018 -0.008463 -0.007869 0.000000 0.000000 0.000000
# 2 -0.008463 0.012035 -0.007194 0.000000 0.000000 0.000000
# 3 -0.007869 -0.007194 0.015538 0.000000 0.000000 0.000000
# 4 0.000000 0.000000 0.000000 0.040380 0.000000 0.000000
# 5 0.000000 0.000000 0.000000 0.000000 0.040149 0.000000
# 6 0.000000 0.000000 0.000000 0.000000 0.000000 0.142978
#
#
# Mechanical properties :
#
#
# Convention : Reuss Voigt Hill
#
# Bulk Modulus (GPa) = 13.78558 54.04200 33.91379
# Shear Modulus (GPa) = 12.06766 21.48754 16.77760
#
# Velocity S-wave (km/s) = 2.78341 3.71415 3.28194
# Velocity P-wave (km/s) = 4.37952 7.28615 6.01116
#
# Compressibility (1/GPa) = 0.07253958
#
# Stress axis : x y z
#
# Youngs Moduli (GPa) = 10.86739 83.08910 64.35852
#
# Poissons Ratio (x) = 0.70322 0.50642
# Poissons Ratio (y) = 0.09198 0.46299
# Poissons Ratio (z) = 0.08551 0.59773
#
# Static dielectric constant tensor:
#      x y z
#    x 1.531990 0.000000 0.000000 
#    y 0.000000 1.541310 0.000000 
#    z 0.000000 0.000000 1.501300 
# 
# From -- ./inp_files/32238.got.cif
#   From: 2010.05.17/outbox.cif.g08.bks.cpg/sg47_17_cif.got.tgz:32238.got - 2010.06.03 20:15:42.
