data_PCOD9382422
_publ_section_title
;
Structure prediction by ZEFSAII (Michael W. Deem and Ramdas Pophale) SiO2 
 PCOD9382422
Probable space group: P M M M
;
_chemical_formula_sum "Si O2"
_cell_formula_units_Z 52
_cell_length_a 9.126149
_cell_length_b 19.168388
_cell_length_c 18.694086
_cell_angle_alpha 90.000000
_cell_angle_beta 90.000000
_cell_angle_gamma 90.000000
_cell_volume 3270.223108
_symmetry_space_group_name_H-M "P M M M"
_symmetry_group_IT_number 47
_symmetry_cell_setting 'orthorhombic'
loop_
_space_group_symop_operation_xyz
x,y,z
-x,-y,z
x,-y,-z
-x,y,-z
-x,-y,-z
x,y,-z
-x,y,z
x,-y,z
loop_
_atom_site_type_symbol
_atom_site_label
_atom_site_fract_x
_atom_site_fract_y
_atom_site_fract_z
Si Si1 0.178220 0.500000 0.082255
Si Si2 0.167685 0.856173 0.204143
Si Si3 0.822186 0.645498 0.153227
Si Si4 0.674525 0.780439 0.083187
Si Si5 0.325523 0.787720 0.417391
Si Si6 0.832260 0.711905 0.704435
Si Si7 0.176800 0.078335 0.651784
O O1 0.222315 0.429023 0.121803
O O2 0.000000 0.500000 0.081605
O O3 0.227879 0.500000 0.000000
O O4 0.265390 0.840839 0.135393
O O5 0.167095 0.783627 0.249194
O O6 0.216268 0.911113 0.264314
O O7 0.000000 0.870952 0.182829
O O8 0.750537 0.708469 0.108684
O O9 0.783008 0.655456 0.236905
O O10 0.000000 0.652446 0.148727
O O11 0.500000 0.773975 0.091543
O O12 0.708222 0.793141 0.000000
O O13 0.289483 0.773796 0.500000
O O14 0.500000 0.793174 0.409806
O O15 0.264849 0.728551 0.364080
O O16 0.253021 0.860850 0.393051
O O17 0.000000 0.697893 0.682903
O O18 0.000000 0.087480 0.647594
O O19 0.213050 0.000000 0.628249
#
# Coordination Sequence:
#
# PCOD9382422 Si02
#       7
#     4   8   8   8   8   8   8
#     4   9  16  26  43  67  94 123 150 176 211 255
#     4   8  15  28  45  63  81 105 141 181 216 253
#     4   9  17  29  45  65  88 116 150 181 210 253
#     4  10  19  28  40  61  87 113 143 181 222 258
#     4  10  20  31  44  66  93 116 141 176 214 253
#     4   8  15  28  45  64  85 111 145 182 216 251
#     4   9  18  32  48  65  86 113 143 173 209 258
#
# _framework density 15.901056000000001
#
# number of rings (size 3 to 8) (size 9 to 14) (size 15 to 20)
#    0.000    3.000    0.000    3.231    0.000    9.231 
#    0.000    1.923    0.000    1.846    0.000    3.769 
#    0.000    4.308    0.000    0.000    0.000    0.000 
#
# Total GULP energy -289535.851190 kJ/mol
# GULP energy per Si atom -5567.997138 kJ/mol
# Density = 1.586486 g / cm^3
# Si number density = 15.901056 Si / 1000 Ang^3
#
#
#
# Elastic Constant Matrix: (Units=GPa)
#
#
# Indices 1 2 3 4 5 6 
#
# 1 38.0046 11.7142 52.7324 0.0000 0.0000 0.0000
# 2 11.7142 43.4815 37.5469 0.0000 0.0000 0.0000
# 3 52.7324 37.5469 131.3317 0.0000 0.0000 0.0000
# 4 0.0000 0.0000 0.0000 18.9802 0.0000 0.0000
# 5 0.0000 0.0000 0.0000 0.0000 33.4792 0.0000
# 6 0.0000 0.0000 0.0000 0.0000 0.0000 9.0694
#
#
#
# Elastic Compliance Matrix: (Units=1/GPa)
#
#
# Indices 1 2 3 4 5 6 
#
# 1 0.060656 0.006227 -0.026135 0.000000 0.000000 0.000000
# 2 0.006227 0.031176 -0.011413 0.000000 0.000000 0.000000
# 3 -0.026135 -0.011413 0.021371 0.000000 0.000000 0.000000
# 4 0.000000 0.000000 0.000000 0.052686 0.000000 0.000000
# 5 0.000000 0.000000 0.000000 0.000000 0.029869 0.000000
# 6 0.000000 0.000000 0.000000 0.000000 0.000000 0.110261
#
#
# Mechanical properties :
#
#
# Convention : Reuss Voigt Hill
#
# Bulk Modulus (GPa) = 19.77827 46.31162 33.04495
# Shear Modulus (GPa) = 12.96961 19.69406 16.33183
#
# Velocity S-wave (km/s) = 2.85905 3.52310 3.20830
# Velocity P-wave (km/s) = 4.83365 6.76297 5.87801
#
# Compressibility (1/GPa) = 0.05056054
#
# Stress axis : x y z
#
# Youngs Moduli (GPa) = 16.48638 32.07570 46.79247
#
# Poissons Ratio (x) = -0.19973 1.22291
# Poissons Ratio (y) = -0.10266 0.53405
# Poissons Ratio (z) = 0.43087 0.36609
#
# Static dielectric constant tensor:
#      x y z
#    x 1.530520 0.000000 0.000000 
#    y 0.000000 1.532500 0.000000 
#    z 0.000000 0.000000 1.544840 
# 
# From -- ./inp_files/26934.got.cif
#   From: 2010.05.17/outbox.cif.g08.bks.cpg/sg47_14_cif.got.tgz:26934.got - 2010.06.03 20:15:42.
