data_PCOD9382382
_publ_section_title
;
Structure prediction by ZEFSAII (Michael W. Deem and Ramdas Pophale) SiO2 
 PCOD9382382
Probable space group: P M M M
;
_chemical_formula_sum "Si O2"
_cell_formula_units_Z 64
_cell_length_a 19.362369
_cell_length_b 7.720435
_cell_length_c 22.465478
_cell_angle_alpha 90.000000
_cell_angle_beta 90.000000
_cell_angle_gamma 90.000000
_cell_volume 3358.272452
_symmetry_space_group_name_H-M "P M M M"
_symmetry_group_IT_number 47
_symmetry_cell_setting 'orthorhombic'
loop_
_space_group_symop_operation_xyz
x,y,z
-x,-y,z
x,-y,-z
-x,y,-z
-x,-y,-z
x,y,-z
-x,y,z
x,-y,z
loop_
_atom_site_type_symbol
_atom_site_label
_atom_site_fract_x
_atom_site_fract_y
_atom_site_fract_z
Si Si1 0.276507 0.206927 0.764629
Si Si2 0.819409 0.806342 0.669304
Si Si3 0.775118 0.789543 0.105774
Si Si4 0.624165 0.293627 0.936220
Si Si5 0.924368 0.202114 0.907195
Si Si6 0.575410 0.709500 0.191107
Si Si7 0.921811 0.703812 0.230499
Si Si8 0.923179 0.706734 0.432792
O O1 0.245393 0.280159 0.703218
O O2 0.238550 0.270308 0.825530
O O3 0.357536 0.237442 0.772198
O O4 0.264946 0.000000 0.764047
O O5 0.873332 0.801013 0.724054
O O6 0.862003 0.738272 0.613464
O O7 0.799053 0.000000 0.652677
O O8 0.706226 0.735796 0.071493
O O9 0.847974 0.727006 0.078006
O O10 0.778038 0.000000 0.106414
O O11 0.611885 0.500000 0.936871
O O12 0.588537 0.225947 0.876497
O O13 0.601451 0.222442 0.000000
O O14 0.922080 0.216997 0.835341
O O15 0.000000 0.276494 0.925286
O O16 0.925527 0.000000 0.924654
O O17 0.500000 0.767011 0.212077
O O18 0.575611 0.500000 0.189505
O O19 0.903142 0.500000 0.226860
O O20 0.000000 0.712036 0.253261
O O21 0.909727 0.771882 0.500000
O O22 0.928597 0.500000 0.436271
O O23 0.000000 0.771549 0.414097
#
# Coordination Sequence:
#
# PCOD9382382 Si02
#       8
#     8   8   8   8   8   8   8   8
#     4   9  18  31  45  66  94 122 151 184 229 278
#     4  11  20  30  45  66  92 122 160 202 237 274
#     4   9  16  29  45  62  87 116 147 186 232 277
#     4   9  18  31  47  68  91 117 150 186 225 270
#     4   9  16  27  42  59  82 111 143 183 230 274
#     4   9  18  32  50  72  96 122 150 181 222 274
#     4  10  19  27  37  58  87 117 149 185 228 276
#     4   9  19  35  50  65  92 131 172 211 248 283
#
# _framework density 19.057416
#
# number of rings (size 3 to 8) (size 9 to 14) (size 15 to 20)
#    0.000    2.625    1.250    1.500    0.000    5.000 
#    0.000    1.875    0.000    0.375    0.000    6.125 
#    0.000    0.500    0.000    5.500    0.000    4.000 
#
# Total GULP energy -356598.922429 kJ/mol
# GULP energy per Si atom -5571.858163 kJ/mol
# Density = 1.901404 g / cm^3
# Si number density = 19.057416 Si / 1000 Ang^3
#
#
#
# Elastic Constant Matrix: (Units=GPa)
#
#
# Indices 1 2 3 4 5 6 
#
# 1 118.5859 4.3932 36.7043 0.0000 0.0000 0.0000
# 2 4.3932 33.7599 5.7220 0.0000 0.0000 0.0000
# 3 36.7043 5.7220 91.3953 0.0000 0.0000 0.0000
# 4 0.0000 0.0000 0.0000 8.5778 0.0000 0.0000
# 5 0.0000 0.0000 0.0000 0.0000 -409.0719 0.0000
# 6 0.0000 0.0000 0.0000 0.0000 0.0000 17.9911
#
#
#
# Elastic Compliance Matrix: (Units=1/GPa)
#
#
# Indices 1 2 3 4 5 6 
#
# 1 0.009642 -0.000605 -0.003834 0.000000 0.000000 0.000000
# 2 -0.000605 0.029977 -0.001634 0.000000 0.000000 0.000000
# 3 -0.003834 -0.001634 0.012584 0.000000 0.000000 0.000000
# 4 0.000000 0.000000 0.000000 0.116580 0.000000 0.000000
# 5 0.000000 0.000000 0.000000 0.000000 -0.002445 0.000000
# 6 0.000000 0.000000 0.000000 0.000000 0.000000 0.055583
#
#
# Mechanical properties :
#
#
# Convention : Reuss Voigt Hill
#
# Bulk Modulus (GPa) = 24.96499 37.48668 31.22584
# Shear Modulus (GPa) = 20.20865 -63.37249 -21.58192
#
# Velocity S-wave (km/s) = 3.25992 -5.77284 -3.36887
# Velocity P-wave (km/s) = 5.22473 4.97203 1.13506
#
# Compressibility (1/GPa) = 0.04005609
#
# Stress axis : x y z
#
# Youngs Moduli (GPa) = 103.71411 33.35943 79.46834
#
# Poissons Ratio (x) = 0.02018 0.30471
# Poissons Ratio (y) = 0.06273 0.12984
# Poissons Ratio (z) = 0.39767 0.05450
#
# Static dielectric constant tensor:
#      x y z
#    x 1.715290 0.000000 0.000000 
#    y 0.000000 1.709580 0.000000 
#    z 0.000000 0.000000 1.680490 
# 
# From -- ./inp_files/27056.got.cif
#   From: 2010.05.17/outbox.cif.g08.bks.cpg/sg47_14_cif.got.tgz:27056.got - 2010.06.03 20:15:42.
