data_PCOD9382588
_publ_section_title
;
Structure prediction by ZEFSAII (Michael W. Deem and Ramdas Pophale) SiO2 
 PCOD9382588
Probable space group: P M M M
;
_chemical_formula_sum "Si O2"
_cell_formula_units_Z 64
_cell_length_a 23.973153
_cell_length_b 14.787040
_cell_length_c 9.745846
_cell_angle_alpha 90.000000
_cell_angle_beta 90.000000
_cell_angle_gamma 90.000000
_cell_volume 3454.824171
_symmetry_space_group_name_H-M "P M M M"
_symmetry_group_IT_number 47
_symmetry_cell_setting 'orthorhombic'
loop_
_space_group_symop_operation_xyz
x,y,z
-x,-y,z
x,-y,-z
-x,y,-z
-x,-y,-z
x,y,-z
-x,y,z
x,-y,z
loop_
_atom_site_type_symbol
_atom_site_label
_atom_site_fract_x
_atom_site_fract_y
_atom_site_fract_z
Si Si1 0.567008 0.896352 0.661651
Si Si2 0.739637 0.900826 0.148710
Si Si3 0.361267 0.237935 0.842072
Si Si4 0.161755 0.138528 0.345427
Si Si5 0.062644 0.141594 0.155736
Si Si6 0.063661 0.638164 0.841352
Si Si7 0.830921 0.643170 0.340720
Si Si8 0.280045 0.394153 0.161244
O O1 0.581307 0.887571 0.500000
O O2 0.500000 0.890769 0.673730
O O3 0.595297 0.815974 0.747600
O O4 0.582805 0.000000 0.703933
O O5 0.692745 0.826504 0.158289
O O6 0.783543 0.892846 0.267973
O O7 0.713518 0.000000 0.151637
O O8 0.768565 0.889783 0.000000
O O9 0.333617 0.333321 0.798085
O O10 0.381554 0.245793 0.000000
O O11 0.159868 0.107327 0.500000
O O12 0.108192 0.108836 0.260812
O O13 0.163807 0.247931 0.344555
O O14 0.063464 0.251802 0.158626
O O15 0.000000 0.113298 0.189554
O O16 0.075311 0.114452 0.000000
O O17 0.113868 0.609567 0.740999
O O18 0.000000 0.610590 0.803695
O O19 0.073858 0.610592 0.000000
O O20 0.828396 0.612252 0.500000
O O21 0.774615 0.622289 0.255078
O O22 0.293430 0.500000 0.167981
O O23 0.267341 0.371426 0.000000
#
# Coordination Sequence:
#
# PCOD9382588 Si02
#       8
#     8   8   8   8   8   8   8   8
#     4   9  19  36  58  87 124 162 194 223 261 313
#     4  10  20  33  50  73 102 137 174 213 261 314
#     4  10  20  35  57  84 113 144 184 232 272 313
#     4  10  19  29  44  68  98 131 166 207 259 317
#     4   8  14  25  42  63  87 120 163 208 256 312
#     4   8  14  25  43  67  94 127 168 213 265 330
#     4  10  19  30  47  72 102 135 172 218 273 330
#     4  10  21  37  57  79 105 142 186 231 279 328
#
# _framework density 18.524822
#
# number of rings (size 3 to 8) (size 9 to 14) (size 15 to 20)
#    0.000    2.625    1.250    2.250    0.000    4.000 
#    0.000    3.125    0.000    1.125    0.000    7.875 
#    0.000    0.000    0.000    0.000    0.000    0.000 
#
# Total GULP energy -356875.035200 kJ/mol
# GULP energy per Si atom -5576.172425 kJ/mol
# Density = 1.848266 g / cm^3
# Si number density = 18.524822 Si / 1000 Ang^3
#
#
#
# Elastic Constant Matrix: (Units=GPa)
#
#
# Indices 1 2 3 4 5 6 
#
# 1 76.4701 30.2347 59.9008 0.0000 0.0000 0.0000
# 2 30.2347 91.4225 31.5476 0.0000 0.0000 0.0000
# 3 59.9008 31.5476 88.5265 0.0000 0.0000 0.0000
# 4 0.0000 0.0000 0.0000 8.2340 0.0000 0.0000
# 5 0.0000 0.0000 0.0000 0.0000 53.7711 0.0000
# 6 0.0000 0.0000 0.0000 0.0000 0.0000 -4.4542
#
#
#
# Elastic Compliance Matrix: (Units=1/GPa)
#
#
# Indices 1 2 3 4 5 6 
#
# 1 0.028610 -0.003171 -0.018228 0.000000 0.000000 0.000000
# 2 -0.003171 0.012823 -0.002424 0.000000 0.000000 0.000000
# 3 -0.018228 -0.002424 0.024494 0.000000 0.000000 0.000000
# 4 0.000000 0.000000 0.000000 0.121447 0.000000 0.000000
# 5 0.000000 0.000000 0.000000 0.000000 0.018597 0.000000
# 6 0.000000 0.000000 0.000000 0.000000 0.000000 -0.224506
#
#
# Mechanical properties :
#
#
# Convention : Reuss Voigt Hill
#
# Bulk Modulus (GPa) = 54.70547 55.53170 55.11858
# Shear Modulus (GPa) = 142.01998 20.49258 81.25628
#
# Velocity S-wave (km/s) = 8.76534 3.32960 6.63013
# Velocity P-wave (km/s) = 11.49071 6.69505 9.40373
#
# Compressibility (1/GPa) = 0.01827971
#
# Stress axis : x y z
#
# Youngs Moduli (GPa) = 34.95340 77.98186 40.82658
#
# Poissons Ratio (x) = 0.24732 0.74420
# Poissons Ratio (y) = 0.11085 0.09896
# Poissons Ratio (z) = 0.63714 0.18902
#
# Static dielectric constant tensor:
#      x y z
#    x 1.604950 0.000000 0.000000 
#    y 0.000000 1.689250 0.000000 
#    z 0.000000 0.000000 1.642620 
# 
# From -- ./inp_files/12691.got.cif
#   From: 2010.05.17/outbox.cif.g08.bks.cpg/sg47_7_cif.got.tgz:12691.got - 2010.06.03 20:15:42.
