data_PCOD9382222
_publ_section_title
;
Structure prediction by ZEFSAII (Michael W. Deem and Ramdas Pophale) SiO2 
 PCOD9382222
Probable space group: P M M M
;
_chemical_formula_sum "Si O2"
_cell_formula_units_Z 64
_cell_length_a 8.205040
_cell_length_b 16.058970
_cell_length_c 24.570361
_cell_angle_alpha 90.000000
_cell_angle_beta 90.000000
_cell_angle_gamma 90.000000
_cell_volume 3237.501116
_symmetry_space_group_name_H-M "P M M M"
_symmetry_group_IT_number 47
_symmetry_cell_setting 'orthorhombic'
loop_
_space_group_symop_operation_xyz
x,y,z
-x,-y,z
x,-y,-z
-x,y,-z
-x,-y,-z
x,y,-z
-x,y,z
x,-y,z
loop_
_atom_site_type_symbol
_atom_site_label
_atom_site_fract_x
_atom_site_fract_y
_atom_site_fract_z
Si Si1 0.193825 0.250000 0.938651
Si Si2 0.803003 0.652694 0.753461
Si Si3 0.800914 0.407097 0.634351
Si Si4 0.803003 0.847306 0.753461
Si Si5 0.693870 0.908442 0.869873
Si Si6 0.693870 0.591558 0.130127
Si Si7 0.800914 0.907098 0.365649
Si Si8 0.800479 0.750000 0.562643
O O1 0.242839 0.167657 0.905756
O O2 0.242840 0.332343 0.905756
O O3 0.000000 0.250000 0.941864
O O4 0.262258 0.250000 0.000000
O O5 0.751004 0.612588 0.696367
O O6 0.755947 0.750000 0.754205
O O7 0.736891 0.608558 0.806977
O O8 0.000000 0.649025 0.755499
O O9 0.748867 0.500000 0.618356
O O10 0.747575 0.332705 0.594908
O O11 0.000000 0.406035 0.633962
O O12 0.736890 0.891442 0.806977
O O13 0.751004 0.887412 0.696367
O O14 0.000000 0.850975 0.755499
O O15 0.500000 0.909184 0.875239
O O16 0.758028 0.000000 0.885752
O O17 0.500000 0.590816 0.124761
O O18 0.758028 0.500000 0.114248
O O19 0.747575 0.832705 0.405092
O O20 0.000000 0.906035 0.366038
O O21 0.748866 0.000000 0.381644
O O22 0.748673 0.750000 0.500000
O O23 0.000000 0.750000 0.563231
#
# Coordination Sequence:
#
# PCOD9382222 Si02
#       8
#     8   8   8   8   8   8   8   8
#     4  11  25  44  65  88 114 149 194 237 272 315
#     4  10  18  31  54  80 107 142 181 223 274 331
#     4   9  16  26  41  63  93 130 172 218 269 324
#     4  10  18  31  54  80 107 142 181 223 274 331
#     4  11  24  40  60  88 120 151 183 225 281 339
#     4  11  24  40  60  88 120 151 183 225 281 339
#     4   9  16  26  41  63  93 130 172 218 269 324
#     4   9  16  25  36  55  88 129 174 221 268 323
#
# _framework density 19.768332000000001
#
# number of rings (size 3 to 8) (size 9 to 14) (size 15 to 20)
#    0.000    2.000    2.500    1.875    0.000    5.000 
#    0.000    5.000    0.000    0.000    0.000    0.000 
#    0.000    2.000    0.000    5.250    0.000    5.000 
#
# Total GULP energy -357423.127627 kJ/mol
# GULP energy per Si atom -5584.736369 kJ/mol
# Density = 1.972334 g / cm^3
# Si number density = 19.768332 Si / 1000 Ang^3
#
#
#
# Elastic Constant Matrix: (Units=GPa)
#
#
# Indices 1 2 3 4 5 6 
#
# 1 14.0587 23.4492 14.2882 0.0000 0.0000 0.0000
# 2 23.4492 220.4383 105.4687 0.0000 0.0000 0.0000
# 3 14.2882 105.4687 166.9695 0.0000 0.0000 0.0000
# 4 0.0000 0.0000 0.0000 -1.2869 0.0000 0.0000
# 5 0.0000 0.0000 0.0000 0.0000 -44.2018 0.0000
# 6 0.0000 0.0000 0.0000 0.0000 0.0000 -41.5991
#
#
#
# Elastic Compliance Matrix: (Units=1/GPa)
#
#
# Indices 1 2 3 4 5 6 
#
# 1 0.087082 -0.008166 -0.002294 0.000000 0.000000 0.000000
# 2 -0.008166 0.007267 -0.003891 0.000000 0.000000 0.000000
# 3 -0.002294 -0.003891 0.008644 0.000000 0.000000 0.000000
# 4 0.000000 0.000000 0.000000 -0.777062 0.000000 0.000000
# 5 0.000000 0.000000 0.000000 0.000000 -0.022624 0.000000
# 6 0.000000 0.000000 0.000000 0.000000 0.000000 -0.024039
#
#
# Mechanical properties :
#
#
# Convention : Reuss Voigt Hill
#
# Bulk Modulus (GPa) = 13.46076 76.43097 44.94586
# Shear Modulus (GPa) = -7.49326 -0.20020 -3.84673
#
# Velocity S-wave (km/s) = -1.94904 -0.31858 -1.39647
# Velocity P-wave (km/s) = 1.32628 6.21385 4.49283
#
# Compressibility (1/GPa) = 0.07429002
#
# Stress axis : x y z
#
# Youngs Moduli (GPa) = 11.48343 137.60930 115.69363
#
# Poissons Ratio (x) = 1.12371 0.26538
# Poissons Ratio (y) = 0.09377 0.45022
# Poissons Ratio (z) = 0.02634 0.53550
#
# Static dielectric constant tensor:
#      x y z
#    x 1.686640 0.000000 0.000000 
#    y 0.000000 1.814450 0.000000 
#    z 0.000000 0.000000 1.667220 
# 
# From -- ./inp_files/32098.got.cif
#   From: 2010.05.17/outbox.cif.g08.bks.cpg/sg47_17_cif.got.tgz:32098.got - 2010.06.03 20:15:42.
