data_PCOD9382563
_publ_section_title
;
Structure prediction by ZEFSAII (Michael W. Deem and Ramdas Pophale) SiO2 
 PCOD9382563
Probable space group: P M M M
;
_chemical_formula_sum "Si O2"
_cell_formula_units_Z 52
_cell_length_a 7.315355
_cell_length_b 20.178977
_cell_length_c 16.652917
_cell_angle_alpha 90.000000
_cell_angle_beta 90.000000
_cell_angle_gamma 90.000000
_cell_volume 2458.243329
_symmetry_space_group_name_H-M "P M M M"
_symmetry_group_IT_number 47
_symmetry_cell_setting 'orthorhombic'
loop_
_space_group_symop_operation_xyz
x,y,z
-x,-y,z
x,-y,-z
-x,y,-z
-x,-y,-z
x,y,-z
-x,y,z
x,-y,z
loop_
_atom_site_type_symbol
_atom_site_label
_atom_site_fract_x
_atom_site_fract_y
_atom_site_fract_z
Si Si1 0.222917 0.211175 0.588382
Si Si2 0.289975 0.304711 0.815049
Si Si3 0.279142 0.570869 0.905711
Si Si4 0.777731 0.922195 0.910561
Si Si5 0.793449 0.838712 0.760574
Si Si6 0.792324 0.500000 0.595332
Si Si7 0.221444 0.355896 0.360034
O O1 0.276496 0.185276 0.500000
O O2 0.285294 0.174241 0.670559
O O3 0.277953 0.288825 0.593918
O O4 0.000000 0.210213 0.591784
O O5 0.500000 0.290874 0.837484
O O6 0.208597 0.359622 0.873500
O O7 0.199920 0.234076 0.800796
O O8 0.279859 0.341437 0.730075
O O9 0.500000 0.572354 0.893916
O O10 0.215824 0.500000 0.870194
O O11 0.244530 0.568558 0.000000
O O12 0.711113 0.884784 0.830450
O O13 0.000000 0.916504 0.910262
O O14 0.733139 0.000000 0.905637
O O15 0.718950 0.898179 0.000000
O O16 0.000000 0.863350 0.746832
O O17 0.804337 0.500000 0.500000
O O18 0.710315 0.428729 0.617171
O O19 0.000000 0.500000 0.629417
O O20 0.000000 0.357430 0.367095
#
# Coordination Sequence:
#
# PCOD9382563 Si02
#       7
#     8   8   8   8   8   4   8
#     4   8  13  23  40  59  81 112 148 181 213 254
#     4  10  19  29  44  64  86 112 144 184 228 269
#     4   8  15  28  43  57  75 105 146 183 214 259
#     4   8  14  26  46  72  99 125 150 175 211 265
#     4   9  17  29  46  68  91 115 148 185 219 259
#     4   9  16  26  43  65  84 107 144 186 229 279
#     4   9  17  28  42  61  83 110 144 183 225 271
#
# _framework density 21.153317999999999
#
# number of rings (size 3 to 8) (size 9 to 14) (size 15 to 20)
#    0.000    3.308    0.000    2.769    1.077    2.462 
#    0.000    0.000    0.000   14.308    0.000    8.615 
#    0.000    0.000    0.000    5.538    0.000    6.154 
#
# Total GULP energy -289478.516378 kJ/mol
# GULP energy per Si atom -5566.894546 kJ/mol
# Density = 2.110517 g / cm^3
# Si number density = 21.153318 Si / 1000 Ang^3
#
#
#
# Elastic Constant Matrix: (Units=GPa)
#
#
# Indices 1 2 3 4 5 6 
#
# 1 82.3216 2.0430 8.0542 0.0000 0.0000 0.0000
# 2 2.0430 78.3471 71.5873 0.0000 0.0000 0.0000
# 3 8.0542 71.5873 129.6151 0.0000 0.0000 0.0000
# 4 0.0000 0.0000 0.0000 21.3691 0.0000 0.0000
# 5 0.0000 0.0000 0.0000 0.0000 0.0611 0.0000
# 6 0.0000 0.0000 0.0000 0.0000 0.0000 -7.6646
#
#
#
# Elastic Compliance Matrix: (Units=1/GPa)
#
#
# Indices 1 2 3 4 5 6 
#
# 1 0.012244 0.000759 -0.001180 0.000000 0.000000 0.000000
# 2 0.000759 0.025814 -0.014305 0.000000 0.000000 0.000000
# 3 -0.001180 -0.014305 0.015689 0.000000 0.000000 0.000000
# 4 0.000000 0.000000 0.000000 0.046796 0.000000 0.000000
# 5 0.000000 0.000000 0.000000 0.000000 16.366288 0.000000
# 6 0.000000 0.000000 0.000000 0.000000 0.000000 -0.130470
#
#
# Mechanical properties :
#
#
# Convention : Reuss Voigt Hill
#
# Bulk Modulus (GPa) = 41.15893 50.40588 45.78240
# Shear Modulus (GPa) = 0.30536 16.65975 8.48255
#
# Velocity S-wave (km/s) = 0.38036 2.80941 2.00468
# Velocity P-wave (km/s) = 4.43763 5.86552 5.20081
#
# Compressibility (1/GPa) = 0.02429607
#
# Stress axis : x y z
#
# Youngs Moduli (GPa) = 81.67205 38.73815 63.73885
#
# Poissons Ratio (x) = -0.02940 0.07521
# Poissons Ratio (y) = -0.06198 0.91176
# Poissons Ratio (z) = 0.09637 0.55413
#
# Static dielectric constant tensor:
#      x y z
#    x 1.815760 0.000000 0.000000 
#    y 0.000000 1.735130 0.000000 
#    z 0.000000 0.000000 1.779440 
# 
# From -- ./inp_files/26725.got.cif
#   From: 2010.05.17/outbox.cif.g08.bks.cpg/sg47_14_cif.got.tgz:26725.got - 2010.06.03 20:15:42.
