data_PCOD9382484
_publ_section_title
;
Structure prediction by ZEFSAII (Michael W. Deem and Ramdas Pophale) SiO2 
 PCOD9382484
Probable space group: P M M M
;
_chemical_formula_sum "Si O2"
_cell_formula_units_Z 64
_cell_length_a 15.045663
_cell_length_b 32.159076
_cell_length_c 7.550502
_cell_angle_alpha 90.000000
_cell_angle_beta 90.000000
_cell_angle_gamma 90.000000
_cell_volume 3653.345275
_symmetry_space_group_name_H-M "P M M M"
_symmetry_group_IT_number 47
_symmetry_cell_setting 'orthorhombic'
loop_
_space_group_symop_operation_xyz
x,y,z
-x,-y,z
x,-y,-z
-x,y,-z
-x,-y,-z
x,y,-z
-x,y,z
x,-y,z
loop_
_atom_site_type_symbol
_atom_site_label
_atom_site_fract_x
_atom_site_fract_y
_atom_site_fract_z
Si Si1 0.284930 0.126527 0.291817
Si Si2 0.714826 0.715540 0.217280
Si Si3 0.901606 0.252995 0.786375
Si Si4 0.396593 0.364261 0.783389
Si Si5 0.599795 0.793718 0.791334
Si Si6 0.098179 0.844814 0.289031
Si Si7 0.393325 0.455309 0.787331
Si Si8 0.600679 0.047050 0.213449
O O1 0.278467 0.134231 0.500000
O O2 0.349638 0.162651 0.223522
O O3 0.185262 0.131946 0.217447
O O4 0.329284 0.081892 0.264978
O O5 0.816684 0.721061 0.275563
O O6 0.664963 0.673728 0.273539
O O7 0.659345 0.755885 0.278861
O O8 0.715398 0.715619 0.000000
O O9 0.888048 0.204492 0.739556
O O10 0.000000 0.265234 0.721791
O O11 0.902901 0.255278 0.000000
O O12 0.500000 0.358306 0.730818
O O13 0.363754 0.409935 0.723079
O O14 0.396832 0.364689 0.000000
O O15 0.500000 0.795512 0.716628
O O16 0.591395 0.785215 0.000000
O O17 0.094150 0.852155 0.500000
O O18 0.000000 0.855377 0.216299
O O19 0.500000 0.455168 0.760212
O O20 0.359535 0.500000 0.718346
O O21 0.379440 0.455715 0.000000
O O22 0.500000 0.057575 0.273603
O O23 0.621113 0.000000 0.273548
O O24 0.598430 0.046353 0.000000
#
# Coordination Sequence:
#
# PCOD9382484 Si02
#       8
#     8   8   8   8   8   8   8   8
#     4  11  21  31  47  70  91 111 139 174 208 240
#     4   9  15  23  34  50  73 100 131 166 200 239
#     4   9  16  26  41  59  77  99 132 174 211 238
#     4   8  12  17  26  41  63  93 127 161 198 240
#     4  10  19  29  41  58  83 115 144 167 195 237
#     4   9  18  32  47  63  85 112 141 171 204 244
#     4   7   9  13  21  34  54  82 118 160 201 236
#     4   9  19  36  55  72  91 117 145 170 200 240
#
# _framework density 17.518191999999999
#
# number of rings (size 3 to 8) (size 9 to 14) (size 15 to 20)
#    0.000    3.000    1.250    2.625    0.000    4.250 
#    0.000    0.625    0.000    0.375    0.000    2.625 
#    0.000    0.500    0.000    7.000    0.000    2.750 
#
# Total GULP energy -356558.989587 kJ/mol
# GULP energy per Si atom -5571.234212 kJ/mol
# Density = 1.747832 g / cm^3
# Si number density = 17.518192 Si / 1000 Ang^3
#
#
#
# Elastic Constant Matrix: (Units=GPa)
#
#
# Indices 1 2 3 4 5 6 
#
# 1 155.1221 88.6818 4.3998 0.0000 0.0000 0.0000
# 2 88.6818 122.6833 -6.9318 0.0000 0.0000 0.0000
# 3 4.3998 -6.9318 38.0919 0.0000 0.0000 0.0000
# 4 0.0000 0.0000 0.0000 -101.2332 0.0000 0.0000
# 5 0.0000 0.0000 0.0000 0.0000 2.1973 0.0000
# 6 0.0000 0.0000 0.0000 0.0000 0.0000 17.8683
#
#
#
# Elastic Compliance Matrix: (Units=1/GPa)
#
#
# Indices 1 2 3 4 5 6 
#
# 1 0.011278 -0.008311 -0.002815 0.000000 0.000000 0.000000
# 2 -0.008311 0.014361 0.003573 0.000000 0.000000 0.000000
# 3 -0.002815 0.003573 0.027228 0.000000 0.000000 0.000000
# 4 0.000000 0.000000 0.000000 -0.009878 0.000000 0.000000
# 5 0.000000 0.000000 0.000000 0.000000 0.455099 0.000000
# 6 0.000000 0.000000 0.000000 0.000000 0.000000 0.055965
#
#
# Mechanical properties :
#
#
# Convention : Reuss Voigt Hill
#
# Bulk Modulus (GPa) = 26.48289 54.24410 40.36350
# Shear Modulus (GPa) = 8.59483 -0.91702 3.83890
#
# Velocity S-wave (km/s) = 2.21740 -0.72430 1.48194
# Velocity P-wave (km/s) = 4.65897 5.50747 5.10089
#
# Compressibility (1/GPa) = 0.03776022
#
# Stress axis : x y z
#
# Youngs Moduli (GPa) = 88.66926 69.63401 36.72730
#
# Poissons Ratio (x) = 0.57875 0.10339
# Poissons Ratio (y) = 0.73696 -0.13124
# Poissons Ratio (z) = 0.24961 -0.24883
#
# Static dielectric constant tensor:
#      x y z
#    x 1.614340 0.000000 0.000000 
#    y 0.000000 1.593840 0.000000 
#    z 0.000000 0.000000 1.681880 
# 
# From -- ./inp_files/8203.got.cif
#   From: 2010.05.17/outbox.cif.g08.bks.cpg/sg47_5_cif.got.tgz:8203.got - 2010.06.03 20:15:42.
