data_PCOD9382042
_publ_section_title
;
Structure prediction by ZEFSAII (Michael W. Deem and Ramdas Pophale) SiO2 
 PCOD9382042
Probable space group: P M M M
;
_chemical_formula_sum "Si O2"
_cell_formula_units_Z 64
_cell_length_a 25.165937
_cell_length_b 15.035279
_cell_length_c 8.388128
_cell_angle_alpha 90.000000
_cell_angle_beta 90.000000
_cell_angle_gamma 90.000000
_cell_volume 3173.873736
_symmetry_space_group_name_H-M "P M M M"
_symmetry_group_IT_number 47
_symmetry_cell_setting 'orthorhombic'
loop_
_space_group_symop_operation_xyz
x,y,z
-x,-y,z
x,-y,-z
-x,y,-z
-x,-y,-z
x,y,-z
-x,y,z
x,-y,z
loop_
_atom_site_type_symbol
_atom_site_label
_atom_site_fract_x
_atom_site_fract_y
_atom_site_fract_z
Si Si1 0.439077 0.399743 0.308369
Si Si2 0.057431 0.138688 0.687591
Si Si3 0.942116 0.644813 0.312598
Si Si4 0.830843 0.640480 0.817053
Si Si5 0.713661 0.100141 0.807754
Si Si6 0.172096 0.158901 0.692503
Si Si7 0.351817 0.734154 0.182472
Si Si8 0.723679 0.599481 0.679849
O O1 0.438622 0.403118 0.500000
O O2 0.500000 0.383652 0.256835
O O3 0.424054 0.500000 0.251597
O O4 0.399699 0.321297 0.258846
O O5 0.055779 0.115307 0.500000
O O6 0.057970 0.246831 0.697748
O O7 0.116470 0.111973 0.744179
O O8 0.000000 0.109714 0.757306
O O9 0.937332 0.623446 0.500000
O O10 0.890596 0.611787 0.221996
O O11 0.000000 0.614507 0.255456
O O12 0.827364 0.745615 0.778644
O O13 0.786453 0.598594 0.705321
O O14 0.818145 0.622256 0.000000
O O15 0.772364 0.113385 0.734897
O O16 0.671639 0.173919 0.748691
O O17 0.695603 0.000000 0.775514
O O18 0.718846 0.111557 0.000000
O O19 0.169190 0.171823 0.500000
O O20 0.302112 0.667054 0.198007
O O21 0.366166 0.750550 0.000000
O O22 0.710979 0.629394 0.500000
O O23 0.702789 0.500000 0.699943
#
# Coordination Sequence:
#
# PCOD9382042 Si02
#       8
#     8   8   8   8   8   8   8   8
#     4   9  19  37  61  90 126 166 200 229 269 324
#     4   7  11  21  39  65  94 123 160 211 270 332
#     4   8  14  26  44  65  91 127 172 219 268 328
#     4  11  20  30  47  72 104 138 173 220 279 337
#     4  10  22  39  56  77 110 151 191 237 296 349
#     4  10  18  30  51  75 100 135 182 231 282 344
#     4  11  22  36  58  87 117 151 190 236 284 332
#     4  11  23  37  54  77 108 147 186 226 276 335
#
# _framework density 20.164632000000001
#
# number of rings (size 3 to 8) (size 9 to 14) (size 15 to 20)
#    0.000    2.375    1.250    4.500    0.000    4.000 
#    0.000    0.625    0.000    2.250    0.000    7.875 
#    0.000    0.000    0.000    0.000    0.000    0.000 
#
# Total GULP energy -356917.977107 kJ/mol
# GULP energy per Si atom -5576.843392 kJ/mol
# Density = 2.011874 g / cm^3
# Si number density = 20.164632 Si / 1000 Ang^3
#
#
#
# Elastic Constant Matrix: (Units=GPa)
#
#
# Indices 1 2 3 4 5 6 
#
# 1 143.9858 55.6524 12.7023 0.0000 0.0000 0.0000
# 2 55.6524 90.6327 13.3818 0.0000 0.0000 0.0000
# 3 12.7023 13.3818 23.3791 0.0000 0.0000 0.0000
# 4 0.0000 0.0000 0.0000 8.4277 0.0000 0.0000
# 5 0.0000 0.0000 0.0000 0.0000 1482.6281 0.0000
# 6 0.0000 0.0000 0.0000 0.0000 0.0000 23.1350
#
#
#
# Elastic Compliance Matrix: (Units=1/GPa)
#
#
# Indices 1 2 3 4 5 6 
#
# 1 0.009185 -0.005356 -0.001925 0.000000 0.000000 0.000000
# 2 -0.005356 0.015175 -0.005776 0.000000 0.000000 0.000000
# 3 -0.001925 -0.005776 0.047125 0.000000 0.000000 0.000000
# 4 0.000000 0.000000 0.000000 0.118657 0.000000 0.000000
# 5 0.000000 0.000000 0.000000 0.000000 0.000674 0.000000
# 6 0.000000 0.000000 0.000000 0.000000 0.000000 0.043225
#
#
# Mechanical properties :
#
#
# Convention : Reuss Voigt Hill
#
# Bulk Modulus (GPa) = 22.04011 46.83007 34.43509
# Shear Modulus (GPa) = 18.16345 314.58891 166.37618
#
# Velocity S-wave (km/s) = 3.00452 12.50396 9.09330
# Velocity P-wave (km/s) = 4.79479 15.22299 11.28560
#
# Compressibility (1/GPa) = 0.04537183
#
# Stress axis : x y z
#
# Youngs Moduli (GPa) = 108.87293 65.89759 21.22014
#
# Poissons Ratio (x) = 0.35293 0.04084
# Poissons Ratio (y) = 0.58310 0.12257
# Poissons Ratio (z) = 0.20956 0.38063
#
# Static dielectric constant tensor:
#      x y z
#    x 1.743220 0.000000 0.000000 
#    y 0.000000 1.750720 0.000000 
#    z 0.000000 0.000000 1.699530 
# 
# From -- ./inp_files/12782.got.cif
#   From: 2010.05.17/outbox.cif.g08.bks.cpg/sg47_7_cif.got.tgz:12782.got - 2010.06.03 20:15:42.
