data_PCOD9382023
_publ_section_title
;
Structure prediction by ZEFSAII (Michael W. Deem and Ramdas Pophale) SiO2 
 PCOD9382023
Probable space group: P M M M
;
_chemical_formula_sum "Si O2"
_cell_formula_units_Z 64
_cell_length_a 15.874149
_cell_length_b 25.743098
_cell_length_c 8.401486
_cell_angle_alpha 90.000000
_cell_angle_beta 90.000000
_cell_angle_gamma 90.000000
_cell_volume 3433.265350
_symmetry_space_group_name_H-M "P M M M"
_symmetry_group_IT_number 47
_symmetry_cell_setting 'orthorhombic'
loop_
_space_group_symop_operation_xyz
x,y,z
-x,-y,z
x,-y,-z
-x,y,-z
-x,-y,-z
x,y,-z
-x,y,z
x,-y,z
loop_
_atom_site_type_symbol
_atom_site_label
_atom_site_fract_x
_atom_site_fract_y
_atom_site_fract_z
Si Si1 0.095424 0.439794 0.307837
Si Si2 0.231901 0.941336 0.307336
Si Si3 0.774389 0.644984 0.190578
Si Si4 0.175465 0.757036 0.186404
Si Si5 0.407847 0.669996 0.689999
Si Si6 0.094107 0.140316 0.807125
Si Si7 0.590936 0.897140 0.690716
Si Si8 0.629320 0.215791 0.185456
O O1 0.097543 0.437823 0.500000
O O2 0.108234 0.500000 0.260954
O O3 0.167320 0.402419 0.242367
O O4 0.000000 0.424595 0.257743
O O5 0.233177 0.940132 0.500000
O O6 0.163726 0.899986 0.250212
O O7 0.325196 0.925294 0.248819
O O8 0.211730 0.000000 0.256702
O O9 0.815319 0.699108 0.254871
O O10 0.676985 0.643371 0.244997
O O11 0.772665 0.648507 0.000000
O O12 0.115036 0.801393 0.253402
O O13 0.269265 0.781020 0.193826
O O14 0.152753 0.750516 0.000000
O O15 0.405277 0.666570 0.500000
O O16 0.500000 0.650145 0.744995
O O17 0.402273 0.730525 0.739856
O O18 0.000000 0.124976 0.759289
O O19 0.097839 0.141920 0.000000
O O20 0.590647 0.903456 0.500000
O O21 0.500000 0.915838 0.751804
O O22 0.599203 0.836125 0.729660
O O23 0.605440 0.214137 0.000000
#
# Coordination Sequence:
#
# PCOD9382023 Si02
#       8
#     8   8   8   8   8   8   8   8
#     4   9  19  37  59  82 112 152 195 236 278 327
#     4  10  22  39  56  74  99 131 168 217 270 316
#     4  10  20  33  54  85 116 147 185 231 281 327
#     4   8  16  31  49  74 107 138 168 206 258 313
#     4  10  20  33  50  75 111 153 191 225 265 319
#     4  10  20  36  58  79 101 133 172 212 258 317
#     4  10  20  33  51  75 100 130 170 211 258 320
#     4  10  18  30  50  75 105 139 174 215 262 312
#
# _framework density 18.641147
#
# number of rings (size 3 to 8) (size 9 to 14) (size 15 to 20)
#    0.000    2.375    1.250    2.625    0.000    4.750 
#    0.000    5.000    0.000    0.375    0.000    4.375 
#    0.000    0.000    0.000    0.000    0.000    0.000 
#
# Total GULP energy -356889.391233 kJ/mol
# GULP energy per Si atom -5576.396738 kJ/mol
# Density = 1.859872 g / cm^3
# Si number density = 18.641147 Si / 1000 Ang^3
#
#
#
# Elastic Constant Matrix: (Units=GPa)
#
#
# Indices 1 2 3 4 5 6 
#
# 1 145.9433 78.3941 27.0098 0.0000 0.0000 0.0000
# 2 78.3941 84.6134 12.1286 0.0000 0.0000 0.0000
# 3 27.0098 12.1286 16.6414 0.0000 0.0000 0.0000
# 4 0.0000 0.0000 0.0000 19.2471 0.0000 0.0000
# 5 0.0000 0.0000 0.0000 0.0000 12.1124 0.0000
# 6 0.0000 0.0000 0.0000 0.0000 0.0000 23.0289
#
#
#
# Elastic Compliance Matrix: (Units=1/GPa)
#
#
# Indices 1 2 3 4 5 6 
#
# 1 0.017662 -0.013685 -0.018693 0.000000 0.000000 0.000000
# 2 -0.013685 0.023800 0.004865 0.000000 0.000000 0.000000
# 3 -0.018693 0.004865 0.086885 0.000000 0.000000 0.000000
# 4 0.000000 0.000000 0.000000 0.051956 0.000000 0.000000
# 5 0.000000 0.000000 0.000000 0.000000 0.082560 0.000000
# 6 0.000000 0.000000 0.000000 0.000000 0.000000 0.043424
#
#
# Mechanical properties :
#
#
# Convention : Reuss Voigt Hill
#
# Bulk Modulus (GPa) = 13.63854 53.58480 33.61167
# Shear Modulus (GPa) = 12.96168 19.52205 16.24186
#
# Velocity S-wave (km/s) = 2.63976 3.23964 2.95497
# Velocity P-wave (km/s) = 4.07718 6.54229 5.45092
#
# Compressibility (1/GPa) = 0.07332161
#
# Stress axis : x y z
#
# Youngs Moduli (GPa) = 56.61811 42.01716 11.50946
#
# Poissons Ratio (x) = 0.57498 0.21515
# Poissons Ratio (y) = 0.77479 -0.05599
# Poissons Ratio (z) = 1.05836 -0.20440
#
# Static dielectric constant tensor:
#      x y z
#    x 1.668690 0.000000 0.000000 
#    y 0.000000 1.625420 0.000000 
#    z 0.000000 0.000000 1.653200 
# 
# From -- ./inp_files/7798.got.cif
#   From: 2010.05.17/outbox.cif.g08.bks.cpg/sg47_4_cif.got.tgz:7798.got - 2010.06.03 20:15:42.
