data_PCOD9382914
_publ_section_title
;
Structure prediction by ZEFSAII (Michael W. Deem and Ramdas Pophale) SiO2 
 PCOD9382914
Probable space group: P M M M
;
_chemical_formula_sum "Si O2"
_cell_formula_units_Z 48
_cell_length_a 9.429284
_cell_length_b 7.605160
_cell_length_c 35.635856
_cell_angle_alpha 90.000000
_cell_angle_beta 90.000000
_cell_angle_gamma 90.000000
_cell_volume 2555.490478
_symmetry_space_group_name_H-M "P M M M"
_symmetry_group_IT_number 47
_symmetry_cell_setting 'orthorhombic'
loop_
_space_group_symop_operation_xyz
x,y,z
-x,-y,z
x,-y,-z
-x,y,-z
-x,-y,-z
x,y,-z
-x,y,z
x,-y,z
loop_
_atom_site_type_symbol
_atom_site_label
_atom_site_fract_x
_atom_site_fract_y
_atom_site_fract_z
Si Si1 0.169786 0.000000 0.178684
Si Si2 0.672327 0.298343 0.957884
Si Si3 0.662874 0.213081 0.312537
Si Si4 0.327990 0.000000 0.100023
Si Si5 0.837198 0.784804 0.385618
Si Si6 0.336023 0.785553 0.542009
Si Si7 0.164742 0.701626 0.238065
O O1 0.204602 0.832157 0.204622
O O2 0.254828 0.000000 0.140196
O O3 0.000000 0.000000 0.171681
O O4 0.500000 0.296069 0.958262
O O5 0.716617 0.500000 0.951895
O O6 0.715415 0.168117 0.925003
O O7 0.717072 0.243369 0.000000
O O8 0.500000 0.271664 0.313766
O O9 0.748604 0.271801 0.349284
O O10 0.740244 0.271212 0.274679
O O11 0.663304 0.000000 0.312722
O O12 0.500000 0.000000 0.103860
O O13 0.762550 0.726480 0.424066
O O14 0.000000 0.728832 0.383359
O O15 0.835935 0.000000 0.385766
O O16 0.293207 0.729755 0.500000
O O17 0.500000 0.734011 0.548095
O O18 0.333837 0.000000 0.542130
O O19 0.173967 0.500000 0.225826
O O20 0.000000 0.740267 0.248116
#
# Coordination Sequence:
#
# PCOD9382914 Si02
#       7
#     4   8   8   4   8   8   8
#     4  10  22  39  55  75 108 144 175 215 266 322
#     4   8  14  26  46  74 107 140 176 222 272 314
#     4  10  19  31  50  74 100 128 161 207 263 317
#     4  10  19  30  50  78 104 134 178 223 261 310
#     4   9  16  24  37  59  87 122 163 205 251 305
#     4   8  13  21  32  48  77 118 161 205 253 304
#     4  10  21  38  59  78  98 132 176 217 261 316
#
# _framework density 18.783089
#
# number of rings (size 3 to 8) (size 9 to 14) (size 15 to 20)
#    0.000    2.833    0.833    2.250    0.000    5.667 
#    0.000    1.667    0.000    1.000    0.000    1.167 
#    0.000    0.667    0.000    7.000    0.000    9.667 
#
# Total GULP energy -267833.646444 kJ/mol
# GULP energy per Si atom -5579.867634 kJ/mol
# Density = 1.874034 g / cm^3
# Si number density = 18.783089 Si / 1000 Ang^3
#
#
#
# Elastic Constant Matrix: (Units=GPa)
#
#
# Indices 1 2 3 4 5 6 
#
# 1 94.0322 40.0054 101.0163 0.0000 0.0000 0.0000
# 2 40.0054 68.6393 66.3105 0.0000 0.0000 0.0000
# 3 101.0163 66.3105 207.8802 0.0000 0.0000 0.0000
# 4 0.0000 0.0000 0.0000 -14.7861 0.0000 0.0000
# 5 0.0000 0.0000 0.0000 0.0000 -137.9148 0.0000
# 6 0.0000 0.0000 0.0000 0.0000 0.0000 5.8982
#
#
#
# Elastic Compliance Matrix: (Units=1/GPa)
#
#
# Indices 1 2 3 4 5 6 
#
# 1 0.022899 -0.003753 -0.009930 0.000000 0.000000 0.000000
# 2 -0.003753 0.021673 -0.005090 0.000000 0.000000 0.000000
# 3 -0.009930 -0.005090 0.011260 0.000000 0.000000 0.000000
# 4 0.000000 0.000000 0.000000 -0.067631 0.000000 0.000000
# 5 0.000000 0.000000 0.000000 0.000000 -0.007251 0.000000
# 6 0.000000 0.000000 0.000000 0.000000 0.000000 0.169543
#
#
# Mechanical properties :
#
#
# Convention : Reuss Voigt Hill
#
# Bulk Modulus (GPa) = 54.68702 87.24625 70.96664
# Shear Modulus (GPa) = 25.75521 -18.47925 3.63798
#
# Velocity S-wave (km/s) = 3.70698 -3.14000 1.39321
# Velocity P-wave (km/s) = 6.89206 5.77963 6.36021
#
# Compressibility (1/GPa) = 0.01828587
#
# Stress axis : x y z
#
# Youngs Moduli (GPa) = 43.66925 46.13955 88.81331
#
# Poissons Ratio (x) = 0.17316 0.88196
# Poissons Ratio (y) = 0.16389 0.45204
# Poissons Ratio (z) = 0.43366 0.23484
#
# Static dielectric constant tensor:
#      x y z
#    x 1.629270 0.000000 0.000000 
#    y 0.000000 1.711350 0.000000 
#    z 0.000000 0.000000 1.607860 
# 
# From -- ./inp_files/34179.got.cif
#   From: 2010.05.17/outbox.cif.g08.bks.cpg/sg47_18_cif.got.tgz:34179.got - 2010.06.03 20:15:42.
