data_PCOD9382102
_publ_section_title
;
Structure prediction by ZEFSAII (Michael W. Deem and Ramdas Pophale) SiO2 
 PCOD9382102
Probable space group: P M M M
;
_chemical_formula_sum "Si O2"
_cell_formula_units_Z 64
_cell_length_a 7.560721
_cell_length_b 20.806328
_cell_length_c 20.745753
_cell_angle_alpha 90.000000
_cell_angle_beta 90.000000
_cell_angle_gamma 90.000000
_cell_volume 3263.531852
_symmetry_space_group_name_H-M "P M M M"
_symmetry_group_IT_number 47
_symmetry_cell_setting 'orthorhombic'
loop_
_space_group_symop_operation_xyz
x,y,z
-x,-y,z
x,-y,-z
-x,y,-z
-x,-y,-z
x,y,-z
-x,y,z
x,-y,z
loop_
_atom_site_type_symbol
_atom_site_label
_atom_site_fract_x
_atom_site_fract_y
_atom_site_fract_z
Si Si1 0.706389 0.069797 0.710613
Si Si2 0.283312 0.830744 0.816210
Si Si3 0.204554 0.888558 0.430402
Si Si4 0.284600 0.292095 0.748807
Si Si5 0.284487 0.072288 0.925684
Si Si6 0.793973 0.602321 0.430450
Si Si7 0.706484 0.430535 0.285954
Si Si8 0.712587 0.254492 0.603902
O O1 0.500000 0.066222 0.728309
O O2 0.776666 0.126933 0.754721
O O3 0.713953 0.084482 0.634866
O O4 0.786763 0.000000 0.723500
O O5 0.500000 0.828718 0.817229
O O6 0.225862 0.757441 0.803780
O O7 0.225919 0.870816 0.878654
O O8 0.280667 0.907857 0.500000
O O9 0.216085 0.811277 0.424782
O O10 0.000000 0.907920 0.429380
O O11 0.500000 0.295317 0.750625
O O12 0.218068 0.365413 0.745384
O O13 0.241309 0.260713 0.679471
O O14 0.500000 0.072438 0.924666
O O15 0.230802 0.000000 0.904686
O O16 0.230360 0.081006 0.000000
O O17 0.721285 0.580882 0.500000
O O18 0.712746 0.578094 0.363684
O O19 0.777644 0.679692 0.427572
O O20 0.000000 0.584616 0.428242
O O21 0.500000 0.432320 0.268074
O O22 0.785779 0.500000 0.269758
O O23 0.500000 0.252747 0.598323
#
# Coordination Sequence:
#
# PCOD9382102 Si02
#       8
#     8   8   8   8   8   8   8   8
#     4  10  20  33  49  67  84 108 147 191 232 274
#     4   9  14  24  43  65  88 115 149 187 223 262
#     4  11  23  35  46  61  84 113 144 185 240 291
#     4   8  14  25  43  63  81 103 137 182 225 260
#     4   8  13  20  32  57  96 134 156 173 212 271
#     4  10  20  31  43  62  87 112 140 175 222 283
#     4   9  18  31  45  61  82 109 144 188 233 275
#     4  10  18  31  49  67  85 108 143 187 230 272
#
# _framework density 19.610655000000001
#
# number of rings (size 3 to 8) (size 9 to 14) (size 15 to 20)
#    0.000    2.625    1.250    3.000    0.000    6.000 
#    0.000    2.500    0.000    0.000    0.000    0.000 
#    0.000    1.000    0.000    9.625    0.000    3.500 
#
# Total GULP energy -357006.280659 kJ/mol
# GULP energy per Si atom -5578.223135 kJ/mol
# Density = 1.956602 g / cm^3
# Si number density = 19.610655 Si / 1000 Ang^3
#
#
#
# Elastic Constant Matrix: (Units=GPa)
#
#
# Indices 1 2 3 4 5 6 
#
# 1 46.8924 -1.0674 -0.9492 0.0000 0.0000 0.0000
# 2 -1.0674 151.5299 62.0360 0.0000 0.0000 0.0000
# 3 -0.9492 62.0360 82.6283 0.0000 0.0000 0.0000
# 4 0.0000 0.0000 0.0000 56.7673 0.0000 0.0000
# 5 0.0000 0.0000 0.0000 0.0000 18.8508 0.0000
# 6 0.0000 0.0000 0.0000 0.0000 0.0000 -29.5065
#
#
#
# Elastic Compliance Matrix: (Units=1/GPa)
#
#
# Indices 1 2 3 4 5 6 
#
# 1 0.021331 0.000072 0.000191 0.000000 0.000000 0.000000
# 2 0.000072 0.009528 -0.007153 0.000000 0.000000 0.000000
# 3 0.000191 -0.007153 0.017475 0.000000 0.000000 0.000000
# 4 0.000000 0.000000 0.000000 0.017616 0.000000 0.000000
# 5 0.000000 0.000000 0.000000 0.000000 0.053048 0.000000
# 6 0.000000 0.000000 0.000000 0.000000 0.000000 -0.033891
#
#
# Mechanical properties :
#
#
# Convention : Reuss Voigt Hill
#
# Bulk Modulus (GPa) = 28.93991 44.56548 36.75270
# Shear Modulus (GPa) = 45.28793 23.95773 34.62283
#
# Velocity S-wave (km/s) = 4.81079 3.49903 4.20636
# Velocity P-wave (km/s) = 6.75629 6.25290 6.50946
#
# Compressibility (1/GPa) = 0.03455435
#
# Stress axis : x y z
#
# Youngs Moduli (GPa) = 46.88026 104.95158 57.22533
#
# Poissons Ratio (x) = -0.00757 -0.01092
# Poissons Ratio (y) = -0.00338 0.40932
# Poissons Ratio (z) = -0.00895 0.75070
#
# Static dielectric constant tensor:
#      x y z
#    x 1.735630 0.000000 0.000000 
#    y 0.000000 1.732740 0.000000 
#    z 0.000000 0.000000 1.671340 
# 
# From -- ./inp_files/30147.got.cif
#   From: 2010.05.17/outbox.cif.g08.bks.cpg/sg47_16_cif.got.tgz:30147.got - 2010.06.03 20:15:42.
