data_PCOD9382780
_publ_section_title
;
Structure prediction by ZEFSAII (Michael W. Deem and Ramdas Pophale) SiO2 
 PCOD9382780
Probable space group: P M M M
;
_chemical_formula_sum "Si O2"
_cell_formula_units_Z 44
_cell_length_a 33.222939
_cell_length_b 7.717458
_cell_length_c 9.283354
_cell_angle_alpha 90.000000
_cell_angle_beta 90.000000
_cell_angle_gamma 90.000000
_cell_volume 2380.220740
_symmetry_space_group_name_H-M "P M M M"
_symmetry_group_IT_number 47
_symmetry_cell_setting 'orthorhombic'
loop_
_space_group_symop_operation_xyz
x,y,z
-x,-y,z
x,-y,-z
-x,y,-z
-x,-y,-z
x,y,-z
-x,y,z
x,-y,z
loop_
_atom_site_type_symbol
_atom_site_label
_atom_site_fract_x
_atom_site_fract_y
_atom_site_fract_z
Si Si1 0.158198 0.291491 0.836156
Si Si2 0.000000 0.212468 0.834743
Si Si3 0.394092 0.000000 0.674908
Si Si4 0.078389 0.792285 0.337593
Si Si5 0.691885 0.000000 0.825523
Si Si6 0.545489 0.698081 0.675055
Si Si7 0.246992 0.698829 0.175258
O O1 0.160311 0.500000 0.843195
O O2 0.120538 0.243673 0.739368
O O3 0.202357 0.237520 0.780762
O O4 0.152317 0.226293 0.000000
O O5 0.959704 0.271518 0.753851
O O6 0.000000 0.000000 0.834282
O O7 0.000000 0.268038 0.000000
O O8 0.350965 0.000000 0.749118
O O9 0.420547 0.167026 0.718795
O O10 0.390100 0.000000 0.500000
O O11 0.077823 0.723540 0.500000
O O12 0.074091 0.000000 0.345037
O O13 0.718148 0.831326 0.783954
O O14 0.687444 0.000000 0.000000
O O15 0.545114 0.699311 0.500000
O O16 0.500000 0.747317 0.720326
O O17 0.553143 0.500000 0.720583
O O18 0.253552 0.500000 0.223185
O O19 0.245485 0.695798 0.000000
#
# Coordination Sequence:
#
# PCOD9382780 Si02
#       7
#     8   4   4   8   4   8   8
#     4   9  18  33  53  75  95 118 157 207 249 286
#     4   9  17  31  50  71  96 129 168 204 236 277
#     4  10  19  30  46  72 102 128 159 209 256 293
#     4  10  20  32  48  73 103 132 158 191 240 298
#     4  10  20  33  51  73  98 135 173 202 248 307
#     4   8  14  26  46  71  97 128 168 210 251 296
#     4   8  16  32  52  73  96 124 165 213 250 289
#
# _framework density 18.485679999999999
#
# number of rings (size 3 to 8) (size 9 to 14) (size 15 to 20)
#    0.000    3.000    0.000    2.727    1.273    4.364 
#    0.000    1.364    0.000    4.909    0.000    1.273 
#    0.000    0.000    0.000    0.000    0.000    0.000 
#
# Total GULP energy -245301.158508 kJ/mol
# GULP energy per Si atom -5575.026330 kJ/mol
# Density = 1.844361 g / cm^3
# Si number density = 18.485680 Si / 1000 Ang^3
#
#
#
# Elastic Constant Matrix: (Units=GPa)
#
#
# Indices 1 2 3 4 5 6 
#
# 1 215.8061 79.7225 71.3733 0.0000 0.0000 0.0000
# 2 79.7225 73.4172 29.0714 0.0000 0.0000 0.0000
# 3 71.3733 29.0714 65.5259 0.0000 0.0000 0.0000
# 4 0.0000 0.0000 0.0000 9.5662 0.0000 0.0000
# 5 0.0000 0.0000 0.0000 0.0000 39.1571 0.0000
# 6 0.0000 0.0000 0.0000 0.0000 0.0000 8.6961
#
#
#
# Elastic Compliance Matrix: (Units=1/GPa)
#
#
# Indices 1 2 3 4 5 6 
#
# 1 0.010010 -0.007948 -0.007377 0.000000 0.000000 0.000000
# 2 -0.007948 0.022835 -0.001473 0.000000 0.000000 0.000000
# 3 -0.007377 -0.001473 0.023950 0.000000 0.000000 0.000000
# 4 0.000000 0.000000 0.000000 0.104535 0.000000 0.000000
# 5 0.000000 0.000000 0.000000 0.000000 0.025538 0.000000
# 6 0.000000 0.000000 0.000000 0.000000 0.000000 0.114994
#
#
# Mechanical properties :
#
#
# Convention : Reuss Voigt Hill
#
# Bulk Modulus (GPa) = 43.10741 79.45376 61.28058
# Shear Modulus (GPa) = 14.56915 23.12269 18.84592
#
# Velocity S-wave (km/s) = 2.81041 3.54056 3.19641
# Velocity P-wave (km/s) = 5.82247 7.73231 6.84434
#
# Compressibility (1/GPa) = 0.02319787
#
# Stress axis : x y z
#
# Youngs Moduli (GPa) = 99.90287 43.79183 41.75423
#
# Poissons Ratio (x) = 0.34808 0.30800
# Poissons Ratio (y) = 0.79407 0.06152
# Poissons Ratio (z) = 0.73694 0.06452
#
# Static dielectric constant tensor:
#      x y z
#    x 1.619040 0.000000 0.000000 
#    y 0.000000 1.673350 0.000000 
#    z 0.000000 0.000000 1.629770 
# 
# From -- ./inp_files/13717.got.cif
#   From: 2010.05.17/outbox.cif.g08.bks.cpg/sg47_7_cif.got.tgz:13717.got - 2010.06.03 20:15:42.
