data_PCOD9382093
_publ_section_title
;
Structure prediction by ZEFSAII (Michael W. Deem and Ramdas Pophale) SiO2 
 PCOD9382093
Probable space group: P M M M
;
_chemical_formula_sum "Si O2"
_cell_formula_units_Z 37
_cell_length_a 8.348370
_cell_length_b 10.066089
_cell_length_c 23.472569
_cell_angle_alpha 90.000000
_cell_angle_beta 90.000000
_cell_angle_gamma 90.000000
_cell_volume 1972.527556
_symmetry_space_group_name_H-M "P M M M"
_symmetry_group_IT_number 47
_symmetry_cell_setting 'orthorhombic'
loop_
_space_group_symop_operation_xyz
x,y,z
-x,-y,z
x,-y,-z
-x,y,-z
-x,-y,-z
x,y,-z
-x,y,z
x,-y,z
loop_
_atom_site_type_symbol
_atom_site_label
_atom_site_fract_x
_atom_site_fract_y
_atom_site_fract_z
Si Si1 0.311343 0.500000 0.783214
Si Si2 0.693906 0.708682 0.437299
Si Si3 0.500000 0.000000 0.000000
Si Si4 0.695614 0.000000 0.402973
Si Si5 0.689250 0.000000 0.274346
Si Si6 0.187791 0.215264 0.812310
Si Si7 0.194200 0.000000 0.089863
Si Si8 0.811195 0.500000 0.653766
O O1 0.500000 0.500000 0.787289
O O2 0.248814 0.365153 0.812069
O O3 0.264693 0.500000 0.716401
O O4 0.742994 0.659026 0.500000
O O5 0.500000 0.700892 0.434640
O O6 0.759768 0.625233 0.384679
O O7 0.742819 0.862297 0.431665
O O8 0.649818 0.000000 0.951395
O O9 0.755779 0.000000 0.337985
O O10 0.500000 0.000000 0.403415
O O11 0.736747 0.129401 0.238567
O O12 0.500000 0.000000 0.279807
O O13 0.000000 0.218478 0.801378
O O14 0.211974 0.129909 0.869766
O O15 0.000000 0.000000 0.070733
O O16 0.000000 0.500000 0.661694
#
# Coordination Sequence:
#
# PCOD9382093 Si02
#       8
#     4   8   1   4   4   8   4   4
#     4  12  24  37  61  88 117 150 198 247 296 371
#     4  10  20  36  57  77 102 138 185 239 295 354
#     4  12  22  36  76  96 136 172 226 254 290 338
#     4   9  18  32  52  80 105 133 177 236 295 351
#     4  10  18  30  54  82 115 153 200 245 288 357
#     4  10  21  38  58  86 126 163 197 244 307 357
#     4   9  22  40  64  99 134 169 212 260 298 345
#     4  12  25  39  54  77 110 147 189 234 293 359
#
# _framework density 18.757660999999999
#
# number of rings (size 3 to 8) (size 9 to 14) (size 15 to 20)
#    0.000    1.730    0.000    5.676    4.541    4.757 
#    0.000    1.622    0.000    2.595    0.000    3.027 
#    0.000    0.000    0.000    0.000    0.000    0.000 
#
# Total GULP energy -206219.686295 kJ/mol
# GULP energy per Si atom -5573.505035 kJ/mol
# Density = 1.871497 g / cm^3
# Si number density = 18.757661 Si / 1000 Ang^3
#
#
#
# Elastic Constant Matrix: (Units=GPa)
#
#
# Indices 1 2 3 4 5 6 
#
# 1 62.9646 21.2155 36.4049 0.0000 0.0000 0.0000
# 2 21.2155 144.3586 38.0231 0.0000 0.0000 0.0000
# 3 36.4049 38.0231 85.6003 0.0000 0.0000 0.0000
# 4 0.0000 0.0000 0.0000 -2.5171 0.0000 0.0000
# 5 0.0000 0.0000 0.0000 0.0000 329.3188 0.0000
# 6 0.0000 0.0000 0.0000 0.0000 0.0000 48.5135
#
#
#
# Elastic Compliance Matrix: (Units=1/GPa)
#
#
# Indices 1 2 3 4 5 6 
#
# 1 0.021150 -0.000837 -0.008623 0.000000 0.000000 0.000000
# 2 -0.000837 0.007878 -0.003143 0.000000 0.000000 0.000000
# 3 -0.008623 -0.003143 0.016746 0.000000 0.000000 0.000000
# 4 0.000000 0.000000 0.000000 -0.397287 0.000000 0.000000
# 5 0.000000 0.000000 0.000000 0.000000 0.003037 0.000000
# 6 0.000000 0.000000 0.000000 0.000000 0.000000 0.020613
#
#
# Mechanical properties :
#
#
# Convention : Reuss Voigt Hill
#
# Bulk Modulus (GPa) = 48.62223 53.80120 51.21171
# Shear Modulus (GPa) = -16.90320 88.21502 35.65591
#
# Velocity S-wave (km/s) = -3.00515 6.86519 4.36463
# Velocity P-wave (km/s) = 3.73314 9.57004 7.26368
#
# Compressibility (1/GPa) = 0.02056672
#
# Stress axis : x y z
#
# Youngs Moduli (GPa) = 47.28235 126.93302 59.71668
#
# Poissons Ratio (x) = 0.10624 0.51493
# Poissons Ratio (y) = 0.03958 0.18772
# Poissons Ratio (z) = 0.40771 0.39901
#
# Static dielectric constant tensor:
#      x y z
#    x 1.654310 0.000000 0.000000 
#    y 0.000000 1.644950 0.000000 
#    z 0.000000 0.000000 1.642620 
# 
# From -- ./inp_files/31763.got.cif
#   From: 2010.05.17/outbox.cif.g08.bks.cpg/sg47_16_cif.got.tgz:31763.got - 2010.06.03 20:15:42.
