data_PCOD9382426
_publ_section_title
;
Structure prediction by ZEFSAII (Michael W. Deem and Ramdas Pophale) SiO2 
 PCOD9382426
Probable space group: P M M M
;
_chemical_formula_sum "Si O2"
_cell_formula_units_Z 52
_cell_length_a 26.817568
_cell_length_b 9.187474
_cell_length_c 13.825752
_cell_angle_alpha 90.000000
_cell_angle_beta 90.000000
_cell_angle_gamma 90.000000
_cell_volume 3406.467705
_symmetry_space_group_name_H-M "P M M M"
_symmetry_group_IT_number 47
_symmetry_cell_setting 'orthorhombic'
loop_
_space_group_symop_operation_xyz
x,y,z
-x,-y,z
x,-y,-z
-x,y,-z
-x,-y,-z
x,y,-z
-x,y,z
x,-y,z
loop_
_atom_site_type_symbol
_atom_site_label
_atom_site_fract_x
_atom_site_fract_y
_atom_site_fract_z
Si Si1 0.500000 0.673750 0.115146
Si Si2 0.749771 0.326834 0.290182
Si Si3 0.844224 0.828301 0.383924
Si Si4 0.055368 0.669745 0.382641
Si Si5 0.701949 0.172878 0.888164
Si Si6 0.643853 0.673810 0.387734
Si Si7 0.595207 0.172903 0.790675
O O1 0.500000 0.500000 0.130301
O O2 0.548592 0.745441 0.162949
O O3 0.500000 0.701468 0.000000
O O4 0.756178 0.500000 0.285989
O O5 0.798524 0.252491 0.333522
O O6 0.735864 0.262335 0.185645
O O7 0.701211 0.296184 0.357162
O O8 0.840447 0.805689 0.500000
O O9 0.897459 0.763634 0.351091
O O10 0.841983 0.000000 0.365456
O O11 0.054797 0.675578 0.500000
O O12 0.061949 0.500000 0.356380
O O13 0.000000 0.717479 0.350181
O O14 0.644554 0.196935 0.856221
O O15 0.711606 0.000000 0.876741
O O16 0.708868 0.212140 0.000000
O O17 0.635989 0.709859 0.500000
O O18 0.635920 0.500000 0.374875
O O19 0.609218 0.761937 0.314052
O O20 0.586183 0.000000 0.785192
#
# Coordination Sequence:
#
# PCOD9382426 Si02
#       7
#     4   8   8   8   8   8   8
#     4  11  23  37  54  75  98 123 151 186 228 273
#     4  10  19  30  46  68  93 121 155 192 227 269
#     4  10  19  28  40  61  90 123 157 193 231 270
#     4   8  14  25  40  57  80 114 154 192 230 272
#     4   9  18  33  51  70  94 122 149 181 226 276
#     4   9  18  33  51  70  95 127 159 190 226 268
#     4  10  20  34  53  76  99 122 151 187 226 271
#
# _framework density 15.265079999999999
#
# number of rings (size 3 to 8) (size 9 to 14) (size 15 to 20)
#    0.000    2.538    0.000    3.000    0.000    4.923 
#    0.000    1.923    0.000    2.308    0.000    0.000 
#    0.000    0.615    0.000    6.462    0.000    3.077 
#
# Total GULP energy -289959.835215 kJ/mol
# GULP energy per Si atom -5576.150677 kJ/mol
# Density = 1.523034 g / cm^3
# Si number density = 15.265080 Si / 1000 Ang^3
#
#
#
# Elastic Constant Matrix: (Units=GPa)
#
#
# Indices 1 2 3 4 5 6 
#
# 1 133.2875 87.2354 62.1604 0.0000 0.0000 0.0000
# 2 87.2354 86.5743 65.3904 0.0000 0.0000 0.0000
# 3 62.1604 65.3904 96.1050 0.0000 0.0000 0.0000
# 4 0.0000 0.0000 0.0000 22.6453 0.0000 0.0000
# 5 0.0000 0.0000 0.0000 0.0000 16.1544 0.0000
# 6 0.0000 0.0000 0.0000 0.0000 0.0000 27.2533
#
#
#
# Elastic Compliance Matrix: (Units=1/GPa)
#
#
# Indices 1 2 3 4 5 6 
#
# 1 0.022179 -0.023685 0.001771 0.000000 0.000000 0.000000
# 2 -0.023685 0.049057 -0.018059 0.000000 0.000000 0.000000
# 3 0.001771 -0.018059 0.021548 0.000000 0.000000 0.000000
# 4 0.000000 0.000000 0.000000 0.044159 0.000000 0.000000
# 5 0.000000 0.000000 0.000000 0.000000 0.061903 0.000000
# 6 0.000000 0.000000 0.000000 0.000000 0.000000 0.036693
#
#
# Mechanical properties :
#
#
# Convention : Reuss Voigt Hill
#
# Bulk Modulus (GPa) = 77.90844 82.83770 80.37307
# Shear Modulus (GPa) = 15.63647 19.95598 17.79623
#
# Velocity S-wave (km/s) = 3.20399 3.61958 3.41810
# Velocity P-wave (km/s) = 8.05203 8.47658 8.26703
#
# Compressibility (1/GPa) = 0.01283558
#
# Stress axis : x y z
#
# Youngs Moduli (GPa) = 45.08831 20.38430 46.40849
#
# Poissons Ratio (x) = 0.48281 -0.08217
# Poissons Ratio (y) = 1.06793 0.83811
# Poissons Ratio (z) = -0.07983 0.36813
#
# Static dielectric constant tensor:
#      x y z
#    x 1.495940 0.000000 0.000000 
#    y 0.000000 1.504060 0.000000 
#    z 0.000000 0.000000 1.483130 
# 
# From -- ./inp_files/15468.got.cif
#   From: 2010.05.17/outbox.cif.g08.bks.cpg/sg47_8_cif.got.tgz:15468.got - 2010.06.03 20:15:42.
