data_PCOD9382685
_publ_section_title
;
Structure prediction by ZEFSAII (Michael W. Deem and Ramdas Pophale) SiO2 
 PCOD9382685
Probable space group: P M M M
;
_chemical_formula_sum "Si O2"
_cell_formula_units_Z 56
_cell_length_a 7.385602
_cell_length_b 19.966631
_cell_length_c 18.975395
_cell_angle_alpha 90.000000
_cell_angle_beta 90.000000
_cell_angle_gamma 90.000000
_cell_volume 2798.217816
_symmetry_space_group_name_H-M "P M M M"
_symmetry_group_IT_number 47
_symmetry_cell_setting 'orthorhombic'
loop_
_space_group_symop_operation_xyz
x,y,z
-x,-y,z
x,-y,-z
-x,y,-z
-x,-y,-z
x,y,-z
-x,y,z
x,-y,z
loop_
_atom_site_type_symbol
_atom_site_label
_atom_site_fract_x
_atom_site_fract_y
_atom_site_fract_z
Si Si1 0.779131 0.718307 0.148736
Si Si2 0.220821 0.924946 0.779263
Si Si3 0.786446 0.294972 0.421003
Si Si4 0.779125 0.209265 0.292742
Si Si5 0.209818 0.426111 0.166452
Si Si6 0.283539 0.574265 0.668956
Si Si7 0.220563 0.145858 0.922237
O O1 0.725666 0.743919 0.226708
O O2 0.713290 0.642941 0.135615
O O3 0.725672 0.777809 0.096259
O O4 0.000000 0.716153 0.148233
O O5 0.277050 0.866159 0.726014
O O6 0.276931 0.900974 0.857458
O O7 0.000000 0.925216 0.779046
O O8 0.281384 0.000000 0.763539
O O9 0.710872 0.294457 0.500000
O O10 0.713164 0.240765 0.365461
O O11 0.769354 0.366940 0.383486
O O12 0.000000 0.281344 0.426633
O O13 0.000000 0.210022 0.293253
O O14 0.289576 0.500000 0.152054
O O15 0.213366 0.416576 0.251401
O O16 0.000000 0.429100 0.144656
O O17 0.500000 0.574865 0.674232
O O18 0.225929 0.500000 0.645002
O O19 0.000000 0.144836 0.921979
O O20 0.280938 0.125989 0.000000
#
# Coordination Sequence:
#
# PCOD9382685 Si02
#       7
#     8   8   8   8   8   8   8
#     4   8  12  20  35  51  69  98 135 171 204 234
#     4   8  13  20  32  51  76 109 141 165 196 240
#     4  10  19  30  45  61  77 105 144 177 201 235
#     4   8  13  23  37  53  73  97 133 174 204 234
#     4   9  15  24  41  60  76 101 141 179 204 237
#     4  10  20  31  42  59  85 111 132 164 215 259
#     4   8  13  19  28  47  77 111 141 165 193 236
#
# _framework density 20.012737999999999
#
# number of rings (size 3 to 8) (size 9 to 14) (size 15 to 20)
#    0.000    3.286    1.429    2.143    0.000    1.714 
#    0.000    2.857    0.000    0.857    0.000    6.000 
#    0.000    1.143    0.000    4.857    0.000    6.857 
#
# Total GULP energy -312169.733898 kJ/mol
# GULP energy per Si atom -5574.459534 kJ/mol
# Density = 1.996719 g / cm^3
# Si number density = 20.012738 Si / 1000 Ang^3
#
#
#
# Elastic Constant Matrix: (Units=GPa)
#
#
# Indices 1 2 3 4 5 6 
#
# 1 69.8885 -1.8342 -3.2528 0.0000 0.0000 0.0000
# 2 -1.8342 157.0447 21.2962 0.0000 0.0000 0.0000
# 3 -3.2528 21.2962 35.5508 0.0000 0.0000 0.0000
# 4 0.0000 0.0000 0.0000 20.2719 0.0000 0.0000
# 5 0.0000 0.0000 0.0000 0.0000 -47.0899 0.0000
# 6 0.0000 0.0000 0.0000 0.0000 0.0000 -42.4300
#
#
#
# Elastic Compliance Matrix: (Units=1/GPa)
#
#
# Indices 1 2 3 4 5 6 
#
# 1 0.014370 -0.000011 0.001322 0.000000 0.000000 0.000000
# 2 -0.000011 0.006931 -0.004153 0.000000 0.000000 0.000000
# 3 0.001322 -0.004153 0.030737 0.000000 0.000000 0.000000
# 4 0.000000 0.000000 0.000000 0.049329 0.000000 0.000000
# 5 0.000000 0.000000 0.000000 0.000000 -0.021236 0.000000
# 6 0.000000 0.000000 0.000000 0.000000 0.000000 -0.023568
#
#
# Mechanical properties :
#
#
# Convention : Reuss Voigt Hill
#
# Bulk Modulus (GPa) = 21.57376 32.76694 27.17035
# Shear Modulus (GPa) = 64.35124 2.56874 33.45999
#
# Velocity S-wave (km/s) = 5.67670 1.13417 4.09337
# Velocity P-wave (km/s) = 7.33280 4.25719 5.99557
#
# Compressibility (1/GPa) = 0.04635260
#
# Stress axis : x y z
#
# Youngs Moduli (GPa) = 69.59082 144.28735 32.53378
#
# Poissons Ratio (x) = 0.00164 -0.04300
# Poissons Ratio (y) = 0.00079 0.13510
# Poissons Ratio (z) = -0.09197 0.59919
#
# Static dielectric constant tensor:
#      x y z
#    x 1.795110 0.000000 0.000000 
#    y 0.000000 1.723960 0.000000 
#    z 0.000000 0.000000 1.678870 
# 
# From -- ./inp_files/9804.got.cif
#   From: 2010.05.17/outbox.cif.g08.bks.cpg/sg47_5_cif.got.tgz:9804.got - 2010.06.03 20:15:42.
