data_PCOD9382401
_publ_section_title
;
Structure prediction by ZEFSAII (Michael W. Deem and Ramdas Pophale) SiO2 
 PCOD9382401
Probable space group: P M M M
;
_chemical_formula_sum "Si O2"
_cell_formula_units_Z 56
_cell_length_a 7.986991
_cell_length_b 14.251324
_cell_length_c 30.340193
_cell_angle_alpha 90.000000
_cell_angle_beta 90.000000
_cell_angle_gamma 90.000000
_cell_volume 3453.478431
_symmetry_space_group_name_H-M "P M M M"
_symmetry_group_IT_number 47
_symmetry_cell_setting 'orthorhombic'
loop_
_space_group_symop_operation_xyz
x,y,z
-x,-y,z
x,-y,-z
-x,y,-z
-x,-y,-z
x,y,-z
-x,y,z
x,-y,z
loop_
_atom_site_type_symbol
_atom_site_label
_atom_site_fract_x
_atom_site_fract_y
_atom_site_fract_z
Si Si1 0.300962 0.603793 0.818110
Si Si2 0.704260 0.108767 0.049277
Si Si3 0.698414 0.392086 0.643152
Si Si4 0.296973 0.207595 0.862647
Si Si5 0.798510 0.104505 0.225607
Si Si6 0.201599 0.610313 0.452398
Si Si7 0.198216 0.705417 0.268457
O O1 0.500000 0.599453 0.825963
O O2 0.230148 0.500000 0.825825
O O3 0.234661 0.689569 0.847778
O O4 0.275702 0.635163 0.767535
O O5 0.500000 0.110608 0.049453
O O6 0.762044 0.172113 0.089841
O O7 0.752750 0.000000 0.056188
O O8 0.758121 0.137201 0.000000
O O9 0.500000 0.396773 0.648691
O O10 0.765077 0.500000 0.645761
O O11 0.735297 0.352755 0.594292
O O12 0.768560 0.329809 0.682527
O O13 0.500000 0.209930 0.863262
O O14 0.245671 0.136212 0.823967
O O15 0.738620 0.189669 0.256884
O O16 0.000000 0.101239 0.229210
O O17 0.733370 0.000000 0.234995
O O18 0.257987 0.649813 0.500000
O O19 0.250065 0.500000 0.452551
O O20 0.000000 0.614449 0.451704
O O21 0.000000 0.704628 0.260562
#
# Coordination Sequence:
#
# PCOD9382401 Si02
#       7
#     8   8   8   8   8   8   8
#     4   9  17  28  40  55  78 105 131 163 201 234
#     4   8  13  21  35  57  81 100 122 158 200 237
#     4  10  19  28  39  57  83 113 140 168 202 235
#     4   9  16  26  42  61  78 101 134 164 190 230
#     4   9  18  31  44  59  81 105 127 158 202 244
#     4   8  14  25  40  57  78 106 140 174 204 235
#     4  10  19  29  42  59  78 103 135 166 196 235
#
# _framework density 16.215534999999999
#
# number of rings (size 3 to 8) (size 9 to 14) (size 15 to 20)
#    0.000    3.000    0.000    2.571    0.000    4.571 
#    0.000    1.429    0.000    0.857    0.000    5.000 
#    0.000    0.571    0.000   13.714    0.000    9.857 
#
# Total GULP energy -311830.178352 kJ/mol
# GULP energy per Si atom -5568.396042 kJ/mol
# Density = 1.617863 g / cm^3
# Si number density = 16.215535 Si / 1000 Ang^3
#
#
#
# Elastic Constant Matrix: (Units=GPa)
#
#
# Indices 1 2 3 4 5 6 
#
# 1 9.1553 3.3142 -4.7516 0.0000 0.0000 0.0000
# 2 3.3142 93.7120 56.0942 0.0000 0.0000 0.0000
# 3 -4.7516 56.0942 124.4799 0.0000 0.0000 0.0000
# 4 0.0000 0.0000 0.0000 17.4592 0.0000 0.0000
# 5 0.0000 0.0000 0.0000 0.0000 57.5876 0.0000
# 6 0.0000 0.0000 0.0000 0.0000 0.0000 11.2604
#
#
#
# Elastic Compliance Matrix: (Units=1/GPa)
#
#
# Indices 1 2 3 4 5 6 
#
# 1 0.117110 -0.009336 0.008677 0.000000 0.000000 0.000000
# 2 -0.009336 0.015357 -0.007277 0.000000 0.000000 0.000000
# 3 0.008677 -0.007277 0.011644 0.000000 0.000000 0.000000
# 4 0.000000 0.000000 0.000000 0.057276 0.000000 0.000000
# 5 0.000000 0.000000 0.000000 0.000000 0.017365 0.000000
# 6 0.000000 0.000000 0.000000 0.000000 0.000000 0.088807
#
#
# Mechanical properties :
#
#
# Convention : Reuss Voigt Hill
#
# Bulk Modulus (GPa) = 7.79787 37.40677 22.60232
# Shear Modulus (GPa) = 13.65466 28.77413 21.21439
#
# Velocity S-wave (km/s) = 2.90500 4.21703 3.62093
# Velocity P-wave (km/s) = 4.00891 6.84322 5.60807
#
# Compressibility (1/GPa) = 0.12824010
#
# Stress axis : x y z
#
# Youngs Moduli (GPa) = 8.53899 65.11790 85.88363
#
# Poissons Ratio (x) = 0.60792 -0.74523
# Poissons Ratio (y) = 0.07972 0.62494
# Poissons Ratio (z) = -0.07409 0.47383
#
# Static dielectric constant tensor:
#      x y z
#    x 1.587130 0.000000 0.000000 
#    y 0.000000 1.556890 0.000000 
#    z 0.000000 0.000000 1.549560 
# 
# From -- ./inp_files/25789.got.cif
#   From: 2010.05.17/outbox.cif.g08.bks.cpg/sg47_13_cif.got.tgz:25789.got - 2010.06.03 20:15:42.
