data_PCOD9382551
_publ_section_title
;
Structure prediction by ZEFSAII (Michael W. Deem and Ramdas Pophale) SiO2 
 PCOD9382551
Probable space group: P M M M
;
_chemical_formula_sum "Si O2"
_cell_formula_units_Z 64
_cell_length_a 24.438323
_cell_length_b 19.979956
_cell_length_c 7.684581
_cell_angle_alpha 90.000000
_cell_angle_beta 90.000000
_cell_angle_gamma 90.000000
_cell_volume 3752.201223
_symmetry_space_group_name_H-M "P M M M"
_symmetry_group_IT_number 47
_symmetry_cell_setting 'orthorhombic'
loop_
_space_group_symop_operation_xyz
x,y,z
-x,-y,z
x,-y,-z
-x,y,-z
-x,-y,-z
x,y,-z
-x,y,z
x,-y,z
loop_
_atom_site_type_symbol
_atom_site_label
_atom_site_fract_x
_atom_site_fract_y
_atom_site_fract_z
Si Si1 0.438397 0.075539 0.709113
Si Si2 0.241242 0.426442 0.712077
Si Si3 0.729138 0.715459 0.292655
Si Si4 0.061525 0.286634 0.713211
Si Si5 0.112862 0.574085 0.288339
Si Si6 0.835149 0.202873 0.290724
Si Si7 0.771548 0.075547 0.790995
Si Si8 0.332777 0.841584 0.794536
O O1 0.440464 0.072848 0.500000
O O2 0.500000 0.091753 0.770744
O O3 0.391459 0.127563 0.754734
O O4 0.424559 0.000000 0.771210
O O5 0.243587 0.428110 0.500000
O O6 0.259154 0.500000 0.773499
O O7 0.272913 0.360465 0.773622
O O8 0.176982 0.417964 0.757013
O O9 0.736100 0.710586 0.500000
O O10 0.783816 0.752756 0.224310
O O11 0.679289 0.765880 0.262422
O O12 0.061900 0.286796 0.500000
O O13 0.079223 0.361381 0.769493
O O14 0.107973 0.234374 0.770927
O O15 0.000000 0.271020 0.769176
O O16 0.110599 0.573832 0.500000
O O17 0.094662 0.500000 0.229951
O O18 0.835152 0.208391 0.500000
O O19 0.820815 0.126486 0.247615
O O20 0.716014 0.111041 0.721617
O O21 0.777754 0.000000 0.724614
O O22 0.766876 0.071633 0.000000
O O23 0.326182 0.841961 0.000000
#
# Coordination Sequence:
#
# PCOD9382551 Si02
#       8
#     8   8   8   8   8   8   8   8
#     4   9  18  32  48  66  91 123 154 179 202 233
#     4   8  12  19  34  55  79 108 141 175 210 250
#     4   9  15  25  41  59  82 112 144 178 214 251
#     4   9  15  22  33  51  78 108 134 165 206 251
#     4   8  12  18  29  48  76 108 138 166 199 243
#     4   9  16  26  40  59  80 103 133 166 205 255
#     4   9  18  31  45  61  81 104 130 167 213 252
#     4  10  19  29  43  65  91 116 143 176 211 248
#
# _framework density 17.056654000000002
#
# number of rings (size 3 to 8) (size 9 to 14) (size 15 to 20)
#    0.000    3.125    1.250    1.875    0.000    2.000 
#    0.000    1.875    0.000    1.125    0.000    2.625 
#    0.000    1.000    0.000    6.875    0.000    2.875 
#
# Total GULP energy -356520.471185 kJ/mol
# GULP energy per Si atom -5570.632362 kJ/mol
# Density = 1.701783 g / cm^3
# Si number density = 17.056654 Si / 1000 Ang^3
#
#
#
# Elastic Constant Matrix: (Units=GPa)
#
#
# Indices 1 2 3 4 5 6 
#
# 1 86.8549 79.7117 -1.1750 0.0000 0.0000 0.0000
# 2 79.7117 159.6921 7.4417 0.0000 0.0000 0.0000
# 3 -1.1750 7.4417 26.4517 0.0000 0.0000 0.0000
# 4 0.0000 0.0000 0.0000 -23.3113 0.0000 0.0000
# 5 0.0000 0.0000 0.0000 0.0000 -2.5109 0.0000
# 6 0.0000 0.0000 0.0000 0.0000 0.0000 27.1410
#
#
#
# Elastic Compliance Matrix: (Units=1/GPa)
#
#
# Indices 1 2 3 4 5 6 
#
# 1 0.021668 -0.011005 0.004059 0.000000 0.000000 0.000000
# 2 -0.011005 0.011935 -0.003846 0.000000 0.000000 0.000000
# 3 0.004059 -0.003846 0.039067 0.000000 0.000000 0.000000
# 4 0.000000 0.000000 0.000000 -0.042898 0.000000 0.000000
# 5 0.000000 0.000000 0.000000 0.000000 -0.398270 0.000000
# 6 0.000000 0.000000 0.000000 0.000000 0.000000 0.036845
#
#
# Mechanical properties :
#
#
# Convention : Reuss Voigt Hill
#
# Bulk Modulus (GPa) = 19.57552 49.43952 34.50752
# Shear Modulus (GPa) = -17.06256 12.73178 -2.16539
#
# Velocity S-wave (km/s) = -3.16626 2.73507 -1.12796
# Velocity P-wave (km/s) = 1.36573 6.24680 4.31030
#
# Compressibility (1/GPa) = 0.05108421
#
# Stress axis : x y z
#
# Youngs Moduli (GPa) = 46.15026 83.79010 25.59696
#
# Poissons Ratio (x) = 0.92212 -0.10389
# Poissons Ratio (y) = 0.50789 0.09846
# Poissons Ratio (z) = -0.18730 0.32229
#
# Static dielectric constant tensor:
#      x y z
#    x 1.562500 0.000000 0.000000 
#    y 0.000000 1.612620 0.000000 
#    z 0.000000 0.000000 1.634810 
# 
# From -- ./inp_files/11847.got.cif
#   From: 2010.05.17/outbox.cif.g08.bks.cpg/sg47_6_cif.got.tgz:11847.got - 2010.06.03 20:15:42.
