data_PCOD9382339
_publ_section_title
;
Structure prediction by ZEFSAII (Michael W. Deem and Ramdas Pophale) SiO2 
 PCOD9382339
Probable space group: P M M M
;
_chemical_formula_sum "Si O2"
_cell_formula_units_Z 48
_cell_length_a 9.634132
_cell_length_b 15.152251
_cell_length_c 17.790118
_cell_angle_alpha 90.000000
_cell_angle_beta 90.000000
_cell_angle_gamma 90.000000
_cell_volume 2596.979833
_symmetry_space_group_name_H-M "P M M M"
_symmetry_group_IT_number 47
_symmetry_cell_setting 'orthorhombic'
loop_
_space_group_symop_operation_xyz
x,y,z
-x,-y,z
x,-y,-z
-x,y,-z
-x,-y,-z
x,y,-z
-x,y,z
x,-y,z
loop_
_atom_site_type_symbol
_atom_site_label
_atom_site_fract_x
_atom_site_fract_y
_atom_site_fract_z
Si Si1 0.336286 0.601045 0.227399
Si Si2 0.153879 0.853190 0.144496
Si Si3 0.167926 0.399749 0.500000
Si Si4 0.830457 0.709969 0.351531
Si Si5 0.162545 0.099695 0.679291
Si Si6 0.648643 0.000000 0.088127
Si Si7 0.839665 0.651505 0.910893
O O1 0.500000 0.624515 0.225484
O O2 0.324211 0.500000 0.255090
O O3 0.247757 0.665410 0.281203
O O4 0.268114 0.604975 0.144520
O O5 0.166806 0.869402 0.233645
O O6 0.268686 0.913449 0.108917
O O7 0.165263 0.753562 0.115997
O O8 0.000000 0.884772 0.122856
O O9 0.221257 0.500000 0.500000
O O10 0.204958 0.346778 0.424952
O O11 0.000000 0.404049 0.500000
O O12 0.785614 0.812296 0.362375
O O13 0.000000 0.708015 0.339652
O O14 0.000000 0.092238 0.659148
O O15 0.221968 0.000000 0.671082
O O16 0.500000 0.000000 0.126947
O O17 0.634012 0.000000 0.000000
O O18 0.000000 0.621434 0.899147
O O19 0.809975 0.644222 0.000000
#
# Coordination Sequence:
#
# PCOD9382339 Si02
#       7
#     8   8   4   8   8   4   8
#     4  11  24  39  56  81 113 149 188 232 288 348
#     4  10  18  33  54  74  99 137 185 234 283 334
#     4   9  18  32  56  92 122 145 181 233 288 331
#     4  10  19  36  61  86 115 149 187 231 277 334
#     4   9  16  29  53  82 109 140 181 226 272 324
#     4  11  23  33  43  69 107 142 181 232 288 338
#     4  10  21  37  57  80 105 140 191 243 289 339
#
# _framework density 18.483007000000001
#
# number of rings (size 3 to 8) (size 9 to 14) (size 15 to 20)
#    0.000    2.000    2.500    1.750    0.000    4.667 
#    0.000    2.500    0.000    4.000    0.000    0.000 
#    0.000    1.333    0.000    0.000    0.000    0.000 
#
# Total GULP energy -267474.244980 kJ/mol
# GULP energy per Si atom -5572.380104 kJ/mol
# Density = 1.844094 g / cm^3
# Si number density = 18.483007 Si / 1000 Ang^3
#
#
#
# Elastic Constant Matrix: (Units=GPa)
#
#
# Indices 1 2 3 4 5 6 
#
# 1 71.5700 38.7344 31.5091 0.0000 0.0000 0.0000
# 2 38.7344 131.5383 49.8370 0.0000 0.0000 0.0000
# 3 31.5091 49.8370 82.9485 0.0000 0.0000 0.0000
# 4 0.0000 0.0000 0.0000 28.1001 0.0000 0.0000
# 5 0.0000 0.0000 0.0000 0.0000 12.1855 0.0000
# 6 0.0000 0.0000 0.0000 0.0000 0.0000 105.3196
#
#
#
# Elastic Compliance Matrix: (Units=1/GPa)
#
#
# Indices 1 2 3 4 5 6 
#
# 1 0.017940 -0.003497 -0.004714 0.000000 0.000000 0.000000
# 2 -0.003497 0.010525 -0.004995 0.000000 0.000000 0.000000
# 3 -0.004714 -0.004995 0.016847 0.000000 0.000000 0.000000
# 4 0.000000 0.000000 0.000000 0.035587 0.000000 0.000000
# 5 0.000000 0.000000 0.000000 0.000000 0.082065 0.000000
# 6 0.000000 0.000000 0.000000 0.000000 0.000000 0.009495
#
#
# Mechanical properties :
#
#
# Convention : Reuss Voigt Hill
#
# Bulk Modulus (GPa) = 52.90823 58.46866 55.68845
# Shear Modulus (GPa) = 24.36995 40.18612 32.27804
#
# Velocity S-wave (km/s) = 3.63506 4.66791 4.18348
# Velocity P-wave (km/s) = 6.80483 7.79455 7.31644
#
# Compressibility (1/GPa) = 0.01890065
#
# Stress axis : x y z
#
# Youngs Moduli (GPa) = 55.74079 95.01539 59.35635
#
# Poissons Ratio (x) = 0.33226 0.27979
# Poissons Ratio (y) = 0.19492 0.29649
# Poissons Ratio (z) = 0.26275 0.47461
#
# Static dielectric constant tensor:
#      x y z
#    x 1.644650 0.000000 0.000000 
#    y 0.000000 1.671180 0.000000 
#    z 0.000000 0.000000 1.644820 
# 
# From -- ./inp_files/9181.got.cif
#   From: 2010.05.17/outbox.cif.g08.bks.cpg/sg47_5_cif.got.tgz:9181.got - 2010.06.03 20:15:42.
