data_PCOD9382304
_publ_section_title
;
Structure prediction by ZEFSAII (Michael W. Deem and Ramdas Pophale) SiO2 
 PCOD9382304
Probable space group: P M M M
;
_chemical_formula_sum "Si O2"
_cell_formula_units_Z 64
_cell_length_a 7.662398
_cell_length_b 20.742964
_cell_length_c 20.701446
_cell_angle_alpha 90.000000
_cell_angle_beta 90.000000
_cell_angle_gamma 90.000000
_cell_volume 3290.305338
_symmetry_space_group_name_H-M "P M M M"
_symmetry_group_IT_number 47
_symmetry_cell_setting 'orthorhombic'
loop_
_space_group_symop_operation_xyz
x,y,z
-x,-y,z
x,-y,-z
-x,y,-z
-x,-y,-z
x,y,-z
-x,y,z
x,-y,z
loop_
_atom_site_type_symbol
_atom_site_label
_atom_site_fract_x
_atom_site_fract_y
_atom_site_fract_z
Si Si1 0.292525 0.287897 0.253113
Si Si2 0.713378 0.927404 0.074490
Si Si3 0.711489 0.111260 0.429793
Si Si4 0.205312 0.070895 0.713430
Si Si5 0.204221 0.430631 0.285367
Si Si6 0.288716 0.603855 0.569185
Si Si7 0.702054 0.170689 0.180145
Si Si8 0.712592 0.254003 0.395391
O O1 0.500000 0.276872 0.254769
O O2 0.270246 0.364748 0.253118
O O3 0.221648 0.240771 0.197684
O O4 0.224085 0.262227 0.321941
O O5 0.500000 0.927805 0.076920
O O6 0.779797 0.873540 0.123801
O O7 0.769590 0.000000 0.092486
O O8 0.762016 0.915618 0.000000
O O9 0.767905 0.085431 0.500000
O O10 0.500000 0.108874 0.428749
O O11 0.771589 0.079048 0.363497
O O12 0.767330 0.186293 0.424682
O O13 0.291963 0.127591 0.754575
O O14 0.000000 0.073784 0.727571
O O15 0.273059 0.000000 0.732227
O O16 0.281454 0.500000 0.265618
O O17 0.226881 0.424585 0.363053
O O18 0.000000 0.431932 0.271795
O O19 0.231138 0.576475 0.500000
O O20 0.500000 0.599775 0.571153
O O21 0.238495 0.679399 0.570821
O O22 0.500000 0.180583 0.161786
O O23 0.500000 0.252980 0.395740
#
# Coordination Sequence:
#
# PCOD9382304 Si02
#       8
#     8   8   8   8   8   8   8   8
#     4   9  17  30  50  72  92 117 154 197 238 278
#     4   8  14  25  45  78 115 143 166 195 233 277
#     4  10  19  32  51  69  85 111 153 204 253 302
#     4  11  24  37  47  64  94 128 160 200 250 297
#     4  10  21  34  46  63  91 124 153 188 239 293
#     4   9  17  29  46  66  87 113 147 187 233 289
#     4  10  18  32  55  78  99 128 167 206 238 276
#     4   8  13  26  45  65  86 106 136 186 240 284
#
# _framework density 19.451082
#
# number of rings (size 3 to 8) (size 9 to 14) (size 15 to 20)
#    0.000    2.625    1.250    2.625    0.000    5.500 
#    0.000    2.500    0.000    1.875    0.000    1.750 
#    0.000    0.500    0.000    6.250    0.000    1.000 
#
# Total GULP energy -356890.531439 kJ/mol
# GULP energy per Si atom -5576.414554 kJ/mol
# Density = 1.940681 g / cm^3
# Si number density = 19.451082 Si / 1000 Ang^3
#
#
#
# Elastic Constant Matrix: (Units=GPa)
#
#
# Indices 1 2 3 4 5 6 
#
# 1 34.8648 -1.6588 -1.3830 0.0000 0.0000 0.0000
# 2 -1.6588 136.2318 55.1942 0.0000 0.0000 0.0000
# 3 -1.3830 55.1942 85.9188 0.0000 0.0000 0.0000
# 4 0.0000 0.0000 0.0000 34.4055 0.0000 0.0000
# 5 0.0000 0.0000 0.0000 0.0000 -10.1134 0.0000
# 6 0.0000 0.0000 0.0000 0.0000 0.0000 14.6167
#
#
#
# Elastic Compliance Matrix: (Units=1/GPa)
#
#
# Indices 1 2 3 4 5 6 
#
# 1 0.028705 0.000219 0.000321 0.000000 0.000000 0.000000
# 2 0.000219 0.009925 -0.006372 0.000000 0.000000 0.000000
# 3 0.000321 -0.006372 0.015738 0.000000 0.000000 0.000000
# 4 0.000000 0.000000 0.000000 0.029065 0.000000 0.000000
# 5 0.000000 0.000000 0.000000 0.000000 -0.098879 0.000000
# 6 0.000000 0.000000 0.000000 0.000000 0.000000 0.068415
#
#
# Mechanical properties :
#
#
# Convention : Reuss Voigt Hill
#
# Bulk Modulus (GPa) = 23.41675 40.14669 31.78172
# Shear Modulus (GPa) = 63.39782 21.43929 42.41856
#
# Velocity S-wave (km/s) = 5.71526 3.32357 4.67495
# Velocity P-wave (km/s) = 7.45770 5.95086 6.74648
#
# Compressibility (1/GPa) = 0.04270447
#
# Stress axis : x y z
#
# Youngs Moduli (GPa) = 34.83666 100.75805 63.54239
#
# Poissons Ratio (x) = -0.02211 -0.02040
# Poissons Ratio (y) = -0.00764 0.40490
# Poissons Ratio (z) = -0.01119 0.64204
#
# Static dielectric constant tensor:
#      x y z
#    x 1.721560 0.000000 0.000000 
#    y 0.000000 1.735010 0.000000 
#    z 0.000000 0.000000 1.674840 
# 
# From -- ./inp_files/30169.got.cif
#   From: 2010.05.17/outbox.cif.g08.bks.cpg/sg47_16_cif.got.tgz:30169.got - 2010.06.03 20:15:42.
