data_PCOD9382203
_publ_section_title
;
Structure prediction by ZEFSAII (Michael W. Deem and Ramdas Pophale) SiO2 
 PCOD9382203
Probable space group: P M M M
;
_chemical_formula_sum "Si O2"
_cell_formula_units_Z 52
_cell_length_a 28.574526
_cell_length_b 9.082768
_cell_length_c 12.358655
_cell_angle_alpha 90.000000
_cell_angle_beta 90.000000
_cell_angle_gamma 90.000000
_cell_volume 3207.513293
_symmetry_space_group_name_H-M "P M M M"
_symmetry_group_IT_number 47
_symmetry_cell_setting 'orthorhombic'
loop_
_space_group_symop_operation_xyz
x,y,z
-x,-y,z
x,-y,-z
-x,y,-z
-x,-y,-z
x,y,-z
-x,y,z
x,-y,z
loop_
_atom_site_type_symbol
_atom_site_label
_atom_site_fract_x
_atom_site_fract_y
_atom_site_fract_z
Si Si1 0.177503 0.175767 0.127553
Si Si2 0.630155 0.172085 0.130097
Si Si3 0.556757 0.168545 0.500000
Si Si4 0.945286 0.835745 0.000000
Si Si5 0.274768 0.331827 0.131138
Si Si6 0.444999 0.675780 0.276968
Si Si7 0.000000 0.324111 0.628812
Si Si8 0.081556 0.821513 0.767763
O O1 0.225469 0.256364 0.157397
O O2 0.137084 0.205882 0.216798
O O3 0.184746 0.000000 0.126353
O O4 0.165236 0.215631 0.000000
O O5 0.679665 0.241266 0.166246
O O6 0.587633 0.257731 0.184782
O O7 0.628130 0.000000 0.158050
O O8 0.627452 0.184962 0.000000
O O9 0.500000 0.165978 0.500000
O O10 0.570124 0.253355 0.391119
O O11 0.573304 0.000000 0.500000
O O12 0.934318 0.765567 0.886155
O O13 0.000000 0.856173 0.000000
O O14 0.922117 0.000000 0.000000
O O15 0.276861 0.500000 0.169454
O O16 0.276370 0.333965 0.000000
O O17 0.500000 0.711305 0.259330
O O18 0.440748 0.500000 0.281672
O O19 0.046941 0.253172 0.681924
O O20 0.000000 0.500000 0.647754
O O21 0.000000 0.297823 0.500000
O O22 0.074624 0.000000 0.760831
#
# Coordination Sequence:
#
# PCOD9382203 Si02
#       8
#     8   8   4   4   8   8   4   8
#     4   9  16  27  47  75 103 127 153 190 241 297
#     4  10  20  33  49  70  99 136 176 213 249 294
#     4   9  17  31  51  73  97 125 161 205 249 292
#     4   9  14  24  46  74 102 124 146 184 235 282
#     4   9  17  29  45  67  99 135 167 199 238 291
#     4  10  20  33  50  73 101 132 167 209 258 310
#     4  11  25  40  49  64  96 135 172 209 246 283
#     4  10  18  31  53  76  98 126 160 196 236 288
#
# _framework density 16.211935
#
# number of rings (size 3 to 8) (size 9 to 14) (size 15 to 20)
#    0.000    2.385    1.538    1.846    0.000    6.154 
#    0.000    2.308    0.000    0.000    2.000    0.000 
#    0.000    0.000    0.000    0.000    0.000    0.000 
#
# Total GULP energy -289472.518403 kJ/mol
# GULP energy per Si atom -5566.779200 kJ/mol
# Density = 1.617504 g / cm^3
# Si number density = 16.211935 Si / 1000 Ang^3
#
#
#
# Elastic Constant Matrix: (Units=GPa)
#
#
# Indices 1 2 3 4 5 6 
#
# 1 114.9849 67.8899 42.3556 0.0000 0.0000 0.0000
# 2 67.8899 86.6373 39.5746 0.0000 0.0000 0.0000
# 3 42.3556 39.5746 57.1510 0.0000 0.0000 0.0000
# 4 0.0000 0.0000 0.0000 23.5698 0.0000 0.0000
# 5 0.0000 0.0000 0.0000 0.0000 5.8660 0.0000
# 6 0.0000 0.0000 0.0000 0.0000 0.0000 24.3400
#
#
#
# Elastic Compliance Matrix: (Units=1/GPa)
#
#
# Indices 1 2 3 4 5 6 
#
# 1 0.017096 -0.011130 -0.004964 0.000000 0.000000 0.000000
# 2 -0.011130 0.024128 -0.008459 0.000000 0.000000 0.000000
# 3 -0.004964 -0.008459 0.027034 0.000000 0.000000 0.000000
# 4 0.000000 0.000000 0.000000 0.042427 0.000000 0.000000
# 5 0.000000 0.000000 0.000000 0.000000 0.170474 0.000000
# 6 0.000000 0.000000 0.000000 0.000000 0.000000 0.041085
#
#
# Mechanical properties :
#
#
# Convention : Reuss Voigt Hill
#
# Bulk Modulus (GPa) = 52.21075 62.04593 57.12834
# Shear Modulus (GPa) = 13.23691 18.01870 15.62781
#
# Velocity S-wave (km/s) = 2.86053 3.33745 3.10815
# Velocity P-wave (km/s) = 6.57155 7.29427 6.94232
#
# Compressibility (1/GPa) = 0.01915314
#
# Stress axis : x y z
#
# Youngs Moduli (GPa) = 58.49197 41.44645 36.99099
#
# Poissons Ratio (x) = 0.46128 0.18361
# Poissons Ratio (y) = 0.65099 0.31290
# Poissons Ratio (z) = 0.29033 0.35059
#
# Static dielectric constant tensor:
#      x y z
#    x 1.562940 0.000000 0.000000 
#    y 0.000000 1.551770 0.000000 
#    z 0.000000 0.000000 1.533670 
# 
# From -- ./inp_files/20070.got.cif
#   From: 2010.05.17/outbox.cif.g08.bks.cpg/sg47_11_cif.got.tgz:20070.got - 2010.06.03 20:15:42.
