data_PCOD9382452
_publ_section_title
;
Structure prediction by ZEFSAII (Michael W. Deem and Ramdas Pophale) SiO2 
 PCOD9382452
Probable space group: P M M M
;
_chemical_formula_sum "Si O2"
_cell_formula_units_Z 44
_cell_length_a 14.482750
_cell_length_b 7.581297
_cell_length_c 22.149383
_cell_angle_alpha 90.000000
_cell_angle_beta 90.000000
_cell_angle_gamma 90.000000
_cell_volume 2431.958600
_symmetry_space_group_name_H-M "P M M M"
_symmetry_group_IT_number 47
_symmetry_cell_setting 'orthorhombic'
loop_
_space_group_symop_operation_xyz
x,y,z
-x,-y,z
x,-y,-z
-x,y,-z
-x,-y,-z
x,y,-z
-x,y,z
x,-y,z
loop_
_atom_site_type_symbol
_atom_site_label
_atom_site_fract_x
_atom_site_fract_y
_atom_site_fract_z
Si Si1 0.612750 0.203317 0.500000
Si Si2 0.894610 0.289595 0.196692
Si Si3 0.211000 0.289432 0.686076
Si Si4 0.395469 0.787483 0.369280
Si Si5 0.107172 0.211891 0.064939
Si Si6 0.891533 0.285299 0.566479
O O1 0.500000 0.200898 0.500000
O O2 0.637392 0.283275 0.435191
O O3 0.644154 0.000000 0.500000
O O4 0.901180 0.500000 0.203802
O O5 0.835596 0.220294 0.252859
O O6 0.853012 0.260555 0.129997
O O7 0.000000 0.218769 0.198230
O O8 0.196849 0.500000 0.685550
O O9 0.319609 0.257006 0.679921
O O10 0.163027 0.219365 0.624878
O O11 0.500000 0.726139 0.357562
O O12 0.399388 0.000000 0.374733
O O13 0.000000 0.273230 0.066386
O O14 0.105900 0.000000 0.063440
O O15 0.146511 0.272409 0.000000
O O16 0.857997 0.226594 0.500000
O O17 0.887017 0.500000 0.566462
O O18 0.000000 0.239618 0.571657
#
# Coordination Sequence:
#
# PCOD9382452 Si02
#       6
#     4   8   8   8   8   8
#     4   7  12  26  45  59  72  95 128 166 211 263
#     4   9  17  28  41  60  89 121 148 174 206 248
#     4  10  19  28  42  64  87 109 140 181 218 251
#     4   9  18  32  47  61  79 106 139 174 218 273
#     4   8  14  25  41  61  85 113 145 179 210 240
#     4   8  14  25  40  57  79 109 143 176 210 248
#
# _framework density 18.092414000000002
#
# number of rings (size 3 to 8) (size 9 to 14) (size 15 to 20)
#    0.000    3.364    0.000    2.727    1.273    3.636 
#    0.000    1.818    0.000    3.273    0.000    1.273 
#    0.000    0.727    0.000    8.000    0.000    6.182 
#
# Total GULP energy -245081.326189 kJ/mol
# GULP energy per Si atom -5570.030141 kJ/mol
# Density = 1.805124 g / cm^3
# Si number density = 18.092414 Si / 1000 Ang^3
#
#
#
# Elastic Constant Matrix: (Units=GPa)
#
#
# Indices 1 2 3 4 5 6 
#
# 1 62.5727 -0.0034 74.0117 0.0000 0.0000 0.0000
# 2 -0.0034 40.9213 8.3648 0.0000 0.0000 0.0000
# 3 74.0117 8.3648 180.2758 0.0000 0.0000 0.0000
# 4 0.0000 0.0000 0.0000 -4.5374 0.0000 0.0000
# 5 0.0000 0.0000 0.0000 0.0000 11.8386 0.0000
# 6 0.0000 0.0000 0.0000 0.0000 0.0000 15.6154
#
#
#
# Elastic Compliance Matrix: (Units=1/GPa)
#
#
# Indices 1 2 3 4 5 6 
#
# 1 0.031352 0.002659 -0.012995 0.000000 0.000000 0.000000
# 2 0.002659 0.024897 -0.002247 0.000000 0.000000 0.000000
# 3 -0.012995 -0.002247 0.010986 0.000000 0.000000 0.000000
# 4 0.000000 0.000000 0.000000 -0.220392 0.000000 0.000000
# 5 0.000000 0.000000 0.000000 0.000000 0.084470 0.000000
# 6 0.000000 0.000000 0.000000 0.000000 0.000000 0.064039
#
#
# Mechanical properties :
#
#
# Convention : Reuss Voigt Hill
#
# Bulk Modulus (GPa) = 23.77023 49.83513 36.80268
# Shear Modulus (GPa) = 144.75767 18.00976 81.38371
#
# Velocity S-wave (km/s) = 8.95454 3.15847 6.71416
# Velocity P-wave (km/s) = 10.95804 6.39576 8.97174
#
# Compressibility (1/GPa) = 0.04206943
#
# Stress axis : x y z
#
# Youngs Moduli (GPa) = 31.89585 40.16604 91.02231
#
# Poissons Ratio (x) = -0.10680 1.18282
# Poissons Ratio (y) = -0.08481 0.20451
# Poissons Ratio (z) = 0.41448 0.09025
#
# Static dielectric constant tensor:
#      x y z
#    x 1.617930 0.000000 0.000000 
#    y 0.000000 1.688150 0.000000 
#    z 0.000000 0.000000 1.674760 
# 
# From -- ./inp_files/16334.got.cif
#   From: 2010.05.17/outbox.cif.g08.bks.cpg/sg47_9_cif.got.tgz:16334.got - 2010.06.03 20:15:42.
