data_PCOD9382585
_publ_section_title
;
Structure prediction by ZEFSAII (Michael W. Deem and Ramdas Pophale) SiO2 
 PCOD9382585
Probable space group: P M M M
;
_chemical_formula_sum "Si O2"
_cell_formula_units_Z 64
_cell_length_a 22.147973
_cell_length_b 14.929160
_cell_length_c 9.202293
_cell_angle_alpha 90.000000
_cell_angle_beta 90.000000
_cell_angle_gamma 90.000000
_cell_volume 3042.744002
_symmetry_space_group_name_H-M "P M M M"
_symmetry_group_IT_number 47
_symmetry_cell_setting 'orthorhombic'
loop_
_space_group_symop_operation_xyz
x,y,z
-x,-y,z
x,-y,-z
-x,y,-z
-x,-y,-z
x,y,-z
-x,y,z
x,-y,z
loop_
_atom_site_type_symbol
_atom_site_label
_atom_site_fract_x
_atom_site_fract_y
_atom_site_fract_z
Si Si1 0.064939 0.159620 0.825569
Si Si2 0.435989 0.892526 0.668657
Si Si3 0.432881 0.392149 0.167081
Si Si4 0.810809 0.360345 0.831279
Si Si5 0.690892 0.357876 0.336055
Si Si6 0.807004 0.859351 0.833753
Si Si7 0.067254 0.646633 0.674274
Si Si8 0.307713 0.144948 0.663007
O O1 0.126527 0.110055 0.786279
O O2 0.064276 0.251606 0.734817
O O3 0.000000 0.114633 0.803829
O O4 0.069601 0.180336 0.000000
O O5 0.434774 0.859770 0.500000
O O6 0.500000 0.862151 0.733699
O O7 0.372484 0.868108 0.738510
O O8 0.437273 0.000000 0.663394
O O9 0.500000 0.362399 0.219192
O O10 0.434808 0.500000 0.163275
O O11 0.374181 0.369589 0.261054
O O12 0.425161 0.360854 0.000000
O O13 0.748672 0.391361 0.755269
O O14 0.809742 0.250409 0.827425
O O15 0.872154 0.390408 0.750043
O O16 0.812225 0.386152 0.000000
O O17 0.690393 0.394065 0.500000
O O18 0.700182 0.251298 0.346511
O O19 0.750666 0.891328 0.742150
O O20 0.797473 0.884543 0.000000
O O21 0.074663 0.644940 0.500000
O O22 0.000000 0.608022 0.707379
O O23 0.311485 0.107564 0.500000
#
# Coordination Sequence:
#
# PCOD9382585 Si02
#       8
#     8   8   8   8   8   8   8   8
#     4   8  13  21  32  46  67 100 141 175 203 246
#     4   8  14  26  44  63  82 107 141 178 212 249
#     4   9  19  36  54  69  88 117 151 183 214 254
#     4   9  16  26  39  54  78 114 151 182 213 257
#     4  10  19  29  44  68  95 118 142 179 226 270
#     4   8  14  23  35  52  76 107 138 169 208 252
#     4   9  15  21  31  50  77 108 142 181 223 262
#     4   9  17  27  41  63  88 112 139 175 217 259
#
# _framework density 21.033645
#
# number of rings (size 3 to 8) (size 9 to 14) (size 15 to 20)
#    0.000    3.250    0.000    2.625    0.000    5.250 
#    0.000    1.875    0.000    0.750    0.000    0.875 
#    0.000    1.000    0.000   11.500    0.000   10.500 
#
# Total GULP energy -356388.545891 kJ/mol
# GULP energy per Si atom -5568.571030 kJ/mol
# Density = 2.098577 g / cm^3
# Si number density = 21.033645 Si / 1000 Ang^3
#
#
#
# Elastic Constant Matrix: (Units=GPa)
#
#
# Indices 1 2 3 4 5 6 
#
# 1 280.2311 5.5204 104.2689 0.0000 0.0000 0.0000
# 2 5.5204 47.5296 4.5652 0.0000 0.0000 0.0000
# 3 104.2689 4.5652 92.5373 0.0000 0.0000 0.0000
# 4 0.0000 0.0000 0.0000 -6.5285 0.0000 0.0000
# 5 0.0000 0.0000 0.0000 0.0000 34.3323 0.0000
# 6 0.0000 0.0000 0.0000 0.0000 0.0000 82.1910
#
#
#
# Elastic Compliance Matrix: (Units=1/GPa)
#
#
# Indices 1 2 3 4 5 6 
#
# 1 0.006145 -0.000049 -0.006921 0.000000 0.000000 0.000000
# 2 -0.000049 0.021140 -0.000988 0.000000 0.000000 0.000000
# 3 -0.006921 -0.000988 0.018654 0.000000 0.000000 0.000000
# 4 0.000000 0.000000 0.000000 -0.153175 0.000000 0.000000
# 5 0.000000 0.000000 0.000000 0.000000 0.029127 0.000000
# 6 0.000000 0.000000 0.000000 0.000000 0.000000 0.012167
#
#
# Mechanical properties :
#
#
# Convention : Reuss Voigt Hill
#
# Bulk Modulus (GPa) = 33.30812 72.11187 52.70999
# Shear Modulus (GPa) = -124.94069 42.39520 -41.27274
#
# Velocity S-wave (km/s) = -7.71553 4.49440 -4.43451
# Velocity P-wave (km/s) = 7.96884 7.82888 1.05145
#
# Compressibility (1/GPa) = 0.03002271
#
# Stress axis : x y z
#
# Youngs Moduli (GPa) = 162.74031 47.30347 53.60774
#
# Poissons Ratio (x) = 0.00231 0.37104
# Poissons Ratio (y) = 0.00796 0.05296
# Poissons Ratio (z) = 1.12638 0.04673
#
# Static dielectric constant tensor:
#      x y z
#    x 1.818940 0.000000 0.000000 
#    y 0.000000 1.791160 0.000000 
#    z 0.000000 0.000000 1.736790 
# 
# From -- ./inp_files/11580.got.cif
#   From: 2010.05.17/outbox.cif.g08.bks.cpg/sg47_6_cif.got.tgz:11580.got - 2010.06.03 20:15:42.
