data_PCOD9382356
_publ_section_title
;
Structure prediction by ZEFSAII (Michael W. Deem and Ramdas Pophale) SiO2 
 PCOD9382356
Probable space group: P M M M
;
_chemical_formula_sum "Si O2"
_cell_formula_units_Z 48
_cell_length_a 19.560259
_cell_length_b 7.828737
_cell_length_c 15.647531
_cell_angle_alpha 90.000000
_cell_angle_beta 90.000000
_cell_angle_gamma 90.000000
_cell_volume 2396.139647
_symmetry_space_group_name_H-M "P M M M"
_symmetry_group_IT_number 47
_symmetry_cell_setting 'orthorhombic'
loop_
_space_group_symop_operation_xyz
x,y,z
-x,-y,z
x,-y,-z
-x,y,-z
-x,-y,-z
x,y,-z
-x,y,z
x,-y,z
loop_
_atom_site_type_symbol
_atom_site_label
_atom_site_fract_x
_atom_site_fract_y
_atom_site_fract_z
Si Si1 0.172308 0.799597 0.595351
Si Si2 0.578410 0.209187 0.000000
Si Si3 0.678627 0.301529 0.651033
Si Si4 0.078651 0.790441 0.250573
Si Si5 0.673462 0.206302 0.155725
Si Si6 0.422446 0.795809 0.500000
Si Si7 0.824760 0.208742 0.902732
O O1 0.166850 0.724613 0.500000
O O2 0.250492 0.789881 0.626954
O O3 0.121883 0.728933 0.667583
O O4 0.155352 0.000000 0.588867
O O5 0.619555 0.264214 0.915582
O O6 0.500000 0.265020 0.000000
O O7 0.578684 0.000000 0.000000
O O8 0.694068 0.500000 0.643732
O O9 0.658098 0.260615 0.747934
O O10 0.620002 0.257619 0.583421
O O11 0.118241 0.736633 0.164883
O O12 0.000000 0.737074 0.252851
O O13 0.079690 0.000000 0.250934
O O14 0.749704 0.263164 0.129270
O O15 0.673855 0.000000 0.154144
O O16 0.500000 0.728651 0.500000
O O17 0.425268 0.000000 0.500000
O O18 0.824275 0.000000 0.903104
O O19 0.836385 0.264466 0.000000
#
# Coordination Sequence:
#
# PCOD9382356 Si02
#       7
#     8   4   8   8   8   4   8
#     4  10  19  33  56  80 106 145 191 235 278 333
#     4   9  18  32  55  87 114 140 185 240 283 326
#     4  12  24  37  58  88 119 151 187 231 282 340
#     4   9  17  28  45  76 114 145 180 233 291 339
#     4  10  18  33  57  81 110 149 193 238 282 334
#     4  11  25  45  67  89 114 147 188 233 281 334
#     4   9  15  25  46  75 104 141 185 234 286 332
#
# _framework density 20.032221
#
# number of rings (size 3 to 8) (size 9 to 14) (size 15 to 20)
#    0.000    2.000    3.333    1.750    0.000    2.000 
#    0.000    5.417    0.000    1.000    0.000    1.167 
#    0.000    1.333    0.000    0.000    0.000    0.000 
#
# Total GULP energy -268067.634261 kJ/mol
# GULP energy per Si atom -5584.742380 kJ/mol
# Density = 1.998663 g / cm^3
# Si number density = 20.032221 Si / 1000 Ang^3
#
#
#
# Elastic Constant Matrix: (Units=GPa)
#
#
# Indices 1 2 3 4 5 6 
#
# 1 177.9741 -4.7790 115.8183 0.0000 0.0000 0.0000
# 2 -4.7790 25.5151 3.1127 0.0000 0.0000 0.0000
# 3 115.8183 3.1127 232.3857 0.0000 0.0000 0.0000
# 4 0.0000 0.0000 0.0000 -19.3089 0.0000 0.0000
# 5 0.0000 0.0000 0.0000 0.0000 35.0207 0.0000
# 6 0.0000 0.0000 0.0000 0.0000 0.0000 -18.6564
#
#
#
# Elastic Compliance Matrix: (Units=1/GPa)
#
#
# Indices 1 2 3 4 5 6 
#
# 1 0.008426 0.002094 -0.004228 0.000000 0.000000 0.000000
# 2 0.002094 0.039777 -0.001576 0.000000 0.000000 0.000000
# 3 -0.004228 -0.001576 0.006431 0.000000 0.000000 0.000000
# 4 0.000000 0.000000 0.000000 -0.051790 0.000000 0.000000
# 5 0.000000 0.000000 0.000000 0.000000 0.028555 0.000000
# 6 0.000000 0.000000 0.000000 0.000000 0.000000 -0.053601
#
#
# Mechanical properties :
#
#
# Convention : Reuss Voigt Hill
#
# Bulk Modulus (GPa) = 21.17994 73.79765 47.48880
# Shear Modulus (GPa) = 5227.12858 20.85928 2623.99393
#
# Velocity S-wave (km/s) = 51.13732 3.23040 36.23162
# Velocity P-wave (km/s) = 59.13794 7.12976 42.11965
#
# Compressibility (1/GPa) = 0.04721448
#
# Stress axis : x y z
#
# Youngs Moduli (GPa) = 118.67851 25.14013 155.49057
#
# Poissons Ratio (x) = -0.05264 0.65734
# Poissons Ratio (y) = -0.24851 0.24512
# Poissons Ratio (z) = 0.50172 0.03963
#
# Static dielectric constant tensor:
#      x y z
#    x 1.669050 0.000000 0.000000 
#    y 0.000000 1.723240 0.000000 
#    z 0.000000 0.000000 1.693250 
# 
# From -- ./inp_files/24433.got.cif
#   From: 2010.05.17/outbox.cif.g08.bks.cpg/sg47_13_cif.got.tgz:24433.got - 2010.06.03 20:15:42.
