data_PCOD9382074
_publ_section_title
;
Structure prediction by ZEFSAII (Michael W. Deem and Ramdas Pophale) SiO2 
 PCOD9382074
Probable space group: P M M M
;
_chemical_formula_sum "Si O2"
_cell_formula_units_Z 48
_cell_length_a 7.459402
_cell_length_b 15.695781
_cell_length_c 19.604070
_cell_angle_alpha 90.000000
_cell_angle_beta 90.000000
_cell_angle_gamma 90.000000
_cell_volume 2295.266868
_symmetry_space_group_name_H-M "P M M M"
_symmetry_group_IT_number 47
_symmetry_cell_setting 'orthorhombic'
loop_
_space_group_symop_operation_xyz
x,y,z
-x,-y,z
x,-y,-z
-x,y,-z
-x,-y,-z
x,y,-z
-x,y,z
x,-y,z
loop_
_atom_site_type_symbol
_atom_site_label
_atom_site_fract_x
_atom_site_fract_y
_atom_site_fract_z
Si Si1 0.783778 0.403599 0.323835
Si Si2 0.281146 0.000000 0.921712
Si Si3 0.287357 0.655954 0.830236
Si Si4 0.786538 0.744883 0.576974
Si Si5 0.280092 0.500000 0.921427
Si Si6 0.715549 0.904419 0.327754
Si Si7 0.719499 0.152438 0.176690
O O1 0.719524 0.500000 0.336022
O O2 0.738656 0.374705 0.247294
O O3 0.715925 0.333102 0.377078
O O4 0.000000 0.405112 0.328271
O O5 0.225452 0.916710 0.879237
O O6 0.500000 0.000000 0.922231
O O7 0.221793 0.000000 0.000000
O O8 0.500000 0.661050 0.842499
O O9 0.217554 0.583890 0.881158
O O10 0.217530 0.751817 0.837961
O O11 0.714922 0.746919 0.500000
O O12 0.760190 0.833171 0.616887
O O13 0.000000 0.732190 0.572355
O O14 0.500000 0.500000 0.919366
O O15 0.226826 0.500000 0.000000
O O16 0.500000 0.907809 0.324395
O O17 0.777353 0.875729 0.252477
O O18 0.780083 0.000000 0.343355
O O19 0.500000 0.152892 0.177482
#
# Coordination Sequence:
#
# PCOD9382074 Si02
#       7
#     8   4   8   8   4   8   8
#     4  10  20  34  54  78 102 130 170 216 256 304
#     4   9  16  26  42  70 108 139 164 204 257 303
#     4  10  18  30  52  75  99 135 173 209 251 301
#     4  10  22  38  54  76 106 135 166 211 264 311
#     4   9  18  30  45  73 108 133 162 210 261 305
#     4  10  19  33  55  78 104 137 173 212 254 304
#     4   9  16  27  45  71  99 131 170 208 246 292
#
# _framework density 20.912600999999999
#
# number of rings (size 3 to 8) (size 9 to 14) (size 15 to 20)
#    0.000    2.333    3.333    0.000    0.000    2.000 
#    0.000    6.667    0.000    1.000    0.000    2.333 
#    0.000    3.333    0.000    0.000    0.000    0.000 
#
# Total GULP energy -268115.567594 kJ/mol
# GULP energy per Si atom -5585.740992 kJ/mol
# Density = 2.086500 g / cm^3
# Si number density = 20.912601 Si / 1000 Ang^3
#
#
#
# Elastic Constant Matrix: (Units=GPa)
#
#
# Indices 1 2 3 4 5 6 
#
# 1 58.9308 0.8777 -5.8876 0.0000 0.0000 0.0000
# 2 0.8777 252.5808 132.8926 0.0000 0.0000 0.0000
# 3 -5.8876 132.8926 205.3381 0.0000 0.0000 0.0000
# 4 0.0000 0.0000 0.0000 34.0614 0.0000 0.0000
# 5 0.0000 0.0000 0.0000 0.0000 21.6491 0.0000
# 6 0.0000 0.0000 0.0000 0.0000 0.0000 9.4423
#
#
#
# Elastic Compliance Matrix: (Units=1/GPa)
#
#
# Indices 1 2 3 4 5 6 
#
# 1 0.017056 -0.000480 0.000800 0.000000 0.000000 0.000000
# 2 -0.000480 0.006017 -0.003908 0.000000 0.000000 0.000000
# 3 0.000800 -0.003908 0.007422 0.000000 0.000000 0.000000
# 4 0.000000 0.000000 0.000000 0.029359 0.000000 0.000000
# 5 0.000000 0.000000 0.000000 0.000000 0.046191 0.000000
# 6 0.000000 0.000000 0.000000 0.000000 0.000000 0.105907
#
#
# Mechanical properties :
#
#
# Convention : Reuss Voigt Hill
#
# Bulk Modulus (GPa) = 42.88398 85.84612 64.36505
# Shear Modulus (GPa) = 22.03604 38.96169 30.49886
#
# Velocity S-wave (km/s) = 3.24963 4.32101 3.82304
# Velocity P-wave (km/s) = 5.88480 8.12613 7.09454
#
# Compressibility (1/GPa) = 0.02331873
#
# Stress axis : x y z
#
# Youngs Moduli (GPa) = 58.63010 166.20019 134.73402
#
# Poissons Ratio (x) = 0.07978 -0.10775
# Poissons Ratio (y) = 0.02814 0.52651
# Poissons Ratio (z) = -0.04689 0.64948
#
# Static dielectric constant tensor:
#      x y z
#    x 1.825010 0.000000 0.000000 
#    y 0.000000 1.738420 0.000000 
#    z 0.000000 0.000000 1.694560 
# 
# From -- ./inp_files/26486.got.cif
#   From: 2010.05.17/outbox.cif.g08.bks.cpg/sg47_14_cif.got.tgz:26486.got - 2010.06.03 20:15:42.
