data_PCOD9382714
_publ_section_title
;
Structure prediction by ZEFSAII (Michael W. Deem and Ramdas Pophale) SiO2 
 PCOD9382714
Probable space group: P M M M
;
_chemical_formula_sum "Si O2"
_cell_formula_units_Z 60
_cell_length_a 19.700682
_cell_length_b 21.741806
_cell_length_c 8.217834
_cell_angle_alpha 90.000000
_cell_angle_beta 90.000000
_cell_angle_gamma 90.000000
_cell_volume 3519.931739
_symmetry_space_group_name_H-M "P M M M"
_symmetry_group_IT_number 47
_symmetry_cell_setting 'orthorhombic'
loop_
_space_group_symop_operation_xyz
x,y,z
-x,-y,z
x,-y,-z
-x,y,-z
-x,-y,-z
x,y,-z
-x,y,z
x,-y,z
loop_
_atom_site_type_symbol
_atom_site_label
_atom_site_fract_x
_atom_site_fract_y
_atom_site_fract_z
Si Si1 0.923018 0.249570 0.196791
Si Si2 0.848895 0.875063 0.195870
Si Si3 0.710899 0.568879 0.196115
Si Si4 0.920977 0.000000 0.199384
Si Si5 0.424651 0.634549 0.801587
Si Si6 0.793088 0.315163 0.306156
Si Si7 0.719087 0.809083 0.306121
Si Si8 0.575700 0.777386 0.196102
O O1 0.893582 0.183425 0.252111
O O2 0.869760 0.300130 0.255702
O O3 0.000000 0.258439 0.252337
O O4 0.922778 0.249302 0.000000
O O5 0.771702 0.860441 0.245279
O O6 0.881581 0.938697 0.253606
O O7 0.851670 0.875706 0.000000
O O8 0.725404 0.500000 0.255574
O O9 0.637466 0.593125 0.255393
O O10 0.764740 0.620820 0.242097
O O11 0.707835 0.566736 0.000000
O O12 0.000000 0.000000 0.249072
O O13 0.920973 0.000000 0.000000
O O14 0.500000 0.614314 0.750643
O O15 0.415607 0.705854 0.751818
O O16 0.423907 0.634141 0.000000
O O17 0.787886 0.315372 0.500000
O O18 0.748134 0.257012 0.243134
O O19 0.722606 0.807956 0.500000
O O20 0.641004 0.814473 0.254863
O O21 0.500000 0.797280 0.249619
O O22 0.575988 0.777837 0.000000
#
# Coordination Sequence:
#
# PCOD9382714 Si02
#       8
#     8   8   8   4   8   8   8   8
#     4   9  17  30  50  74  96 119 150 189 231 273
#     4   9  17  29  48  73 101 132 161 191 226 268
#     4  10  19  30  47  68  89 118 156 194 233 281
#     4   9  16  28  49  77 106 133 164 197 227 266
#     4   8  14  25  42  65  91 117 148 188 232 276
#     4  10  20  32  46  65  91 123 154 190 234 277
#     4  10  19  30  45  67  95 127 164 200 233 274
#     4   9  16  27  46  69  92 121 156 197 245 288
#
# _framework density 17.045784999999999
#
# number of rings (size 3 to 8) (size 9 to 14) (size 15 to 20)
#    0.000    2.733    1.333    2.000    0.000    3.733 
#    0.000    1.667    0.000    2.400    0.000    4.200 
#    0.000    3.733    0.000    0.000    0.000    0.000 
#
# Total GULP energy -334420.176610 kJ/mol
# GULP energy per Si atom -5573.669610 kJ/mol
# Density = 1.700699 g / cm^3
# Si number density = 17.045785 Si / 1000 Ang^3
#
#
#
# Elastic Constant Matrix: (Units=GPa)
#
#
# Indices 1 2 3 4 5 6 
#
# 1 165.5893 86.8522 13.1822 0.0000 0.0000 0.0000
# 2 86.8522 110.6342 12.4401 0.0000 0.0000 0.0000
# 3 13.1822 12.4401 7.7583 0.0000 0.0000 0.0000
# 4 0.0000 0.0000 0.0000 8.2146 0.0000 0.0000
# 5 0.0000 0.0000 0.0000 0.0000 -0.3106 0.0000
# 6 0.0000 0.0000 0.0000 0.0000 0.0000 24.1444
#
#
#
# Elastic Compliance Matrix: (Units=1/GPa)
#
#
# Indices 1 2 3 4 5 6 
#
# 1 0.010463 -0.007582 -0.005621 0.000000 0.000000 0.000000
# 2 -0.007582 0.016521 -0.013608 0.000000 0.000000 0.000000
# 3 -0.005621 -0.013608 0.160264 0.000000 0.000000 0.000000
# 4 0.000000 0.000000 0.000000 0.121734 0.000000 0.000000
# 5 0.000000 0.000000 0.000000 0.000000 -3.219817 0.000000
# 6 0.000000 0.000000 0.000000 0.000000 0.000000 0.041418
#
#
# Mechanical properties :
#
#
# Convention : Reuss Voigt Hill
#
# Bulk Modulus (GPa) = 7.48354 56.54789 32.01571
# Shear Modulus (GPa) = -1.80424 17.84350 8.01963
#
# Velocity S-wave (km/s) = -1.02993 3.23894 2.17140
# Velocity P-wave (km/s) = 1.72784 6.87268 5.01095
#
# Compressibility (1/GPa) = 0.13362668
#
# Stress axis : x y z
#
# Youngs Moduli (GPa) = 95.57179 60.52819 6.23969
#
# Poissons Ratio (x) = 0.45893 0.03507
# Poissons Ratio (y) = 0.72464 0.08491
# Poissons Ratio (z) = 0.53718 0.82368
#
# Static dielectric constant tensor:
#      x y z
#    x 1.585390 0.000000 0.000000 
#    y 0.000000 1.564630 0.000000 
#    z 0.000000 0.000000 1.589550 
# 
# From -- ./inp_files/10057.got.cif
#   From: 2010.05.17/outbox.cif.g08.bks.cpg/sg47_6_cif.got.tgz:10057.got - 2010.06.03 20:15:42.
