data_PCOD9382035
_publ_section_title
;
Structure prediction by ZEFSAII (Michael W. Deem and Ramdas Pophale) SiO2 
 PCOD9382035
Probable space group: P M M M
;
_chemical_formula_sum "Si O2"
_cell_formula_units_Z 52
_cell_length_a 7.918972
_cell_length_b 29.173369
_cell_length_c 12.266622
_cell_angle_alpha 90.000000
_cell_angle_beta 90.000000
_cell_angle_gamma 90.000000
_cell_volume 2833.872946
_symmetry_space_group_name_H-M "P M M M"
_symmetry_group_IT_number 47
_symmetry_cell_setting 'orthorhombic'
loop_
_space_group_symop_operation_xyz
x,y,z
-x,-y,z
x,-y,-z
-x,y,-z
-x,-y,-z
x,y,-z
-x,y,z
x,-y,z
loop_
_atom_site_type_symbol
_atom_site_label
_atom_site_fract_x
_atom_site_fract_y
_atom_site_fract_z
Si Si1 0.700837 0.402402 0.284589
Si Si2 0.294478 0.347689 0.500000
Si Si3 0.296793 0.950544 0.127435
Si Si4 0.797835 0.148072 0.123916
Si Si5 0.201546 0.325279 0.876059
Si Si6 0.804830 0.244141 0.500000
Si Si7 0.799418 0.500000 0.626218
Si Si8 0.207945 0.236217 0.258890
O O1 0.500000 0.399925 0.279579
O O2 0.757228 0.375162 0.392663
O O3 0.766702 0.374084 0.181225
O O4 0.748545 0.454780 0.307174
O O5 0.500000 0.342518 0.500000
O O6 0.206765 0.298993 0.500000
O O7 0.500000 0.950649 0.128558
O O8 0.240113 0.901866 0.174108
O O9 0.239708 0.000000 0.173448
O O10 0.242040 0.950048 0.000000
O O11 0.738150 0.192092 0.190007
O O12 0.000000 0.151941 0.117625
O O13 0.729698 0.149188 0.000000
O O14 0.264425 0.283517 0.799141
O O15 0.000000 0.319133 0.882409
O O16 0.268225 0.322842 0.000000
O O17 0.730555 0.230873 0.616985
O O18 0.000000 0.228841 0.500000
O O19 0.730340 0.500000 0.500000
O O20 0.000000 0.500000 0.616702
O O21 0.000000 0.237605 0.261956
#
# Coordination Sequence:
#
# PCOD9382035 Si02
#       8
#     8   4   8   8   8   4   4   8
#     4  11  22  37  56  79 109 137 164 202 250 299
#     4  10  20  33  51  76 105 133 159 200 251 291
#     4   8  14  25  40  59  86 119 154 193 237 284
#     4   9  16  26  41  63  93 125 156 192 236 287
#     4  10  20  35  55  77 103 136 173 208 242 289
#     4  10  18  30  51  73  95 127 167 205 237 286
#     4  11  23  37  58  85 108 131 165 207 249 296
#     4   9  17  29  47  72  98 127 162 201 244 285
#
# _framework density 18.349447000000001
#
# number of rings (size 3 to 8) (size 9 to 14) (size 15 to 20)
#    0.000    2.385    2.308    1.615    0.000    3.385 
#    0.000    3.462    0.000    4.154    0.000    0.538 
#    0.000    4.308    0.000    0.000    0.000    0.000 
#
# Total GULP energy -289779.162737 kJ/mol
# GULP energy per Si atom -5572.676206 kJ/mol
# Density = 1.830768 g / cm^3
# Si number density = 18.349447 Si / 1000 Ang^3
#
#
#
# Elastic Constant Matrix: (Units=GPa)
#
#
# Indices 1 2 3 4 5 6 
#
# 1 12.8331 -1.1291 7.5561 0.0000 0.0000 0.0000
# 2 -1.1291 145.5800 63.8008 0.0000 0.0000 0.0000
# 3 7.5561 63.8008 119.2764 0.0000 0.0000 0.0000
# 4 0.0000 0.0000 0.0000 28.7792 0.0000 0.0000
# 5 0.0000 0.0000 0.0000 0.0000 8.8739 0.0000
# 6 0.0000 0.0000 0.0000 0.0000 0.0000 44.9238
#
#
#
# Elastic Compliance Matrix: (Units=1/GPa)
#
#
# Indices 1 2 3 4 5 6 
#
# 1 0.082545 0.003830 -0.007278 0.000000 0.000000 0.000000
# 2 0.003830 0.009150 -0.005137 0.000000 0.000000 0.000000
# 3 -0.007278 -0.005137 0.011593 0.000000 0.000000 0.000000
# 4 0.000000 0.000000 0.000000 0.034747 0.000000 0.000000
# 5 0.000000 0.000000 0.000000 0.000000 0.112690 0.000000
# 6 0.000000 0.000000 0.000000 0.000000 0.000000 0.022260
#
#
# Mechanical properties :
#
#
# Convention : Reuss Voigt Hill
#
# Bulk Modulus (GPa) = 11.61195 46.46059 29.03627
# Shear Modulus (GPa) = 15.68078 30.34615 23.01347
#
# Velocity S-wave (km/s) = 2.92646 4.07109 3.54528
# Velocity P-wave (km/s) = 4.21437 6.89008 5.71114
#
# Compressibility (1/GPa) = 0.08611819
#
# Stress axis : x y z
#
# Youngs Moduli (GPa) = 12.11454 109.28881 86.26130
#
# Poissons Ratio (x) = -0.41854 0.62778
# Poissons Ratio (y) = -0.04639 0.44312
# Poissons Ratio (z) = 0.08817 0.56141
#
# Static dielectric constant tensor:
#      x y z
#    x 1.656480 0.000000 0.000000 
#    y 0.000000 1.483880 0.000000 
#    z 0.000000 0.000000 1.649210 
# 
# From -- ./inp_files/15548.got.cif
#   From: 2010.05.17/outbox.cif.g08.bks.cpg/sg47_8_cif.got.tgz:15548.got - 2010.06.03 20:15:42.
