data_PCOD9382710
_publ_section_title
;
Structure prediction by ZEFSAII (Michael W. Deem and Ramdas Pophale) SiO2 
 PCOD9382710
Probable space group: P M M M
;
_chemical_formula_sum "Si O2"
_cell_formula_units_Z 40
_cell_length_a 21.019066
_cell_length_b 9.155350
_cell_length_c 12.715198
_cell_angle_alpha 90.000000
_cell_angle_beta 90.000000
_cell_angle_gamma 90.000000
_cell_volume 2446.873361
_symmetry_space_group_name_H-M "P M M M"
_symmetry_group_IT_number 47
_symmetry_cell_setting 'orthorhombic'
loop_
_space_group_symop_operation_xyz
x,y,z
-x,-y,z
x,-y,-z
-x,y,-z
-x,-y,-z
x,y,-z
-x,y,z
x,-y,z
loop_
_atom_site_type_symbol
_atom_site_label
_atom_site_fract_x
_atom_site_fract_y
_atom_site_fract_z
Si Si1 0.925233 0.177210 0.000000
Si Si2 0.869640 0.325728 0.376728
Si Si3 0.570887 0.829957 0.128038
Si Si4 0.694412 0.336770 0.124277
Si Si5 0.177772 0.175115 0.822409
Si Si6 0.000000 0.164524 0.373788
O O1 0.881896 0.219765 0.101739
O O2 0.000000 0.226373 0.000000
O O3 0.927440 0.000000 0.000000
O O4 0.856473 0.294302 0.500000
O O5 0.869502 0.500000 0.363737
O O6 0.826029 0.245690 0.292851
O O7 0.938160 0.257289 0.349017
O O8 0.500000 0.780714 0.160495
O O9 0.630079 0.735764 0.168117
O O10 0.578688 0.000000 0.157358
O O11 0.571564 0.826367 0.000000
O O12 0.706477 0.500000 0.166994
O O13 0.755783 0.234417 0.133910
O O14 0.683331 0.351124 0.000000
O O15 0.177034 0.000000 0.817378
O O16 0.000000 0.149117 0.500000
O O17 0.000000 0.000000 0.327620
#
# Coordination Sequence:
#
# PCOD9382710 Si02
#       6
#     4   8   8   8   8   4
#     4   9  20  36  51  71  96 125 165 212 254 291
#     4  10  21  36  52  72  99 126 155 201 259 307
#     4   8  14  25  42  64  91 124 162 201 239 283
#     4  10  19  30  45  66  97 132 166 202 241 294
#     4  11  21  34  54  73  96 130 169 211 251 298
#     4   9  17  31  51  72  91 116 153 193 239 296
#
# _framework density 16.347393
#
# number of rings (size 3 to 8) (size 9 to 14) (size 15 to 20)
#    0.000    2.400    1.000    2.700    1.400    3.600 
#    0.000    2.000    0.000    2.400    0.000    0.000 
#    0.000    0.800    0.000    8.400    0.000    4.000 
#
# Total GULP energy -222672.002075 kJ/mol
# GULP energy per Si atom -5566.800052 kJ/mol
# Density = 1.631019 g / cm^3
# Si number density = 16.347393 Si / 1000 Ang^3
#
#
#
# Elastic Constant Matrix: (Units=GPa)
#
#
# Indices 1 2 3 4 5 6 
#
# 1 106.8162 43.6998 26.8023 0.0000 0.0000 0.0000
# 2 43.6998 80.7955 34.9793 0.0000 0.0000 0.0000
# 3 26.8023 34.9793 50.4590 0.0000 0.0000 0.0000
# 4 0.0000 0.0000 0.0000 18.5451 0.0000 0.0000
# 5 0.0000 0.0000 0.0000 0.0000 4.1345 0.0000
# 6 0.0000 0.0000 0.0000 0.0000 0.0000 38.4642
#
#
#
# Elastic Compliance Matrix: (Units=1/GPa)
#
#
# Indices 1 2 3 4 5 6 
#
# 1 0.012282 -0.005456 -0.002742 0.000000 0.000000 0.000000
# 2 -0.005456 0.020108 -0.011041 0.000000 0.000000 0.000000
# 3 -0.002742 -0.011041 0.028928 0.000000 0.000000 0.000000
# 4 0.000000 0.000000 0.000000 0.053923 0.000000 0.000000
# 5 0.000000 0.000000 0.000000 0.000000 0.241869 0.000000
# 6 0.000000 0.000000 0.000000 0.000000 0.000000 0.025998
#
#
# Mechanical properties :
#
#
# Convention : Reuss Voigt Hill
#
# Bulk Modulus (GPa) = 43.78158 49.89260 46.83709
# Shear Modulus (GPa) = 11.64959 21.06805 16.35882
#
# Velocity S-wave (km/s) = 2.67240 3.59384 3.16681
# Velocity P-wave (km/s) = 6.03013 6.91429 6.48729
#
# Compressibility (1/GPa) = 0.02284066
#
# Stress axis : x y z
#
# Youngs Moduli (GPa) = 81.42070 49.73123 34.56805
#
# Poissons Ratio (x) = 0.27133 0.09477
# Poissons Ratio (y) = 0.44423 0.38168
# Poissons Ratio (z) = 0.22322 0.54910
#
# Static dielectric constant tensor:
#      x y z
#    x 1.645820 0.000000 0.000000 
#    y 0.000000 1.559260 0.000000 
#    z 0.000000 0.000000 1.561290 
# 
# From -- ./inp_files/15128.got.cif
#   From: 2010.05.17/outbox.cif.g08.bks.cpg/sg47_8_cif.got.tgz:15128.got - 2010.06.03 20:15:42.
