data_PCOD9382498
_publ_section_title
;
Structure prediction by ZEFSAII (Michael W. Deem and Ramdas Pophale) SiO2 
 PCOD9382498
Probable space group: P M M M
;
_chemical_formula_sum "Si O2"
_cell_formula_units_Z 52
_cell_length_a 9.174134
_cell_length_b 18.588497
_cell_length_c 17.901998
_cell_angle_alpha 90.000000
_cell_angle_beta 90.000000
_cell_angle_gamma 90.000000
_cell_volume 3052.887911
_symmetry_space_group_name_H-M "P M M M"
_symmetry_group_IT_number 47
_symmetry_cell_setting 'orthorhombic'
loop_
_space_group_symop_operation_xyz
x,y,z
-x,-y,z
x,-y,-z
-x,y,-z
-x,-y,-z
x,y,-z
-x,y,z
x,-y,z
loop_
_atom_site_type_symbol
_atom_site_label
_atom_site_fract_x
_atom_site_fract_y
_atom_site_fract_z
Si Si1 0.670493 0.419099 0.909972
Si Si2 0.168251 0.721957 0.135664
Si Si3 0.324541 0.138542 0.081650
Si Si4 0.324298 0.919206 0.242879
Si Si5 0.178212 0.657492 0.413037
Si Si6 0.830391 0.500000 0.591046
Si Si7 0.829873 0.217631 0.696935
O O1 0.500000 0.408352 0.891217
O O2 0.712692 0.500000 0.886931
O O3 0.767045 0.356566 0.876267
O O4 0.681635 0.415600 0.000000
O O5 0.260293 0.781637 0.091347
O O6 0.177108 0.743901 0.222420
O O7 0.000000 0.725022 0.112183
O O8 0.500000 0.141953 0.082915
O O9 0.279931 0.095455 0.156130
O O10 0.281027 0.109261 0.000000
O O11 0.500000 0.914467 0.245751
O O12 0.256174 0.856630 0.293209
O O13 0.280767 0.000000 0.264060
O O14 0.217182 0.666490 0.500000
O O15 0.231095 0.578123 0.386627
O O16 0.225992 0.724839 0.363469
O O17 0.000000 0.655349 0.409427
O O18 0.829400 0.500000 0.500000
O O19 0.000000 0.500000 0.614408
O O20 0.000000 0.202235 0.680908
#
# Coordination Sequence:
#
# PCOD9382498 Si02
#       7
#     8   8   8   8   8   4   8
#     4   9  18  32  47  60  77 109 155 199 231 261
#     4  10  19  29  41  62  92 119 144 179 226 276
#     4   9  17  29  46  66  86 112 147 187 228 268
#     4   9  18  32  49  68  90 119 153 188 228 274
#     4   8  13  24  44  69  95 122 153 187 221 261
#     4   7  10  18  36  64  93 117 142 175 216 256
#     4   9  18  31  46  69  96 121 149 182 225 273
#
# _framework density 17.033052000000001
#
# number of rings (size 3 to 8) (size 9 to 14) (size 15 to 20)
#    0.000    3.154    0.000    2.308    0.000    4.000 
#    1.385    2.308    0.000    0.923    0.000    7.538 
#    0.000    1.846    0.000    0.000    0.000    0.000 
#
# Total GULP energy -289520.346695 kJ/mol
# GULP energy per Si atom -5567.698975 kJ/mol
# Density = 1.699428 g / cm^3
# Si number density = 17.033052 Si / 1000 Ang^3
#
#
#
# Elastic Constant Matrix: (Units=GPa)
#
#
# Indices 1 2 3 4 5 6 
#
# 1 7.1856 29.8761 9.9823 0.0000 0.0000 0.0000
# 2 29.8761 151.9378 46.0202 0.0000 0.0000 0.0000
# 3 9.9823 46.0202 46.3682 0.0000 0.0000 0.0000
# 4 0.0000 0.0000 0.0000 14.2840 0.0000 0.0000
# 5 0.0000 0.0000 0.0000 0.0000 11.5608 0.0000
# 6 0.0000 0.0000 0.0000 0.0000 0.0000 23.5421
#
#
#
# Elastic Compliance Matrix: (Units=1/GPa)
#
#
# Indices 1 2 3 4 5 6 
#
# 1 0.778789 -0.146349 -0.022410 0.000000 0.000000 0.000000
# 2 -0.146349 0.036912 -0.005129 0.000000 0.000000 0.000000
# 3 -0.022410 -0.005129 0.031481 0.000000 0.000000 0.000000
# 4 0.000000 0.000000 0.000000 0.070009 0.000000 0.000000
# 5 0.000000 0.000000 0.000000 0.000000 0.086499 0.000000
# 6 0.000000 0.000000 0.000000 0.000000 0.000000 0.042477
#
#
# Mechanical properties :
#
#
# Convention : Reuss Voigt Hill
#
# Bulk Modulus (GPa) = 2.00237 41.91653 21.95945
# Shear Modulus (GPa) = 3.20428 17.85156 10.52792
#
# Velocity S-wave (km/s) = 1.37306 3.24088 2.48883
# Velocity P-wave (km/s) = 1.92142 6.21826 4.60210
#
# Compressibility (1/GPa) = 0.49940868
#
# Stress axis : x y z
#
# Youngs Moduli (GPa) = 1.28404 27.09129 31.76494
#
# Poissons Ratio (x) = 3.96478 0.71184
# Poissons Ratio (y) = 0.18792 0.16292
# Poissons Ratio (z) = 0.02877 0.13895
#
# Static dielectric constant tensor:
#      x y z
#    x 1.572520 0.000000 0.000000 
#    y 0.000000 1.585470 0.000000 
#    z 0.000000 0.000000 1.581360 
# 
# From -- ./inp_files/9583.got.cif
#   From: 2010.05.17/outbox.cif.g08.bks.cpg/sg47_5_cif.got.tgz:9583.got - 2010.06.03 20:15:42.
