data_PCOD9382314
_publ_section_title
;
Structure prediction by ZEFSAII (Michael W. Deem and Ramdas Pophale) SiO2 
 PCOD9382314
Probable space group: P M M M
;
_chemical_formula_sum "Si O2"
_cell_formula_units_Z 52
_cell_length_a 19.856459
_cell_length_b 7.398341
_cell_length_c 16.268376
_cell_angle_alpha 90.000000
_cell_angle_beta 90.000000
_cell_angle_gamma 90.000000
_cell_volume 2389.903413
_symmetry_space_group_name_H-M "P M M M"
_symmetry_group_IT_number 47
_symmetry_cell_setting 'orthorhombic'
loop_
_space_group_symop_operation_xyz
x,y,z
-x,-y,z
x,-y,-z
-x,y,-z
-x,-y,-z
x,y,-z
-x,y,z
x,-y,z
loop_
_atom_site_type_symbol
_atom_site_label
_atom_site_fract_x
_atom_site_fract_y
_atom_site_fract_z
Si Si1 0.924260 0.784898 0.239629
Si Si2 0.848020 0.716968 0.591911
Si Si3 0.421687 0.500000 0.900935
Si Si4 0.687841 0.794451 0.861279
Si Si5 0.427672 0.280345 0.404452
Si Si6 0.832187 0.220413 0.089351
Si Si7 0.289437 0.279949 0.675408
O O1 0.896625 0.758753 0.331848
O O2 0.874128 0.715093 0.168488
O O3 0.000000 0.712994 0.231860
O O4 0.927267 0.000000 0.226940
O O5 0.865503 0.783229 0.500000
O O6 0.845786 0.500000 0.587078
O O7 0.773565 0.777669 0.620168
O O8 0.500000 0.500000 0.873030
O O9 0.377774 0.328966 0.871043
O O10 0.421812 0.500000 0.000000
O O11 0.754083 0.722740 0.907397
O O12 0.713218 0.790995 0.767360
O O13 0.673409 0.000000 0.886875
O O14 0.425101 0.229461 0.500000
O O15 0.500000 0.221520 0.369869
O O16 0.426972 0.500000 0.401824
O O17 0.360666 0.219315 0.360559
O O18 0.830344 0.000000 0.093279
O O19 0.861235 0.270075 0.000000
O O20 0.288558 0.500000 0.678620
#
# Coordination Sequence:
#
# PCOD9382314 Si02
#       7
#     8   8   4   8   8   8   8
#     4  10  21  37  58  85 117 153 197 251 312 378
#     4  10  21  36  56  82 116 163 214 260 308 367
#     4  11  26  46  66  92 126 166 213 260 312 376
#     4  11  22  39  64  94 125 160 207 260 313 373
#     4   8  14  25  44  73 107 143 185 234 289 348
#     4   9  18  35  61  90 119 152 194 247 309 378
#     4  10  18  32  55  84 116 154 198 253 306 367
#
# _framework density 21.758199000000001
#
# number of rings (size 3 to 8) (size 9 to 14) (size 15 to 20)
#    0.000    2.231    2.308    1.385    0.000    4.923 
#    0.000    3.846    0.000    1.385    0.000    2.154 
#    0.000    0.000    0.000    0.000    0.000    0.000 
#
# Total GULP energy -290374.919570 kJ/mol
# GULP energy per Si atom -5584.133069 kJ/mol
# Density = 2.170868 g / cm^3
# Si number density = 21.758199 Si / 1000 Ang^3
#
#
#
# Elastic Constant Matrix: (Units=GPa)
#
#
# Indices 1 2 3 4 5 6 
#
# 1 159.6992 26.9002 66.0612 0.0000 0.0000 0.0000
# 2 26.9002 91.9994 6.6421 0.0000 0.0000 0.0000
# 3 66.0612 6.6421 137.1770 0.0000 0.0000 0.0000
# 4 0.0000 0.0000 0.0000 6.5131 0.0000 0.0000
# 5 0.0000 0.0000 0.0000 0.0000 65.9725 0.0000
# 6 0.0000 0.0000 0.0000 0.0000 0.0000 23.0566
#
#
#
# Elastic Compliance Matrix: (Units=1/GPa)
#
#
# Indices 1 2 3 4 5 6 
#
# 1 0.008213 -0.002123 -0.003852 0.000000 0.000000 0.000000
# 2 -0.002123 0.011457 0.000468 0.000000 0.000000 0.000000
# 3 -0.003852 0.000468 0.009122 0.000000 0.000000 0.000000
# 4 0.000000 0.000000 0.000000 0.153537 0.000000 0.000000
# 5 0.000000 0.000000 0.000000 0.000000 0.015158 0.000000
# 6 0.000000 0.000000 0.000000 0.000000 0.000000 0.043371
#
#
# Mechanical properties :
#
#
# Convention : Reuss Voigt Hill
#
# Bulk Modulus (GPa) = 56.25450 65.34252 60.79851
# Shear Modulus (GPa) = 19.39490 38.39324 28.89407
#
# Velocity S-wave (km/s) = 2.98884 4.20520 3.64808
# Velocity P-wave (km/s) = 6.14991 7.32630 6.76373
#
# Compressibility (1/GPa) = 0.01777636
#
# Stress axis : x y z
#
# Youngs Moduli (GPa) = 121.75811 87.28508 109.62008
#
# Poissons Ratio (x) = 0.18533 0.42230
# Poissons Ratio (y) = 0.25853 -0.05128
# Poissons Ratio (z) = 0.46906 -0.04083
#
# Static dielectric constant tensor:
#      x y z
#    x 1.773840 0.000000 0.000000 
#    y 0.000000 1.803530 0.000000 
#    z 0.000000 0.000000 1.816550 
# 
# From -- ./inp_files/25014.got.cif
#   From: 2010.05.17/outbox.cif.g08.bks.cpg/sg47_13_cif.got.tgz:25014.got - 2010.06.03 20:15:42.
