data_PCOD9382469
_publ_section_title
;
Structure prediction by ZEFSAII (Michael W. Deem and Ramdas Pophale) SiO2 
 PCOD9382469
Probable space group: P M M M
;
_chemical_formula_sum "Si O2"
_cell_formula_units_Z 48
_cell_length_a 22.679920
_cell_length_b 20.405138
_cell_length_c 8.271929
_cell_angle_alpha 90.000000
_cell_angle_beta 90.000000
_cell_angle_gamma 90.000000
_cell_volume 3828.140358
_symmetry_space_group_name_H-M "P M M M"
_symmetry_group_IT_number 47
_symmetry_cell_setting 'orthorhombic'
loop_
_space_group_symop_operation_xyz
x,y,z
-x,-y,z
x,-y,-z
-x,y,-z
-x,-y,-z
x,y,-z
-x,y,z
x,-y,z
loop_
_atom_site_type_symbol
_atom_site_label
_atom_site_fract_x
_atom_site_fract_y
_atom_site_fract_z
Si Si1 0.000000 0.074358 0.807126
Si Si2 0.769527 0.922993 0.695123
Si Si3 0.929988 0.428954 0.694110
Si Si4 0.431491 0.079867 0.500000
Si Si5 0.068238 0.711447 0.807769
Si Si6 0.885496 0.846869 0.692367
Si Si7 0.359960 0.920489 0.818320
O O1 0.058208 0.112997 0.754687
O O2 0.000000 0.000000 0.742389
O O3 0.000000 0.071735 0.000000
O O4 0.761909 0.916745 0.500000
O O5 0.824658 0.879500 0.750112
O O6 0.708175 0.904868 0.779555
O O7 0.781670 0.000000 0.727137
O O8 0.924750 0.426559 0.500000
O O9 0.906027 0.500000 0.749223
O O10 0.907678 0.360554 0.764067
O O11 0.000000 0.429616 0.732858
O O12 0.500000 0.098499 0.500000
O O13 0.399188 0.101755 0.334554
O O14 0.428614 0.000000 0.500000
O O15 0.105416 0.771466 0.739539
O O16 0.000000 0.716628 0.746303
O O17 0.066025 0.717684 0.000000
O O18 0.885347 0.852239 0.500000
O O19 0.363831 0.000000 0.819193
O O20 0.376465 0.898205 0.000000
#
# Coordination Sequence:
#
# PCOD9382469 Si02
#       7
#     4   8   8   4   8   8   8
#     4  11  23  35  43  53  72  91 114 157 205 247
#     4   9  17  30  44  56  71  92 124 164 199 234
#     4   8  14  25  41  58  73  90 114 140 169 216
#     4   9  16  26  40  58  82 103 119 147 182 222
#     4  10  19  29  40  54  76  97 114 145 189 234
#     4  11  21  31  45  58  70  94 125 157 196 240
#     4   9  16  26  41  58  76  99 124 151 186 226
#
# _framework density 12.538724999999999
#
# number of rings (size 3 to 8) (size 9 to 14) (size 15 to 20)
#    0.000    2.500    1.667    2.250    0.000    4.000 
#    0.000    5.000    0.000    0.000    0.000    0.000 
#    0.000    0.000    0.000    0.000    0.000    0.000 
#
# Total GULP energy -267349.959559 kJ/mol
# GULP energy per Si atom -5569.790824 kJ/mol
# Density = 1.251019 g / cm^3
# Si number density = 12.538725 Si / 1000 Ang^3
#
#
#
# Elastic Constant Matrix: (Units=GPa)
#
#
# Indices 1 2 3 4 5 6 
#
# 1 71.0199 29.1200 38.1174 0.0000 0.0000 0.0000
# 2 29.1200 62.0188 22.1710 0.0000 0.0000 0.0000
# 3 38.1174 22.1710 56.4183 0.0000 0.0000 0.0000
# 4 0.0000 0.0000 0.0000 9.8714 0.0000 0.0000
# 5 0.0000 0.0000 0.0000 0.0000 3.2374 0.0000
# 6 0.0000 0.0000 0.0000 0.0000 0.0000 3.0405
#
#
#
# Elastic Compliance Matrix: (Units=1/GPa)
#
#
# Indices 1 2 3 4 5 6 
#
# 1 0.024087 -0.006390 -0.013763 0.000000 0.000000 0.000000
# 2 -0.006390 0.020455 -0.003721 0.000000 0.000000 0.000000
# 3 -0.013763 -0.003721 0.028486 0.000000 0.000000 0.000000
# 4 0.000000 0.000000 0.000000 0.101302 0.000000 0.000000
# 5 0.000000 0.000000 0.000000 0.000000 0.308894 0.000000
# 6 0.000000 0.000000 0.000000 0.000000 0.000000 0.328895
#
#
# Mechanical properties :
#
#
# Convention : Reuss Voigt Hill
#
# Bulk Modulus (GPa) = 39.55701 40.91931 40.23816
# Shear Modulus (GPa) = 5.75843 9.89976 7.82910
#
# Velocity S-wave (km/s) = 2.14534 2.81292 2.50150
# Velocity P-wave (km/s) = 6.14435 6.57687 6.36428
#
# Compressibility (1/GPa) = 0.02527997
#
# Stress axis : x y z
#
# Youngs Moduli (GPa) = 41.51578 48.88875 35.10556
#
# Poissons Ratio (x) = 0.31239 0.48315
# Poissons Ratio (y) = 0.26528 0.13063
# Poissons Ratio (z) = 0.57137 0.18192
#
# Static dielectric constant tensor:
#      x y z
#    x 1.395000 0.000000 0.000000 
#    y 0.000000 1.407680 0.000000 
#    z 0.000000 0.000000 1.439420 
# 
# From -- ./inp_files/11687.got.cif
#   From: 2010.05.17/outbox.cif.g08.bks.cpg/sg47_6_cif.got.tgz:11687.got - 2010.06.03 20:15:42.
