data_PCOD9382988
_publ_section_title
;
Structure prediction by ZEFSAII (Michael W. Deem and Ramdas Pophale) SiO2 
 PCOD9382988
Probable space group: P M M M
;
_chemical_formula_sum "Si O2"
_cell_formula_units_Z 52
_cell_length_a 19.081279
_cell_length_b 19.398395
_cell_length_c 8.958030
_cell_angle_alpha 90.000000
_cell_angle_beta 90.000000
_cell_angle_gamma 90.000000
_cell_volume 3315.780649
_symmetry_space_group_name_H-M "P M M M"
_symmetry_group_IT_number 47
_symmetry_cell_setting 'orthorhombic'
loop_
_space_group_symop_operation_xyz
x,y,z
-x,-y,z
x,-y,-z
-x,y,-z
-x,-y,-z
x,y,-z
-x,y,z
x,-y,z
loop_
_atom_site_type_symbol
_atom_site_label
_atom_site_fract_x
_atom_site_fract_y
_atom_site_fract_z
Si Si1 0.577505 0.299459 0.820434
Si Si2 0.353414 0.920842 0.820210
Si Si3 0.796160 0.665510 0.678198
Si Si4 0.081642 0.579261 0.179583
Si Si5 0.284138 0.214304 0.820450
Si Si6 0.656606 0.420439 0.320506
Si Si7 0.500000 0.916259 0.330158
O O1 0.500000 0.277097 0.771258
O O2 0.641455 0.249645 0.777950
O O3 0.597288 0.373775 0.754395
O O4 0.577595 0.302787 0.000000
O O5 0.294021 0.865609 0.778390
O O6 0.428379 0.898183 0.753950
O O7 0.339477 0.000000 0.774787
O O8 0.359832 0.919334 0.000000
O O9 0.800415 0.668956 0.500000
O O10 0.865991 0.632532 0.745038
O O11 0.775306 0.739964 0.743785
O O12 0.731223 0.614587 0.718389
O O13 0.098832 0.500000 0.223074
O O14 0.000000 0.591322 0.217208
O O15 0.088027 0.583503 0.000000
O O16 0.276332 0.219196 0.000000
O O17 0.649502 0.417124 0.500000
O O18 0.654613 0.500000 0.274550
O O19 0.500000 0.890882 0.500000
O O20 0.500000 0.000000 0.333631
#
# Coordination Sequence:
#
# PCOD9382988 Si02
#       7
#     8   8   8   8   8   8   4
#     4   9  18  30  42  57  77 103 139 182 225 267
#     4   9  17  29  46  66  86 112 150 193 234 279
#     4  10  19  31  47  67  93 120 151 186 221 266
#     4   9  18  32  50  73 100 128 156 185 219 261
#     4   9  18  31  47  63  85 117 150 186 230 277
#     4   9  18  31  44  58  78 106 140 178 221 263
#     4   9  17  27  39  59  87 115 142 179 232 287
#
# _framework density 15.682582
#
# number of rings (size 3 to 8) (size 9 to 14) (size 15 to 20)
#    0.000    2.846    0.000    1.615    1.077    4.308 
#    0.000    2.308    0.000    0.000    0.000    0.000 
#    0.000    0.615    0.000    7.077    0.000    2.000 
#
# Total GULP energy -289798.742182 kJ/mol
# GULP energy per Si atom -5573.052734 kJ/mol
# Density = 1.564689 g / cm^3
# Si number density = 15.682582 Si / 1000 Ang^3
#
#
#
# Elastic Constant Matrix: (Units=GPa)
#
#
# Indices 1 2 3 4 5 6 
#
# 1 79.1306 47.2697 27.2166 0.0000 0.0000 0.0000
# 2 47.2697 104.0976 28.2599 0.0000 0.0000 0.0000
# 3 27.2166 28.2599 13.7143 0.0000 0.0000 0.0000
# 4 0.0000 0.0000 0.0000 13.7380 0.0000 0.0000
# 5 0.0000 0.0000 0.0000 0.0000 14.8364 0.0000
# 6 0.0000 0.0000 0.0000 0.0000 0.0000 26.2368
#
#
#
# Elastic Compliance Matrix: (Units=1/GPa)
#
#
# Indices 1 2 3 4 5 6 
#
# 1 0.042690 0.008203 -0.101624 0.000000 0.000000 0.000000
# 2 0.008203 0.023379 -0.064456 0.000000 0.000000 0.000000
# 3 -0.101624 -0.064456 0.407411 0.000000 0.000000 0.000000
# 4 0.000000 0.000000 0.000000 0.072791 0.000000 0.000000
# 5 0.000000 0.000000 0.000000 0.000000 0.067402 0.000000
# 6 0.000000 0.000000 0.000000 0.000000 0.000000 0.038114
#
#
# Mechanical properties :
#
#
# Convention : Reuss Voigt Hill
#
# Bulk Modulus (GPa) = 6.34001 44.71498 25.52750
# Shear Modulus (GPa) = 4.90140 17.24200 11.07170
#
# Velocity S-wave (km/s) = 1.76979 3.31937 2.65992
# Velocity P-wave (km/s) = 2.86840 6.57764 5.07411
#
# Compressibility (1/GPa) = 0.15772842
#
# Stress axis : x y z
#
# Youngs Moduli (GPa) = 23.42461 42.77259 2.45452
#
# Poissons Ratio (x) = -0.35087 0.24944
# Poissons Ratio (y) = -0.19216 0.15821
# Poissons Ratio (z) = 2.38050 2.75693
#
# Static dielectric constant tensor:
#      x y z
#    x 1.503620 0.000000 0.000000 
#    y 0.000000 1.545330 0.000000 
#    z 0.000000 0.000000 1.524260 
# 
# From -- ./inp_files/9585.got.cif
#   From: 2010.05.17/outbox.cif.g08.bks.cpg/sg47_5_cif.got.tgz:9585.got - 2010.06.03 20:15:42.
