data_PCOD9382738
_publ_section_title
;
Structure prediction by ZEFSAII (Michael W. Deem and Ramdas Pophale) SiO2 
 PCOD9382738
Probable space group: P M M M
;
_chemical_formula_sum "Si O2"
_cell_formula_units_Z 52
_cell_length_a 8.660212
_cell_length_b 20.970461
_cell_length_c 16.362026
_cell_angle_alpha 90.000000
_cell_angle_beta 90.000000
_cell_angle_gamma 90.000000
_cell_volume 2971.485257
_symmetry_space_group_name_H-M "P M M M"
_symmetry_group_IT_number 47
_symmetry_cell_setting 'orthorhombic'
loop_
_space_group_symop_operation_xyz
x,y,z
-x,-y,z
x,-y,-z
-x,y,-z
-x,-y,-z
x,y,-z
-x,y,z
x,-y,z
loop_
_atom_site_type_symbol
_atom_site_label
_atom_site_fract_x
_atom_site_fract_y
_atom_site_fract_z
Si Si1 0.186168 0.925529 0.592329
Si Si2 0.315388 0.169791 0.273169
Si Si3 0.813214 0.569859 0.403288
Si Si4 0.684698 0.572844 0.000000
Si Si5 0.821304 0.327595 0.880741
Si Si6 0.314626 0.810413 0.089616
Si Si7 0.820077 0.692877 0.690796
O O1 0.234631 0.905655 0.500000
O O2 0.252824 0.882842 0.664602
O O3 0.000000 0.921562 0.594762
O O4 0.228378 0.000000 0.602287
O O5 0.500000 0.167139 0.271341
O O6 0.259017 0.162820 0.178044
O O7 0.264010 0.239181 0.306581
O O8 0.784902 0.571952 0.500000
O O9 0.758156 0.500000 0.372780
O O10 0.754575 0.635027 0.363082
O O11 0.000000 0.570377 0.391417
O O12 0.749030 0.611343 0.077044
O O13 0.736104 0.500000 0.000000
O O14 0.500000 0.575061 0.000000
O O15 0.730389 0.264051 0.906369
O O16 0.815936 0.331867 0.783529
O O17 0.000000 0.320258 0.904708
O O18 0.500000 0.816532 0.089718
O O19 0.259437 0.835071 0.000000
O O20 0.000000 0.704460 0.667866
#
# Coordination Sequence:
#
# PCOD9382738 Si02
#       7
#     8   8   8   4   8   8   8
#     4   9  19  37  59  80 105 141 179 212 255 312
#     4  10  20  32  50  80 110 135 171 215 255 302
#     4   8  14  26  45  67  89 118 160 204 245 295
#     4  11  23  35  45  59  85 123 162 201 254 319
#     4  10  19  30  46  68  91 117 156 206 253 296
#     4   9  17  31  51  71  98 137 170 199 245 304
#     4   9  18  31  48  72 101 130 161 204 257 305
#
# _framework density 17.499668
#
# number of rings (size 3 to 8) (size 9 to 14) (size 15 to 20)
#    0.000    2.692    0.769    2.077    0.000    3.692 
#    0.000    3.846    0.000    0.923    0.000    4.308 
#    0.000    0.000    0.000    0.000    0.000    0.000 
#
# Total GULP energy -289559.217263 kJ/mol
# GULP energy per Si atom -5568.446486 kJ/mol
# Density = 1.745984 g / cm^3
# Si number density = 17.499668 Si / 1000 Ang^3
#
#
#
# Elastic Constant Matrix: (Units=GPa)
#
#
# Indices 1 2 3 4 5 6 
#
# 1 12.6773 21.3606 19.6219 0.0000 0.0000 0.0000
# 2 21.3606 92.5495 77.5623 0.0000 0.0000 0.0000
# 3 19.6219 77.5623 119.5411 0.0000 0.0000 0.0000
# 4 0.0000 0.0000 0.0000 23.3684 0.0000 0.0000
# 5 0.0000 0.0000 0.0000 0.0000 21.2294 0.0000
# 6 0.0000 0.0000 0.0000 0.0000 0.0000 12.3023
#
#
#
# Elastic Compliance Matrix: (Units=1/GPa)
#
#
# Indices 1 2 3 4 5 6 
#
# 1 0.129989 -0.026565 -0.004100 0.000000 0.000000 0.000000
# 2 -0.026565 0.029112 -0.014528 0.000000 0.000000 0.000000
# 3 -0.004100 -0.014528 0.018465 0.000000 0.000000 0.000000
# 4 0.000000 0.000000 0.000000 0.042793 0.000000 0.000000
# 5 0.000000 0.000000 0.000000 0.000000 0.047105 0.000000
# 6 0.000000 0.000000 0.000000 0.000000 0.000000 0.081286
#
#
# Mechanical properties :
#
#
# Convention : Reuss Voigt Hill
#
# Bulk Modulus (GPa) = 11.47081 51.31750 31.39416
# Shear Modulus (GPa) = 10.67928 18.46156 14.57042
#
# Velocity S-wave (km/s) = 2.47302 3.25155 2.88863
# Velocity P-wave (km/s) = 3.83712 6.59434 5.39485
#
# Compressibility (1/GPa) = 0.08717777
#
# Stress axis : x y z
#
# Youngs Moduli (GPa) = 7.69295 34.35009 54.15704
#
# Poissons Ratio (x) = 0.91252 0.22206
# Poissons Ratio (y) = 0.20437 0.78681
# Poissons Ratio (z) = 0.03154 0.49905
#
# Static dielectric constant tensor:
#      x y z
#    x 1.603760 0.000000 0.000000 
#    y 0.000000 1.576970 0.000000 
#    z 0.000000 0.000000 1.629780 
# 
# From -- ./inp_files/26753.got.cif
#   From: 2010.05.17/outbox.cif.g08.bks.cpg/sg47_14_cif.got.tgz:26753.got - 2010.06.03 20:15:42.
