data_PCOD9382268
_publ_section_title
;
Structure prediction by ZEFSAII (Michael W. Deem and Ramdas Pophale) SiO2 
 PCOD9382268
Probable space group: P M M M
;
_chemical_formula_sum "Si O2"
_cell_formula_units_Z 44
_cell_length_a 7.446529
_cell_length_b 17.677143
_cell_length_c 13.780722
_cell_angle_alpha 90.000000
_cell_angle_beta 90.000000
_cell_angle_gamma 90.000000
_cell_volume 1814.002712
_symmetry_space_group_name_H-M "P M M M"
_symmetry_group_IT_number 47
_symmetry_cell_setting 'orthorhombic'
loop_
_space_group_symop_operation_xyz
x,y,z
-x,-y,z
x,-y,-z
-x,y,-z
-x,-y,-z
x,y,-z
-x,y,z
x,-y,z
loop_
_atom_site_type_symbol
_atom_site_label
_atom_site_fract_x
_atom_site_fract_y
_atom_site_fract_z
Si Si1 0.215438 0.131786 0.500000
Si Si2 0.218418 0.416148 0.675091
Si Si3 0.219867 0.916228 0.000000
Si Si4 0.207209 0.798735 0.846805
Si Si5 0.707181 0.918035 0.708326
Si Si6 0.780601 0.306989 0.500000
Si Si7 0.219756 0.630681 0.110109
O O1 0.278242 0.087544 0.593911
O O2 0.277446 0.219650 0.500000
O O3 0.000000 0.133079 0.500000
O O4 0.268384 0.500000 0.640343
O O5 0.276401 0.352428 0.597754
O O6 0.274997 0.408210 0.788356
O O7 0.000000 0.411815 0.676942
O O8 0.280734 0.867082 0.090130
O O9 0.000000 0.920199 0.000000
O O10 0.288372 0.000000 0.000000
O O11 0.212361 0.837422 0.742512
O O12 0.282502 0.717240 0.871097
O O13 0.000000 0.789678 0.874757
O O14 0.500000 0.917508 0.736205
O O15 0.785707 0.000000 0.741923
O O16 0.000000 0.307726 0.500000
O O17 0.000000 0.626462 0.108960
O O18 0.275087 0.607051 0.000000
#
# Coordination Sequence:
#
# PCOD9382268 Si02
#       7
#     4   8   4   8   8   4   8
#     4  11  22  37  59  81 100 133 180 224 264 313
#     4   9  16  25  40  65 103 146 174 200 253 326
#     4   9  16  26  45  73  98 124 168 221 265 303
#     4  10  18  32  53  76 101 135 179 224 265 308
#     4  11  24  39  53  74 108 143 172 214 272 324
#     4   9  17  30  47  73 102 129 170 218 262 311
#     4   9  16  27  44  69 101 137 179 225 269 309
#
# _framework density 24.255752000000001
#
# number of rings (size 3 to 8) (size 9 to 14) (size 15 to 20)
#    0.000    2.273    0.909    3.000    0.000    7.636 
#    0.000    2.273    0.000    1.636    0.000    0.000 
#    0.000   29.818    0.000    6.545    0.000    7.273 
#
# Total GULP energy -245468.450295 kJ/mol
# GULP energy per Si atom -5578.828416 kJ/mol
# Density = 2.420054 g / cm^3
# Si number density = 24.255752 Si / 1000 Ang^3
#
#
#
# Elastic Constant Matrix: (Units=GPa)
#
#
# Indices 1 2 3 4 5 6 
#
# 1 79.7209 6.5740 -1.8944 0.0000 0.0000 0.0000
# 2 6.5740 117.1717 18.2032 0.0000 0.0000 0.0000
# 3 -1.8944 18.2032 115.9837 0.0000 0.0000 0.0000
# 4 0.0000 0.0000 0.0000 26.5597 0.0000 0.0000
# 5 0.0000 0.0000 0.0000 0.0000 -59.6695 0.0000
# 6 0.0000 0.0000 0.0000 0.0000 0.0000 5.8190
#
#
#
# Elastic Compliance Matrix: (Units=1/GPa)
#
#
# Indices 1 2 3 4 5 6 
#
# 1 0.012614 -0.000758 0.000325 0.000000 0.000000 0.000000
# 2 -0.000758 0.008793 -0.001392 0.000000 0.000000 0.000000
# 3 0.000325 -0.001392 0.008846 0.000000 0.000000 0.000000
# 4 0.000000 0.000000 0.000000 0.037651 0.000000 0.000000
# 5 0.000000 0.000000 0.000000 0.000000 -0.016759 0.000000
# 6 0.000000 0.000000 0.000000 0.000000 0.000000 0.171850
#
#
# Mechanical properties :
#
#
# Convention : Reuss Voigt Hill
#
# Bulk Modulus (GPa) = 37.59142 39.84909 38.72025
# Shear Modulus (GPa) = 21.23018 13.87473 17.55246
#
# Velocity S-wave (km/s) = 2.96170 2.39428 2.69298
# Velocity P-wave (km/s) = 5.21796 4.90997 5.06631
#
# Compressibility (1/GPa) = 0.02660182
#
# Stress axis : x y z
#
# Youngs Moduli (GPa) = 79.27690 113.72230 113.04858
#
# Poissons Ratio (x) = 0.08623 -0.03674
# Poissons Ratio (y) = 0.06011 0.15742
# Poissons Ratio (z) = -0.02577 0.15835
#
# Static dielectric constant tensor:
#      x y z
#    x 1.983480 0.000000 0.000000 
#    y 0.000000 1.910660 0.000000 
#    z 0.000000 0.000000 2.405820 
# 
# From -- ./inp_files/20989.got.cif
#   From: 2010.05.17/outbox.cif.g08.bks.cpg/sg47_11_cif.got.tgz:20989.got - 2010.06.03 20:15:42.
