data_PCOD9382249
_publ_section_title
;
Structure prediction by ZEFSAII (Michael W. Deem and Ramdas Pophale) SiO2 
 PCOD9382249
Probable space group: P M M M
;
_chemical_formula_sum "Si O2"
_cell_formula_units_Z 40
_cell_length_a 12.159974
_cell_length_b 21.252795
_cell_length_c 7.485562
_cell_angle_alpha 90.000000
_cell_angle_beta 90.000000
_cell_angle_gamma 90.000000
_cell_volume 1934.519498
_symmetry_space_group_name_H-M "P M M M"
_symmetry_group_IT_number 47
_symmetry_cell_setting 'orthorhombic'
loop_
_space_group_symop_operation_xyz
x,y,z
-x,-y,z
x,-y,-z
-x,y,-z
-x,-y,-z
x,y,-z
-x,y,z
x,-y,z
loop_
_atom_site_type_symbol
_atom_site_label
_atom_site_fract_x
_atom_site_fract_y
_atom_site_fract_z
Si Si1 0.000000 0.738998 0.780617
Si Si2 0.230498 0.313608 0.210379
Si Si3 0.758023 0.930977 0.710421
Si Si4 0.374011 0.428545 0.781818
Si Si5 0.373490 0.190646 0.283636
Si Si6 0.000000 0.115392 0.213911
O O1 0.110943 0.705139 0.718185
O O2 0.000000 0.812004 0.724486
O O3 0.000000 0.739817 0.000000
O O4 0.291293 0.375131 0.283781
O O5 0.309203 0.253275 0.228879
O O6 0.214608 0.325388 0.000000
O O7 0.732128 0.933336 0.500000
O O8 0.690963 0.871301 0.782789
O O9 0.887812 0.917547 0.727236
O O10 0.732524 0.000000 0.786434
O O11 0.500000 0.415009 0.727697
O O12 0.346659 0.500000 0.728292
O O13 0.373591 0.427415 0.000000
O O14 0.372675 0.189597 0.500000
O O15 0.500000 0.191390 0.224721
O O16 0.000000 0.115294 0.000000
#
# Coordination Sequence:
#
# PCOD9382249 Si02
#       6
#     4   8   8   8   8   4
#     4   9  18  30  47  73 101 125 158 203 243 283
#     4  10  18  32  52  73  99 132 166 201 243 291
#     4  10  21  36  53  73  98 129 165 203 245 298
#     4   8  14  25  44  72 101 128 162 202 240 281
#     4  10  21  35  51  73  99 126 161 206 250 293
#     4  11  20  34  53  75 102 129 159 206 253 289
#
# _framework density 20.676969
#
# number of rings (size 3 to 8) (size 9 to 14) (size 15 to 20)
#    0.000    2.400    2.000    1.800    0.000    3.200 
#    0.000    3.000    0.000    3.600    0.000    5.600 
#    0.000    1.600    0.000    0.000    0.000    0.000 
#
# Total GULP energy -223390.507719 kJ/mol
# GULP energy per Si atom -5584.762693 kJ/mol
# Density = 2.062991 g / cm^3
# Si number density = 20.676969 Si / 1000 Ang^3
#
#
#
# Elastic Constant Matrix: (Units=GPa)
#
#
# Indices 1 2 3 4 5 6 
#
# 1 125.0497 75.8213 -14.0686 0.0000 0.0000 0.0000
# 2 75.8213 167.2580 -5.7684 0.0000 0.0000 0.0000
# 3 -14.0686 -5.7684 56.3267 0.0000 0.0000 0.0000
# 4 0.0000 0.0000 0.0000 16.1986 0.0000 0.0000
# 5 0.0000 0.0000 0.0000 0.0000 2.1906 0.0000
# 6 0.0000 0.0000 0.0000 0.0000 0.0000 50.4705
#
#
#
# Elastic Compliance Matrix: (Units=1/GPa)
#
#
# Indices 1 2 3 4 5 6 
#
# 1 0.011320 -0.005052 0.002310 0.000000 0.000000 0.000000
# 2 -0.005052 0.008255 -0.000416 0.000000 0.000000 0.000000
# 3 0.002310 -0.000416 0.018288 0.000000 0.000000 0.000000
# 4 0.000000 0.000000 0.000000 0.061734 0.000000 0.000000
# 5 0.000000 0.000000 0.000000 0.000000 0.456493 0.000000
# 6 0.000000 0.000000 0.000000 0.000000 0.000000 0.019814
#
#
# Mechanical properties :
#
#
# Convention : Reuss Voigt Hill
#
# Bulk Modulus (GPa) = 31.70017 51.17810 41.43914
# Shear Modulus (GPa) = 8.43549 33.28194 20.85871
#
# Velocity S-wave (km/s) = 2.02201 4.01635 3.17959
# Velocity P-wave (km/s) = 4.56243 6.80537 5.79348
#
# Compressibility (1/GPa) = 0.03154557
#
# Stress axis : x y z
#
# Youngs Moduli (GPa) = 88.34120 121.14603 54.68105
#
# Poissons Ratio (x) = 0.61200 -0.12631
# Poissons Ratio (y) = 0.44628 0.02277
# Poissons Ratio (z) = -0.20406 0.05045
#
# Static dielectric constant tensor:
#      x y z
#    x 1.705690 0.000000 0.000000 
#    y 0.000000 1.721730 0.000000 
#    z 0.000000 0.000000 1.807070 
# 
# From -- ./inp_files/4094.got.cif
#   From: 2010.05.17/outbox.cif.g08.bks.cpg/sg47_3_cif.got.tgz:4094.got - 2010.06.03 20:15:42.
