data_PCOD9382415
_publ_section_title
;
Structure prediction by ZEFSAII (Michael W. Deem and Ramdas Pophale) SiO2 
 PCOD9382415
Probable space group: P M M M
;
_chemical_formula_sum "Si O2"
_cell_formula_units_Z 52
_cell_length_a 27.541979
_cell_length_b 7.642294
_cell_length_c 14.302631
_cell_angle_alpha 90.000000
_cell_angle_beta 90.000000
_cell_angle_gamma 90.000000
_cell_volume 3010.473565
_symmetry_space_group_name_H-M "P M M M"
_symmetry_group_IT_number 47
_symmetry_cell_setting 'orthorhombic'
loop_
_space_group_symop_operation_xyz
x,y,z
-x,-y,z
x,-y,-z
-x,y,-z
-x,-y,-z
x,y,-z
-x,y,z
x,-y,z
loop_
_atom_site_type_symbol
_atom_site_label
_atom_site_fract_x
_atom_site_fract_y
_atom_site_fract_z
Si Si1 0.500000 0.702659 0.613715
Si Si2 0.751336 0.790849 0.896064
Si Si3 0.800683 0.706170 0.603425
Si Si4 0.394528 0.288841 0.607029
Si Si5 0.849344 0.711708 0.208673
Si Si6 0.054385 0.713501 0.891803
Si Si7 0.704393 0.792175 0.707171
O O1 0.500000 0.500000 0.645056
O O2 0.500000 0.702036 0.500000
O O3 0.552516 0.778669 0.639781
O O4 0.806600 0.758097 0.863658
O O5 0.718064 0.723521 0.810626
O O6 0.744330 0.000000 0.900350
O O7 0.742456 0.719707 0.000000
O O8 0.807857 0.781863 0.500000
O O9 0.811841 0.500000 0.598210
O O10 0.832341 0.778562 0.689590
O O11 0.744677 0.721284 0.635363
O O12 0.385644 0.228233 0.500000
O O13 0.398136 0.500000 0.603084
O O14 0.349505 0.244806 0.672250
O O15 0.850839 0.500000 0.212912
O O16 0.901369 0.774163 0.172331
O O17 0.054699 0.500000 0.890295
O O18 0.000000 0.769026 0.864042
O O19 0.062307 0.764695 0.000000
O O20 0.711401 0.000000 0.708565
#
# Coordination Sequence:
#
# PCOD9382415 Si02
#       7
#     4   8   8   8   8   8   8
#     4   7  12  24  41  59  78 105 138 162 185 227
#     4   9  18  31  43  56  79 108 132 158 198 242
#     4   9  17  28  40  55  78 107 135 162 194 231
#     4   9  16  27  43  61  83 110 136 161 191 229
#     4   9  16  26  42  61  78 100 133 167 193 226
#     4   8  13  21  35  57  81 100 121 156 202 243
#     4  10  19  28  40  60  82 104 132 164 197 233
#
# _framework density 17.273029999999999
#
# number of rings (size 3 to 8) (size 9 to 14) (size 15 to 20)
#    0.000    3.154    0.000    2.769    0.000    4.000 
#    0.000    0.385    0.000    2.308    0.000    5.923 
#    0.000    4.308    0.000    7.692    0.000    8.308 
#
# Total GULP energy -289645.218159 kJ/mol
# GULP energy per Si atom -5570.100349 kJ/mol
# Density = 1.723372 g / cm^3
# Si number density = 17.273030 Si / 1000 Ang^3
#
#
#
# Elastic Constant Matrix: (Units=GPa)
#
#
# Indices 1 2 3 4 5 6 
#
# 1 147.1761 -7.2742 72.3982 0.0000 0.0000 0.0000
# 2 -7.2742 32.5665 2.1622 0.0000 0.0000 0.0000
# 3 72.3982 2.1622 116.4135 0.0000 0.0000 0.0000
# 4 0.0000 0.0000 0.0000 10.7295 0.0000 0.0000
# 5 0.0000 0.0000 0.0000 0.0000 22.4332 0.0000
# 6 0.0000 0.0000 0.0000 0.0000 0.0000 -46.3314
#
#
#
# Elastic Compliance Matrix: (Units=1/GPa)
#
#
# Indices 1 2 3 4 5 6 
#
# 1 0.010013 0.002653 -0.006277 0.000000 0.000000 0.000000
# 2 0.002653 0.031447 -0.002234 0.000000 0.000000 0.000000
# 3 -0.006277 -0.002234 0.012535 0.000000 0.000000 0.000000
# 4 0.000000 0.000000 0.000000 0.093201 0.000000 0.000000
# 5 0.000000 0.000000 0.000000 0.000000 0.044577 0.000000
# 6 0.000000 0.000000 0.000000 0.000000 0.000000 -0.021584
#
#
# Mechanical properties :
#
#
# Convention : Reuss Voigt Hill
#
# Bulk Modulus (GPa) = 23.65145 47.85873 35.75509
# Shear Modulus (GPa) = 25.51036 12.62424 19.06730
#
# Velocity S-wave (km/s) = 3.84720 2.70638 3.32607
# Velocity P-wave (km/s) = 5.78421 6.12645 5.95778
#
# Compressibility (1/GPa) = 0.04228071
#
# Stress axis : x y z
#
# Youngs Moduli (GPa) = 99.86739 31.79917 79.77652
#
# Poissons Ratio (x) = -0.08437 0.50073
# Poissons Ratio (y) = -0.26498 0.17824
# Poissons Ratio (z) = 0.62683 0.07105
#
# Static dielectric constant tensor:
#      x y z
#    x 1.588990 0.000000 0.000000 
#    y 0.000000 1.646230 0.000000 
#    z 0.000000 0.000000 1.598930 
# 
# From -- ./inp_files/25715.got.cif
#   From: 2010.05.17/outbox.cif.g08.bks.cpg/sg47_13_cif.got.tgz:25715.got - 2010.06.03 20:15:42.
