data_PCOD9382703
_publ_section_title
;
Structure prediction by ZEFSAII (Michael W. Deem and Ramdas Pophale) SiO2 
 PCOD9382703
Probable space group: P M M M
;
_chemical_formula_sum "Si O2"
_cell_formula_units_Z 52
_cell_length_a 28.973492
_cell_length_b 14.258350
_cell_length_c 7.911732
_cell_angle_alpha 90.000000
_cell_angle_beta 90.000000
_cell_angle_gamma 90.000000
_cell_volume 3268.448754
_symmetry_space_group_name_H-M "P M M M"
_symmetry_group_IT_number 47
_symmetry_cell_setting 'orthorhombic'
loop_
_space_group_symop_operation_xyz
x,y,z
-x,-y,z
x,-y,-z
-x,y,-z
-x,-y,-z
x,y,-z
-x,y,z
x,-y,z
loop_
_atom_site_type_symbol
_atom_site_label
_atom_site_fract_x
_atom_site_fract_y
_atom_site_fract_z
Si Si1 0.283675 0.211293 0.797032
Si Si2 0.948390 0.393142 0.796553
Si Si3 0.552517 0.113536 0.500000
Si Si4 0.378738 0.887430 0.199990
Si Si5 0.142627 0.714431 0.700522
Si Si6 0.233459 0.606022 0.296302
Si Si7 0.192457 0.895047 0.797151
O O1 0.332510 0.167774 0.746661
O O2 0.272523 0.318213 0.748823
O O3 0.240564 0.149279 0.731588
O O4 0.282707 0.205635 0.000000
O O5 0.939320 0.500000 0.737095
O O6 0.906887 0.326109 0.746910
O O7 0.000000 0.366041 0.738120
O O8 0.949602 0.395729 0.000000
O O9 0.500000 0.148851 0.500000
O O10 0.580682 0.138723 0.330109
O O11 0.550545 0.000000 0.500000
O O12 0.370645 0.000000 0.213793
O O13 0.388471 0.868921 0.000000
O O14 0.146543 0.713128 0.500000
O O15 0.184680 0.649102 0.767828
O O16 0.152996 0.819790 0.758619
O O17 0.231083 0.602194 0.500000
O O18 0.240583 0.500000 0.234132
O O19 0.184847 0.000000 0.732288
O O20 0.196396 0.900273 0.000000
#
# Coordination Sequence:
#
# PCOD9382703 Si02
#       7
#     8   8   4   8   8   8   8
#     4   9  17  28  44  66  89 117 153 189 225 265
#     4   9  18  32  49  68  88 111 143 182 221 265
#     4   9  18  30  44  66  93 125 165 197 229 278
#     4   9  17  29  45  66  94 125 156 195 236 273
#     4  10  19  30  45  66  92 119 146 179 221 268
#     4   9  18  30  42  60  90 124 151 178 216 265
#     4   9  17  30  47  65  88 119 153 187 220 260
#
# _framework density 15.909689
#
# number of rings (size 3 to 8) (size 9 to 14) (size 15 to 20)
#    0.000    2.846    0.000    1.846    1.077    4.615 
#    0.000    2.308    0.000    0.462    0.000    3.231 
#    0.000    1.231    0.000    3.385    0.000    0.154 
#
# Total GULP energy -289686.784502 kJ/mol
# GULP energy per Si atom -5570.899702 kJ/mol
# Density = 1.587348 g / cm^3
# Si number density = 15.909689 Si / 1000 Ang^3
#
#
#
# Elastic Constant Matrix: (Units=GPa)
#
#
# Indices 1 2 3 4 5 6 
#
# 1 125.1156 76.7879 31.7684 0.0000 0.0000 0.0000
# 2 76.7879 119.0407 24.2063 0.0000 0.0000 0.0000
# 3 31.7684 24.2063 34.4122 0.0000 0.0000 0.0000
# 4 0.0000 0.0000 0.0000 10.8019 0.0000 0.0000
# 5 0.0000 0.0000 0.0000 0.0000 19.9655 0.0000
# 6 0.0000 0.0000 0.0000 0.0000 0.0000 18.0313
#
#
#
# Elastic Compliance Matrix: (Units=1/GPa)
#
#
# Indices 1 2 3 4 5 6 
#
# 1 0.014985 -0.007997 -0.008208 0.000000 0.000000 0.000000
# 2 -0.007997 0.014070 -0.002515 0.000000 0.000000 0.000000
# 3 -0.008208 -0.002515 0.038406 0.000000 0.000000 0.000000
# 4 0.000000 0.000000 0.000000 0.092576 0.000000 0.000000
# 5 0.000000 0.000000 0.000000 0.000000 0.050086 0.000000
# 6 0.000000 0.000000 0.000000 0.000000 0.000000 0.055459
#
#
# Mechanical properties :
#
#
# Convention : Reuss Voigt Hill
#
# Bulk Modulus (GPa) = 33.30995 60.45487 46.88241
# Shear Modulus (GPa) = 15.97290 19.48013 17.72651
#
# Velocity S-wave (km/s) = 3.17199 3.50297 3.34158
# Velocity P-wave (km/s) = 5.86496 7.37850 6.66483
#
# Compressibility (1/GPa) = 0.03002106
#
# Stress axis : x y z
#
# Youngs Moduli (GPa) = 66.73430 71.07159 26.03749
#
# Poissons Ratio (x) = 0.56835 0.21373
# Poissons Ratio (y) = 0.53367 0.06548
# Poissons Ratio (z) = 0.54778 0.17873
#
# Static dielectric constant tensor:
#      x y z
#    x 1.528760 0.000000 0.000000 
#    y 0.000000 1.530830 0.000000 
#    z 0.000000 0.000000 1.564650 
# 
# From -- ./inp_files/4522.got.cif
#   From: 2010.05.17/outbox.cif.g08.bks.cpg/sg47_3_cif.got.tgz:4522.got - 2010.06.03 20:15:42.
