data_PCOD9382654
_publ_section_title
;
Structure prediction by ZEFSAII (Michael W. Deem and Ramdas Pophale) SiO2 
 PCOD9382654
Probable space group: P M M M
;
_chemical_formula_sum "Si O2"
_cell_formula_units_Z 52
_cell_length_a 12.777669
_cell_length_b 30.927685
_cell_length_c 9.199569
_cell_angle_alpha 90.000000
_cell_angle_beta 90.000000
_cell_angle_gamma 90.000000
_cell_volume 3635.519917
_symmetry_space_group_name_H-M "P M M M"
_symmetry_group_IT_number 47
_symmetry_cell_setting 'orthorhombic'
loop_
_space_group_symop_operation_xyz
x,y,z
-x,-y,z
x,-y,-z
-x,y,-z
-x,-y,-z
x,y,-z
-x,y,z
x,-y,z
loop_
_atom_site_type_symbol
_atom_site_label
_atom_site_fract_x
_atom_site_fract_y
_atom_site_fract_z
Si Si1 0.627688 0.134135 0.332537
Si Si2 0.372848 0.951953 0.830343
Si Si3 0.876146 0.550230 0.327285
Si Si4 0.625704 0.691064 0.672459
Si Si5 0.500000 0.549253 0.823734
Si Si6 0.627254 0.220618 0.832919
Si Si7 0.297614 0.394451 0.174790
O O1 0.659186 0.137829 0.500000
O O2 0.500000 0.133906 0.329246
O O3 0.663087 0.088899 0.262620
O O4 0.661783 0.175924 0.241171
O O5 0.500000 0.951936 0.824603
O O6 0.338879 0.000000 0.781897
O O7 0.344904 0.946552 0.000000
O O8 0.857166 0.556264 0.500000
O O9 0.851383 0.500000 0.292314
O O10 0.805321 0.582239 0.234881
O O11 0.000000 0.556452 0.302233
O O12 0.644823 0.690301 0.500000
O O13 0.500000 0.685906 0.695011
O O14 0.656669 0.737150 0.740977
O O15 0.683032 0.652014 0.753330
O O16 0.500000 0.500000 0.769616
O O17 0.396431 0.575408 0.781469
O O18 0.500000 0.547647 0.000000
O O19 0.500000 0.219673 0.833657
O O20 0.661664 0.223778 0.000000
O O21 0.295899 0.390978 0.000000
#
# Coordination Sequence:
#
# PCOD9382654 Si02
#       7
#     8   8   8   8   4   8   8
#     4   9  15  21  29  42  59  79 107 143 185 231
#     4   8  13  20  28  37  51  73 102 138 182 230
#     4   9  19  36  54  70  90 115 142 173 208 244
#     4  10  19  30  43  59  82 108 135 164 199 243
#     4   9  18  30  43  63  91 117 137 163 200 239
#     4   9  16  25  37  50  66  90 121 154 190 232
#     4  11  20  31  48  68  92 116 141 171 205 246
#
# _framework density 14.303319
#
# number of rings (size 3 to 8) (size 9 to 14) (size 15 to 20)
#    0.000    2.692    0.769    3.231    0.000    5.846 
#    0.000    2.308    0.000    1.846    0.000    0.000 
#    0.000    0.000    0.000    0.000    0.000    0.000 
#
# Total GULP energy -289679.541995 kJ/mol
# GULP energy per Si atom -5570.760423 kJ/mol
# Density = 1.427076 g / cm^3
# Si number density = 14.303319 Si / 1000 Ang^3
#
#
#
# Elastic Constant Matrix: (Units=GPa)
#
#
# Indices 1 2 3 4 5 6 
#
# 1 23.0528 30.6233 26.5124 0.0000 0.0000 0.0000
# 2 30.6233 149.4711 79.1580 0.0000 0.0000 0.0000
# 3 26.5124 79.1580 94.4806 0.0000 0.0000 0.0000
# 4 0.0000 0.0000 0.0000 27.7862 0.0000 0.0000
# 5 0.0000 0.0000 0.0000 0.0000 12.9005 0.0000
# 6 0.0000 0.0000 0.0000 0.0000 0.0000 6.7240
#
#
#
# Elastic Compliance Matrix: (Units=1/GPa)
#
#
# Indices 1 2 3 4 5 6 
#
# 1 0.067740 -0.006852 -0.013268 0.000000 0.000000 0.000000
# 2 -0.006852 0.012719 -0.008734 0.000000 0.000000 0.000000
# 3 -0.013268 -0.008734 0.021625 0.000000 0.000000 0.000000
# 4 0.000000 0.000000 0.000000 0.035989 0.000000 0.000000
# 5 0.000000 0.000000 0.000000 0.000000 0.077517 0.000000
# 6 0.000000 0.000000 0.000000 0.000000 0.000000 0.148721
#
#
# Mechanical properties :
#
#
# Convention : Reuss Voigt Hill
#
# Bulk Modulus (GPa) = 22.53438 59.95465 41.24451
# Shear Modulus (GPa) = 11.44661 18.19618 14.82139
#
# Velocity S-wave (km/s) = 2.83198 3.57061 3.22253
# Velocity P-wave (km/s) = 5.14610 7.68158 6.53793
#
# Compressibility (1/GPa) = 0.04437664
#
# Stress axis : x y z
#
# Youngs Moduli (GPa) = 14.76235 78.61989 46.24313
#
# Poissons Ratio (x) = 0.53869 0.61355
# Poissons Ratio (y) = 0.10115 0.40388
# Poissons Ratio (z) = 0.19587 0.68666
#
# Static dielectric constant tensor:
#      x y z
#    x 1.436460 0.000000 0.000000 
#    y 0.000000 1.478090 0.000000 
#    z 0.000000 0.000000 1.475110 
# 
# From -- ./inp_files/4755.got.cif
#   From: 2010.05.17/outbox.cif.g08.bks.cpg/sg47_3_cif.got.tgz:4755.got - 2010.06.03 20:15:42.
