data_PCOD9382683
_publ_section_title
;
Structure prediction by ZEFSAII (Michael W. Deem and Ramdas Pophale) SiO2 
 PCOD9382683
Probable space group: P M M M
;
_chemical_formula_sum "Si O2"
_cell_formula_units_Z 52
_cell_length_a 24.949099
_cell_length_b 14.466265
_cell_length_c 7.731104
_cell_angle_alpha 90.000000
_cell_angle_beta 90.000000
_cell_angle_gamma 90.000000
_cell_volume 2790.312202
_symmetry_space_group_name_H-M "P M M M"
_symmetry_group_IT_number 47
_symmetry_cell_setting 'orthorhombic'
loop_
_space_group_symop_operation_xyz
x,y,z
-x,-y,z
x,-y,-z
-x,y,-z
-x,-y,-z
x,y,-z
-x,y,z
x,-y,z
loop_
_atom_site_type_symbol
_atom_site_label
_atom_site_fract_x
_atom_site_fract_y
_atom_site_fract_z
Si Si1 0.173860 0.105015 0.293157
Si Si2 0.500000 0.893765 0.294316
Si Si3 0.275422 0.784927 0.704705
Si Si4 0.673745 0.394575 0.287162
Si Si5 0.057771 0.107738 0.208122
Si Si6 0.617211 0.106482 0.794634
Si Si7 0.556912 0.612697 0.297261
O O1 0.180206 0.098350 0.500000
O O2 0.224448 0.161099 0.222122
O O3 0.115020 0.147565 0.262253
O O4 0.174470 0.000000 0.222919
O O5 0.500000 0.897586 0.500000
O O6 0.557870 0.853029 0.243860
O O7 0.500000 0.000000 0.222864
O O8 0.265989 0.775701 0.500000
O O9 0.284512 0.681656 0.772748
O O10 0.331378 0.839665 0.724686
O O11 0.671696 0.394769 0.500000
O O12 0.683565 0.500000 0.234277
O O13 0.614688 0.362403 0.224803
O O14 0.000000 0.146895 0.266668
O O15 0.058596 0.000000 0.265999
O O16 0.057255 0.107735 0.000000
O O17 0.617744 0.000000 0.727629
O O18 0.622853 0.103579 0.000000
O O19 0.556336 0.639934 0.500000
O O20 0.500000 0.642930 0.219763
O O21 0.557138 0.500000 0.294730
#
# Coordination Sequence:
#
# PCOD9382683 Si02
#       7
#     8   4   8   8   8   8   8
#     4   9  17  27  39  58  87 121 151 179 212 250
#     4   9  17  31  51  69  84 107 142 185 229 268
#     4  10  19  30  44  65  91 118 150 187 222 259
#     4   8  14  25  40  58  82 112 144 181 225 268
#     4   8  14  25  41  61  85 113 144 176 209 248
#     4  10  20  33  48  65  87 116 148 182 222 269
#     4   7   9  15  29  48  70  95 121 155 204 256
#
# _framework density 18.635907
#
# number of rings (size 3 to 8) (size 9 to 14) (size 15 to 20)
#    0.000    3.308    0.000    3.000    0.000    3.385 
#    1.385    3.077    0.000    0.462    0.000    0.000 
#    0.000    1.846    0.000    7.692    0.000    1.538 
#
# Total GULP energy -289634.310212 kJ/mol
# GULP energy per Si atom -5569.890581 kJ/mol
# Density = 1.859349 g / cm^3
# Si number density = 18.635907 Si / 1000 Ang^3
#
#
#
# Elastic Constant Matrix: (Units=GPa)
#
#
# Indices 1 2 3 4 5 6 
#
# 1 173.0881 65.5257 -1.0283 0.0000 0.0000 0.0000
# 2 65.5257 66.0233 1.0137 0.0000 0.0000 0.0000
# 3 -1.0283 1.0137 27.0981 0.0000 0.0000 0.0000
# 4 0.0000 0.0000 0.0000 -1.7779 0.0000 0.0000
# 5 0.0000 0.0000 0.0000 0.0000 27.6204 0.0000
# 6 0.0000 0.0000 0.0000 0.0000 0.0000 12.7898
#
#
#
# Elastic Compliance Matrix: (Units=1/GPa)
#
#
# Indices 1 2 3 4 5 6 
#
# 1 0.009268 -0.009208 0.000696 0.000000 0.000000 0.000000
# 2 -0.009208 0.024304 -0.001259 0.000000 0.000000 0.000000
# 3 0.000696 -0.001259 0.036976 0.000000 0.000000 0.000000
# 4 0.000000 0.000000 0.000000 -0.562456 0.000000 0.000000
# 5 0.000000 0.000000 0.000000 0.000000 0.036205 0.000000
# 6 0.000000 0.000000 0.000000 0.000000 0.000000 0.078187
#
#
# Mechanical properties :
#
#
# Convention : Reuss Voigt Hill
#
# Bulk Modulus (GPa) = 19.60528 44.13687 31.87107
# Shear Modulus (GPa) = -14.66397 21.10635 3.22119
#
# Velocity S-wave (km/s) = -2.80816 3.36901 1.31615
# Velocity P-wave (km/s) = 0.16932 6.23449 4.41007
#
# Compressibility (1/GPa) = 0.05100667
#
# Stress axis : x y z
#
# Youngs Moduli (GPa) = 107.90349 41.14469 27.04427
#
# Poissons Ratio (x) = 0.37888 -0.01883
# Poissons Ratio (y) = 0.99362 0.03404
# Poissons Ratio (z) = -0.07512 0.05179
#
# Static dielectric constant tensor:
#      x y z
#    x 1.692680 0.000000 0.000000 
#    y 0.000000 1.678440 0.000000 
#    z 0.000000 0.000000 1.670090 
# 
# From -- ./inp_files/12532.got.cif
#   From: 2010.05.17/outbox.cif.g08.bks.cpg/sg47_7_cif.got.tgz:12532.got - 2010.06.03 20:15:42.
