data_PCOD9382076
_publ_section_title
;
Structure prediction by ZEFSAII (Michael W. Deem and Ramdas Pophale) SiO2 
 PCOD9382076
Probable space group: P M M M
;
_chemical_formula_sum "Si O2"
_cell_formula_units_Z 52
_cell_length_a 15.422406
_cell_length_b 7.357629
_cell_length_c 21.178188
_cell_angle_alpha 90.000000
_cell_angle_beta 90.000000
_cell_angle_gamma 90.000000
_cell_volume 2403.138584
_symmetry_space_group_name_H-M "P M M M"
_symmetry_group_IT_number 47
_symmetry_cell_setting 'orthorhombic'
loop_
_space_group_symop_operation_xyz
x,y,z
-x,-y,z
x,-y,-z
-x,y,-z
-x,-y,-z
x,y,-z
-x,y,z
x,-y,z
loop_
_atom_site_type_symbol
_atom_site_label
_atom_site_fract_x
_atom_site_fract_y
_atom_site_fract_z
Si Si1 0.900132 0.214953 0.232389
Si Si2 0.645417 0.291296 0.428321
Si Si3 0.000000 0.779342 0.430285
Si Si4 0.401395 0.721454 0.927892
Si Si5 0.174964 0.779937 0.636410
Si Si6 0.724036 0.281772 0.183001
Si Si7 0.404700 0.278527 0.292250
O O1 0.846243 0.286720 0.292967
O O2 0.826286 0.237193 0.179454
O O3 0.000000 0.283585 0.225359
O O4 0.909823 0.000000 0.243292
O O5 0.636804 0.215257 0.500000
O O6 0.615570 0.500000 0.432812
O O7 0.744891 0.289718 0.404336
O O8 0.601677 0.212308 0.364876
O O9 0.087126 0.725722 0.397329
O O10 0.000000 0.711569 0.500000
O O11 0.000000 0.000000 0.430095
O O12 0.500000 0.776017 0.911683
O O13 0.400830 0.500000 0.927207
O O14 0.331350 0.782400 0.876939
O O15 0.383417 0.777160 0.000000
O O16 0.184351 0.000000 0.637302
O O17 0.718383 0.500000 0.184637
O O18 0.672147 0.215624 0.246001
O O19 0.500000 0.233717 0.266614
O O20 0.398675 0.500000 0.294975
#
# Coordination Sequence:
#
# PCOD9382076 Si02
#       7
#     8   8   4   8   8   8   8
#     4  10  20  34  51  71  97 129 165 205 249 295
#     4  10  20  32  45  64  92 123 156 197 244 290
#     4   9  16  26  43  65  83 105 146 195 240 294
#     4   8  14  26  48  81 115 139 161 195 240 288
#     4  10  18  31  49  66  85 115 156 201 248 296
#     4  10  18  30  52  78 102 129 162 201 243 286
#     4   9  17  29  46  69  95 124 160 198 236 284
#
# _framework density 21.638369999999998
#
# number of rings (size 3 to 8) (size 9 to 14) (size 15 to 20)
#    0.000    2.538    2.308    1.385    0.000    3.385 
#    0.000    1.923    0.000    5.538    0.000    5.385 
#    0.000    0.000    0.000    0.000    0.000    0.000 
#
# Total GULP energy -289850.264991 kJ/mol
# GULP energy per Si atom -5574.043558 kJ/mol
# Density = 2.158912 g / cm^3
# Si number density = 21.638370 Si / 1000 Ang^3
#
#
#
# Elastic Constant Matrix: (Units=GPa)
#
#
# Indices 1 2 3 4 5 6 
#
# 1 152.8294 -5.3012 67.7602 0.0000 0.0000 0.0000
# 2 -5.3012 82.2627 3.2248 0.0000 0.0000 0.0000
# 3 67.7602 3.2248 117.8804 0.0000 0.0000 0.0000
# 4 0.0000 0.0000 0.0000 -1.1585 0.0000 0.0000
# 5 0.0000 0.0000 0.0000 0.0000 31.2035 0.0000
# 6 0.0000 0.0000 0.0000 0.0000 0.0000 18.9559
#
#
#
# Elastic Compliance Matrix: (Units=1/GPa)
#
#
# Indices 1 2 3 4 5 6 
#
# 1 0.008830 0.000769 -0.005096 0.000000 0.000000 0.000000
# 2 0.000769 0.012236 -0.000777 0.000000 0.000000 0.000000
# 3 -0.005096 -0.000777 0.011434 0.000000 0.000000 0.000000
# 4 0.000000 0.000000 0.000000 -0.863203 0.000000 0.000000
# 5 0.000000 0.000000 0.000000 0.000000 0.032048 0.000000
# 6 0.000000 0.000000 0.000000 0.000000 0.000000 0.052754
#
#
# Mechanical properties :
#
#
# Convention : Reuss Voigt Hill
#
# Bulk Modulus (GPa) = 44.86106 53.81557 49.33832
# Shear Modulus (GPa) = -6.86566 28.95277 11.04355
#
# Velocity S-wave (km/s) = -1.78320 3.66188 2.26159
# Velocity P-wave (km/s) = 4.06663 6.54244 5.44706
#
# Compressibility (1/GPa) = 0.02229105
#
# Stress axis : x y z
#
# Youngs Moduli (GPa) = 113.25637 81.72495 87.45877
#
# Poissons Ratio (x) = -0.06283 0.44573
# Poissons Ratio (y) = -0.08707 0.06793
# Poissons Ratio (z) = 0.57720 0.06347
#
# Static dielectric constant tensor:
#      x y z
#    x 1.800830 0.000000 0.000000 
#    y 0.000000 1.855570 0.000000 
#    z 0.000000 0.000000 1.814030 
# 
# From -- ./inp_files/6989.got.cif
#   From: 2010.05.17/outbox.cif.g08.bks.cpg/sg47_4_cif.got.tgz:6989.got - 2010.06.03 20:15:42.
