data_PCOD9382871
_publ_section_title
;
Structure prediction by ZEFSAII (Michael W. Deem and Ramdas Pophale) SiO2 
 PCOD9382871
Probable space group: P M M M
;
_chemical_formula_sum "Si O2"
_cell_formula_units_Z 52
_cell_length_a 7.339877
_cell_length_b 16.560523
_cell_length_c 18.535723
_cell_angle_alpha 90.000000
_cell_angle_beta 90.000000
_cell_angle_gamma 90.000000
_cell_volume 2253.057944
_symmetry_space_group_name_H-M "P M M M"
_symmetry_group_IT_number 47
_symmetry_cell_setting 'orthorhombic'
loop_
_space_group_symop_operation_xyz
x,y,z
-x,-y,z
x,-y,-z
-x,y,-z
-x,-y,-z
x,y,-z
-x,y,z
x,-y,z
loop_
_atom_site_type_symbol
_atom_site_label
_atom_site_fract_x
_atom_site_fract_y
_atom_site_fract_z
Si Si1 0.279907 0.666097 0.918534
Si Si2 0.786842 0.199270 0.800447
Si Si3 0.221014 0.000000 0.415580
Si Si4 0.778660 0.906516 0.923909
Si Si5 0.222591 0.821536 0.638740
Si Si6 0.778144 0.648723 0.580870
Si Si7 0.717704 0.500000 0.851384
Si Si8 0.782502 0.500000 0.320409
O O1 0.500000 0.667340 0.920906
O O2 0.226305 0.724300 0.852890
O O3 0.215589 0.578793 0.892605
O O4 0.215667 0.685163 0.000000
O O5 0.705698 0.131132 0.851595
O O6 0.715510 0.199965 0.719966
O O7 0.000000 0.181674 0.790098
O O8 0.280647 0.087183 0.382881
O O9 0.268325 0.000000 0.500000
O O10 0.000000 0.000000 0.409539
O O11 0.000000 0.898915 0.923309
O O12 0.736239 0.000000 0.925205
O O13 0.715565 0.869640 0.000000
O O14 0.278860 0.741926 0.593826
O O15 0.000000 0.823036 0.634259
O O16 0.726897 0.623226 0.500000
O O17 0.716744 0.582060 0.639648
O O18 0.000000 0.649589 0.584432
O O19 0.500000 0.500000 0.859342
O O20 0.750703 0.500000 0.765453
O O21 0.000000 0.500000 0.329744
#
# Coordination Sequence:
#
# PCOD9382871 Si02
#       8
#     8   8   4   8   8   8   4   4
#     4  10  21  37  55  73  96 130 170 205 240 293
#     4  10  19  30  48  74 103 128 159 207 257 294
#     4   9  16  26  40  62  98 141 174 204 249 299
#     4   8  14  24  39  61  90 124 157 188 230 287
#     4   9  17  26  40  65  97 131 168 209 251 293
#     4   9  16  27  43  65  95 131 167 200 240 297
#     4  10  21  37  55  73  97 130 164 200 246 298
#     4  10  19  31  51  77 103 128 160 204 250 294
#
# _framework density 23.079744000000002
#
# number of rings (size 3 to 8) (size 9 to 14) (size 15 to 20)
#    0.000    2.692    0.000    2.769    1.077    6.462 
#    0.000    0.000    0.000    2.769    0.000    2.154 
#    0.000    2.462    0.000    0.000    0.000    0.154 
#
# Total GULP energy -290085.372896 kJ/mol
# GULP energy per Si atom -5578.564863 kJ/mol
# Density = 2.302721 g / cm^3
# Si number density = 23.079744 Si / 1000 Ang^3
#
#
#
# Elastic Constant Matrix: (Units=GPa)
#
#
# Indices 1 2 3 4 5 6 
#
# 1 88.3945 -8.2797 -6.6413 0.0000 0.0000 0.0000
# 2 -8.2797 138.8220 53.0269 0.0000 0.0000 0.0000
# 3 -6.6413 53.0269 138.1626 0.0000 0.0000 0.0000
# 4 0.0000 0.0000 0.0000 40.2101 0.0000 0.0000
# 5 0.0000 0.0000 0.0000 0.0000 3.6852 0.0000
# 6 0.0000 0.0000 0.0000 0.0000 0.0000 2.2288
#
#
#
# Elastic Compliance Matrix: (Units=1/GPa)
#
#
# Indices 1 2 3 4 5 6 
#
# 1 0.011390 0.000551 0.000336 0.000000 0.000000 0.000000
# 2 0.000551 0.008468 -0.003223 0.000000 0.000000 0.000000
# 3 0.000336 -0.003223 0.008491 0.000000 0.000000 0.000000
# 4 0.000000 0.000000 0.000000 0.024869 0.000000 0.000000
# 5 0.000000 0.000000 0.000000 0.000000 0.271355 0.000000
# 6 0.000000 0.000000 0.000000 0.000000 0.000000 0.448671
#
#
# Mechanical properties :
#
#
# Convention : Reuss Voigt Hill
#
# Bulk Modulus (GPa) = 42.23738 49.06567 45.65153
# Shear Modulus (GPa) = 6.36288 31.04304 18.70296
#
# Velocity S-wave (km/s) = 1.66220 3.67145 2.84978
# Velocity P-wave (km/s) = 4.69300 6.26722 5.53635
#
# Compressibility (1/GPa) = 0.02367571
#
# Stress axis : x y z
#
# Youngs Moduli (GPa) = 87.79807 118.09743 117.76991
#
# Poissons Ratio (x) = -0.06507 -0.03957
# Poissons Ratio (y) = -0.04837 0.37962
# Poissons Ratio (z) = -0.02950 0.38067
#
# Static dielectric constant tensor:
#      x y z
#    x 1.949020 0.000000 0.000000 
#    y 0.000000 1.902210 0.000000 
#    z 0.000000 0.000000 1.881730 
# 
# From -- ./inp_files/27565.got.cif
#   From: 2010.05.17/outbox.cif.g08.bks.cpg/sg47_14_cif.got.tgz:27565.got - 2010.06.03 20:15:42.
