data_PCOD9382523
_publ_section_title
;
Structure prediction by ZEFSAII (Michael W. Deem and Ramdas Pophale) SiO2 
 PCOD9382523
Probable space group: P M M M
;
_chemical_formula_sum "Si O2"
_cell_formula_units_Z 56
_cell_length_a 14.028729
_cell_length_b 9.250735
_cell_length_c 29.912868
_cell_angle_alpha 90.000000
_cell_angle_beta 90.000000
_cell_angle_gamma 90.000000
_cell_volume 3881.973984
_symmetry_space_group_name_H-M "P M M M"
_symmetry_group_IT_number 47
_symmetry_cell_setting 'orthorhombic'
loop_
_space_group_symop_operation_xyz
x,y,z
-x,-y,z
x,-y,-z
-x,y,-z
-x,-y,-z
x,y,-z
-x,y,z
x,-y,z
loop_
_atom_site_type_symbol
_atom_site_label
_atom_site_fract_x
_atom_site_fract_y
_atom_site_fract_z
Si Si1 0.888674 0.326247 0.050870
Si Si2 0.110699 0.173111 0.773550
Si Si3 0.609910 0.827616 0.811522
Si Si4 0.285890 0.673754 0.730712
Si Si5 0.611452 0.673295 0.638897
Si Si6 0.384455 0.830662 0.549228
Si Si7 0.209015 0.171720 0.132313
O O1 0.882386 0.500000 0.053568
O O2 0.825269 0.254884 0.088854
O O3 0.000000 0.287092 0.057929
O O4 0.863016 0.283879 0.000000
O O5 0.183056 0.258148 0.741665
O O6 0.142724 0.205673 0.824591
O O7 0.000000 0.208427 0.766867
O O8 0.123411 0.000000 0.767583
O O9 0.500000 0.798702 0.822102
O O10 0.644079 0.739386 0.768317
O O11 0.683986 0.793755 0.851160
O O12 0.620464 0.000000 0.802238
O O13 0.283119 0.500000 0.734246
O O14 0.326647 0.713352 0.682051
O O15 0.500000 0.714893 0.646076
O O16 0.613712 0.500000 0.634419
O O17 0.646749 0.744140 0.592852
O O18 0.351744 0.779460 0.500000
O O19 0.500000 0.821023 0.548804
O O20 0.360401 0.000000 0.553419
O O21 0.202447 0.000000 0.124443
#
# Coordination Sequence:
#
# PCOD9382523 Si02
#       7
#     8   8   8   8   8   8   8
#     4   9  18  31  45  63  88 114 137 164 203 252
#     4   9  18  32  47  63  86 114 142 173 209 251
#     4   9  18  32  47  62  84 115 147 177 210 248
#     4  10  19  29  42  63  89 113 142 179 213 248
#     4   9  17  27  38  55  82 114 143 172 207 245
#     4   8  14  24  37  54  76 103 138 177 211 244
#     4   9  17  29  46  67  86 106 137 174 208 243
#
# _framework density 14.425649999999999
#
# number of rings (size 3 to 8) (size 9 to 14) (size 15 to 20)
#    0.000    3.000    0.000    3.000    0.000    6.000 
#    0.000    3.571    0.000    0.429    0.000    3.000 
#    0.000    0.571    0.000    6.286    0.000    4.857 
#
# Total GULP energy -311867.185573 kJ/mol
# GULP energy per Si atom -5569.056885 kJ/mol
# Density = 1.439282 g / cm^3
# Si number density = 14.425650 Si / 1000 Ang^3
#
#
#
# Elastic Constant Matrix: (Units=GPa)
#
#
# Indices 1 2 3 4 5 6 
#
# 1 98.3686 38.3598 71.4288 0.0000 0.0000 0.0000
# 2 38.3598 31.1686 55.4230 0.0000 0.0000 0.0000
# 3 71.4288 55.4230 146.7147 0.0000 0.0000 0.0000
# 4 0.0000 0.0000 0.0000 31.1332 0.0000 0.0000
# 5 0.0000 0.0000 0.0000 0.0000 19.4220 0.0000
# 6 0.0000 0.0000 0.0000 0.0000 0.0000 20.0155
#
#
#
# Elastic Compliance Matrix: (Units=1/GPa)
#
#
# Indices 1 2 3 4 5 6 
#
# 1 0.019630 -0.021826 -0.001312 0.000000 0.000000 0.000000
# 2 -0.021826 0.122001 -0.035461 0.000000 0.000000 0.000000
# 3 -0.001312 -0.035461 0.020850 0.000000 0.000000 0.000000
# 4 0.000000 0.000000 0.000000 0.032120 0.000000 0.000000
# 5 0.000000 0.000000 0.000000 0.000000 0.051488 0.000000
# 6 0.000000 0.000000 0.000000 0.000000 0.000000 0.049961
#
#
# Mechanical properties :
#
#
# Convention : Reuss Voigt Hill
#
# Bulk Modulus (GPa) = 22.08326 67.40837 44.74582
# Shear Modulus (GPa) = 11.67293 21.51683 16.59488
#
# Velocity S-wave (km/s) = 2.84769 3.86627 3.39539
# Velocity P-wave (km/s) = 5.11410 8.17070 6.81595
#
# Compressibility (1/GPa) = 0.04528316
#
# Stress axis : x y z
#
# Youngs Moduli (GPa) = 50.94340 8.19669 47.96085
#
# Poissons Ratio (x) = 0.17890 0.06292
# Poissons Ratio (y) = 1.11189 1.70074
# Poissons Ratio (z) = 0.06683 0.29066
#
# Static dielectric constant tensor:
#      x y z
#    x 1.467100 0.000000 0.000000 
#    y 0.000000 1.480340 0.000000 
#    z 0.000000 0.000000 1.466670 
# 
# From -- ./inp_files/22082.got.cif
#   From: 2010.05.17/outbox.cif.g08.bks.cpg/sg47_12_cif.got.tgz:22082.got - 2010.06.03 20:15:42.
