data_PCOD9382529
_publ_section_title
;
Structure prediction by ZEFSAII (Michael W. Deem and Ramdas Pophale) SiO2 
 PCOD9382529
Probable space group: P M M M
;
_chemical_formula_sum "Si O2"
_cell_formula_units_Z 52
_cell_length_a 9.437869
_cell_length_b 13.914652
_cell_length_c 27.199856
_cell_angle_alpha 90.000000
_cell_angle_beta 90.000000
_cell_angle_gamma 90.000000
_cell_volume 3572.011916
_symmetry_space_group_name_H-M "P M M M"
_symmetry_group_IT_number 47
_symmetry_cell_setting 'orthorhombic'
loop_
_space_group_symop_operation_xyz
x,y,z
-x,-y,z
x,-y,-z
-x,y,-z
-x,-y,-z
x,y,-z
-x,y,z
x,-y,z
loop_
_atom_site_type_symbol
_atom_site_label
_atom_site_fract_x
_atom_site_fract_y
_atom_site_fract_z
Si Si1 0.169603 0.114628 0.705998
Si Si2 0.668772 0.391767 0.146056
Si Si3 0.669449 0.199270 0.202426
Si Si4 0.831056 0.301973 0.056016
Si Si5 0.337393 0.882697 0.500000
Si Si6 0.162879 0.116800 0.594830
Si Si7 0.167010 0.891072 0.887646
O O1 0.256985 0.170653 0.746847
O O2 0.207328 0.143986 0.650070
O O3 0.000000 0.128356 0.711980
O O4 0.196014 0.000000 0.711252
O O5 0.500000 0.386769 0.136887
O O6 0.703929 0.500000 0.161887
O O7 0.701192 0.308707 0.185564
O O8 0.750265 0.365201 0.096109
O O9 0.500000 0.186574 0.204601
O O10 0.737740 0.134088 0.159415
O O11 0.806773 0.190839 0.071779
O O12 0.000000 0.319197 0.059383
O O13 0.786311 0.319153 0.000000
O O14 0.500000 0.853072 0.500000
O O15 0.258692 0.850777 0.450382
O O16 0.333524 0.000000 0.500000
O O17 0.000000 0.146466 0.587134
O O18 0.163552 0.000000 0.594601
O O19 0.000000 0.883798 0.873788
O O20 0.192758 0.000000 0.904400
#
# Coordination Sequence:
#
# PCOD9382529 Si02
#       7
#     8   8   8   8   4   8   8
#     4   9  17  28  41  58  82 112 142 169 200 240
#     4   9  19  35  50  62  79 105 134 161 196 247
#     4  10  19  29  43  62  81 102 131 169 207 239
#     4   9  18  31  46  66  88 105 127 163 200 232
#     4   9  15  21  31  49  73 101 136 179 216 235
#     4   8  14  24  36  49  69 103 143 173 197 232
#     4   9  17  29  44  60  81 111 139 159 187 233
#
# _framework density 14.557620999999999
#
# number of rings (size 3 to 8) (size 9 to 14) (size 15 to 20)
#    0.000    3.000    0.000    2.077    0.000    5.846 
#    0.000    4.615    0.000    0.000    0.000    4.308 
#    0.000    0.000    0.000    0.692    0.000   14.077 
#
# Total GULP energy -289591.985847 kJ/mol
# GULP energy per Si atom -5569.076651 kJ/mol
# Density = 1.452449 g / cm^3
# Si number density = 14.557621 Si / 1000 Ang^3
#
#
#
# Elastic Constant Matrix: (Units=GPa)
#
#
# Indices 1 2 3 4 5 6 
#
# 1 44.0789 22.6636 55.6243 0.0000 0.0000 0.0000
# 2 22.6636 53.6702 22.5818 0.0000 0.0000 0.0000
# 3 55.6243 22.5818 116.0480 0.0000 0.0000 0.0000
# 4 0.0000 0.0000 0.0000 9.4853 0.0000 0.0000
# 5 0.0000 0.0000 0.0000 0.0000 9.9913 0.0000
# 6 0.0000 0.0000 0.0000 0.0000 0.0000 15.9218
#
#
#
# Elastic Compliance Matrix: (Units=1/GPa)
#
#
# Indices 1 2 3 4 5 6 
#
# 1 0.068623 -0.016488 -0.029684 0.000000 0.000000 0.000000
# 2 -0.016488 0.024255 0.003183 0.000000 0.000000 0.000000
# 3 -0.029684 0.003183 0.022226 0.000000 0.000000 0.000000
# 4 0.000000 0.000000 0.000000 0.105426 0.000000 0.000000
# 5 0.000000 0.000000 0.000000 0.000000 0.100087 0.000000
# 6 0.000000 0.000000 0.000000 0.000000 0.000000 0.062807
#
#
# Mechanical properties :
#
#
# Convention : Reuss Voigt Hill
#
# Bulk Modulus (GPa) = 34.33298 46.17072 40.25185
# Shear Modulus (GPa) = 10.43596 14.60817 12.52207
#
# Velocity S-wave (km/s) = 2.68035 3.17120 2.93605
# Velocity P-wave (km/s) = 5.76320 6.72260 6.26130
#
# Compressibility (1/GPa) = 0.02912652
#
# Stress axis : x y z
#
# Youngs Moduli (GPa) = 14.57228 41.22779 44.99236
#
# Poissons Ratio (x) = 0.67977 1.33556
# Poissons Ratio (y) = 0.24027 -0.14322
# Poissons Ratio (z) = 0.43257 -0.13124
#
# Static dielectric constant tensor:
#      x y z
#    x 1.482920 0.000000 0.000000 
#    y 0.000000 1.471870 0.000000 
#    z 0.000000 0.000000 1.471830 
# 
# From -- ./inp_files/12502.got.cif
#   From: 2010.05.17/outbox.cif.g08.bks.cpg/sg47_7_cif.got.tgz:12502.got - 2010.06.03 20:15:42.
