data_PCOD9382514
_publ_section_title
;
Structure prediction by ZEFSAII (Michael W. Deem and Ramdas Pophale) SiO2 
 PCOD9382514
Probable space group: P M M M
;
_chemical_formula_sum "Si O2"
_cell_formula_units_Z 56
_cell_length_a 9.062133
_cell_length_b 29.925727
_cell_length_c 13.854940
_cell_angle_alpha 90.000000
_cell_angle_beta 90.000000
_cell_angle_gamma 90.000000
_cell_volume 3757.333900
_symmetry_space_group_name_H-M "P M M M"
_symmetry_group_IT_number 47
_symmetry_cell_setting 'orthorhombic'
loop_
_space_group_symop_operation_xyz
x,y,z
-x,-y,z
x,-y,-z
-x,y,-z
-x,-y,-z
x,y,-z
-x,y,z
x,-y,z
loop_
_atom_site_type_symbol
_atom_site_label
_atom_site_fract_x
_atom_site_fract_y
_atom_site_fract_z
Si Si1 0.324246 0.137951 0.889332
Si Si2 0.178094 0.949258 0.808873
Si Si3 0.327246 0.549445 0.382765
Si Si4 0.822968 0.816752 0.290838
Si Si5 0.821585 0.090987 0.606930
Si Si6 0.674565 0.268880 0.384537
Si Si7 0.169382 0.639383 0.382536
O O1 0.500000 0.137707 0.872547
O O2 0.258702 0.088556 0.870261
O O3 0.245178 0.169800 0.812084
O O4 0.296537 0.150895 0.000000
O O5 0.221254 0.940137 0.696837
O O6 0.000000 0.943009 0.815928
O O7 0.212294 0.000000 0.836468
O O8 0.319846 0.549470 0.500000
O O9 0.500000 0.554178 0.357973
O O10 0.276000 0.500000 0.351144
O O11 0.237094 0.592367 0.348657
O O12 0.784432 0.858294 0.361927
O O13 0.757511 0.771125 0.331387
O O14 0.000000 0.814683 0.284800
O O15 0.764682 0.080127 0.500000
O O16 0.000000 0.088564 0.602808
O O17 0.699377 0.264486 0.500000
O O18 0.500000 0.266475 0.367179
O O19 0.736882 0.317250 0.354364
O O20 0.172254 0.638182 0.500000
O O21 0.000000 0.644221 0.352584
#
# Coordination Sequence:
#
# PCOD9382514 Si02
#       7
#     8   8   8   8   8   8   8
#     4  10  21  36  52  68  86 109 138 172 211 257
#     4   9  18  31  47  69  93 115 141 172 206 245
#     4   8  13  21  32  45  64  94 133 177 223 265
#     4  10  19  31  48  68  88 109 138 175 213 255
#     4   8  14  25  42  64  88 112 137 166 199 236
#     4  10  19  29  42  61  87 117 145 175 213 255
#     4   9  16  24  34  50  73 102 139 181 219 254
#
# _framework density 14.904185
#
# number of rings (size 3 to 8) (size 9 to 14) (size 15 to 20)
#    0.000    2.857    0.000    3.429    0.000    5.429 
#    0.000    4.286    0.000    3.857    0.000    4.000 
#    0.000    0.000    0.000    0.000    0.000    0.714 
#
# Total GULP energy -311936.268276 kJ/mol
# GULP energy per Si atom -5570.290505 kJ/mol
# Density = 1.487026 g / cm^3
# Si number density = 14.904185 Si / 1000 Ang^3
#
#
#
# Elastic Constant Matrix: (Units=GPa)
#
#
# Indices 1 2 3 4 5 6 
#
# 1 63.5529 49.5928 26.4827 0.0000 0.0000 0.0000
# 2 49.5928 97.4111 10.5193 0.0000 0.0000 0.0000
# 3 26.4827 10.5193 35.8166 0.0000 0.0000 0.0000
# 4 0.0000 0.0000 0.0000 7.4485 0.0000 0.0000
# 5 0.0000 0.0000 0.0000 0.0000 15.7132 0.0000
# 6 0.0000 0.0000 0.0000 0.0000 0.0000 26.5402
#
#
#
# Elastic Compliance Matrix: (Units=1/GPa)
#
#
# Indices 1 2 3 4 5 6 
#
# 1 0.039317 -0.017430 -0.023952 0.000000 0.000000 0.000000
# 2 -0.017430 0.018329 0.007505 0.000000 0.000000 0.000000
# 3 -0.023952 0.007505 0.043426 0.000000 0.000000 0.000000
# 4 0.000000 0.000000 0.000000 0.134255 0.000000 0.000000
# 5 0.000000 0.000000 0.000000 0.000000 0.063641 0.000000
# 6 0.000000 0.000000 0.000000 0.000000 0.000000 0.037679
#
#
# Mechanical properties :
#
#
# Convention : Reuss Voigt Hill
#
# Bulk Modulus (GPa) = 30.01437 41.10778 35.56107
# Shear Modulus (GPa) = 12.03349 17.28611 14.65980
#
# Velocity S-wave (km/s) = 2.84454 3.40930 3.13965
# Velocity P-wave (km/s) = 5.56511 6.56803 6.08726
#
# Compressibility (1/GPa) = 0.03331738
#
# Stress axis : x y z
#
# Youngs Moduli (GPa) = 25.43420 54.55774 23.02780
#
# Poissons Ratio (x) = 0.95095 0.55156
# Poissons Ratio (y) = 0.44332 -0.17281
# Poissons Ratio (z) = 0.60919 -0.40943
#
# Static dielectric constant tensor:
#      x y z
#    x 1.498180 0.000000 0.000000 
#    y 0.000000 1.494680 0.000000 
#    z 0.000000 0.000000 1.480410 
# 
# From -- ./inp_files/22098.got.cif
#   From: 2010.05.17/outbox.cif.g08.bks.cpg/sg47_12_cif.got.tgz:22098.got - 2010.06.03 20:15:42.
