data_PCOD9382311
_publ_section_title
;
Structure prediction by ZEFSAII (Michael W. Deem and Ramdas Pophale) SiO2 
 PCOD9382311
Probable space group: P M M M
;
_chemical_formula_sum "Si O2"
_cell_formula_units_Z 48
_cell_length_a 28.333747
_cell_length_b 9.754782
_cell_length_c 9.926001
_cell_angle_alpha 90.000000
_cell_angle_beta 90.000000
_cell_angle_gamma 90.000000
_cell_volume 2743.442704
_symmetry_space_group_name_H-M "P M M M"
_symmetry_group_IT_number 47
_symmetry_cell_setting 'orthorhombic'
loop_
_space_group_symop_operation_xyz
x,y,z
-x,-y,z
x,-y,-z
-x,y,-z
-x,-y,-z
x,y,-z
-x,y,z
x,-y,z
loop_
_atom_site_type_symbol
_atom_site_label
_atom_site_fract_x
_atom_site_fract_y
_atom_site_fract_z
Si Si1 0.556172 0.500000 0.343079
Si Si2 0.118945 0.334370 0.250358
Si Si3 0.391952 0.721666 0.836315
Si Si4 0.446392 0.000000 0.839125
Si Si5 0.793382 0.161539 0.660583
Si Si6 0.698560 0.663022 0.657475
Si Si7 0.053745 0.665661 0.000000
Si Si8 0.053196 0.665354 0.500000
O O1 0.500000 0.500000 0.348360
O O2 0.573476 0.500000 0.500000
O O3 0.574912 0.624024 0.252658
O O4 0.128925 0.500000 0.251122
O O5 0.166152 0.245838 0.262367
O O6 0.086043 0.298689 0.125508
O O7 0.084909 0.299315 0.373790
O O8 0.414724 0.868888 0.809541
O O9 0.341040 0.702036 0.766870
O O10 0.391466 0.695860 0.000000
O O11 0.500000 0.000000 0.781390
O O12 0.452251 0.000000 0.000000
O O13 0.803963 0.168855 0.500000
O O14 0.744171 0.241939 0.679432
O O15 0.790719 0.000000 0.696852
O O16 0.683163 0.683365 0.500000
O O17 0.709240 0.500000 0.670886
O O18 0.049627 0.500000 0.000000
O O19 0.000000 0.719121 0.000000
O O20 0.049016 0.500000 0.500000
O O21 0.000000 0.720910 0.500000
#
# Coordination Sequence:
#
# PCOD9382311 Si02
#       8
#     4   8   8   4   8   8   4   4
#     4  11  23  39  61  91 127 161 199 245 296 345
#     4  10  18  32  55  81 112 146 185 233 284 337
#     4  11  22  38  62  90 121 157 199 245 293 351
#     4   9  20  38  59  85 121 161 197 235 284 345
#     4  10  21  37  58  83 110 147 193 240 289 345
#     4  10  21  38  60  84 114 150 189 239 296 351
#     4   9  18  32  53  83 117 149 185 231 286 339
#     4   9  16  26  49  83 111 139 181 227 270 327
#
# _framework density 17.496265000000001
#
# number of rings (size 3 to 8) (size 9 to 14) (size 15 to 20)
#    0.000    2.000    1.667    2.250    1.167    4.000 
#    1.500    1.667    0.000    6.000    0.000    0.000 
#    0.000    0.000    0.000    0.000    0.000    0.000 
#
# Total GULP energy -267338.798968 kJ/mol
# GULP energy per Si atom -5569.558312 kJ/mol
# Density = 1.745644 g / cm^3
# Si number density = 17.496265 Si / 1000 Ang^3
#
#
#
# Elastic Constant Matrix: (Units=GPa)
#
#
# Indices 1 2 3 4 5 6 
#
# 1 142.8208 70.7123 73.4512 0.0000 0.0000 0.0000
# 2 70.7123 127.2451 55.8654 0.0000 0.0000 0.0000
# 3 73.4512 55.8654 137.8591 0.0000 0.0000 0.0000
# 4 0.0000 0.0000 0.0000 23.3181 0.0000 0.0000
# 5 0.0000 0.0000 0.0000 0.0000 -165.9151 0.0000
# 6 0.0000 0.0000 0.0000 0.0000 0.0000 27.4071
#
#
#
# Elastic Compliance Matrix: (Units=1/GPa)
#
#
# Indices 1 2 3 4 5 6 
#
# 1 0.011408 -0.004466 -0.004269 0.000000 0.000000 0.000000
# 2 -0.004466 0.011308 -0.002203 0.000000 0.000000 0.000000
# 3 -0.004269 -0.002203 0.010421 0.000000 0.000000 0.000000
# 4 0.000000 0.000000 0.000000 0.042885 0.000000 0.000000
# 5 0.000000 0.000000 0.000000 0.000000 -0.006027 0.000000
# 6 0.000000 0.000000 0.000000 0.000000 0.000000 0.036487
#
#
# Mechanical properties :
#
#
# Convention : Reuss Voigt Hill
#
# Bulk Modulus (GPa) = 88.79278 89.77585 89.28431
# Shear Modulus (GPa) = 37.84732 -9.17824 14.33454
#
# Velocity S-wave (km/s) = 4.65603 -2.29286 2.86543
# Velocity P-wave (km/s) = 8.93110 6.66432 7.87965
#
# Compressibility (1/GPa) = 0.01126218
#
# Stress axis : x y z
#
# Youngs Moduli (GPa) = 87.65764 88.43570 95.96181
#
# Poissons Ratio (x) = 0.39492 0.40962
# Poissons Ratio (y) = 0.39144 0.21140
# Poissons Ratio (z) = 0.37417 0.19482
#
# Static dielectric constant tensor:
#      x y z
#    x 1.592060 0.000000 0.000000 
#    y 0.000000 1.554220 0.000000 
#    z 0.000000 0.000000 1.514560 
# 
# From -- ./inp_files/14006.got.cif
#   From: 2010.05.17/outbox.cif.g08.bks.cpg/sg47_8_cif.got.tgz:14006.got - 2010.06.03 20:15:42.
