data_PCOD9382650
_publ_section_title
;
Structure prediction by ZEFSAII (Michael W. Deem and Ramdas Pophale) SiO2 
 PCOD9382650
Probable space group: P M M M
;
_chemical_formula_sum "Si O2"
_cell_formula_units_Z 52
_cell_length_a 7.361544
_cell_length_b 24.056828
_cell_length_c 15.772259
_cell_angle_alpha 90.000000
_cell_angle_beta 90.000000
_cell_angle_gamma 90.000000
_cell_volume 2793.194482
_symmetry_space_group_name_H-M "P M M M"
_symmetry_group_IT_number 47
_symmetry_cell_setting 'orthorhombic'
loop_
_space_group_symop_operation_xyz
x,y,z
-x,-y,z
x,-y,-z
-x,y,-z
-x,-y,-z
x,y,-z
-x,y,z
x,-y,z
loop_
_atom_site_type_symbol
_atom_site_label
_atom_site_fract_x
_atom_site_fract_y
_atom_site_fract_z
Si Si1 0.719756 0.722055 0.272569
Si Si2 0.718289 0.940321 0.398699
Si Si3 0.721691 0.316242 0.906989
Si Si4 0.708051 0.560443 0.135236
Si Si5 0.792242 0.565929 0.500000
Si Si6 0.277931 0.817683 0.401180
Si Si7 0.789738 0.596118 0.319483
O O1 0.500000 0.723687 0.273055
O O2 0.778330 0.720318 0.173874
O O3 0.782030 0.770633 0.335288
O O4 0.777384 0.661978 0.306608
O O5 0.750296 0.940732 0.500000
O O6 0.500000 0.940657 0.386980
O O7 0.781876 0.879350 0.371462
O O8 0.786485 0.000000 0.365010
O O9 0.500000 0.318224 0.904069
O O10 0.785500 0.380499 0.895802
O O11 0.775146 0.296131 0.000000
O O12 0.500000 0.559435 0.105187
O O13 0.788613 0.500000 0.113365
O O14 0.706538 0.567174 0.237259
O O15 0.801687 0.500000 0.500000
O O16 0.708318 0.583202 0.410959
O O17 0.000000 0.589095 0.500000
O O18 0.223718 0.808497 0.500000
O O19 0.500000 0.817670 0.402053
O O20 0.000000 0.577934 0.320202
#
# Coordination Sequence:
#
# PCOD9382650 Si02
#       7
#     8   8   8   8   4   8   8
#     4   9  17  28  41  58  78  99 125 157 190 225
#     4   7   9  14  25  43  70 102 130 152 179 218
#     4   8  14  25  40  57  76  97 121 151 187 225
#     4   9  17  29  44  61  77  90 112 150 194 236
#     4   9  18  30  41  53  69  93 126 155 178 214
#     4   8  13  20  32  52  77 104 128 154 190 223
#     4  10  19  30  43  56  73 100 128 154 185 221
#
# _framework density 18.616676999999999
#
# number of rings (size 3 to 8) (size 9 to 14) (size 15 to 20)
#    0.000    3.462    0.000    3.231    1.077    1.231 
#    0.000    2.692    0.000   10.154    0.000    4.308 
#    0.000    1.231    0.000   12.462    0.000    3.385 
#
# Total GULP energy -289596.935635 kJ/mol
# GULP energy per Si atom -5569.171839 kJ/mol
# Density = 1.857430 g / cm^3
# Si number density = 18.616677 Si / 1000 Ang^3
#
#
#
# Elastic Constant Matrix: (Units=GPa)
#
#
# Indices 1 2 3 4 5 6 
#
# 1 68.1622 -0.6407 2.7468 0.0000 0.0000 0.0000
# 2 -0.6407 121.1578 49.8235 0.0000 0.0000 0.0000
# 3 2.7468 49.8235 127.8101 0.0000 0.0000 0.0000
# 4 0.0000 0.0000 0.0000 -1.8239 0.0000 0.0000
# 5 0.0000 0.0000 0.0000 0.0000 5.1228 0.0000
# 6 0.0000 0.0000 0.0000 0.0000 0.0000 92.6337
#
#
#
# Elastic Compliance Matrix: (Units=1/GPa)
#
#
# Indices 1 2 3 4 5 6 
#
# 1 0.014690 0.000247 -0.000412 0.000000 0.000000 0.000000
# 2 0.000247 0.009834 -0.003839 0.000000 0.000000 0.000000
# 3 -0.000412 -0.003839 0.009329 0.000000 0.000000 0.000000
# 4 0.000000 0.000000 0.000000 -0.548262 0.000000 0.000000
# 5 0.000000 0.000000 0.000000 0.000000 0.195204 0.000000
# 6 0.000000 0.000000 0.000000 0.000000 0.000000 0.010795
#
#
# Mechanical properties :
#
#
# Convention : Reuss Voigt Hill
#
# Bulk Modulus (GPa) = 38.69134 46.77660 42.73397
# Shear Modulus (GPa) = -17.13576 36.86654 9.86539
#
# Velocity S-wave (km/s) = -3.03719 4.45488 2.30450
# Velocity P-wave (km/s) = 2.92044 7.18624 5.48502
#
# Compressibility (1/GPa) = 0.02584558
#
# Stress axis : x y z
#
# Youngs Moduli (GPa) = 68.07436 101.69235 107.18828
#
# Poissons Ratio (x) = -0.02513 0.04417
# Poissons Ratio (y) = -0.01682 0.41146
# Poissons Ratio (z) = 0.02805 0.39036
#
# Static dielectric constant tensor:
#      x y z
#    x 1.704240 0.000000 0.000000 
#    y 0.000000 1.660450 0.000000 
#    z 0.000000 0.000000 1.654030 
# 
# From -- ./inp_files/21781.got.cif
#   From: 2010.05.17/outbox.cif.g08.bks.cpg/sg47_11_cif.got.tgz:21781.got - 2010.06.03 20:15:42.
