data_PCOD9382627
_publ_section_title
;
Structure prediction by ZEFSAII (Michael W. Deem and Ramdas Pophale) SiO2 
 PCOD9382627
Probable space group: P M M M
;
_chemical_formula_sum "Si O2"
_cell_formula_units_Z 40
_cell_length_a 7.358793
_cell_length_b 16.977368
_cell_length_c 14.084476
_cell_angle_alpha 90.000000
_cell_angle_beta 90.000000
_cell_angle_gamma 90.000000
_cell_volume 1759.614950
_symmetry_space_group_name_H-M "P M M M"
_symmetry_group_IT_number 47
_symmetry_cell_setting 'orthorhombic'
loop_
_space_group_symop_operation_xyz
x,y,z
-x,-y,z
x,-y,-z
-x,y,-z
-x,-y,-z
x,y,-z
-x,y,z
x,-y,z
loop_
_atom_site_type_symbol
_atom_site_label
_atom_site_fract_x
_atom_site_fract_y
_atom_site_fract_z
Si Si1 0.222392 0.000000 0.610072
Si Si2 0.213912 0.250881 0.103429
Si Si3 0.719426 0.589622 0.190605
Si Si4 0.794914 0.135238 0.251912
Si Si5 0.719557 0.000000 0.890996
Si Si6 0.285169 0.595327 0.398410
O O1 0.284175 0.920399 0.664795
O O2 0.271441 0.000000 0.500000
O O3 0.000000 0.000000 0.617700
O O4 0.230573 0.344374 0.115635
O O5 0.291426 0.210362 0.199149
O O6 0.000000 0.231374 0.103176
O O7 0.288550 0.226347 0.000000
O O8 0.500000 0.586699 0.195370
O O9 0.780598 0.500000 0.171980
O O10 0.787556 0.617117 0.295106
O O11 0.795375 0.074791 0.163828
O O12 0.000000 0.156038 0.282890
O O13 0.500000 0.000000 0.882827
O O14 0.769344 0.000000 0.000000
O O15 0.210257 0.624016 0.500000
O O16 0.500000 0.614340 0.398886
O O17 0.271442 0.500000 0.399321
#
# Coordination Sequence:
#
# PCOD9382627 Si02
#       6
#     4   8   8   8   4   8
#     4   8  14  28  54  83 104 125 157 194 232 282
#     4  10  21  35  49  67  95 132 172 212 253 296
#     4   9  18  32  50  72  96 125 166 215 263 308
#     4   9  18  33  52  72  97 132 168 197 230 284
#     4  10  19  29  46  75 104 125 151 194 244 286
#     4   7  10  20  41  66  88 111 143 185 234 290
#
# _framework density 22.732244999999999
#
# number of rings (size 3 to 8) (size 9 to 14) (size 15 to 20)
#    0.000    3.200    0.000    3.300    0.000    3.600 
#    0.000    3.000    0.000    6.600    0.000    2.800 
#    0.000    0.000    0.000    0.000    0.000    0.000 
#
# Total GULP energy -222792.261224 kJ/mol
# GULP energy per Si atom -5569.806531 kJ/mol
# Density = 2.268051 g / cm^3
# Si number density = 22.732245 Si / 1000 Ang^3
#
#
#
# Elastic Constant Matrix: (Units=GPa)
#
#
# Indices 1 2 3 4 5 6 
#
# 1 90.4133 -2.7876 4.0618 0.0000 0.0000 0.0000
# 2 -2.7876 95.8471 46.0958 0.0000 0.0000 0.0000
# 3 4.0618 46.0958 153.8186 0.0000 0.0000 0.0000
# 4 0.0000 0.0000 0.0000 16.7597 0.0000 0.0000
# 5 0.0000 0.0000 0.0000 0.0000 -4.3786 0.0000
# 6 0.0000 0.0000 0.0000 0.0000 0.0000 2.7309
#
#
#
# Elastic Compliance Matrix: (Units=1/GPa)
#
#
# Indices 1 2 3 4 5 6 
#
# 1 0.011097 0.000542 -0.000455 0.000000 0.000000 0.000000
# 2 0.000542 0.012217 -0.003675 0.000000 0.000000 0.000000
# 3 -0.000455 -0.003675 0.007615 0.000000 0.000000 0.000000
# 4 0.000000 0.000000 0.000000 0.059667 0.000000 0.000000
# 5 0.000000 0.000000 0.000000 0.000000 -0.228384 0.000000
# 6 0.000000 0.000000 0.000000 0.000000 0.000000 0.366177
#
#
# Mechanical properties :
#
#
# Convention : Reuss Voigt Hill
#
# Bulk Modulus (GPa) = 42.10388 48.31321 45.20854
# Shear Modulus (GPa) = 20.53526 22.53635 21.53580
#
# Velocity S-wave (km/s) = 3.00884 3.15204 3.08127
# Velocity P-wave (km/s) = 5.53468 5.87762 5.70873
#
# Compressibility (1/GPa) = 0.02375078
#
# Stress axis : x y z
#
# Youngs Moduli (GPa) = 90.11054 81.85567 131.32668
#
# Poissons Ratio (x) = -0.04435 0.05981
# Poissons Ratio (y) = -0.04882 0.48267
# Poissons Ratio (z) = 0.04104 0.30085
#
# Static dielectric constant tensor:
#      x y z
#    x 1.910870 0.000000 0.000000 
#    y 0.000000 1.943050 0.000000 
#    z 0.000000 0.000000 1.876520 
# 
# From -- ./inp_files/20680.got.cif
#   From: 2010.05.17/outbox.cif.g08.bks.cpg/sg47_11_cif.got.tgz:20680.got - 2010.06.03 20:15:42.
