data_PCOD9382969
_publ_section_title
;
Structure prediction by ZEFSAII (Michael W. Deem and Ramdas Pophale) SiO2 
 PCOD9382969
Probable space group: P M M M
;
_chemical_formula_sum "Si O2"
_cell_formula_units_Z 60
_cell_length_a 16.627935
_cell_length_b 14.990115
_cell_length_c 14.626106
_cell_angle_alpha 90.000000
_cell_angle_beta 90.000000
_cell_angle_gamma 90.000000
_cell_volume 3645.625047
_symmetry_space_group_name_H-M "P M M M"
_symmetry_group_IT_number 47
_symmetry_cell_setting 'orthorhombic'
loop_
_space_group_symop_operation_xyz
x,y,z
-x,-y,z
x,-y,-z
-x,y,-z
-x,-y,-z
x,y,-z
-x,y,z
x,-y,z
loop_
_atom_site_type_symbol
_atom_site_label
_atom_site_fract_x
_atom_site_fract_y
_atom_site_fract_z
Si Si1 0.692281 0.104062 0.892489
Si Si2 0.738809 0.106383 0.395837
Si Si3 0.912583 0.150766 0.606803
Si Si4 0.902456 0.400830 0.199886
Si Si5 0.907012 0.365573 0.401433
Si Si6 0.000000 0.897442 0.112140
Si Si7 0.847939 0.780058 0.110020
Si Si8 0.410631 0.107619 0.276645
O O1 0.764934 0.170122 0.868194
O O2 0.616981 0.122584 0.827468
O O3 0.716789 0.000000 0.876771
O O4 0.674617 0.112923 0.000000
O O5 0.738616 0.142211 0.500000
O O6 0.827181 0.121823 0.353240
O O7 0.662676 0.141329 0.339480
O O8 0.729798 0.000000 0.401041
O O9 0.912256 0.120230 0.500000
O O10 0.909766 0.258116 0.605256
O O11 0.000000 0.123485 0.645610
O O12 0.887530 0.500000 0.161528
O O13 0.874495 0.399564 0.305685
O O14 0.861012 0.317995 0.150401
O O15 0.000000 0.386476 0.198065
O O16 0.870005 0.389172 0.500000
O O17 0.000000 0.395325 0.404216
O O18 0.078591 0.842948 0.141439
O O19 0.000000 0.000000 0.141865
O O20 0.000000 0.898614 0.000000
O O21 0.852588 0.774049 0.000000
O O22 0.500000 0.142219 0.296553
O O23 0.413596 0.000000 0.288765
#
# Coordination Sequence:
#
# PCOD9382969 Si02
#       8
#     8   8   8   8   8   4   8   8
#     4   9  18  32  50  70  91 117 152 197 245 290
#     4   9  17  27  40  62  92 126 162 196 231 278
#     4   8  14  25  41  60  84 119 160 197 235 275
#     4  10  20  31  44  65  92 125 166 203 236 281
#     4   8  15  28  44  61  82 114 154 196 239 277
#     4   9  16  28  47  67  88 119 159 197 233 276
#     4  10  19  31  46  66  93 126 158 193 238 282
#     4   9  18  31  46  65  90 121 156 196 243 291
#
# _framework density 16.458082000000001
#
# number of rings (size 3 to 8) (size 9 to 14) (size 15 to 20)
#    0.000    3.000    0.667    1.200    1.867    2.933 
#    0.000    6.000    0.000    0.000    0.000    0.000 
#    0.000    0.533    0.000    2.933    0.000    7.600 
#
# Total GULP energy -334146.145728 kJ/mol
# GULP energy per Si atom -5569.102429 kJ/mol
# Density = 1.642062 g / cm^3
# Si number density = 16.458082 Si / 1000 Ang^3
#
#
#
# Elastic Constant Matrix: (Units=GPa)
#
#
# Indices 1 2 3 4 5 6 
#
# 1 119.7280 22.0780 40.1125 0.0000 0.0000 0.0000
# 2 22.0780 63.2422 17.7061 0.0000 0.0000 0.0000
# 3 40.1125 17.7061 45.6131 0.0000 0.0000 0.0000
# 4 0.0000 0.0000 0.0000 0.3099 0.0000 0.0000
# 5 0.0000 0.0000 0.0000 0.0000 17.4778 0.0000
# 6 0.0000 0.0000 0.0000 0.0000 0.0000 2.1229
#
#
#
# Elastic Compliance Matrix: (Units=1/GPa)
#
#
# Indices 1 2 3 4 5 6 
#
# 1 0.011947 -0.001379 -0.009971 0.000000 0.000000 0.000000
# 2 -0.001379 0.017899 -0.005735 0.000000 0.000000 0.000000
# 3 -0.009971 -0.005735 0.032919 0.000000 0.000000 0.000000
# 4 0.000000 0.000000 0.000000 3.226784 0.000000 0.000000
# 5 0.000000 0.000000 0.000000 0.000000 0.057215 0.000000
# 6 0.000000 0.000000 0.000000 0.000000 0.000000 0.471056
#
#
# Mechanical properties :
#
#
# Convention : Reuss Voigt Hill
#
# Bulk Modulus (GPa) = 34.97246 43.15294 39.06270
# Shear Modulus (GPa) = 1.29483 13.89458 7.59470
#
# Velocity S-wave (km/s) = 0.88795 2.90873 2.15049
# Velocity P-wave (km/s) = 4.72724 6.12844 5.47287
#
# Compressibility (1/GPa) = 0.02859393
#
# Stress axis : x y z
#
# Youngs Moduli (GPa) = 83.70161 55.86774 30.37805
#
# Poissons Ratio (x) = 0.07705 0.30290
# Poissons Ratio (y) = 0.11544 0.17423
# Poissons Ratio (z) = 0.83460 0.32042
#
# Static dielectric constant tensor:
#      x y z
#    x 1.553330 0.000000 0.000000 
#    y 0.000000 1.553730 0.000000 
#    z 0.000000 0.000000 1.631260 
# 
# From -- ./inp_files/23936.got.cif
#   From: 2010.05.17/outbox.cif.g08.bks.cpg/sg47_12_cif.got.tgz:23936.got - 2010.06.03 20:15:42.
