data_PCOD9382079
_publ_section_title
;
Structure prediction by ZEFSAII (Michael W. Deem and Ramdas Pophale) SiO2 
 PCOD9382079
Probable space group: P M M M
;
_chemical_formula_sum "Si O2"
_cell_formula_units_Z 56
_cell_length_a 23.219218
_cell_length_b 14.692097
_cell_length_c 8.710516
_cell_angle_alpha 90.000000
_cell_angle_beta 90.000000
_cell_angle_gamma 90.000000
_cell_volume 2971.496745
_symmetry_space_group_name_H-M "P M M M"
_symmetry_group_IT_number 47
_symmetry_cell_setting 'orthorhombic'
loop_
_space_group_symop_operation_xyz
x,y,z
-x,-y,z
x,-y,-z
-x,y,-z
-x,-y,-z
x,y,-z
-x,y,z
x,-y,z
loop_
_atom_site_type_symbol
_atom_site_label
_atom_site_fract_x
_atom_site_fract_y
_atom_site_fract_z
Si Si1 0.343622 0.895963 0.183436
Si Si2 0.000000 0.894285 0.684232
Si Si3 0.851986 0.605025 0.685313
Si Si4 0.280247 0.396425 0.686493
Si Si5 0.216658 0.891911 0.319612
Si Si6 0.388671 0.720479 0.685746
Si Si7 0.500000 0.604747 0.312771
Si Si8 0.891461 0.786950 0.182200
O O1 0.280168 0.876694 0.252202
O O2 0.387209 0.821758 0.248942
O O3 0.358304 0.000000 0.225924
O O4 0.340688 0.889954 0.000000
O O5 0.056247 0.843120 0.745289
O O6 0.000000 0.892091 0.500000
O O7 0.000000 0.000000 0.733242
O O8 0.854644 0.611986 0.500000
O O9 0.865557 0.500000 0.725523
O O10 0.785351 0.622995 0.733108
O O11 0.890374 0.683044 0.759066
O O12 0.280275 0.394428 0.500000
O O13 0.294284 0.500000 0.732048
O O14 0.329675 0.328516 0.738590
O O15 0.216913 0.868448 0.500000
O O16 0.167765 0.834248 0.236746
O O17 0.204100 0.000000 0.304318
O O18 0.388221 0.724145 0.500000
O O19 0.443043 0.659837 0.733534
O O20 0.500000 0.500000 0.260330
O O21 0.500000 0.602230 0.500000
O O22 0.895555 0.789335 0.000000
#
# Coordination Sequence:
#
# PCOD9382079 Si02
#       8
#     8   4   8   8   8   8   4   8
#     4  10  21  36  53  76 107 140 176 224 281 334
#     4  11  25  45  66  85 108 143 189 236 276 323
#     4   9  18  34  56  81 110 146 189 233 275 326
#     4   8  14  26  48  78 107 136 173 217 265 316
#     4  10  20  35  57  84 113 146 184 225 271 329
#     4  10  18  30  52  78 105 141 182 224 270 323
#     4   9  18  32  52  81 112 140 177 225 272 321
#     4  12  24  37  57  85 118 152 184 226 279 331
#
# _framework density 18.845721000000001
#
# number of rings (size 3 to 8) (size 9 to 14) (size 15 to 20)
#    0.000    2.143    0.000    4.929    0.000    7.143 
#    0.000    1.071    0.000    7.286    0.000    0.000 
#    0.000    0.000    0.000    0.000    0.000    0.000 
#
# Total GULP energy -312747.056314 kJ/mol
# GULP energy per Si atom -5584.768863 kJ/mol
# Density = 1.880283 g / cm^3
# Si number density = 18.845721 Si / 1000 Ang^3
#
#
#
# Elastic Constant Matrix: (Units=GPa)
#
#
# Indices 1 2 3 4 5 6 
#
# 1 70.0718 94.2047 30.1778 0.0000 0.0000 0.0000
# 2 94.2047 166.3784 51.6748 0.0000 0.0000 0.0000
# 3 30.1778 51.6748 49.5445 0.0000 0.0000 0.0000
# 4 0.0000 0.0000 0.0000 7.6724 0.0000 0.0000
# 5 0.0000 0.0000 0.0000 0.0000 -1.7562 0.0000
# 6 0.0000 0.0000 0.0000 0.0000 0.0000 34.1954
#
#
#
# Elastic Compliance Matrix: (Units=1/GPa)
#
#
# Indices 1 2 3 4 5 6 
#
# 1 0.059854 -0.033380 -0.001642 0.000000 0.000000 0.000000
# 2 -0.033380 0.027506 -0.008357 0.000000 0.000000 0.000000
# 3 -0.001642 -0.008357 0.029900 0.000000 0.000000 0.000000
# 4 0.000000 0.000000 0.000000 0.130338 0.000000 0.000000
# 5 0.000000 0.000000 0.000000 0.000000 -0.569427 0.000000
# 6 0.000000 0.000000 0.000000 0.000000 0.000000 0.029244
#
#
# Mechanical properties :
#
#
# Convention : Reuss Voigt Hill
#
# Bulk Modulus (GPa) = 32.78416 70.90103 51.84259
# Shear Modulus (GPa) = -25.55460 15.35147 -5.10156
#
# Velocity S-wave (km/s) = -3.68637 2.85719 -1.64709
# Velocity P-wave (km/s) = 0.82781 6.97053 4.89402
#
# Compressibility (1/GPa) = 0.03050253
#
# Stress axis : x y z
#
# Youngs Moduli (GPa) = 16.70719 36.35594 33.44449
#
# Poissons Ratio (x) = 1.21356 0.05493
# Poissons Ratio (y) = 0.55768 0.27948
# Poissons Ratio (z) = 0.02744 0.30381
#
# Static dielectric constant tensor:
#      x y z
#    x 1.633890 0.000000 0.000000 
#    y 0.000000 1.666690 0.000000 
#    z 0.000000 0.000000 1.629470 
# 
# From -- ./inp_files/11344.got.cif
#   From: 2010.05.17/outbox.cif.g08.bks.cpg/sg47_6_cif.got.tgz:11344.got - 2010.06.03 20:15:42.
