data_PCOD9382883
_publ_section_title
;
Structure prediction by ZEFSAII (Michael W. Deem and Ramdas Pophale) SiO2 
 PCOD9382883
Probable space group: P M M M
;
_chemical_formula_sum "Si O2"
_cell_formula_units_Z 48
_cell_length_a 8.964255
_cell_length_b 36.012585
_cell_length_c 7.954522
_cell_angle_alpha 90.000000
_cell_angle_beta 90.000000
_cell_angle_gamma 90.000000
_cell_volume 2567.926481
_symmetry_space_group_name_H-M "P M M M"
_symmetry_group_IT_number 47
_symmetry_cell_setting 'orthorhombic'
loop_
_space_group_symop_operation_xyz
x,y,z
-x,-y,z
x,-y,-z
-x,y,-z
-x,-y,-z
x,y,-z
-x,y,z
x,-y,z
loop_
_atom_site_type_symbol
_atom_site_label
_atom_site_fract_x
_atom_site_fract_y
_atom_site_fract_z
Si Si1 0.681127 0.093985 0.500000
Si Si2 0.169155 0.380535 0.699422
Si Si3 0.681472 0.042624 0.190476
Si Si4 0.180519 0.824664 0.500000
Si Si5 0.332437 0.694562 0.798418
Si Si6 0.174539 0.539995 0.202111
Si Si7 0.179444 0.771115 0.195208
O O1 0.500000 0.095904 0.500000
O O2 0.728924 0.070896 0.334699
O O3 0.748072 0.134872 0.500000
O O4 0.158599 0.379311 0.500000
O O5 0.256798 0.344329 0.755241
O O6 0.239558 0.420505 0.744375
O O7 0.000000 0.379261 0.771538
O O8 0.500000 0.042663 0.191104
O O9 0.727004 0.000000 0.225987
O O10 0.728773 0.052230 0.000000
O O11 0.224724 0.801855 0.331901
O O12 0.000000 0.827464 0.500000
O O13 0.500000 0.696033 0.730054
O O14 0.241241 0.731092 0.747622
O O15 0.338987 0.696302 0.000000
O O16 0.237589 0.500000 0.259776
O O17 0.000000 0.540582 0.257066
O O18 0.175713 0.539579 0.000000
O O19 0.000000 0.769340 0.195035
O O20 0.226441 0.778362 0.000000
#
# Coordination Sequence:
#
# PCOD9382883 Si02
#       7
#     4   8   8   4   8   8   8
#     4  10  19  30  48  76 104 134 174 217 261 306
#     4  10  20  31  47  74 104 133 163 196 240 295
#     4   8  14  26  46  73 104 137 175 220 264 303
#     4  10  22  37  53  75 104 138 173 209 256 316
#     4  10  21  36  54  76 100 126 159 204 256 304
#     4   8  14  26  45  68  94 126 164 203 239 277
#     4   9  19  37  58  76  97 130 171 213 255 305
#
# _framework density 18.692124
#
# number of rings (size 3 to 8) (size 9 to 14) (size 15 to 20)
#    0.000    2.833    0.000    2.250    1.167    4.667 
#    0.000    1.667    0.000    1.500    0.000    4.667 
#    0.000    0.000    0.000    0.000    0.000    0.000 
#
# Total GULP energy -267429.429265 kJ/mol
# GULP energy per Si atom -5571.446443 kJ/mol
# Density = 1.864958 g / cm^3
# Si number density = 18.692124 Si / 1000 Ang^3
#
#
#
# Elastic Constant Matrix: (Units=GPa)
#
#
# Indices 1 2 3 4 5 6 
#
# 1 13.0519 34.7126 24.1157 0.0000 0.0000 0.0000
# 2 34.7126 201.9778 91.8926 0.0000 0.0000 0.0000
# 3 24.1157 91.8926 86.0960 0.0000 0.0000 0.0000
# 4 0.0000 0.0000 0.0000 22.3789 0.0000 0.0000
# 5 0.0000 0.0000 0.0000 0.0000 8.8358 0.0000
# 6 0.0000 0.0000 0.0000 0.0000 0.0000 31.7497
#
#
#
# Elastic Compliance Matrix: (Units=1/GPa)
#
#
# Indices 1 2 3 4 5 6 
#
# 1 0.181092 -0.015640 -0.034031 0.000000 0.000000 0.000000
# 2 -0.015640 0.010976 -0.007334 0.000000 0.000000 0.000000
# 3 -0.034031 -0.007334 0.028974 0.000000 0.000000 0.000000
# 4 0.000000 0.000000 0.000000 0.044685 0.000000 0.000000
# 5 0.000000 0.000000 0.000000 0.000000 0.113175 0.000000
# 6 0.000000 0.000000 0.000000 0.000000 0.000000 0.031496
#
#
# Mechanical properties :
#
#
# Convention : Reuss Voigt Hill
#
# Bulk Modulus (GPa) = 9.34295 66.95193 38.14744
# Shear Modulus (GPa) = 8.92719 22.61988 15.77354
#
# Velocity S-wave (km/s) = 2.18776 3.48246 2.90808
# Velocity P-wave (km/s) = 3.37504 7.21568 5.63281
#
# Compressibility (1/GPa) = 0.10703255
#
# Stress axis : x y z
#
# Youngs Moduli (GPa) = 5.52204 91.11138 34.51312
#
# Poissons Ratio (x) = 1.42501 1.17452
# Poissons Ratio (y) = 0.08637 0.25311
# Poissons Ratio (z) = 0.18792 0.66818
#
# Static dielectric constant tensor:
#      x y z
#    x 1.661810 0.000000 0.000000 
#    y 0.000000 1.644030 0.000000 
#    z 0.000000 0.000000 1.660490 
# 
# From -- ./inp_files/2667.got.cif
#   From: 2010.05.17/outbox.cif.g08.bks.cpg/sg47_2_cif.got.tgz:2667.got - 2010.06.03 20:15:42.
