data_PCOD9382420
_publ_section_title
;
Structure prediction by ZEFSAII (Michael W. Deem and Ramdas Pophale) SiO2 
 PCOD9382420
Probable space group: P M M M
;
_chemical_formula_sum "Si O2"
_cell_formula_units_Z 64
_cell_length_a 34.921134
_cell_length_b 13.852090
_cell_length_c 9.274154
_cell_angle_alpha 90.000000
_cell_angle_beta 90.000000
_cell_angle_gamma 90.000000
_cell_volume 4486.192924
_symmetry_space_group_name_H-M "P M M M"
_symmetry_group_IT_number 47
_symmetry_cell_setting 'orthorhombic'
loop_
_space_group_symop_operation_xyz
x,y,z
-x,-y,z
x,-y,-z
-x,y,-z
-x,-y,-z
x,y,-z
-x,y,z
x,-y,z
loop_
_atom_site_type_symbol
_atom_site_label
_atom_site_fract_x
_atom_site_fract_y
_atom_site_fract_z
Si Si1 0.042711 0.882864 0.832463
Si Si2 0.309526 0.712784 0.671423
Si Si3 0.228482 0.387837 0.671476
Si Si4 0.542711 0.382864 0.332463
Si Si5 0.880776 0.115950 0.670319
Si Si6 0.728482 0.112164 0.828526
Si Si7 0.380776 0.615950 0.829680
Si Si8 0.809525 0.212783 0.171423
O O1 0.078229 0.852437 0.734892
O O2 0.000000 0.850580 0.787665
O O3 0.042180 0.000000 0.828515
O O4 0.048643 0.855593 0.000000
O O5 0.315175 0.719428 0.500000
O O6 0.272427 0.644621 0.697802
O O7 0.298110 0.815810 0.738752
O O8 0.346424 0.668145 0.747469
O O9 0.221470 0.375038 0.500000
O O10 0.223372 0.500000 0.707679
O O11 0.201891 0.315809 0.761250
O O12 0.548644 0.355592 0.500000
O O13 0.500000 0.350582 0.287666
O O14 0.542181 0.500000 0.328517
O O15 0.578229 0.352437 0.234887
O O16 0.878925 0.134478 0.500000
O O17 0.846423 0.168144 0.752526
O O18 0.877367 0.000000 0.692297
O O19 0.772427 0.144620 0.802199
O O20 0.723372 0.000000 0.792325
O O21 0.721470 0.124965 0.000000
O O22 0.377367 0.500000 0.807701
O O23 0.378923 0.634477 0.000000
O O24 0.815176 0.219425 0.000000
#
# Coordination Sequence:
#
# PCOD9382420 Si02
#       8
#     8   8   8   8   8   8   8   8
#     4   8  14  25  40  57  79 109 142 173 207 248
#     4  10  19  30  45  64  85 110 142 177 211 251
#     4   9  18  32  47  62  83 111 141 175 215 254
#     4   8  14  25  40  57  79 109 142 173 207 248
#     4  10  19  28  40  60  86 115 145 177 211 248
#     4   9  18  32  47  62  83 111 141 175 215 254
#     4  10  19  28  40  60  86 115 145 177 211 248
#     4  10  19  30  45  64  85 110 142 177 211 251
#
# _framework density 14.265993
#
# number of rings (size 3 to 8) (size 9 to 14) (size 15 to 20)
#    0.000    2.750    0.000    3.000    0.000    4.500 
#    0.000    2.500    0.000    0.000    0.000    0.000 
#    0.000    1.000    0.000   10.500    0.000    5.000 
#
# Total GULP energy -356604.299539 kJ/mol
# GULP energy per Si atom -5571.942180 kJ/mol
# Density = 1.423352 g / cm^3
# Si number density = 14.265993 Si / 1000 Ang^3
#
#
#
# Elastic Constant Matrix: (Units=GPa)
#
#
# Indices 1 2 3 4 5 6 
#
# 1 134.5767 49.0789 87.7215 0.0000 0.0000 0.0000
# 2 49.0789 65.3086 53.1457 0.0000 0.0000 0.0000
# 3 87.7215 53.1457 87.8773 0.0000 0.0000 0.0000
# 4 0.0000 0.0000 0.0000 20.1612 0.0000 0.0000
# 5 0.0000 0.0000 0.0000 0.0000 26.8513 0.0000
# 6 0.0000 0.0000 0.0000 0.0000 0.0000 18.8815
#
#
#
# Elastic Compliance Matrix: (Units=1/GPa)
#
#
# Indices 1 2 3 4 5 6 
#
# 1 0.021489 0.002574 -0.023008 0.000000 0.000000 0.000000
# 2 0.002574 0.030458 -0.020989 0.000000 0.000000 0.000000
# 3 -0.023008 -0.020989 0.047040 0.000000 0.000000 0.000000
# 4 0.000000 0.000000 0.000000 0.049600 0.000000 0.000000
# 5 0.000000 0.000000 0.000000 0.000000 0.037242 0.000000
# 6 0.000000 0.000000 0.000000 0.000000 0.000000 0.052962
#
#
# Mechanical properties :
#
#
# Convention : Reuss Voigt Hill
#
# Bulk Modulus (GPa) = 61.95433 74.18385 68.06909
# Shear Modulus (GPa) = 15.28964 19.69991 17.49478
#
# Velocity S-wave (km/s) = 3.27732 3.72008 3.50569
# Velocity P-wave (km/s) = 7.60548 8.40032 8.01276
#
# Compressibility (1/GPa) = 0.01614092
#
# Stress axis : x y z
#
# Youngs Moduli (GPa) = 46.53496 32.83188 21.25840
#
# Poissons Ratio (x) = -0.08450 0.48911
# Poissons Ratio (y) = -0.11977 0.44620
# Poissons Ratio (z) = 1.07066 0.68912
#
# Static dielectric constant tensor:
#      x y z
#    x 1.466370 0.000000 0.000000 
#    y 0.000000 1.442410 0.000000 
#    z 0.000000 0.000000 1.471250 
# 
# From -- ./inp_files/14347.got.cif
#   From: 2010.05.17/outbox.cif.g08.bks.cpg/sg47_8_cif.got.tgz:14347.got - 2010.06.03 20:15:42.
