data_PCOD9382018
_publ_section_title
;
Structure prediction by ZEFSAII (Michael W. Deem and Ramdas Pophale) SiO2 
 PCOD9382018
Probable space group: P M M M
;
_chemical_formula_sum "Si O2"
_cell_formula_units_Z 48
_cell_length_a 10.400277
_cell_length_b 8.890541
_cell_length_c 30.178891
_cell_angle_alpha 90.000000
_cell_angle_beta 90.000000
_cell_angle_gamma 90.000000
_cell_volume 2790.463666
_symmetry_space_group_name_H-M "P M M M"
_symmetry_group_IT_number 47
_symmetry_cell_setting 'orthorhombic'
loop_
_space_group_symop_operation_xyz
x,y,z
-x,-y,z
x,-y,-z
-x,y,-z
-x,-y,-z
x,y,-z
-x,y,z
x,-y,z
loop_
_atom_site_type_symbol
_atom_site_label
_atom_site_fract_x
_atom_site_fract_y
_atom_site_fract_z
Si Si1 0.000000 0.316748 0.051136
Si Si2 0.655924 0.672508 0.287431
Si Si3 0.500000 0.317038 0.050456
Si Si4 0.348155 0.179802 0.805134
Si Si5 0.650209 0.180078 0.619344
Si Si6 0.250796 0.682043 0.893814
Si Si7 0.852686 0.318995 0.551949
O O1 0.125199 0.271938 0.078854
O O2 0.000000 0.500000 0.049369
O O3 0.000000 0.264910 0.000000
O O4 0.500000 0.672226 0.286807
O O5 0.700057 0.500000 0.287970
O O6 0.694869 0.754664 0.242215
O O7 0.691366 0.756180 0.332686
O O8 0.500000 0.500000 0.049000
O O9 0.374020 0.271799 0.077189
O O10 0.500000 0.263139 0.000000
O O11 0.500000 0.220927 0.811576
O O12 0.267673 0.247718 0.845499
O O13 0.340232 0.000000 0.804613
O O14 0.500000 0.224577 0.611660
O O15 0.745665 0.243460 0.582353
O O16 0.654774 0.000000 0.620121
O O17 0.250725 0.500000 0.889793
O O18 0.833808 0.282269 0.500000
O O19 0.843685 0.500000 0.556212
O O20 0.000000 0.275984 0.563805
#
# Coordination Sequence:
#
# PCOD9382018 Si02
#       7
#     4   8   4   8   8   8   8
#     4   9  18  32  51  75 101 129 163 205 250 295
#     4   9  17  30  51  77 104 135 172 212 257 309
#     4   9  16  26  45  73  99 123 159 205 244 285
#     4  10  19  31  49  74 104 133 164 206 256 304
#     4  10  20  33  51  79 113 144 176 217 267 320
#     4  10  18  30  50  74  99 128 164 204 248 298
#     4   9  19  36  56  77 104 142 187 230 270 313
#
# _framework density 17.201443000000001
#
# number of rings (size 3 to 8) (size 9 to 14) (size 15 to 20)
#    0.000    2.500    0.833    2.500    0.000    6.667 
#    0.000    2.917    1.833    3.000    0.000    0.000 
#    0.000    0.000    0.000    0.000    0.000    0.000 
#
# Total GULP energy -267669.870709 kJ/mol
# GULP energy per Si atom -5576.455640 kJ/mol
# Density = 1.716229 g / cm^3
# Si number density = 17.201443 Si / 1000 Ang^3
#
#
#
# Elastic Constant Matrix: (Units=GPa)
#
#
# Indices 1 2 3 4 5 6 
#
# 1 113.5365 38.8505 90.9878 0.0000 0.0000 0.0000
# 2 38.8505 44.8876 55.6644 0.0000 0.0000 0.0000
# 3 90.9878 55.6644 170.5987 0.0000 0.0000 0.0000
# 4 0.0000 0.0000 0.0000 -35.2346 0.0000 0.0000
# 5 0.0000 0.0000 0.0000 0.0000 8.6012 0.0000
# 6 0.0000 0.0000 0.0000 0.0000 0.0000 16.0721
#
#
#
# Elastic Compliance Matrix: (Units=1/GPa)
#
#
# Indices 1 2 3 4 5 6 
#
# 1 0.016164 -0.005541 -0.006813 0.000000 0.000000 0.000000
# 2 -0.005541 0.039318 -0.009874 0.000000 0.000000 0.000000
# 3 -0.006813 -0.009874 0.012717 0.000000 0.000000 0.000000
# 4 0.000000 0.000000 0.000000 -0.028381 0.000000 0.000000
# 5 0.000000 0.000000 0.000000 0.000000 0.116263 0.000000
# 6 0.000000 0.000000 0.000000 0.000000 0.000000 0.062220
#
#
# Mechanical properties :
#
#
# Convention : Reuss Voigt Hill
#
# Bulk Modulus (GPa) = 42.11733 77.78090 59.94912
# Shear Modulus (GPa) = 18.47274 7.45575 12.96425
#
# Velocity S-wave (km/s) = 3.28061 2.08417 2.74829
# Velocity P-wave (km/s) = 6.23601 7.14895 6.70803
#
# Compressibility (1/GPa) = 0.02374319
#
# Stress axis : x y z
#
# Youngs Moduli (GPa) = 61.86753 25.43367 78.63603
#
# Poissons Ratio (x) = 0.14094 0.53572
# Poissons Ratio (y) = 0.34283 0.77641
# Poissons Ratio (z) = 0.42148 0.25112
#
# Static dielectric constant tensor:
#      x y z
#    x 1.576040 0.000000 0.000000 
#    y 0.000000 1.575850 0.000000 
#    z 0.000000 0.000000 1.564910 
# 
# From -- ./inp_files/13856.got.cif
#   From: 2010.05.17/outbox.cif.g08.bks.cpg/sg47_7_cif.got.tgz:13856.got - 2010.06.03 20:15:42.
