data_PCOD9382216
_publ_section_title
;
Structure prediction by ZEFSAII (Michael W. Deem and Ramdas Pophale) SiO2 
 PCOD9382216
Probable space group: P M M M
;
_chemical_formula_sum "Si O2"
_cell_formula_units_Z 48
_cell_length_a 17.858008
_cell_length_b 15.939437
_cell_length_c 7.942106
_cell_angle_alpha 90.000000
_cell_angle_beta 90.000000
_cell_angle_gamma 90.000000
_cell_volume 2260.693418
_symmetry_space_group_name_H-M "P M M M"
_symmetry_group_IT_number 47
_symmetry_cell_setting 'orthorhombic'
loop_
_space_group_symop_operation_xyz
x,y,z
-x,-y,z
x,-y,-z
-x,y,-z
-x,-y,-z
x,y,-z
-x,y,z
x,-y,z
loop_
_atom_site_type_symbol
_atom_site_label
_atom_site_fract_x
_atom_site_fract_y
_atom_site_fract_z
Si Si1 0.340009 0.160228 0.297561
Si Si2 0.819214 0.907669 0.796344
Si Si3 0.084266 0.751919 0.200297
Si Si4 0.500000 0.337198 0.205482
Si Si5 0.500000 0.857192 0.304778
Si Si6 0.176861 0.591346 0.303871
Si Si7 0.336602 0.354417 0.196996
O O1 0.345489 0.169944 0.500000
O O2 0.266245 0.108999 0.255266
O O3 0.418346 0.119785 0.234808
O O4 0.332182 0.253505 0.220818
O O5 0.870545 0.831976 0.730715
O O6 0.843547 0.000000 0.740058
O O7 0.821540 0.905981 0.000000
O O8 0.132768 0.668558 0.225326
O O9 0.000000 0.744263 0.268539
O O10 0.078434 0.764686 0.000000
O O11 0.500000 0.244626 0.287621
O O12 0.420874 0.378859 0.251574
O O13 0.500000 0.326897 0.000000
O O14 0.500000 0.883199 0.500000
O O15 0.157433 0.591190 0.500000
O O16 0.158189 0.500000 0.230554
O O17 0.265865 0.605949 0.287724
O O18 0.329008 0.374266 0.000000
#
# Coordination Sequence:
#
# PCOD9382216 Si02
#       7
#     8   8   8   4   4   8   8
#     4  10  18  31  53  80 113 153 195 238 285 335
#     4  10  21  37  58  86 119 153 190 233 283 341
#     4  10  22  41  65  90 115 147 187 233 287 347
#     4   8  16  28  47  78 111 146 190 238 285 333
#     4   8  16  28  45  74 109 148 194 238 279 329
#     4  11  24  40  59  86 119 155 193 234 284 340
#     4  10  18  32  55  82 114 152 194 239 287 337
#
# _framework density 21.232422
#
# number of rings (size 3 to 8) (size 9 to 14) (size 15 to 20)
#    0.000    2.167    1.667    1.500    0.000    4.000 
#    0.000    4.167    0.000    5.000    0.000    2.333 
#    0.000    0.000    0.000    0.000    0.000    0.000 
#
# Total GULP energy -267883.596793 kJ/mol
# GULP energy per Si atom -5580.908267 kJ/mol
# Density = 2.118410 g / cm^3
# Si number density = 21.232422 Si / 1000 Ang^3
#
#
#
# Elastic Constant Matrix: (Units=GPa)
#
#
# Indices 1 2 3 4 5 6 
#
# 1 157.4641 72.0654 5.2342 0.0000 0.0000 0.0000
# 2 72.0654 116.1072 -0.2313 0.0000 0.0000 0.0000
# 3 5.2342 -0.2313 23.5535 0.0000 0.0000 0.0000
# 4 0.0000 0.0000 0.0000 18.3748 0.0000 0.0000
# 5 0.0000 0.0000 0.0000 0.0000 -2.5321 0.0000
# 6 0.0000 0.0000 0.0000 0.0000 0.0000 -8.3249
#
#
#
# Elastic Compliance Matrix: (Units=1/GPa)
#
#
# Indices 1 2 3 4 5 6 
#
# 1 0.008968 -0.005570 -0.002048 0.000000 0.000000 0.000000
# 2 -0.005570 0.012073 0.001356 0.000000 0.000000 0.000000
# 3 -0.002048 0.001356 0.042925 0.000000 0.000000 0.000000
# 4 0.000000 0.000000 0.000000 0.054422 0.000000 0.000000
# 5 0.000000 0.000000 0.000000 0.000000 -0.394932 0.000000
# 6 0.000000 0.000000 0.000000 0.000000 0.000000 -0.120122
#
#
# Mechanical properties :
#
#
# Convention : Reuss Voigt Hill
#
# Bulk Modulus (GPa) = 19.43915 50.14015 34.78965
# Shear Modulus (GPa) = -13.62417 16.17401 1.27492
#
# Velocity S-wave (km/s) = -2.53587 2.76299 0.77573
# Velocity P-wave (km/s) = 0.77533 5.81765 4.15007
#
# Compressibility (1/GPa) = 0.05144258
#
# Stress axis : x y z
#
# Youngs Moduli (GPa) = 111.50673 82.83048 23.29655
#
# Poissons Ratio (x) = 0.46140 0.04770
# Poissons Ratio (y) = 0.62113 -0.03160
# Poissons Ratio (z) = 0.22832 -0.11235
#
# Static dielectric constant tensor:
#      x y z
#    x 1.782010 0.000000 0.000000 
#    y 0.000000 1.771130 0.000000 
#    z 0.000000 0.000000 1.782690 
# 
# From -- ./inp_files/9220.got.cif
#   From: 2010.05.17/outbox.cif.g08.bks.cpg/sg47_5_cif.got.tgz:9220.got - 2010.06.03 20:15:42.
