data_PCOD9382053
_publ_section_title
;
Structure prediction by ZEFSAII (Michael W. Deem and Ramdas Pophale) SiO2 
 PCOD9382053
Probable space group: P M M M
;
_chemical_formula_sum "Si O2"
_cell_formula_units_Z 52
_cell_length_a 8.575149
_cell_length_b 28.152616
_cell_length_c 12.418693
_cell_angle_alpha 90.000000
_cell_angle_beta 90.000000
_cell_angle_gamma 90.000000
_cell_volume 2998.032405
_symmetry_space_group_name_H-M "P M M M"
_symmetry_group_IT_number 47
_symmetry_cell_setting 'orthorhombic'
loop_
_space_group_symop_operation_xyz
x,y,z
-x,-y,z
x,-y,-z
-x,y,-z
-x,-y,-z
x,y,-z
-x,y,z
x,-y,z
loop_
_atom_site_type_symbol
_atom_site_label
_atom_site_fract_x
_atom_site_fract_y
_atom_site_fract_z
Si Si1 0.188527 0.909381 0.265636
Si Si2 0.688404 0.176132 0.124840
Si Si3 0.190558 0.555039 0.000000
Si Si4 0.184331 0.380103 0.799884
Si Si5 0.312479 0.283719 0.876658
Si Si6 0.686054 0.447290 0.627467
Si Si7 0.809772 0.055595 0.500000
Si Si8 0.190091 0.000000 0.123973
O O1 0.247362 0.861782 0.208798
O O2 0.240103 0.919310 0.388686
O O3 0.238669 0.953489 0.190194
O O4 0.000000 0.908786 0.266439
O O5 0.500000 0.174599 0.126379
O O6 0.737642 0.230205 0.152123
O O7 0.736336 0.166219 0.000000
O O8 0.242218 0.585207 0.103990
O O9 0.242668 0.500000 0.000000
O O10 0.000000 0.553904 0.000000
O O11 0.253945 0.327663 0.807992
O O12 0.228088 0.406454 0.690872
O O13 0.000000 0.376095 0.812095
O O14 0.500000 0.283706 0.875672
O O15 0.260783 0.292400 0.000000
O O16 0.712380 0.444482 0.500000
O O17 0.500000 0.443758 0.645240
O O18 0.737039 0.500000 0.664434
O O19 0.000000 0.055608 0.500000
O O20 0.762703 0.000000 0.500000
O O21 0.000000 0.000000 0.122243
O O22 0.243335 0.000000 0.000000
#
# Coordination Sequence:
#
# PCOD9382053 Si02
#       8
#     8   8   4   8   8   8   4   4
#     4  10  18  30  51  76 102 134 172 212 249 295
#     4   9  19  35  53  74 102 134 167 209 261 307
#     4   9  18  30  43  69 111 145 161 188 247 308
#     4  11  20  31  51  78 108 137 167 209 258 306
#     4   9  18  34  54  73  98 135 174 210 252 309
#     4   9  19  36  55  74  99 134 175 214 251 297
#     4   9  16  30  51  75 103 139 175 205 246 301
#     4   9  16  25  42  72 105 131 162 203 248 296
#
# _framework density 17.344709999999999
#
# number of rings (size 3 to 8) (size 9 to 14) (size 15 to 20)
#    0.000    2.538    1.538    2.769    0.000    2.769 
#    0.000    3.077    1.692    3.692    0.000    0.000 
#    0.000    0.000    0.000    0.000    0.000    0.000 
#
# Total GULP energy -289932.856495 kJ/mol
# GULP energy per Si atom -5575.631856 kJ/mol
# Density = 1.730523 g / cm^3
# Si number density = 17.344710 Si / 1000 Ang^3
#
#
#
# Elastic Constant Matrix: (Units=GPa)
#
#
# Indices 1 2 3 4 5 6 
#
# 1 5.2597 24.4858 18.8586 0.0000 0.0000 0.0000
# 2 24.4858 154.3624 71.5796 0.0000 0.0000 0.0000
# 3 18.8586 71.5796 92.7322 0.0000 0.0000 0.0000
# 4 0.0000 0.0000 0.0000 21.7055 0.0000 0.0000
# 5 0.0000 0.0000 0.0000 0.0000 18.8922 0.0000
# 6 0.0000 0.0000 0.0000 0.0000 0.0000 26.8372
#
#
#
# Elastic Compliance Matrix: (Units=1/GPa)
#
#
# Indices 1 2 3 4 5 6 
#
# 1 2.326382 -0.233057 -0.293212 0.000000 0.000000 0.000000
# 2 -0.233057 0.033437 0.021586 0.000000 0.000000 0.000000
# 3 -0.293212 0.021586 0.053751 0.000000 0.000000 0.000000
# 4 0.000000 0.000000 0.000000 0.046071 0.000000 0.000000
# 5 0.000000 0.000000 0.000000 0.000000 0.052932 0.000000
# 6 0.000000 0.000000 0.000000 0.000000 0.000000 0.037262
#
#
# Mechanical properties :
#
#
# Convention : Reuss Voigt Hill
#
# Bulk Modulus (GPa) = 0.71215 53.57803 27.14509
# Shear Modulus (GPa) = 1.24154 22.64901 11.94528
#
# Velocity S-wave (km/s) = 0.84697 3.61753 2.62715
# Velocity P-wave (km/s) = 1.16959 6.95743 4.98868
#
# Compressibility (1/GPa) = 1.40420353
#
# Stress axis : x y z
#
# Youngs Moduli (GPa) = 0.42985 29.90663 18.60419
#
# Poissons Ratio (x) = 6.96995 5.45498
# Poissons Ratio (y) = 0.10018 -0.40159
# Poissons Ratio (z) = 0.12604 -0.64556
#
# Static dielectric constant tensor:
#      x y z
#    x 1.593970 0.000000 0.000000 
#    y 0.000000 1.583890 0.000000 
#    z 0.000000 0.000000 1.582700 
# 
# From -- ./inp_files/15496.got.cif
#   From: 2010.05.17/outbox.cif.g08.bks.cpg/sg47_8_cif.got.tgz:15496.got - 2010.06.03 20:15:42.
