data_PCOD9382367
_publ_section_title
;
Structure prediction by ZEFSAII (Michael W. Deem and Ramdas Pophale) SiO2 
 PCOD9382367
Probable space group: P M M M
;
_chemical_formula_sum "Si O2"
_cell_formula_units_Z 56
_cell_length_a 7.962489
_cell_length_b 15.781246
_cell_length_c 22.652886
_cell_angle_alpha 90.000000
_cell_angle_beta 90.000000
_cell_angle_gamma 90.000000
_cell_volume 2846.516296
_symmetry_space_group_name_H-M "P M M M"
_symmetry_group_IT_number 47
_symmetry_cell_setting 'orthorhombic'
loop_
_space_group_symop_operation_xyz
x,y,z
-x,-y,z
x,-y,-z
-x,y,-z
-x,-y,-z
x,y,-z
-x,y,z
x,-y,z
loop_
_atom_site_type_symbol
_atom_site_label
_atom_site_fract_x
_atom_site_fract_y
_atom_site_fract_z
Si Si1 0.193501 0.837298 0.626229
Si Si2 0.299225 0.903162 0.500000
Si Si3 0.202655 0.094544 0.931582
Si Si4 0.703583 0.352262 0.344225
Si Si5 0.298553 0.228353 0.165720
Si Si6 0.696686 0.908792 0.743966
Si Si7 0.705099 0.594687 0.789005
Si Si8 0.294968 0.500000 0.567575
O O1 0.242573 0.857246 0.559466
O O2 0.226570 0.739763 0.641696
O O3 0.291708 0.891956 0.674540
O O4 0.000000 0.858188 0.634681
O O5 0.500000 0.905049 0.500000
O O6 0.235756 0.000000 0.500000
O O7 0.261566 0.172275 0.891691
O O8 0.000000 0.093847 0.929997
O O9 0.260046 0.000000 0.911412
O O10 0.253949 0.104084 0.000000
O O11 0.500000 0.346686 0.344631
O O12 0.750742 0.384969 0.279089
O O13 0.756111 0.418247 0.394647
O O14 0.500000 0.234906 0.171364
O O15 0.231885 0.170563 0.219917
O O16 0.236479 0.324978 0.172061
O O17 0.500000 0.912217 0.759583
O O18 0.773659 0.000000 0.758910
O O19 0.500000 0.592531 0.790922
O O20 0.763527 0.500000 0.805168
O O21 0.500000 0.500000 0.566513
O O22 0.236764 0.500000 0.500000
#
# Coordination Sequence:
#
# PCOD9382367 Si02
#       8
#     8   4   8   8   8   8   8   4
#     4  12  25  38  54  79 111 141 173 217 273 331
#     4  11  25  45  65  78  93 130 183 231 274 325
#     4   9  19  36  56  79 112 154 193 227 271 331
#     4  10  18  34  57  78 105 140 179 222 269 322
#     4  10  19  32  54  85 115 142 183 234 276 318
#     4  10  20  35  55  79 108 142 181 224 270 321
#     4   9  16  30  54  81 108 142 184 229 276 324
#     4   9  18  30  53  87 105 125 179 234 269 319
#
# _framework density 19.673169000000001
#
# number of rings (size 3 to 8) (size 9 to 14) (size 15 to 20)
#    0.000    2.000    2.143    2.786    1.000    4.286 
#    0.000    1.071    0.000    2.143    0.000    3.000 
#    0.000    0.000    0.000    0.000    0.000    0.000 
#
# Total GULP energy -312582.129163 kJ/mol
# GULP energy per Si atom -5581.823735 kJ/mol
# Density = 1.962839 g / cm^3
# Si number density = 19.673169 Si / 1000 Ang^3
#
#
#
# Elastic Constant Matrix: (Units=GPa)
#
#
# Indices 1 2 3 4 5 6 
#
# 1 17.5197 9.5899 -4.5109 0.0000 0.0000 0.0000
# 2 9.5899 188.0473 68.7270 0.0000 0.0000 0.0000
# 3 -4.5109 68.7270 94.9421 0.0000 0.0000 0.0000
# 4 0.0000 0.0000 0.0000 35.8706 0.0000 0.0000
# 5 0.0000 0.0000 0.0000 0.0000 41.7458 0.0000
# 6 0.0000 0.0000 0.0000 0.0000 0.0000 -3.4539
#
#
#
# Elastic Compliance Matrix: (Units=1/GPa)
#
#
# Indices 1 2 3 4 5 6 
#
# 1 0.062072 -0.005770 0.007126 0.000000 0.000000 0.000000
# 2 -0.005770 0.007767 -0.005897 0.000000 0.000000 0.000000
# 3 0.007126 -0.005897 0.015140 0.000000 0.000000 0.000000
# 4 0.000000 0.000000 0.000000 0.027878 0.000000 0.000000
# 5 0.000000 0.000000 0.000000 0.000000 0.023955 0.000000
# 6 0.000000 0.000000 0.000000 0.000000 0.000000 -0.289528
#
#
# Mechanical properties :
#
#
# Convention : Reuss Voigt Hill
#
# Bulk Modulus (GPa) = 13.17567 49.79122 31.48344
# Shear Modulus (GPa) = -42.25239 29.94603 -6.15318
#
# Velocity S-wave (km/s) = -4.63937 3.90574 -1.77045
# Velocity P-wave (km/s) = 4.68898 6.76047 3.44364
#
# Compressibility (1/GPa) = 0.07589746
#
# Stress axis : x y z
#
# Youngs Moduli (GPa) = 16.11039 128.74746 66.05116
#
# Poissons Ratio (x) = 0.74285 -0.47067
# Poissons Ratio (y) = 0.09295 0.38948
# Poissons Ratio (z) = -0.11480 0.75918
#
# Static dielectric constant tensor:
#      x y z
#    x 1.703060 0.000000 0.000000 
#    y 0.000000 1.715160 0.000000 
#    z 0.000000 0.000000 2.194440 
# 
# From -- ./inp_files/29816.got.cif
#   From: 2010.05.17/outbox.cif.g08.bks.cpg/sg47_15_cif.got.tgz:29816.got - 2010.06.03 20:15:42.
