data_PCOD9382648
_publ_section_title
;
Structure prediction by ZEFSAII (Michael W. Deem and Ramdas Pophale) SiO2 
 PCOD9382648
Probable space group: P M M M
;
_chemical_formula_sum "Si O2"
_cell_formula_units_Z 40
_cell_length_a 8.972321
_cell_length_b 22.731526
_cell_length_c 13.218965
_cell_angle_alpha 90.000000
_cell_angle_beta 90.000000
_cell_angle_gamma 90.000000
_cell_volume 2696.068033
_symmetry_space_group_name_H-M "P M M M"
_symmetry_group_IT_number 47
_symmetry_cell_setting 'orthorhombic'
loop_
_space_group_symop_operation_xyz
x,y,z
-x,-y,z
x,-y,-z
-x,y,-z
-x,-y,-z
x,y,-z
-x,y,z
x,-y,z
loop_
_atom_site_type_symbol
_atom_site_label
_atom_site_fract_x
_atom_site_fract_y
_atom_site_fract_z
Si Si1 0.679559 0.861980 0.311355
Si Si2 0.177074 0.070262 0.500000
Si Si3 0.172337 0.500000 0.623336
Si Si4 0.318815 0.932284 0.886362
Si Si5 0.176333 0.257279 0.621483
Si Si6 0.671656 0.620614 0.376951
O O1 0.500000 0.863194 0.318326
O O2 0.748447 0.900774 0.401640
O O3 0.727308 0.890051 0.204366
O O4 0.738521 0.796028 0.325635
O O5 0.000000 0.082981 0.500000
O O6 0.198113 0.000000 0.500000
O O7 0.175931 0.500000 0.500000
O O8 0.253375 0.559714 0.656762
O O9 0.000000 0.500000 0.653578
O O10 0.500000 0.932134 0.886983
O O11 0.272975 0.000000 0.867177
O O12 0.270032 0.915754 0.000000
O O13 0.200058 0.251173 0.500000
O O14 0.239117 0.320921 0.652620
O O15 0.000000 0.253732 0.639616
O O16 0.673318 0.619509 0.500000
O O17 0.500000 0.624016 0.344921
#
# Coordination Sequence:
#
# PCOD9382648 Si02
#       6
#     8   4   4   8   8   8
#     4  11  20  30  48  69  88 112 147 185 220 264
#     4  11  23  35  45  61  89 120 145 176 221 267
#     4   9  15  23  35  53  77 107 144 181 222 263
#     4   8  15  29  48  69  90 110 137 179 229 273
#     4  10  19  30  42  57  84 119 149 178 220 268
#     4   9  16  25  38  55  77 106 146 189 221 251
#
# _framework density 14.836421
#
# number of rings (size 3 to 8) (size 9 to 14) (size 15 to 20)
#    0.000    2.400    1.000    3.600    0.000    6.000 
#    0.000    0.000    0.000    2.400    0.000    7.000 
#    0.000    0.000    0.000    0.900    0.000   18.700 
#
# Total GULP energy -222982.469926 kJ/mol
# GULP energy per Si atom -5574.561748 kJ/mol
# Density = 1.480265 g / cm^3
# Si number density = 14.836421 Si / 1000 Ang^3
#
#
#
# Elastic Constant Matrix: (Units=GPa)
#
#
# Indices 1 2 3 4 5 6 
#
# 1 75.6665 61.7329 35.2656 0.0000 0.0000 0.0000
# 2 61.7329 140.2520 61.3241 0.0000 0.0000 0.0000
# 3 35.2656 61.3241 71.0800 0.0000 0.0000 0.0000
# 4 0.0000 0.0000 0.0000 9.1772 0.0000 0.0000
# 5 0.0000 0.0000 0.0000 0.0000 2.4375 0.0000
# 6 0.0000 0.0000 0.0000 0.0000 0.0000 28.1680
#
#
#
# Elastic Compliance Matrix: (Units=1/GPa)
#
#
# Indices 1 2 3 4 5 6 
#
# 1 0.021300 -0.007635 -0.003981 0.000000 0.000000 0.000000
# 2 -0.007635 0.014185 -0.008451 0.000000 0.000000 0.000000
# 3 -0.003981 -0.008451 0.023334 0.000000 0.000000 0.000000
# 4 0.000000 0.000000 0.000000 0.108966 0.000000 0.000000
# 5 0.000000 0.000000 0.000000 0.000000 0.410259 0.000000
# 6 0.000000 0.000000 0.000000 0.000000 0.000000 0.035501
#
#
# Mechanical properties :
#
#
# Convention : Reuss Voigt Hill
#
# Bulk Modulus (GPa) = 53.51175 67.07152 60.29164
# Shear Modulus (GPa) = 7.57681 16.53493 12.05587
#
# Velocity S-wave (km/s) = 2.26230 3.34201 2.85368
# Velocity P-wave (km/s) = 6.55516 7.75871 7.18219
#
# Compressibility (1/GPa) = 0.01868748
#
# Stress axis : x y z
#
# Youngs Moduli (GPa) = 46.94812 70.49474 42.85507
#
# Poissons Ratio (x) = 0.53821 0.17060
# Poissons Ratio (y) = 0.35844 0.36215
# Poissons Ratio (z) = 0.18690 0.59572
#
# Static dielectric constant tensor:
#      x y z
#    x 1.496370 0.000000 0.000000 
#    y 0.000000 1.488420 0.000000 
#    z 0.000000 0.000000 1.466860 
# 
# From -- ./inp_files/15110.got.cif
#   From: 2010.05.17/outbox.cif.g08.bks.cpg/sg47_8_cif.got.tgz:15110.got - 2010.06.03 20:15:42.
