data_PCOD9382521
_publ_section_title
;
Structure prediction by ZEFSAII (Michael W. Deem and Ramdas Pophale) SiO2 
 PCOD9382521
Probable space group: P M M M
;
_chemical_formula_sum "Si O2"
_cell_formula_units_Z 56
_cell_length_a 26.272154
_cell_length_b 15.097710
_cell_length_c 7.596192
_cell_angle_alpha 90.000000
_cell_angle_beta 90.000000
_cell_angle_gamma 90.000000
_cell_volume 3013.024712
_symmetry_space_group_name_H-M "P M M M"
_symmetry_group_IT_number 47
_symmetry_cell_setting 'orthorhombic'
loop_
_space_group_symop_operation_xyz
x,y,z
-x,-y,z
x,-y,-z
-x,y,-z
-x,-y,-z
x,y,-z
-x,y,z
x,-y,z
loop_
_atom_site_type_symbol
_atom_site_label
_atom_site_fract_x
_atom_site_fract_y
_atom_site_fract_z
Si Si1 0.942364 0.899544 0.787670
Si Si2 0.747742 0.900338 0.207791
Si Si3 0.652714 0.216590 0.216091
Si Si4 0.307151 0.402087 0.787297
Si Si5 0.812411 0.597763 0.290558
Si Si6 0.845341 0.785147 0.292925
Si Si7 0.442250 0.101358 0.214642
O O1 0.899750 0.830118 0.734389
O O2 0.000000 0.879138 0.728487
O O3 0.929664 0.000000 0.728374
O O4 0.942965 0.901363 0.000000
O O5 0.701254 0.841097 0.276932
O O6 0.800878 0.849046 0.224403
O O7 0.750082 0.000000 0.281508
O O8 0.737802 0.908595 0.000000
O O9 0.660853 0.317720 0.273769
O O10 0.600934 0.169158 0.273253
O O11 0.652856 0.217033 0.000000
O O12 0.322961 0.500000 0.724974
O O13 0.248055 0.389437 0.736726
O O14 0.308912 0.402744 0.000000
O O15 0.821949 0.593872 0.500000
O O16 0.825589 0.500000 0.217798
O O17 0.839753 0.685566 0.218914
O O18 0.835891 0.778596 0.500000
O O19 0.500000 0.122052 0.270478
O O20 0.430348 0.000000 0.267217
O O21 0.442094 0.102054 0.000000
#
# Coordination Sequence:
#
# PCOD9382521 Si02
#       7
#     8   8   8   8   8   8   8
#     4   9  19  36  55  72  92 123 160 190 217 257
#     4  10  19  29  42  62  90 123 152 178 218 274
#     4   9  15  24  38  57  83 114 147 185 225 266
#     4   9  16  26  42  63  85 111 146 186 225 268
#     4   9  18  32  47  64  90 122 153 184 220 267
#     4  11  21  31  47  71  96 120 148 186 229 269
#     4   8  13  21  34  53  78 111 151 189 222 261
#
# _framework density 18.585974
#
# number of rings (size 3 to 8) (size 9 to 14) (size 15 to 20)
#    0.000    2.714    1.429    2.143    0.000    4.857 
#    0.000    0.714    0.000    0.857    0.000    6.000 
#    0.000    2.286    0.000   11.429    0.000   10.857 
#
# Total GULP energy -312275.526908 kJ/mol
# GULP energy per Si atom -5576.348695 kJ/mol
# Density = 1.854367 g / cm^3
# Si number density = 18.585974 Si / 1000 Ang^3
#
#
#
# Elastic Constant Matrix: (Units=GPa)
#
#
# Indices 1 2 3 4 5 6 
#
# 1 105.0002 102.6101 -8.5905 0.0000 0.0000 0.0000
# 2 102.6101 206.1394 3.6967 0.0000 0.0000 0.0000
# 3 -8.5905 3.6967 36.6968 0.0000 0.0000 0.0000
# 4 0.0000 0.0000 0.0000 8.1751 0.0000 0.0000
# 5 0.0000 0.0000 0.0000 0.0000 -240.9859 0.0000
# 6 0.0000 0.0000 0.0000 0.0000 0.0000 19.7265
#
#
#
# Elastic Compliance Matrix: (Units=1/GPa)
#
#
# Indices 1 2 3 4 5 6 
#
# 1 0.019626 -0.009869 0.005588 0.000000 0.000000 0.000000
# 2 -0.009869 0.009823 -0.003300 0.000000 0.000000 0.000000
# 3 0.005588 -0.003300 0.028891 0.000000 0.000000 0.000000
# 4 0.000000 0.000000 0.000000 0.122323 0.000000 0.000000
# 5 0.000000 0.000000 0.000000 0.000000 -0.004150 0.000000
# 6 0.000000 0.000000 0.000000 0.000000 0.000000 0.050693
#
#
# Mechanical properties :
#
#
# Convention : Reuss Voigt Hill
#
# Bulk Modulus (GPa) = 23.15992 60.36324 41.76158
# Shear Modulus (GPa) = 19.47347 -25.94218 -3.23436
#
# Velocity S-wave (km/s) = 3.24041 -3.74008 -1.32060
# Velocity P-wave (km/s) = 5.14668 3.72792 4.49365
#
# Compressibility (1/GPa) = 0.04317805
#
# Stress axis : x y z
#
# Youngs Moduli (GPa) = 50.95378 101.80294 34.61292
#
# Poissons Ratio (x) = 1.00472 -0.19343
# Poissons Ratio (y) = 0.50288 0.11422
# Poissons Ratio (z) = -0.28475 0.33594
#
# Static dielectric constant tensor:
#      x y z
#    x 1.599510 0.000000 0.000000 
#    y 0.000000 1.676430 0.000000 
#    z 0.000000 0.000000 1.711430 
# 
# From -- ./inp_files/14207.got.cif
#   From: 2010.05.17/outbox.cif.g08.bks.cpg/sg47_8_cif.got.tgz:14207.got - 2010.06.03 20:15:42.
