data_PCOD9382901
_publ_section_title
;
Structure prediction by ZEFSAII (Michael W. Deem and Ramdas Pophale) SiO2 
 PCOD9382901
Probable space group: P M M M
;
_chemical_formula_sum "Si O2"
_cell_formula_units_Z 64
_cell_length_a 28.994398
_cell_length_b 14.402717
_cell_length_c 8.928190
_cell_angle_alpha 90.000000
_cell_angle_beta 90.000000
_cell_angle_gamma 90.000000
_cell_volume 3728.395261
_symmetry_space_group_name_H-M "P M M M"
_symmetry_group_IT_number 47
_symmetry_cell_setting 'orthorhombic'
loop_
_space_group_symop_operation_xyz
x,y,z
-x,-y,z
x,-y,-z
-x,y,-z
-x,-y,-z
x,y,-z
-x,y,z
x,-y,z
loop_
_atom_site_type_symbol
_atom_site_label
_atom_site_fract_x
_atom_site_fract_y
_atom_site_fract_z
Si Si1 0.866885 0.779383 0.821669
Si Si2 0.194910 0.607312 0.180987
Si Si3 0.622794 0.737578 0.176965
Si Si4 0.785959 0.893556 0.677280
Si Si5 0.053986 0.894462 0.319886
Si Si6 0.551971 0.107125 0.182283
Si Si7 0.277869 0.279068 0.677176
Si Si8 0.447466 0.611107 0.671765
O O1 0.845888 0.679159 0.773754
O O2 0.828454 0.853805 0.770885
O O3 0.914014 0.815646 0.749778
O O4 0.871406 0.778273 0.000000
O O5 0.187662 0.500000 0.225377
O O6 0.242302 0.648776 0.247400
O O7 0.197843 0.610589 0.000000
O O8 0.593315 0.826730 0.232621
O O9 0.671240 0.720736 0.256224
O O10 0.588616 0.653606 0.214866
O O11 0.630490 0.746790 0.000000
O O12 0.797903 0.888494 0.500000
O O13 0.743967 0.823095 0.702526
O O14 0.775527 0.000000 0.713798
O O15 0.058034 0.891240 0.500000
O O16 0.000000 0.882958 0.282027
O O17 0.067854 0.000000 0.273342
O O18 0.500000 0.134915 0.230912
O O19 0.559018 0.000000 0.225383
O O20 0.551691 0.110858 0.000000
O O21 0.279009 0.296800 0.500000
O O22 0.437387 0.640756 0.500000
O O23 0.500000 0.638644 0.707724
O O24 0.445608 0.500000 0.674213
#
# Coordination Sequence:
#
# PCOD9382901 Si02
#       8
#     8   8   8   8   8   8   8   8
#     4  10  19  30  49  78 104 127 163 210 255 296
#     4   9  19  37  57  74  96 127 163 206 254 301
#     4  11  21  32  50  75 100 127 158 193 237 287
#     4   9  18  33  51  69  94 131 168 199 237 289
#     4   9  18  32  49  71 104 146 182 207 239 288
#     4   8  15  29  48  70  96 125 158 195 233 276
#     4  10  21  35  50  71  98 127 161 200 241 287
#     4   9  19  36  55  73  94 121 152 187 231 283
#
# _framework density 17.165562000000001
#
# number of rings (size 3 to 8) (size 9 to 14) (size 15 to 20)
#    0.000    2.625    0.000    3.000    0.000    5.500 
#    0.000    1.250    0.000    1.500    0.000    7.000 
#    0.000    0.000    0.000    0.000    0.000    0.000 
#
# Total GULP energy -356778.087307 kJ/mol
# GULP energy per Si atom -5574.657614 kJ/mol
# Density = 1.712649 g / cm^3
# Si number density = 17.165562 Si / 1000 Ang^3
#
#
#
# Elastic Constant Matrix: (Units=GPa)
#
#
# Indices 1 2 3 4 5 6 
#
# 1 108.7646 60.5611 35.0466 0.0000 0.0000 0.0000
# 2 60.5611 118.5294 29.9875 0.0000 0.0000 0.0000
# 3 35.0466 29.9875 21.9633 0.0000 0.0000 0.0000
# 4 0.0000 0.0000 0.0000 20.7409 0.0000 0.0000
# 5 0.0000 0.0000 0.0000 0.0000 -3.9677 0.0000
# 6 0.0000 0.0000 0.0000 0.0000 0.0000 21.7211
#
#
#
# Elastic Compliance Matrix: (Units=1/GPa)
#
#
# Indices 1 2 3 4 5 6 
#
# 1 0.019701 -0.003227 -0.027030 0.000000 0.000000 0.000000
# 2 -0.003227 0.013418 -0.013170 0.000000 0.000000 0.000000
# 3 -0.027030 -0.013170 0.106643 0.000000 0.000000 0.000000
# 4 0.000000 0.000000 0.000000 0.048214 0.000000 0.000000
# 5 0.000000 0.000000 0.000000 0.000000 -0.252038 0.000000
# 6 0.000000 0.000000 0.000000 0.000000 0.000000 0.046038
#
#
# Mechanical properties :
#
#
# Convention : Reuss Voigt Hill
#
# Bulk Modulus (GPa) = 18.90098 55.60532 37.25315
# Shear Modulus (GPa) = 57.82638 15.94300 36.88469
#
# Velocity S-wave (km/s) = 5.81038 3.05089 4.64050
# Velocity P-wave (km/s) = 7.48659 6.69884 7.10364
#
# Compressibility (1/GPa) = 0.05290731
#
# Stress axis : x y z
#
# Youngs Moduli (GPa) = 50.75909 74.52865 9.37710
#
# Poissons Ratio (x) = 0.24054 0.25346
# Poissons Ratio (y) = 0.16382 0.12349
# Poissons Ratio (z) = 1.37201 0.98152
#
# Static dielectric constant tensor:
#      x y z
#    x 1.565710 0.000000 0.000000 
#    y 0.000000 1.592370 0.000000 
#    z 0.000000 0.000000 1.583980 
# 
# From -- ./inp_files/14303.got.cif
#   From: 2010.05.17/outbox.cif.g08.bks.cpg/sg47_8_cif.got.tgz:14303.got - 2010.06.03 20:15:42.
