data_PCOD9382792
_publ_section_title
;
Structure prediction by ZEFSAII (Michael W. Deem and Ramdas Pophale) SiO2 
 PCOD9382792
Probable space group: P M M M
;
_chemical_formula_sum "Si O2"
_cell_formula_units_Z 64
_cell_length_a 8.856198
_cell_length_b 18.688966
_cell_length_c 23.667332
_cell_angle_alpha 90.000000
_cell_angle_beta 90.000000
_cell_angle_gamma 90.000000
_cell_volume 3917.255460
_symmetry_space_group_name_H-M "P M M M"
_symmetry_group_IT_number 47
_symmetry_cell_setting 'orthorhombic'
loop_
_space_group_symop_operation_xyz
x,y,z
-x,-y,z
x,-y,-z
-x,y,-z
-x,-y,-z
x,y,-z
-x,y,z
x,-y,z
loop_
_atom_site_type_symbol
_atom_site_label
_atom_site_fract_x
_atom_site_fract_y
_atom_site_fract_z
Si Si1 0.323276 0.151958 0.332027
Si Si2 0.830760 0.082367 0.762551
Si Si3 0.676777 0.185262 0.845230
Si Si4 0.318513 0.624367 0.563506
Si Si5 0.179463 0.419516 0.318451
Si Si6 0.825000 0.217602 0.435361
Si Si7 0.819221 0.919052 0.933171
Si Si8 0.679931 0.710825 0.250459
O O1 0.500000 0.134535 0.328792
O O2 0.219184 0.094091 0.301498
O O3 0.268063 0.166976 0.394570
O O4 0.298131 0.225763 0.296540
O O5 0.707976 0.123772 0.798996
O O6 0.000000 0.111803 0.772533
O O7 0.832657 0.000000 0.777708
O O8 0.500000 0.194365 0.856212
O O9 0.754127 0.148869 0.899466
O O10 0.730590 0.256258 0.810530
O O11 0.280402 0.596013 0.500000
O O12 0.500000 0.625873 0.567628
O O13 0.252656 0.586950 0.619078
O O14 0.251810 0.704399 0.566318
O O15 0.209040 0.500000 0.297225
O O16 0.242349 0.359184 0.276077
O O17 0.000000 0.409649 0.324482
O O18 0.822222 0.193278 0.500000
O O19 0.000000 0.223572 0.417012
O O20 0.000000 0.918923 0.925109
O O21 0.766272 0.000000 0.915773
O O22 0.788289 0.912730 0.000000
O O23 0.500000 0.698483 0.246644
#
# Coordination Sequence:
#
# PCOD9382792 Si02
#       8
#     8   8   8   8   8   8   8   8
#     4  10  19  31  49  70  91 116 149 191 237 285
#     4  10  20  32  47  68  94 125 159 194 237 286
#     4  10  20  32  49  73 100 130 167 209 245 279
#     4  10  20  33  49  68  91 121 156 193 236 291
#     4  11  23  35  49  70  95 124 158 200 249 298
#     4  10  19  30  47  69  90 114 146 186 232 283
#     4   9  18  32  49  72 106 146 182 210 238 279
#     4   9  19  34  49  68  93 123 159 197 240 289
#
# _framework density 16.337969000000001
#
# number of rings (size 3 to 8) (size 9 to 14) (size 15 to 20)
#    0.000    2.125    1.250    3.750    0.000    8.250 
#    0.000    1.875    0.000    0.375    0.000    2.625 
#    0.000    0.500    0.000    5.500    0.000    4.000 
#
# Total GULP energy -356556.630412 kJ/mol
# GULP energy per Si atom -5571.197350 kJ/mol
# Density = 1.630078 g / cm^3
# Si number density = 16.337969 Si / 1000 Ang^3
#
#
#
# Elastic Constant Matrix: (Units=GPa)
#
#
# Indices 1 2 3 4 5 6 
#
# 1 40.0006 24.4526 29.0335 0.0000 0.0000 0.0000
# 2 24.4526 53.8017 38.5212 0.0000 0.0000 0.0000
# 3 29.0335 38.5212 78.7828 0.0000 0.0000 0.0000
# 4 0.0000 0.0000 0.0000 18.0461 0.0000 0.0000
# 5 0.0000 0.0000 0.0000 0.0000 27.8786 0.0000
# 6 0.0000 0.0000 0.0000 0.0000 0.0000 68.9332
#
#
#
# Elastic Compliance Matrix: (Units=1/GPa)
#
#
# Indices 1 2 3 4 5 6 
#
# 1 0.038034 -0.011156 -0.008561 0.000000 0.000000 0.000000
# 2 -0.011156 0.031871 -0.011472 0.000000 0.000000 0.000000
# 3 -0.008561 -0.011472 0.021458 0.000000 0.000000 0.000000
# 4 0.000000 0.000000 0.000000 0.055414 0.000000 0.000000
# 5 0.000000 0.000000 0.000000 0.000000 0.035870 0.000000
# 6 0.000000 0.000000 0.000000 0.000000 0.000000 0.014507
#
#
# Mechanical properties :
#
#
# Convention : Reuss Voigt Hill
#
# Bulk Modulus (GPa) = 34.50345 39.62220 37.06282
# Shear Modulus (GPa) = 18.57402 28.34343 23.45872
#
# Velocity S-wave (km/s) = 3.37540 4.16964 3.79336
# Velocity P-wave (km/s) = 6.02955 6.89097 6.47460
#
# Compressibility (1/GPa) = 0.02898261
#
# Stress axis : x y z
#
# Youngs Moduli (GPa) = 26.29254 31.37636 46.60343
#
# Poissons Ratio (x) = 0.35004 0.39899
# Poissons Ratio (y) = 0.29332 0.53464
# Poissons Ratio (z) = 0.22510 0.35996
#
# Static dielectric constant tensor:
#      x y z
#    x 1.556410 0.000000 0.000000 
#    y 0.000000 1.559190 0.000000 
#    z 0.000000 0.000000 1.587040 
# 
# From -- ./inp_files/10230.got.cif
#   From: 2010.05.17/outbox.cif.g08.bks.cpg/sg47_6_cif.got.tgz:10230.got - 2010.06.03 20:15:42.
