data_PCOD9382017
_publ_section_title
;
Structure prediction by ZEFSAII (Michael W. Deem and Ramdas Pophale) SiO2 
 PCOD9382017
Probable space group: P M M M
;
_chemical_formula_sum "Si O2"
_cell_formula_units_Z 40
_cell_length_a 10.662540
_cell_length_b 24.729122
_cell_length_c 7.745251
_cell_angle_alpha 90.000000
_cell_angle_beta 90.000000
_cell_angle_gamma 90.000000
_cell_volume 2042.231013
_symmetry_space_group_name_H-M "P M M M"
_symmetry_group_IT_number 47
_symmetry_cell_setting 'orthorhombic'
loop_
_space_group_symop_operation_xyz
x,y,z
-x,-y,z
x,-y,-z
-x,y,-z
-x,-y,-z
x,y,-z
-x,y,z
x,-y,z
loop_
_atom_site_type_symbol
_atom_site_label
_atom_site_fract_x
_atom_site_fract_y
_atom_site_fract_z
Si Si1 0.749888 0.121876 0.705600
Si Si2 0.142841 0.767160 0.791915
Si Si3 0.640536 0.438576 0.707460
Si Si4 0.500000 0.937214 0.288030
Si Si5 0.141416 0.645057 0.792706
Si Si6 0.000000 0.062701 0.288436
O O1 0.749550 0.113302 0.500000
O O2 0.764554 0.185627 0.736132
O O3 0.624082 0.094050 0.772214
O O4 0.875165 0.092848 0.773634
O O5 0.171844 0.706168 0.732069
O O6 0.000000 0.780005 0.733356
O O7 0.141597 0.766730 0.000000
O O8 0.635231 0.440705 0.500000
O O9 0.500000 0.422712 0.768351
O O10 0.665477 0.500000 0.769344
O O11 0.751047 0.397535 0.750991
O O12 0.500000 0.936593 0.500000
O O13 0.500000 0.000000 0.236710
O O14 0.000000 0.631010 0.730477
O O15 0.134438 0.647611 0.000000
O O16 0.000000 0.064582 0.500000
O O17 0.000000 0.000000 0.239354
#
# Coordination Sequence:
#
# PCOD9382017 Si02
#       6
#     8   8   8   4   8   4
#     4  10  18  30  50  74  97 126 165 204 245 297
#     4   9  18  34  53  72 100 134 165 205 255 298
#     4   9  19  36  55  77 108 142 173 209 256 305
#     4   9  18  32  49  71 101 131 158 199 254 301
#     4   9  19  35  54  77 104 137 177 216 255 302
#     4   9  16  26  45  73  97 119 158 207 244 285
#
# _framework density 19.586423
#
# number of rings (size 3 to 8) (size 9 to 14) (size 15 to 20)
#    0.000    2.800    1.000    2.400    0.000    4.800 
#    1.800    5.500    0.000    3.600    0.000    0.000 
#    0.000    0.000    0.000    0.000    0.000    0.000 
#
# Total GULP energy -223083.140456 kJ/mol
# GULP energy per Si atom -5577.078511 kJ/mol
# Density = 1.954184 g / cm^3
# Si number density = 19.586423 Si / 1000 Ang^3
#
#
#
# Elastic Constant Matrix: (Units=GPa)
#
#
# Indices 1 2 3 4 5 6 
#
# 1 194.2536 135.9921 11.2030 0.0000 0.0000 0.0000
# 2 135.9921 166.9018 1.8690 0.0000 0.0000 0.0000
# 3 11.2030 1.8690 24.5198 0.0000 0.0000 0.0000
# 4 0.0000 0.0000 0.0000 29.3052 0.0000 0.0000
# 5 0.0000 0.0000 0.0000 0.0000 15.5874 0.0000
# 6 0.0000 0.0000 0.0000 0.0000 0.0000 39.4900
#
#
#
# Elastic Compliance Matrix: (Units=1/GPa)
#
#
# Indices 1 2 3 4 5 6 
#
# 1 0.012559 -0.010178 -0.004963 0.000000 0.000000 0.000000
# 2 -0.010178 0.014245 0.003564 0.000000 0.000000 0.000000
# 3 -0.004963 0.003564 0.042779 0.000000 0.000000 0.000000
# 4 0.000000 0.000000 0.000000 0.034124 0.000000 0.000000
# 5 0.000000 0.000000 0.000000 0.000000 0.064155 0.000000
# 6 0.000000 0.000000 0.000000 0.000000 0.000000 0.025323
#
#
# Mechanical properties :
#
#
# Convention : Reuss Voigt Hill
#
# Bulk Modulus (GPa) = 21.53729 75.97818 48.75773
# Shear Modulus (GPa) = 21.56913 32.65059 27.10986
#
# Velocity S-wave (km/s) = 3.32208 4.08732 3.72441
# Velocity P-wave (km/s) = 5.07295 7.81987 6.59110
#
# Compressibility (1/GPa) = 0.04643110
#
# Stress axis : x y z
#
# Youngs Moduli (GPa) = 79.62194 70.20225 23.37593
#
# Poissons Ratio (x) = 0.71451 0.11600
# Poissons Ratio (y) = 0.81038 -0.08332
# Poissons Ratio (z) = 0.39513 -0.25023
#
# Static dielectric constant tensor:
#      x y z
#    x 1.681430 0.000000 0.000000 
#    y 0.000000 1.676000 0.000000 
#    z 0.000000 0.000000 1.725040 
# 
# From -- ./inp_files/1722.got.cif
#   From: 2010.05.17/outbox.cif.g08.bks.cpg/sg47_1_cif.got.tgz:1722.got - 2010.06.03 20:15:42.
