data_PCOD9382681
_publ_section_title
;
Structure prediction by ZEFSAII (Michael W. Deem and Ramdas Pophale) SiO2 
 PCOD9382681
Probable space group: P M M M
;
_chemical_formula_sum "Si O2"
_cell_formula_units_Z 52
_cell_length_a 7.844532
_cell_length_b 19.724215
_cell_length_c 19.074086
_cell_angle_alpha 90.000000
_cell_angle_beta 90.000000
_cell_angle_gamma 90.000000
_cell_volume 2951.280601
_symmetry_space_group_name_H-M "P M M M"
_symmetry_group_IT_number 47
_symmetry_cell_setting 'orthorhombic'
loop_
_space_group_symop_operation_xyz
x,y,z
-x,-y,z
x,-y,-z
-x,y,-z
-x,-y,-z
x,y,-z
-x,y,z
x,-y,z
loop_
_atom_site_type_symbol
_atom_site_label
_atom_site_fract_x
_atom_site_fract_y
_atom_site_fract_z
Si Si1 0.705885 0.422455 0.079271
Si Si2 0.800750 0.209798 0.283067
Si Si3 0.308165 0.082171 0.500000
Si Si4 0.298030 0.424638 0.353530
Si Si5 0.292483 0.712053 0.421618
Si Si6 0.203000 0.076477 0.655778
Si Si7 0.797795 0.344175 0.783376
O O1 0.500000 0.422726 0.079580
O O2 0.761746 0.500000 0.094357
O O3 0.764579 0.372183 0.139588
O O4 0.761520 0.405333 0.000000
O O5 0.784701 0.243266 0.359973
O O6 0.725600 0.134627 0.293084
O O7 0.728582 0.268335 0.232324
O O8 0.000000 0.201413 0.264923
O O9 0.500000 0.109350 0.500000
O O10 0.227469 0.098972 0.574743
O O11 0.311620 0.000000 0.500000
O O12 0.500000 0.429635 0.366037
O O13 0.224057 0.500000 0.360872
O O14 0.236632 0.365290 0.405107
O O15 0.274562 0.395506 0.275008
O O16 0.244820 0.732645 0.500000
O O17 0.500000 0.715258 0.415955
O O18 0.000000 0.072775 0.666872
O O19 0.273099 0.000000 0.663949
O O20 0.000000 0.342084 0.771021
#
# Coordination Sequence:
#
# PCOD9382681 Si02
#       7
#     8   8   4   8   8   8   8
#     4   9  18  32  49  69  93 120 147 173 202 240
#     4   9  19  32  44  60  83 112 142 174 215 259
#     4   9  17  27  39  59  85 107 130 171 226 269
#     4   9  17  29  44  59  77 106 142 178 216 254
#     4   9  18  30  42  58  78 102 138 181 221 260
#     4   9  17  30  46  61  79 108 146 180 212 259
#     4  10  19  30  44  64  90 115 140 172 210 252
#
# _framework density 17.61947
#
# number of rings (size 3 to 8) (size 9 to 14) (size 15 to 20)
#    0.000    2.846    0.000    1.615    1.077    5.538 
#    0.000    2.308    0.000    0.000    0.000    4.308 
#    0.000    0.615    0.000    7.692    0.000    1.231 
#
# Total GULP energy -289751.542173 kJ/mol
# GULP energy per Si atom -5572.145042 kJ/mol
# Density = 1.757937 g / cm^3
# Si number density = 17.619470 Si / 1000 Ang^3
#
#
#
# Elastic Constant Matrix: (Units=GPa)
#
#
# Indices 1 2 3 4 5 6 
#
# 1 17.7003 -1.5354 -9.4915 0.0000 0.0000 0.0000
# 2 -1.5354 107.4738 28.5177 0.0000 0.0000 0.0000
# 3 -9.4915 28.5177 66.4272 0.0000 0.0000 0.0000
# 4 0.0000 0.0000 0.0000 18.1969 0.0000 0.0000
# 5 0.0000 0.0000 0.0000 0.0000 -19.8391 0.0000
# 6 0.0000 0.0000 0.0000 0.0000 0.0000 -9.5166
#
#
#
# Elastic Compliance Matrix: (Units=1/GPa)
#
#
# Indices 1 2 3 4 5 6 
#
# 1 0.061439 -0.001638 0.009482 0.000000 0.000000 0.000000
# 2 -0.001638 0.010544 -0.004761 0.000000 0.000000 0.000000
# 3 0.009482 -0.004761 0.018453 0.000000 0.000000 0.000000
# 4 0.000000 0.000000 0.000000 0.054954 0.000000 0.000000
# 5 0.000000 0.000000 0.000000 0.000000 -0.050406 0.000000
# 6 0.000000 0.000000 0.000000 0.000000 0.000000 -0.105079
#
#
# Mechanical properties :
#
#
# Convention : Reuss Voigt Hill
#
# Bulk Modulus (GPa) = 10.35181 25.17591 17.76386
# Shear Modulus (GPa) = 313.66530 9.37560 161.52045
#
# Velocity S-wave (km/s) = 13.35696 2.30927 9.58491
# Velocity P-wave (km/s) = 15.61300 4.62925 11.51512
#
# Compressibility (1/GPa) = 0.09660146
#
# Stress axis : x y z
#
# Youngs Moduli (GPa) = 16.27640 94.83637 54.19230
#
# Poissons Ratio (x) = 0.15537 -0.51385
# Poissons Ratio (y) = 0.02667 0.25801
# Poissons Ratio (z) = -0.15433 0.45151
#
# Static dielectric constant tensor:
#      x y z
#    x 1.654110 0.000000 0.000000 
#    y 0.000000 1.678190 0.000000 
#    z 0.000000 0.000000 1.567820 
# 
# From -- ./inp_files/9834.got.cif
#   From: 2010.05.17/outbox.cif.g08.bks.cpg/sg47_5_cif.got.tgz:9834.got - 2010.06.03 20:15:42.
