data_PCOD9382121
_publ_section_title
;
Structure prediction by ZEFSAII (Michael W. Deem and Ramdas Pophale) SiO2 
 PCOD9382121
Probable space group: P M M M
;
_chemical_formula_sum "Si O2"
_cell_formula_units_Z 52
_cell_length_a 18.183093
_cell_length_b 7.368813
_cell_length_c 16.762637
_cell_angle_alpha 90.000000
_cell_angle_beta 90.000000
_cell_angle_gamma 90.000000
_cell_volume 2245.989056
_symmetry_space_group_name_H-M "P M M M"
_symmetry_group_IT_number 47
_symmetry_cell_setting 'orthorhombic'
loop_
_space_group_symop_operation_xyz
x,y,z
-x,-y,z
x,-y,-z
-x,y,-z
-x,-y,-z
x,y,-z
-x,y,z
x,-y,z
loop_
_atom_site_type_symbol
_atom_site_label
_atom_site_fract_x
_atom_site_fract_y
_atom_site_fract_z
Si Si1 0.358307 0.778159 0.590880
Si Si2 0.918002 0.222349 0.500000
Si Si3 0.079368 0.281615 0.247293
Si Si4 0.583299 0.779127 0.763291
Si Si5 0.685656 0.216046 0.909396
Si Si6 0.858620 0.717640 0.912681
Si Si7 0.805672 0.211769 0.628389
O O1 0.379664 0.722240 0.500000
O O2 0.400678 0.721514 0.671539
O O3 0.274426 0.716062 0.608647
O O4 0.361272 0.000000 0.589830
O O5 0.870747 0.286106 0.574286
O O6 0.000000 0.288769 0.500000
O O7 0.921065 0.000000 0.500000
O O8 0.078033 0.500000 0.251004
O O9 0.088291 0.219199 0.156764
O O10 0.156862 0.225797 0.286275
O O11 0.000000 0.217473 0.281263
O O12 0.500000 0.730020 0.784479
O O13 0.638985 0.716223 0.833048
O O14 0.588560 0.000000 0.761536
O O15 0.772453 0.245783 0.896235
O O16 0.672966 0.000000 0.912024
O O17 0.668263 0.284767 0.000000
O O18 0.865946 0.500000 0.914694
O O19 0.875497 0.789931 0.000000
O O20 0.798522 0.000000 0.608489
#
# Coordination Sequence:
#
# PCOD9382121 Si02
#       7
#     8   4   8   8   8   8   8
#     4   9  16  27  44  66  91 121 160 203 241 275
#     4   9  16  26  43  67  90 114 150 193 231 273
#     4  10  21  34  47  68  98 127 156 194 241 289
#     4   9  17  27  41  66  98 129 159 190 231 286
#     4   9  17  30  49  73  99 125 155 194 238 283
#     4   9  18  33  52  71  92 123 162 199 234 278
#     4  10  18  31  50  70  92 121 159 200 237 280
#
# _framework density 23.152383
#
# number of rings (size 3 to 8) (size 9 to 14) (size 15 to 20)
#    0.000    2.692    0.769    1.385    0.000    3.692 
#    0.000    5.000    0.000    1.846    0.000    5.385 
#    0.000    0.000    0.000    6.462    0.000    6.154 
#
# Total GULP energy -289947.747826 kJ/mol
# GULP energy per Si atom -5575.918227 kJ/mol
# Density = 2.309969 g / cm^3
# Si number density = 23.152383 Si / 1000 Ang^3
#
#
#
# Elastic Constant Matrix: (Units=GPa)
#
#
# Indices 1 2 3 4 5 6 
#
# 1 22.8491 -6.2700 9.9674 0.0000 0.0000 0.0000
# 2 -6.2700 82.2907 -5.0318 0.0000 0.0000 0.0000
# 3 9.9674 -5.0318 119.1128 0.0000 0.0000 0.0000
# 4 0.0000 0.0000 0.0000 1.5745 0.0000 0.0000
# 5 0.0000 0.0000 0.0000 0.0000 88.4424 0.0000
# 6 0.0000 0.0000 0.0000 0.0000 0.0000 4.3880
#
#
#
# Elastic Compliance Matrix: (Units=1/GPa)
#
#
# Indices 1 2 3 4 5 6 
#
# 1 0.046300 0.003299 -0.003735 0.000000 0.000000 0.000000
# 2 0.003299 0.012419 0.000249 0.000000 0.000000 0.000000
# 3 -0.003735 0.000249 0.008718 0.000000 0.000000 0.000000
# 4 0.000000 0.000000 0.000000 0.635132 0.000000 0.000000
# 5 0.000000 0.000000 0.000000 0.000000 0.011307 0.000000
# 6 0.000000 0.000000 0.000000 0.000000 0.000000 0.227893
#
#
# Mechanical properties :
#
#
# Convention : Reuss Voigt Hill
#
# Bulk Modulus (GPa) = 14.91138 24.62044 19.76591
# Shear Modulus (GPa) = 5.18405 33.92012 19.55208
#
# Velocity S-wave (km/s) = 1.49799 3.83179 2.90917
# Velocity P-wave (km/s) = 3.07351 5.49854 4.45424
#
# Compressibility (1/GPa) = 0.06706286
#
# Stress axis : x y z
#
# Youngs Moduli (GPa) = 21.59823 80.52424 114.69934
#
# Poissons Ratio (x) = -0.26568 0.42840
# Poissons Ratio (y) = -0.07126 -0.02851
# Poissons Ratio (z) = 0.08067 -0.02001
#
# Static dielectric constant tensor:
#      x y z
#    x 1.814180 0.000000 0.000000 
#    y 0.000000 1.928340 0.000000 
#    z 0.000000 0.000000 1.975040 
# 
# From -- ./inp_files/25018.got.cif
#   From: 2010.05.17/outbox.cif.g08.bks.cpg/sg47_13_cif.got.tgz:25018.got - 2010.06.03 20:15:42.
