data_PCOD9382254
_publ_section_title
;
Structure prediction by ZEFSAII (Michael W. Deem and Ramdas Pophale) SiO2 
 PCOD9382254
Probable space group: P M M M
;
_chemical_formula_sum "Si O2"
_cell_formula_units_Z 52
_cell_length_a 28.482345
_cell_length_b 9.000812
_cell_length_c 11.864831
_cell_angle_alpha 90.000000
_cell_angle_beta 90.000000
_cell_angle_gamma 90.000000
_cell_volume 3041.718295
_symmetry_space_group_name_H-M "P M M M"
_symmetry_group_IT_number 47
_symmetry_cell_setting 'orthorhombic'
loop_
_space_group_symop_operation_xyz
x,y,z
-x,-y,z
x,-y,-z
-x,y,-z
-x,-y,-z
x,y,-z
-x,y,z
x,-y,z
loop_
_atom_site_type_symbol
_atom_site_label
_atom_site_fract_x
_atom_site_fract_y
_atom_site_fract_z
Si Si1 0.000000 0.328977 0.636871
Si Si2 0.194666 0.825767 0.267195
Si Si3 0.251596 0.168462 0.500000
Si Si4 0.362806 0.176159 0.264341
Si Si5 0.724304 0.323154 0.133073
Si Si6 0.651886 0.675024 0.500000
Si Si7 0.554076 0.673190 0.864820
Si Si8 0.097264 0.179221 0.632192
O O1 0.952033 0.247598 0.670584
O O2 0.000000 0.500000 0.672721
O O3 0.000000 0.325327 0.500000
O O4 0.220513 0.817726 0.388470
O O5 0.225921 0.733662 0.180426
O O6 0.141538 0.775315 0.291800
O O7 0.194248 0.000000 0.234120
O O8 0.292616 0.287810 0.500000
O O9 0.272104 0.000000 0.500000
O O10 0.316837 0.242213 0.202466
O O11 0.367078 0.249542 0.386986
O O12 0.408297 0.222505 0.193304
O O13 0.357828 0.000000 0.273382
O O14 0.719935 0.500000 0.149703
O O15 0.719624 0.291679 0.000000
O O16 0.643509 0.500000 0.500000
O O17 0.500000 0.705088 0.833638
O O18 0.563965 0.500000 0.836433
O O19 0.557665 0.685902 0.000000
O O20 0.105235 0.220815 0.500000
O O21 0.094701 0.000000 0.634578
#
# Coordination Sequence:
#
# PCOD9382254 Si02
#       8
#     4   8   4   8   8   4   8   8
#     4   9  17  27  39  63  98 135 172 213 253 299
#     4  10  19  32  53  78 106 137 175 220 268 319
#     4  10  18  32  52  78 108 138 173 220 265 314
#     4  12  24  38  58  84 114 145 180 224 269 316
#     4  11  24  39  54  76 108 144 182 222 265 317
#     4  12  24  38  57  81 109 147 186 219 264 323
#     4   9  19  38  63  88 114 145 182 225 272 321
#     4   9  16  28  46  69  98 135 171 208 259 316
#
# _framework density 17.095600000000001
#
# number of rings (size 3 to 8) (size 9 to 14) (size 15 to 20)
#    0.000    1.769    2.308    3.692    0.000    5.231 
#    0.000    1.154    0.000    2.308    0.000    0.538 
#    0.000    4.308    0.000    0.000    0.000    0.000 
#
# Total GULP energy -290311.132020 kJ/mol
# GULP energy per Si atom -5582.906385 kJ/mol
# Density = 1.705669 g / cm^3
# Si number density = 17.095600 Si / 1000 Ang^3
#
#
#
# Elastic Constant Matrix: (Units=GPa)
#
#
# Indices 1 2 3 4 5 6 
#
# 1 99.8500 53.1292 37.6398 0.0000 0.0000 0.0000
# 2 53.1292 92.5574 51.7121 0.0000 0.0000 0.0000
# 3 37.6398 51.7121 71.5567 0.0000 0.0000 0.0000
# 4 0.0000 0.0000 0.0000 18.4806 0.0000 0.0000
# 5 0.0000 0.0000 0.0000 0.0000 6.5880 0.0000
# 6 0.0000 0.0000 0.0000 0.0000 0.0000 34.6185
#
#
#
# Elastic Compliance Matrix: (Units=1/GPa)
#
#
# Indices 1 2 3 4 5 6 
#
# 1 0.014734 -0.006922 -0.002748 0.000000 0.000000 0.000000
# 2 -0.006922 0.021373 -0.011804 0.000000 0.000000 0.000000
# 3 -0.002748 -0.011804 0.023951 0.000000 0.000000 0.000000
# 4 0.000000 0.000000 0.000000 0.054111 0.000000 0.000000
# 5 0.000000 0.000000 0.000000 0.000000 0.151792 0.000000
# 6 0.000000 0.000000 0.000000 0.000000 0.000000 0.028886
#
#
# Mechanical properties :
#
#
# Convention : Reuss Voigt Hill
#
# Bulk Modulus (GPa) = 58.44867 60.99182 59.72025
# Shear Modulus (GPa) = 14.55610 20.03628 17.29619
#
# Velocity S-wave (km/s) = 2.92113 3.42718 3.18423
# Velocity P-wave (km/s) = 6.75580 7.17044 6.96620
#
# Compressibility (1/GPa) = 0.01710903
#
# Stress axis : x y z
#
# Youngs Moduli (GPa) = 67.86939 46.78861 41.75219
#
# Poissons Ratio (x) = 0.32389 0.11472
# Poissons Ratio (y) = 0.46982 0.49285
# Poissons Ratio (z) = 0.18649 0.55230
#
# Static dielectric constant tensor:
#      x y z
#    x 1.576290 0.000000 0.000000 
#    y 0.000000 1.576330 0.000000 
#    z 0.000000 0.000000 1.568700 
# 
# From -- ./inp_files/19921.got.cif
#   From: 2010.05.17/outbox.cif.g08.bks.cpg/sg47_10_cif.got.tgz:19921.got - 2010.06.03 20:15:42.
