data_PCOD9382522
_publ_section_title
;
Structure prediction by ZEFSAII (Michael W. Deem and Ramdas Pophale) SiO2 
 PCOD9382522
Probable space group: P M M M
;
_chemical_formula_sum "Si O2"
_cell_formula_units_Z 36
_cell_length_a 12.934894
_cell_length_b 20.243851
_cell_length_c 9.032831
_cell_angle_alpha 90.000000
_cell_angle_beta 90.000000
_cell_angle_gamma 90.000000
_cell_volume 2365.265467
_symmetry_space_group_name_H-M "P M M M"
_symmetry_group_IT_number 47
_symmetry_cell_setting 'orthorhombic'
loop_
_space_group_symop_operation_xyz
x,y,z
-x,-y,z
x,-y,-z
-x,y,-z
-x,-y,-z
x,y,-z
-x,y,z
x,-y,z
loop_
_atom_site_type_symbol
_atom_site_label
_atom_site_fract_x
_atom_site_fract_y
_atom_site_fract_z
Si Si1 0.376801 0.791696 0.675962
Si Si2 0.700717 0.339862 0.822285
Si Si3 0.879021 0.576545 0.677429
Si Si4 0.500000 0.575599 0.179885
Si Si5 0.374645 0.926885 0.173023
O O1 0.364574 0.787073 0.500000
O O2 0.500000 0.785087 0.709898
O O3 0.317978 0.732566 0.756500
O O4 0.341763 0.863542 0.733650
O O5 0.803093 0.374492 0.761074
O O6 0.602482 0.384889 0.775077
O O7 0.702374 0.337028 0.000000
O O8 0.866195 0.583240 0.500000
O O9 0.855332 0.500000 0.715970
O O10 0.000000 0.588075 0.710945
O O11 0.500000 0.500000 0.232655
O O12 0.500000 0.574032 0.000000
O O13 0.500000 0.927956 0.179966
O O14 0.339239 0.000000 0.222350
O O15 0.347262 0.918615 0.000000
#
# Coordination Sequence:
#
# PCOD9382522 Si02
#       5
#     8   8   8   4   8
#     4  10  19  29  42  62  92 126 159 192 229 277
#     4  11  20  31  48  68  94 124 156 195 234 278
#     4   9  19  36  54  70  91 119 151 192 242 289
#     4   9  18  30  43  63  90 119 150 187 231 274
#     4   8  14  25  41  60  84 117 156 193 228 269
#
# _framework density 15.220278
#
# number of rings (size 3 to 8) (size 9 to 14) (size 15 to 20)
#    0.000    2.556    1.111    3.333    0.000    3.111 
#    0.000    3.333    0.000    2.667    0.000    0.000 
#    0.000    0.889    0.000    9.333    0.000    4.444 
#
# Total GULP energy -200660.558727 kJ/mol
# GULP energy per Si atom -5573.904409 kJ/mol
# Density = 1.518564 g / cm^3
# Si number density = 15.220278 Si / 1000 Ang^3
#
#
#
# Elastic Constant Matrix: (Units=GPa)
#
#
# Indices 1 2 3 4 5 6 
#
# 1 55.0908 59.9963 38.2789 0.0000 0.0000 0.0000
# 2 59.9963 159.9639 64.7812 0.0000 0.0000 0.0000
# 3 38.2789 64.7812 51.0791 0.0000 0.0000 0.0000
# 4 0.0000 0.0000 0.0000 26.3960 0.0000 0.0000
# 5 0.0000 0.0000 0.0000 0.0000 19.9577 0.0000
# 6 0.0000 0.0000 0.0000 0.0000 0.0000 14.9623
#
#
#
# Elastic Compliance Matrix: (Units=1/GPa)
#
#
# Indices 1 2 3 4 5 6 
#
# 1 0.040454 -0.005953 -0.022767 0.000000 0.000000 0.000000
# 2 -0.005953 0.013729 -0.012950 0.000000 0.000000 0.000000
# 3 -0.022767 -0.012950 0.053063 0.000000 0.000000 0.000000
# 4 0.000000 0.000000 0.000000 0.037884 0.000000 0.000000
# 5 0.000000 0.000000 0.000000 0.000000 0.050106 0.000000
# 6 0.000000 0.000000 0.000000 0.000000 0.000000 0.066835
#
#
# Mechanical properties :
#
#
# Convention : Reuss Voigt Hill
#
# Bulk Modulus (GPa) = 41.83030 65.80518 53.81774
# Shear Modulus (GPa) = 14.14914 19.13503 16.64209
#
# Velocity S-wave (km/s) = 3.05228 3.54956 3.31027
# Velocity P-wave (km/s) = 6.32177 7.75424 7.07436
#
# Compressibility (1/GPa) = 0.02390612
#
# Stress axis : x y z
#
# Youngs Moduli (GPa) = 24.71972 72.84058 18.84547
#
# Poissons Ratio (x) = 0.43360 0.42905
# Poissons Ratio (y) = 0.14715 0.24406
# Poissons Ratio (z) = 0.56278 0.94331
#
# Static dielectric constant tensor:
#      x y z
#    x 1.479740 0.000000 0.000000 
#    y 0.000000 1.511530 0.000000 
#    z 0.000000 0.000000 1.501240 
# 
# From -- ./inp_files/3719.got.cif
#   From: 2010.05.17/outbox.cif.g08.bks.cpg/sg47_2_cif.got.tgz:3719.got - 2010.06.03 20:15:42.
