data_PCOD9382983
_publ_section_title
;
Structure prediction by ZEFSAII (Michael W. Deem and Ramdas Pophale) SiO2 
 PCOD9382983
Probable space group: P M M M
;
_chemical_formula_sum "Si O2"
_cell_formula_units_Z 64
_cell_length_a 31.779597
_cell_length_b 14.516524
_cell_length_c 9.039313
_cell_angle_alpha 90.000000
_cell_angle_beta 90.000000
_cell_angle_gamma 90.000000
_cell_volume 4170.099781
_symmetry_space_group_name_H-M "P M M M"
_symmetry_group_IT_number 47
_symmetry_cell_setting 'orthorhombic'
loop_
_space_group_symop_operation_xyz
x,y,z
-x,-y,z
x,-y,-z
-x,y,-z
-x,-y,-z
x,y,-z
-x,y,z
x,-y,z
loop_
_atom_site_type_symbol
_atom_site_label
_atom_site_fract_x
_atom_site_fract_y
_atom_site_fract_z
Si Si1 0.342552 0.393670 0.675677
Si Si2 0.214657 0.219921 0.322098
Si Si3 0.376857 0.218460 0.824024
Si Si4 0.699889 0.108727 0.323079
Si Si5 0.450763 0.891446 0.675466
Si Si6 0.046161 0.888491 0.825857
Si Si7 0.132137 0.107156 0.677978
Si Si8 0.250912 0.394326 0.175933
O O1 0.340287 0.376620 0.500000
O O2 0.355262 0.500000 0.699363
O O3 0.372050 0.319346 0.752822
O O4 0.296107 0.382344 0.745214
O O5 0.213784 0.232681 0.500000
O O6 0.255680 0.157426 0.288855
O O7 0.172332 0.166979 0.276796
O O8 0.220656 0.317288 0.242601
O O9 0.337641 0.158813 0.762342
O O10 0.419227 0.169591 0.769280
O O11 0.374906 0.223552 0.000000
O O12 0.692632 0.118647 0.500000
O O13 0.701389 0.000000 0.289865
O O14 0.443431 0.876255 0.500000
O O15 0.500000 0.873146 0.705219
O O16 0.443114 0.000000 0.703813
O O17 0.087880 0.857452 0.741853
O O18 0.000000 0.856067 0.772734
O O19 0.045734 0.000000 0.812477
O O20 0.049521 0.867327 0.000000
O O21 0.130076 0.108078 0.500000
O O22 0.137922 0.000000 0.723669
O O23 0.237272 0.500000 0.202807
O O24 0.255965 0.381906 0.000000
#
# Coordination Sequence:
#
# PCOD9382983 Si02
#       8
#     8   8   8   8   8   8   8   8
#     4  10  20  35  55  75  95 124 163 202 240 285
#     4  10  19  31  47  66  92 128 164 196 233 281
#     4  12  23  33  50  77 106 131 158 197 244 288
#     4  10  20  33  48  66  93 132 171 201 229 269
#     4   9  19  37  59  79 100 131 169 203 236 279
#     4   8  14  25  40  58  82 115 156 198 238 280
#     4   9  17  28  42  63  91 123 160 198 236 277
#     4  10  20  33  49  70  95 121 153 198 247 287
#
# _framework density 15.347356
#
# number of rings (size 3 to 8) (size 9 to 14) (size 15 to 20)
#    0.000    2.250    1.250    3.375    0.000    6.000 
#    0.000    1.875    0.000    2.625    0.000    2.625 
#    0.000    0.500    0.000    5.500    0.000    4.250 
#
# Total GULP energy -356975.438147 kJ/mol
# GULP energy per Si atom -5577.741221 kJ/mol
# Density = 1.531242 g / cm^3
# Si number density = 15.347356 Si / 1000 Ang^3
#
#
#
# Elastic Constant Matrix: (Units=GPa)
#
#
# Indices 1 2 3 4 5 6 
#
# 1 102.6264 64.1278 57.6097 0.0000 0.0000 0.0000
# 2 64.1278 96.7504 56.5574 0.0000 0.0000 0.0000
# 3 57.6097 56.5574 60.2507 0.0000 0.0000 0.0000
# 4 0.0000 0.0000 0.0000 17.5558 0.0000 0.0000
# 5 0.0000 0.0000 0.0000 0.0000 -35.5501 0.0000
# 6 0.0000 0.0000 0.0000 0.0000 0.0000 7.9144
#
#
#
# Elastic Compliance Matrix: (Units=1/GPa)
#
#
# Indices 1 2 3 4 5 6 
#
# 1 0.022110 -0.005089 -0.016363 0.000000 0.000000 0.000000
# 2 -0.005089 0.024076 -0.017734 0.000000 0.000000 0.000000
# 3 -0.016363 -0.017734 0.048890 0.000000 0.000000 0.000000
# 4 0.000000 0.000000 0.000000 0.056961 0.000000 0.000000
# 5 0.000000 0.000000 0.000000 0.000000 -0.028129 0.000000
# 6 0.000000 0.000000 0.000000 0.000000 0.000000 0.126353
#
#
# Mechanical properties :
#
#
# Convention : Reuss Voigt Hill
#
# Bulk Modulus (GPa) = 59.86974 68.46856 64.16915
# Shear Modulus (GPa) = 14.96106 3.40618 9.18362
#
# Velocity S-wave (km/s) = 3.12561 1.49138 2.44884
# Velocity P-wave (km/s) = 7.21945 6.90471 7.06383
#
# Compressibility (1/GPa) = 0.01670293
#
# Stress axis : x y z
#
# Youngs Moduli (GPa) = 45.22872 41.53563 20.45397
#
# Poissons Ratio (x) = 0.21138 0.33470
# Poissons Ratio (y) = 0.23018 0.36273
# Poissons Ratio (z) = 0.74010 0.73658
#
# Static dielectric constant tensor:
#      x y z
#    x 1.501340 0.000000 0.000000 
#    y 0.000000 1.505660 0.000000 
#    z 0.000000 0.000000 1.509490 
# 
# From -- ./inp_files/14276.got.cif
#   From: 2010.05.17/outbox.cif.g08.bks.cpg/sg47_8_cif.got.tgz:14276.got - 2010.06.03 20:15:42.
