data_PCOD9382575
_publ_section_title
;
Structure prediction by ZEFSAII (Michael W. Deem and Ramdas Pophale) SiO2 
 PCOD9382575
Probable space group: P M M M
;
_chemical_formula_sum "Si O2"
_cell_formula_units_Z 52
_cell_length_a 27.032193
_cell_length_b 14.015204
_cell_length_c 9.058596
_cell_angle_alpha 90.000000
_cell_angle_beta 90.000000
_cell_angle_gamma 90.000000
_cell_volume 3431.955075
_symmetry_space_group_name_H-M "P M M M"
_symmetry_group_IT_number 47
_symmetry_cell_setting 'orthorhombic'
loop_
_space_group_symop_operation_xyz
x,y,z
-x,-y,z
x,-y,-z
-x,y,-z
-x,-y,-z
x,y,-z
-x,y,z
x,-y,z
loop_
_atom_site_type_symbol
_atom_site_label
_atom_site_fract_x
_atom_site_fract_y
_atom_site_fract_z
Si Si1 0.056645 0.111906 0.822746
Si Si2 0.850118 0.795866 0.324118
Si Si3 0.697809 0.703389 0.823573
Si Si4 0.500000 0.384244 0.169833
Si Si5 0.602419 0.386422 0.676114
Si Si6 0.791650 0.608550 0.323959
Si Si7 0.756089 0.108426 0.823226
O O1 0.097935 0.174821 0.745211
O O2 0.000000 0.135844 0.782084
O O3 0.064763 0.000000 0.786397
O O4 0.060935 0.120531 0.000000
O O5 0.851545 0.807338 0.500000
O O6 0.833114 0.687538 0.289978
O O7 0.806671 0.861638 0.256967
O O8 0.647506 0.671135 0.746751
O O9 0.742401 0.637576 0.763669
O O10 0.715170 0.811489 0.787489
O O11 0.693495 0.694360 0.000000
O O12 0.500000 0.500000 0.169330
O O13 0.449877 0.356209 0.253339
O O14 0.500000 0.352030 0.000000
O O15 0.601249 0.374777 0.500000
O O16 0.609436 0.500000 0.706657
O O17 0.781090 0.615463 0.500000
O O18 0.806114 0.500000 0.291359
O O19 0.742193 0.000000 0.785889
O O20 0.764505 0.113505 0.000000
#
# Coordination Sequence:
#
# PCOD9382575 Si02
#       7
#     8   8   8   4   8   8   8
#     4   9  18  32  48  65  87 116 145 172 211 265
#     4  10  19  29  45  69  91 112 143 182 219 255
#     4  10  19  29  44  67  90 114 149 188 219 251
#     4   9  17  29  45  65  88 115 150 189 221 252
#     4  10  19  30  44  63  91 124 151 177 217 267
#     4   9  18  32  46  61  87 121 150 176 213 261
#     4   9  18  32  47  63  88 121 150 176 214 265
#
# _framework density 15.151714
#
# number of rings (size 3 to 8) (size 9 to 14) (size 15 to 20)
#    0.000    2.538    0.000    3.000    0.000    8.000 
#    0.000    0.769    0.000    0.462    0.000    3.769 
#    0.000    4.308    0.000    0.000    0.000    0.000 
#
# Total GULP energy -289934.098731 kJ/mol
# GULP energy per Si atom -5575.655745 kJ/mol
# Density = 1.511723 g / cm^3
# Si number density = 15.151714 Si / 1000 Ang^3
#
#
#
# Elastic Constant Matrix: (Units=GPa)
#
#
# Indices 1 2 3 4 5 6 
#
# 1 151.2172 73.5215 65.6115 0.0000 0.0000 0.0000
# 2 73.5215 100.5125 48.0178 0.0000 0.0000 0.0000
# 3 65.6115 48.0178 52.2707 0.0000 0.0000 0.0000
# 4 0.0000 0.0000 0.0000 20.9856 0.0000 0.0000
# 5 0.0000 0.0000 0.0000 0.0000 23.0310 0.0000
# 6 0.0000 0.0000 0.0000 0.0000 0.0000 19.6985
#
#
#
# Elastic Compliance Matrix: (Units=1/GPa)
#
#
# Indices 1 2 3 4 5 6 
#
# 1 0.015210 -0.003573 -0.015809 0.000000 0.000000 0.000000
# 2 -0.003573 0.018569 -0.012574 0.000000 0.000000 0.000000
# 3 -0.015809 -0.012574 0.050526 0.000000 0.000000 0.000000
# 4 0.000000 0.000000 0.000000 0.047652 0.000000 0.000000
# 5 0.000000 0.000000 0.000000 0.000000 0.043420 0.000000
# 6 0.000000 0.000000 0.000000 0.000000 0.000000 0.050765
#
#
# Mechanical properties :
#
#
# Convention : Reuss Voigt Hill
#
# Bulk Modulus (GPa) = 49.03590 75.36690 62.20140
# Shear Modulus (GPa) = 16.84344 20.53300 18.68822
#
# Velocity S-wave (km/s) = 3.33776 3.68524 3.51580
# Velocity P-wave (km/s) = 6.87661 8.24363 7.59096
#
# Compressibility (1/GPa) = 0.02039322
#
# Stress axis : x y z
#
# Youngs Moduli (GPa) = 65.74801 53.85269 19.79164
#
# Poissons Ratio (x) = 0.19240 0.31290
# Poissons Ratio (y) = 0.23489 0.24886
# Poissons Ratio (z) = 1.03944 0.67713
#
# Static dielectric constant tensor:
#      x y z
#    x 1.476590 0.000000 0.000000 
#    y 0.000000 1.501340 0.000000 
#    z 0.000000 0.000000 1.504550 
# 
# From -- ./inp_files/7698.got.cif
#   From: 2010.05.17/outbox.cif.g08.bks.cpg/sg47_4_cif.got.tgz:7698.got - 2010.06.03 20:15:42.
