data_PCOD9382321
_publ_section_title
;
Structure prediction by ZEFSAII (Michael W. Deem and Ramdas Pophale) SiO2 
 PCOD9382321
Probable space group: P M M M
;
_chemical_formula_sum "Si O2"
_cell_formula_units_Z 40
_cell_length_a 20.777132
_cell_length_b 7.682435
_cell_length_c 12.194744
_cell_angle_alpha 90.000000
_cell_angle_beta 90.000000
_cell_angle_gamma 90.000000
_cell_volume 1946.512429
_symmetry_space_group_name_H-M "P M M M"
_symmetry_group_IT_number 47
_symmetry_cell_setting 'orthorhombic'
loop_
_space_group_symop_operation_xyz
x,y,z
-x,-y,z
x,-y,-z
-x,y,-z
-x,-y,-z
x,y,-z
-x,y,z
x,-y,z
loop_
_atom_site_type_symbol
_atom_site_label
_atom_site_fract_x
_atom_site_fract_y
_atom_site_fract_z
Si Si1 0.377289 0.292185 0.240951
Si Si2 0.136929 0.709932 0.782922
Si Si3 0.000000 0.712919 0.870245
Si Si4 0.641343 0.712681 0.000000
Si Si5 0.209841 0.288119 0.000000
Si Si6 0.500000 0.286230 0.624818
Si Si7 0.249542 0.794064 0.624157
O O1 0.384807 0.500000 0.233735
O O2 0.384258 0.224503 0.116833
O O3 0.435128 0.226140 0.315843
O O4 0.307331 0.265690 0.295891
O O5 0.135585 0.500000 0.784745
O O6 0.063850 0.768626 0.804541
O O7 0.175443 0.772313 0.890209
O O8 0.179931 0.758099 0.678308
O O9 0.000000 0.500000 0.873624
O O10 0.000000 0.766000 0.000000
O O11 0.716304 0.759450 0.000000
O O12 0.636702 0.500000 0.000000
O O13 0.206398 0.500000 0.000000
O O14 0.500000 0.500000 0.625690
O O15 0.500000 0.230047 0.500000
O O16 0.255198 0.721508 0.500000
O O17 0.256576 0.000000 0.617060
#
# Coordination Sequence:
#
# PCOD9382321 Si02
#       7
#     8   8   4   4   4   4   8
#     4  10  19  34  57  81 108 139 173 217 268 322
#     4  10  18  32  56  83 110 139 171 212 264 320
#     4   9  16  28  54  89 116 136 165 212 269 320
#     4   9  16  27  49  83 110 132 167 210 261 317
#     4   9  14  25  49  81 110 132 163 208 259 315
#     4   9  18  31  50  80 111 139 178 223 260 302
#     4  11  24  39  53  73 103 141 186 228 263 306
#
# _framework density 20.549572999999999
#
# number of rings (size 3 to 8) (size 9 to 14) (size 15 to 20)
#    0.000    2.200    3.000    1.200    0.000    2.800 
#    0.000    5.500    0.000    5.400    0.000    1.400 
#    0.000    0.000    0.000    0.000    0.000    0.000 
#
# Total GULP energy -223166.547583 kJ/mol
# GULP energy per Si atom -5579.163690 kJ/mol
# Density = 2.050280 g / cm^3
# Si number density = 20.549573 Si / 1000 Ang^3
#
#
#
# Elastic Constant Matrix: (Units=GPa)
#
#
# Indices 1 2 3 4 5 6 
#
# 1 134.9800 0.4547 85.6381 0.0000 0.0000 0.0000
# 2 0.4547 33.7032 5.0332 0.0000 0.0000 0.0000
# 3 85.6381 5.0332 187.7856 0.0000 0.0000 0.0000
# 4 0.0000 0.0000 0.0000 43.5011 0.0000 0.0000
# 5 0.0000 0.0000 0.0000 0.0000 25.9815 0.0000
# 6 0.0000 0.0000 0.0000 0.0000 0.0000 -27.3350
#
#
#
# Elastic Compliance Matrix: (Units=1/GPa)
#
#
# Indices 1 2 3 4 5 6 
#
# 1 0.010436 0.000572 -0.004774 0.000000 0.000000 0.000000
# 2 0.000572 0.029821 -0.001060 0.000000 0.000000 0.000000
# 3 -0.004774 -0.001060 0.007531 0.000000 0.000000 0.000000
# 4 0.000000 0.000000 0.000000 0.022988 0.000000 0.000000
# 5 0.000000 0.000000 0.000000 0.000000 0.038489 0.000000
# 6 0.000000 0.000000 0.000000 0.000000 0.000000 -0.036583
#
#
# Mechanical properties :
#
#
# Convention : Reuss Voigt Hill
#
# Bulk Modulus (GPa) = 26.83621 59.85786 43.34704
# Shear Modulus (GPa) = 52.28601 26.11903 39.20252
#
# Velocity S-wave (km/s) = 5.04966 3.56901 4.37247
# Velocity P-wave (km/s) = 6.86195 6.79526 6.82869
#
# Compressibility (1/GPa) = 0.03726309
#
# Stress axis : x y z
#
# Youngs Moduli (GPa) = 95.82446 33.53303 132.78448
#
# Poissons Ratio (x) = -0.01919 0.63398
# Poissons Ratio (y) = -0.05483 0.14078
# Poissons Ratio (z) = 0.45751 0.03555
#
# Static dielectric constant tensor:
#      x y z
#    x 1.711690 0.000000 0.000000 
#    y 0.000000 1.751570 0.000000 
#    z 0.000000 0.000000 1.743850 
# 
# From -- ./inp_files/15143.got.cif
#   From: 2010.05.17/outbox.cif.g08.bks.cpg/sg47_8_cif.got.tgz:15143.got - 2010.06.03 20:15:42.
