data_PCOD9382888
_publ_section_title
;
Structure prediction by ZEFSAII (Michael W. Deem and Ramdas Pophale) SiO2 
 PCOD9382888
Probable space group: P M M M
;
_chemical_formula_sum "Si O2"
_cell_formula_units_Z 44
_cell_length_a 20.471005
_cell_length_b 7.602622
_cell_length_c 13.994313
_cell_angle_alpha 90.000000
_cell_angle_beta 90.000000
_cell_angle_gamma 90.000000
_cell_volume 2177.981295
_symmetry_space_group_name_H-M "P M M M"
_symmetry_group_IT_number 47
_symmetry_cell_setting 'orthorhombic'
loop_
_space_group_symop_operation_xyz
x,y,z
-x,-y,z
x,-y,-z
-x,y,-z
-x,-y,-z
x,y,-z
-x,y,z
x,-y,z
loop_
_atom_site_type_symbol
_atom_site_label
_atom_site_fract_x
_atom_site_fract_y
_atom_site_fract_z
Si Si1 0.926792 0.500000 0.883472
Si Si2 0.299613 0.209154 0.783359
Si Si3 0.785529 0.712120 0.391179
Si Si4 0.829730 0.202342 0.114882
Si Si5 0.573685 0.785304 0.889599
Si Si6 0.071071 0.290257 0.383873
O O1 0.887761 0.671921 0.852881
O O2 0.000000 0.500000 0.848629
O O3 0.928033 0.500000 0.000000
O O4 0.274493 0.239691 0.676501
O O5 0.239041 0.273981 0.847120
O O6 0.369154 0.277880 0.819426
O O7 0.302254 0.000000 0.799103
O O8 0.776307 0.772110 0.500000
O O9 0.789720 0.500000 0.392190
O O10 0.856892 0.777965 0.354817
O O11 0.838561 0.000000 0.144279
O O12 0.828027 0.205319 0.000000
O O13 0.500000 0.726577 0.866261
O O14 0.572520 0.000000 0.887129
O O15 0.588070 0.737114 0.000000
O O16 0.071656 0.272811 0.500000
O O17 0.070568 0.500000 0.364007
O O18 0.000000 0.219282 0.351083
#
# Coordination Sequence:
#
# PCOD9382888 Si02
#       6
#     4   8   8   8   8   8
#     4   9  18  32  50  72  98 136 184 221 256 306
#     4  10  19  30  49  75 101 130 162 202 257 314
#     4   9  18  31  47  68  95 130 172 213 252 300
#     4   9  18  32  50  74 103 133 169 215 264 315
#     4   8  14  27  50  79 106 129 157 197 246 305
#     4   7  10  20  40  62  81 105 145 198 248 288
#
# _framework density 20.202195
#
# number of rings (size 3 to 8) (size 9 to 14) (size 15 to 20)
#    0.000    3.364    0.000    2.727    1.273    2.909 
#    0.000    2.727    0.000    2.727    0.000    7.636 
#    0.000    0.000    0.000    0.000    0.000    0.000 
#
# Total GULP energy -245383.844563 kJ/mol
# GULP energy per Si atom -5576.905558 kJ/mol
# Density = 2.015621 g / cm^3
# Si number density = 20.202195 Si / 1000 Ang^3
#
#
#
# Elastic Constant Matrix: (Units=GPa)
#
#
# Indices 1 2 3 4 5 6 
#
# 1 212.1600 28.8799 81.4079 0.0000 0.0000 0.0000
# 2 28.8799 47.8227 9.8391 0.0000 0.0000 0.0000
# 3 81.4079 9.8391 83.3536 0.0000 0.0000 0.0000
# 4 0.0000 0.0000 0.0000 -13.8126 0.0000 0.0000
# 5 0.0000 0.0000 0.0000 0.0000 -48.1936 0.0000
# 6 0.0000 0.0000 0.0000 0.0000 0.0000 20.6058
#
#
#
# Elastic Compliance Matrix: (Units=1/GPa)
#
#
# Indices 1 2 3 4 5 6 
#
# 1 0.008020 -0.003312 -0.007441 0.000000 0.000000 0.000000
# 2 -0.003312 0.022799 0.000544 0.000000 0.000000 0.000000
# 3 -0.007441 0.000544 0.019201 0.000000 0.000000 0.000000
# 4 0.000000 0.000000 0.000000 -0.072398 0.000000 0.000000
# 5 0.000000 0.000000 0.000000 0.000000 -0.020750 0.000000
# 6 0.000000 0.000000 0.000000 0.000000 0.000000 0.048530
#
#
# Mechanical properties :
#
#
# Convention : Reuss Voigt Hill
#
# Bulk Modulus (GPa) = 33.78463 64.84335 49.31399
# Shear Modulus (GPa) = 140.10191 6.60054 73.35122
#
# Velocity S-wave (km/s) = 8.33669 1.80951 6.03219
# Velocity P-wave (km/s) = 10.46072 6.04422 8.54282
#
# Compressibility (1/GPa) = 0.02959926
#
# Stress axis : x y z
#
# Youngs Moduli (GPa) = 124.69386 43.86184 52.08140
#
# Poissons Ratio (x) = 0.14527 0.38756
# Poissons Ratio (y) = 0.41299 -0.02831
# Poissons Ratio (z) = 0.92791 -0.02384
#
# Static dielectric constant tensor:
#      x y z
#    x 1.726760 0.000000 0.000000 
#    y 0.000000 1.759370 0.000000 
#    z 0.000000 0.000000 1.748760 
# 
# From -- ./inp_files/24308.got.cif
#   From: 2010.05.17/outbox.cif.g08.bks.cpg/sg47_13_cif.got.tgz:24308.got - 2010.06.03 20:15:42.
