data_PCOD9382471
_publ_section_title
;
Structure prediction by ZEFSAII (Michael W. Deem and Ramdas Pophale) SiO2 
 PCOD9382471
Probable space group: P M M M
;
_chemical_formula_sum "Si O2"
_cell_formula_units_Z 56
_cell_length_a 7.744649
_cell_length_b 19.670962
_cell_length_c 21.963419
_cell_angle_alpha 90.000000
_cell_angle_beta 90.000000
_cell_angle_gamma 90.000000
_cell_volume 3346.010395
_symmetry_space_group_name_H-M "P M M M"
_symmetry_group_IT_number 47
_symmetry_cell_setting 'orthorhombic'
loop_
_space_group_symop_operation_xyz
x,y,z
-x,-y,z
x,-y,-z
-x,y,-z
-x,-y,-z
x,y,-z
-x,y,z
x,-y,z
loop_
_atom_site_type_symbol
_atom_site_label
_atom_site_fract_x
_atom_site_fract_y
_atom_site_fract_z
Si Si1 0.789731 0.213602 0.432266
Si Si2 0.299194 0.709980 0.689388
Si Si3 0.194351 0.582415 0.500000
Si Si4 0.204054 0.924552 0.375741
Si Si5 0.294563 0.154134 0.745036
Si Si6 0.294919 0.423362 0.635826
Si Si7 0.208968 0.921890 0.132484
Si Si8 0.200157 0.082652 0.000000
O O1 0.741374 0.235521 0.500000
O O2 0.712621 0.257206 0.377836
O O3 0.732653 0.135834 0.419285
O O4 0.000000 0.216553 0.427389
O O5 0.500000 0.701315 0.706553
O O6 0.224837 0.769600 0.732134
O O7 0.221964 0.634865 0.680184
O O8 0.192166 0.500000 0.500000
O O9 0.273823 0.599255 0.434720
O O10 0.000000 0.609424 0.500000
O O11 0.224741 0.896433 0.307003
O O12 0.000000 0.929548 0.387688
O O13 0.279366 0.000000 0.382386
O O14 0.500000 0.156553 0.735687
O O15 0.257974 0.125227 0.811453
O O16 0.500000 0.427206 0.646422
O O17 0.223309 0.500000 0.642378
O O18 0.274843 0.898377 0.065874
O O19 0.000000 0.923773 0.129010
O O20 0.266731 0.000000 0.143244
O O21 0.000000 0.105196 0.000000
O O22 0.199381 0.000000 0.000000
#
# Coordination Sequence:
#
# PCOD9382471 Si02
#       8
#     8   8   4   8   8   8   8   4
#     4   9  18  30  42  57  74  93 121 158 201 244
#     4   9  19  32  43  56  76 102 129 158 194 237
#     4   9  17  27  39  59  83  99 114 145 194 245
#     4   9  17  29  43  56  71  94 127 165 200 235
#     4  10  19  29  40  57  81 106 131 160 196 234
#     4   9  17  30  46  60  74  97 130 162 191 231
#     4   9  16  27  44  63  83 109 140 169 194 222
#     4   7  12  24  41  61  83 107 136 167 194 220
#
# _framework density 16.736350000000002
#
# number of rings (size 3 to 8) (size 9 to 14) (size 15 to 20)
#    0.000    3.000    0.000    1.929    1.000    4.857 
#    0.000    1.786    0.000    1.286    0.000    4.000 
#    0.000    0.000    0.000    0.643    0.000   14.857 
#
# Total GULP energy -311893.696090 kJ/mol
# GULP energy per Si atom -5569.530287 kJ/mol
# Density = 1.669826 g / cm^3
# Si number density = 16.736350 Si / 1000 Ang^3
#
#
#
# Elastic Constant Matrix: (Units=GPa)
#
#
# Indices 1 2 3 4 5 6 
#
# 1 24.2513 0.1357 -9.6592 0.0000 0.0000 0.0000
# 2 0.1357 97.3253 23.8244 0.0000 0.0000 0.0000
# 3 -9.6592 23.8244 72.6194 0.0000 0.0000 0.0000
# 4 0.0000 0.0000 0.0000 12.7300 0.0000 0.0000
# 5 0.0000 0.0000 0.0000 0.0000-1181.3723 0.0000
# 6 0.0000 0.0000 0.0000 0.0000 0.0000 41.4503
#
#
#
# Elastic Compliance Matrix: (Units=1/GPa)
#
#
# Indices 1 2 3 4 5 6 
#
# 1 0.043774 -0.001616 0.006353 0.000000 0.000000 0.000000
# 2 -0.001616 0.011232 -0.003900 0.000000 0.000000 0.000000
# 3 0.006353 -0.003900 0.015895 0.000000 0.000000 0.000000
# 4 0.000000 0.000000 0.000000 0.078554 0.000000 0.000000
# 5 0.000000 0.000000 0.000000 0.000000 -0.000846 0.000000
# 6 0.000000 0.000000 0.000000 0.000000 0.000000 0.024125
#
#
# Mechanical properties :
#
#
# Convention : Reuss Voigt Hill
#
# Bulk Modulus (GPa) = 13.77900 24.75530 19.26715
# Shear Modulus (GPa) = 25.60798 -213.44538 -93.91870
#
# Velocity S-wave (km/s) = 3.91587 -11.30535 -7.49923
# Velocity P-wave (km/s) = 5.35689 12.47361 7.96539
#
# Compressibility (1/GPa) = 0.07257421
#
# Stress axis : x y z
#
# Youngs Moduli (GPa) = 22.84455 89.03369 62.91361
#
# Poissons Ratio (x) = 0.14389 -0.39967
# Poissons Ratio (y) = 0.03692 0.24535
# Poissons Ratio (z) = -0.14512 0.34721
#
# Static dielectric constant tensor:
#      x y z
#    x 1.629010 0.000000 0.000000 
#    y 0.000000 1.629620 0.000000 
#    z 0.000000 0.000000 1.552830 
# 
# From -- ./inp_files/30085.got.cif
#   From: 2010.05.17/outbox.cif.g08.bks.cpg/sg47_16_cif.got.tgz:30085.got - 2010.06.03 20:15:42.
