data_PCOD9382480
_publ_section_title
;
Structure prediction by ZEFSAII (Michael W. Deem and Ramdas Pophale) SiO2 
 PCOD9382480
Probable space group: P M M M
;
_chemical_formula_sum "Si O2"
_cell_formula_units_Z 64
_cell_length_a 15.021981
_cell_length_b 7.554589
_cell_length_c 32.265238
_cell_angle_alpha 90.000000
_cell_angle_beta 90.000000
_cell_angle_gamma 90.000000
_cell_volume 3661.617063
_symmetry_space_group_name_H-M "P M M M"
_symmetry_group_IT_number 47
_symmetry_cell_setting 'orthorhombic'
loop_
_space_group_symop_operation_xyz
x,y,z
-x,-y,z
x,-y,-z
-x,y,-z
-x,-y,-z
x,y,-z
-x,y,z
x,-y,z
loop_
_atom_site_type_symbol
_atom_site_label
_atom_site_fract_x
_atom_site_fract_y
_atom_site_fract_z
Si Si1 0.713523 0.290320 0.716156
Si Si2 0.600247 0.790337 0.797320
Si Si3 0.601978 0.784201 0.953025
Si Si4 0.601991 0.786981 0.365291
Si Si5 0.283705 0.782768 0.124741
Si Si6 0.901390 0.710754 0.256067
Si Si7 0.392488 0.789137 0.455413
Si Si8 0.901466 0.786372 0.841320
O O1 0.720299 0.500000 0.720621
O O2 0.652260 0.229955 0.754299
O O3 0.665566 0.253210 0.672878
O O4 0.813894 0.217282 0.721014
O O5 0.500000 0.717232 0.795244
O O6 0.658001 0.722013 0.835838
O O7 0.592498 0.000000 0.804569
O O8 0.500000 0.731453 0.943574
O O9 0.669546 0.725224 0.917624
O O10 0.602699 0.000000 0.952899
O O11 0.623255 0.728083 0.000000
O O12 0.500000 0.724126 0.357987
O O13 0.635613 0.720201 0.410288
O O14 0.596824 0.000000 0.368454
O O15 0.182323 0.724628 0.132019
O O16 0.283447 0.000000 0.124811
O O17 0.905271 0.500000 0.263486
O O18 0.887319 0.738227 0.206875
O O19 0.000000 0.783256 0.266332
O O20 0.360998 0.716390 0.500000
O O21 0.500000 0.771070 0.454988
O O22 0.373744 0.000000 0.456119
O O23 0.000000 0.722377 0.853458
O O24 0.902498 0.000000 0.843223
#
# Coordination Sequence:
#
# PCOD9382480 Si02
#       8
#     8   8   8   8   8   8   8   8
#     4  11  21  30  41  58  82 110 137 168 206 245
#     4  10  19  29  41  57  79 109 141 168 195 233
#     4   8  13  21  34  53  77 105 135 164 195 234
#     4   9  17  28  42  60  84 116 147 170 197 238
#     4   9  15  24  38  56  78 103 132 167 202 236
#     4   9  18  32  46  58  75 102 137 174 209 245
#     4   7  10  19  37  59  79 101 136 178 207 227
#     4   9  16  26  42  62  80  99 127 165 207 247
#
# _framework density 17.478618000000001
#
# number of rings (size 3 to 8) (size 9 to 14) (size 15 to 20)
#    0.000    3.000    1.250    2.625    0.000    4.000 
#    0.000    0.000    0.000    0.750    0.000    4.375 
#    0.000    2.500    0.000   16.250    0.000    9.750 
#
# Total GULP energy -356564.762417 kJ/mol
# GULP energy per Si atom -5571.324413 kJ/mol
# Density = 1.743884 g / cm^3
# Si number density = 17.478618 Si / 1000 Ang^3
#
#
#
# Elastic Constant Matrix: (Units=GPa)
#
#
# Indices 1 2 3 4 5 6 
#
# 1 154.6515 4.9198 94.0331 0.0000 0.0000 0.0000
# 2 4.9198 38.2792 -8.2149 0.0000 0.0000 0.0000
# 3 94.0331 -8.2149 131.0015 0.0000 0.0000 0.0000
# 4 0.0000 0.0000 0.0000 -74.5685 0.0000 0.0000
# 5 0.0000 0.0000 0.0000 0.0000 12.7038 0.0000
# 6 0.0000 0.0000 0.0000 0.0000 0.0000 7.5024
#
#
#
# Elastic Compliance Matrix: (Units=1/GPa)
#
#
# Indices 1 2 3 4 5 6 
#
# 1 0.011897 -0.003408 -0.008753 0.000000 0.000000 0.000000
# 2 -0.003408 0.027456 0.004168 0.000000 0.000000 0.000000
# 3 -0.008753 0.004168 0.014178 0.000000 0.000000 0.000000
# 4 0.000000 0.000000 0.000000 -0.013410 0.000000 0.000000
# 5 0.000000 0.000000 0.000000 0.000000 0.078717 0.000000
# 6 0.000000 0.000000 0.000000 0.000000 0.000000 0.133290
#
#
# Mechanical properties :
#
#
# Convention : Reuss Voigt Hill
#
# Bulk Modulus (GPa) = 26.63487 56.15647 41.39567
# Shear Modulus (GPa) = 17.81719 4.67383 11.24551
#
# Velocity S-wave (km/s) = 3.19622 1.63702 2.53926
# Velocity P-wave (km/s) = 5.37520 5.98093 5.68614
#
# Compressibility (1/GPa) = 0.03754476
#
# Stress axis : x y z
#
# Youngs Moduli (GPa) = 84.05634 36.42164 70.53224
#
# Poissons Ratio (x) = 0.12411 0.61738
# Poissons Ratio (y) = 0.28642 -0.29395
# Poissons Ratio (z) = 0.73576 -0.15179
#
# Static dielectric constant tensor:
#      x y z
#    x 1.611190 0.000000 0.000000 
#    y 0.000000 1.663030 0.000000 
#    z 0.000000 0.000000 1.606700 
# 
# From -- ./inp_files/34657.got.cif
#   From: 2010.05.17/outbox.cif.g08.bks.cpg/sg47_18_cif.got.tgz:34657.got - 2010.06.03 20:15:42.
