data_PCOD9382664
_publ_section_title
;
Structure prediction by ZEFSAII (Michael W. Deem and Ramdas Pophale) SiO2 
 PCOD9382664
Probable space group: P M M M
;
_chemical_formula_sum "Si O2"
_cell_formula_units_Z 64
_cell_length_a 7.472296
_cell_length_b 19.955613
_cell_length_c 24.412349
_cell_angle_alpha 90.000000
_cell_angle_beta 90.000000
_cell_angle_gamma 90.000000
_cell_volume 3640.229043
_symmetry_space_group_name_H-M "P M M M"
_symmetry_group_IT_number 47
_symmetry_cell_setting 'orthorhombic'
loop_
_space_group_symop_operation_xyz
x,y,z
-x,-y,z
x,-y,-z
-x,y,-z
-x,-y,-z
x,y,-z
-x,y,z
x,-y,z
loop_
_atom_site_type_symbol
_atom_site_label
_atom_site_fract_x
_atom_site_fract_y
_atom_site_fract_z
Si Si1 0.294528 0.287215 0.277254
Si Si2 0.717952 0.574131 0.887930
Si Si3 0.788910 0.790573 0.830113
Si Si4 0.283761 0.846492 0.668382
Si Si5 0.718200 0.077275 0.438311
Si Si6 0.787353 0.925345 0.221297
Si Si7 0.284266 0.287414 0.939178
Si Si8 0.281338 0.574370 0.760247
O O1 0.500000 0.294890 0.295294
O O2 0.294900 0.258864 0.214978
O O3 0.215428 0.226819 0.313299
O O4 0.215519 0.361566 0.273560
O O5 0.500000 0.574427 0.889137
O O6 0.774750 0.500000 0.906873
O O7 0.779231 0.638273 0.921838
O O8 0.770356 0.581654 0.824167
O O9 0.719692 0.865490 0.817755
O O10 0.762891 0.763727 0.890963
O O11 0.000000 0.789948 0.818001
O O12 0.500000 0.842542 0.666656
O O13 0.220314 0.874805 0.610412
O O14 0.240175 0.898224 0.717100
O O15 0.774258 0.095660 0.500000
O O16 0.500000 0.078080 0.437839
O O17 0.771170 0.000000 0.428078
O O18 0.000000 0.929690 0.212100
O O19 0.712624 0.000000 0.214229
O O20 0.500000 0.290074 0.940517
O O21 0.220975 0.269631 0.000000
O O22 0.500000 0.576103 0.759683
O O23 0.226936 0.500000 0.741833
#
# Coordination Sequence:
#
# PCOD9382664 Si02
#       8
#     8   8   8   8   8   8   8   8
#     4   9  15  25  41  59  80 101 126 164 200 228
#     4   8  13  22  38  59  79  99 126 157 185 218
#     4  10  19  30  44  60  79 102 126 153 191 239
#     4   9  16  24  39  63  84 103 132 168 200 229
#     4   8  13  21  33  51  79 112 139 162 190 227
#     4   9  18  31  45  61  81 104 128 157 195 236
#     4  10  19  30  45  62  79 100 127 160 194 227
#     4   8  12  19  35  56  76 100 127 155 189 228
#
# _framework density 17.581310999999999
#
# number of rings (size 3 to 8) (size 9 to 14) (size 15 to 20)
#    0.000    3.125    1.250    1.875    0.000    1.750 
#    0.000    1.250    0.000    2.250    0.000    5.250 
#    0.000    0.500    0.000    7.000    0.000    0.000 
#
# Total GULP energy -356658.352518 kJ/mol
# GULP energy per Si atom -5572.786758 kJ/mol
# Density = 1.754130 g / cm^3
# Si number density = 17.581311 Si / 1000 Ang^3
#
#
#
# Elastic Constant Matrix: (Units=GPa)
#
#
# Indices 1 2 3 4 5 6 
#
# 1 51.7150 1.3981 -4.2172 0.0000 0.0000 0.0000
# 2 1.3981 159.5371 76.4687 0.0000 0.0000 0.0000
# 3 -4.2172 76.4687 110.0464 0.0000 0.0000 0.0000
# 4 0.0000 0.0000 0.0000 27.3527 0.0000 0.0000
# 5 0.0000 0.0000 0.0000 0.0000 32.1368 0.0000
# 6 0.0000 0.0000 0.0000 0.0000 0.0000 9.3665
#
#
#
# Elastic Compliance Matrix: (Units=1/GPa)
#
#
# Indices 1 2 3 4 5 6 
#
# 1 0.019464 -0.000792 0.001296 0.000000 0.000000 0.000000
# 2 -0.000792 0.009431 -0.006583 0.000000 0.000000 0.000000
# 3 0.001296 -0.006583 0.013711 0.000000 0.000000 0.000000
# 4 0.000000 0.000000 0.000000 0.036559 0.000000 0.000000
# 5 0.000000 0.000000 0.000000 0.000000 0.031117 0.000000
# 6 0.000000 0.000000 0.000000 0.000000 0.000000 0.106763
#
#
# Mechanical properties :
#
#
# Convention : Reuss Voigt Hill
#
# Bulk Modulus (GPa) = 32.84337 52.06643 42.45490
# Shear Modulus (GPa) = 20.88963 30.28112 25.58537
#
# Velocity S-wave (km/s) = 3.45073 4.15462 3.81893
# Velocity P-wave (km/s) = 5.88201 7.25902 6.60649
#
# Compressibility (1/GPa) = 0.03044754
#
# Stress axis : x y z
#
# Youngs Moduli (GPa) = 51.37733 106.03733 72.93172
#
# Poissons Ratio (x) = 0.08396 -0.09453
# Poissons Ratio (y) = 0.04068 0.48014
# Poissons Ratio (z) = -0.06659 0.69809
#
# Static dielectric constant tensor:
#      x y z
#    x 1.674790 0.000000 0.000000 
#    y 0.000000 1.634450 0.000000 
#    z 0.000000 0.000000 1.570370 
# 
# From -- ./inp_files/30217.got.cif
#   From: 2010.05.17/outbox.cif.g08.bks.cpg/sg47_16_cif.got.tgz:30217.got - 2010.06.03 20:15:42.
