data_PCOD9382024
_publ_section_title
;
Structure prediction by ZEFSAII (Michael W. Deem and Ramdas Pophale) SiO2 
 PCOD9382024
Probable space group: P M M M
;
_chemical_formula_sum "Si O2"
_cell_formula_units_Z 56
_cell_length_a 20.831032
_cell_length_b 16.114285
_cell_length_c 7.916614
_cell_angle_alpha 90.000000
_cell_angle_beta 90.000000
_cell_angle_gamma 90.000000
_cell_volume 2657.426714
_symmetry_space_group_name_H-M "P M M M"
_symmetry_group_IT_number 47
_symmetry_cell_setting 'orthorhombic'
loop_
_space_group_symop_operation_xyz
x,y,z
-x,-y,z
x,-y,-z
-x,y,-z
-x,-y,-z
x,y,-z
-x,y,z
x,-y,z
loop_
_atom_site_type_symbol
_atom_site_label
_atom_site_fract_x
_atom_site_fract_y
_atom_site_fract_z
Si Si1 0.748863 0.872957 0.195837
Si Si2 0.931096 0.727736 0.699576
Si Si3 0.324482 0.408088 0.798747
Si Si4 0.571513 0.270208 0.704032
Si Si5 0.790527 0.695325 0.699984
Si Si6 0.609626 0.089580 0.696547
Si Si7 0.893665 0.909847 0.204756
O O1 0.756265 0.773871 0.213449
O O2 0.686894 0.903511 0.293899
O O3 0.818189 0.906232 0.251635
O O4 0.739888 0.895378 0.000000
O O5 0.932488 0.709532 0.500000
O O6 0.863795 0.690837 0.765363
O O7 0.924998 0.827227 0.722695
O O8 0.000000 0.701234 0.772941
O O9 0.343581 0.500000 0.738570
O O10 0.375567 0.337263 0.753283
O O11 0.254933 0.382536 0.728405
O O12 0.319473 0.409621 0.000000
O O13 0.573544 0.265271 0.500000
O O14 0.500000 0.295824 0.756283
O O15 0.584990 0.176751 0.770070
O O16 0.793100 0.714019 0.500000
O O17 0.589881 0.088348 0.500000
O O18 0.590442 0.000000 0.771077
O O19 0.919690 0.000000 0.254964
O O20 0.897302 0.903997 0.000000
#
# Coordination Sequence:
#
# PCOD9382024 Si02
#       7
#     8   8   8   8   8   8   8
#     4  10  18  30  50  75 106 145 188 235 287 335
#     4   9  19  34  51  74 105 142 183 228 280 336
#     4  11  24  41  63  91 119 148 184 230 287 346
#     4  10  22  40  61  86 119 158 196 235 281 334
#     4  10  19  34  58  84 111 144 184 230 281 336
#     4  10  20  33  52  80 114 153 196 238 280 329
#     4   9  18  30  43  65 100 141 186 234 281 331
#
# _framework density 21.073018000000001
#
# number of rings (size 3 to 8) (size 9 to 14) (size 15 to 20)
#    0.000    2.143    1.429    1.714    0.000    4.857 
#    0.000    4.286    0.000    0.429    0.000    5.000 
#    0.000    0.000    0.000    0.000    0.000    0.000 
#
# Total GULP energy -312545.253312 kJ/mol
# GULP energy per Si atom -5581.165238 kJ/mol
# Density = 2.102505 g / cm^3
# Si number density = 21.073018 Si / 1000 Ang^3
#
#
#
# Elastic Constant Matrix: (Units=GPa)
#
#
# Indices 1 2 3 4 5 6 
#
# 1 127.9549 54.2774 6.4389 0.0000 0.0000 0.0000
# 2 54.2774 115.5089 4.9106 0.0000 0.0000 0.0000
# 3 6.4389 4.9106 27.1857 0.0000 0.0000 0.0000
# 4 0.0000 0.0000 0.0000 18.7083 0.0000 0.0000
# 5 0.0000 0.0000 0.0000 0.0000 -14.0859 0.0000
# 6 0.0000 0.0000 0.0000 0.0000 0.0000 -37.4241
#
#
#
# Elastic Compliance Matrix: (Units=1/GPa)
#
#
# Indices 1 2 3 4 5 6 
#
# 1 0.009822 -0.004551 -0.001504 0.000000 0.000000 0.000000
# 2 -0.004551 0.010833 -0.000879 0.000000 0.000000 0.000000
# 3 -0.001504 -0.000879 0.037299 0.000000 0.000000 0.000000
# 4 0.000000 0.000000 0.000000 0.053452 0.000000 0.000000
# 5 0.000000 0.000000 0.000000 0.000000 -0.070993 0.000000
# 6 0.000000 0.000000 0.000000 0.000000 0.000000 -0.026721
#
#
# Mechanical properties :
#
#
# Convention : Reuss Voigt Hill
#
# Bulk Modulus (GPa) = 22.68318 44.65590 33.66954
# Shear Modulus (GPa) = 118.32665 7.10784 62.71725
#
# Velocity S-wave (km/s) = 7.50151 1.83855 5.46136
# Velocity P-wave (km/s) = 9.26378 5.07386 7.46866
#
# Compressibility (1/GPa) = 0.04408553
#
# Stress axis : x y z
#
# Youngs Moduli (GPa) = 101.81734 92.30807 26.81029
#
# Poissons Ratio (x) = 0.42011 0.04033
# Poissons Ratio (y) = 0.46339 0.02356
# Poissons Ratio (z) = 0.15315 0.08113
#
# Static dielectric constant tensor:
#      x y z
#    x 1.781750 0.000000 0.000000 
#    y 0.000000 1.770210 0.000000 
#    z 0.000000 0.000000 1.766820 
# 
# From -- ./inp_files/11255.got.cif
#   From: 2010.05.17/outbox.cif.g08.bks.cpg/sg47_6_cif.got.tgz:11255.got - 2010.06.03 20:15:42.
