data_PCOD9382376
_publ_section_title
;
Structure prediction by ZEFSAII (Michael W. Deem and Ramdas Pophale) SiO2 
 PCOD9382376
Probable space group: P M M M
;
_chemical_formula_sum "Si O2"
_cell_formula_units_Z 41
_cell_length_a 7.843166
_cell_length_b 8.646474
_cell_length_c 29.769194
_cell_angle_alpha 90.000000
_cell_angle_beta 90.000000
_cell_angle_gamma 90.000000
_cell_volume 2018.819649
_symmetry_space_group_name_H-M "P M M M"
_symmetry_group_IT_number 47
_symmetry_cell_setting 'orthorhombic'
loop_
_space_group_symop_operation_xyz
x,y,z
-x,-y,z
x,-y,-z
-x,y,-z
-x,-y,-z
x,y,-z
-x,y,z
x,-y,z
loop_
_atom_site_type_symbol
_atom_site_label
_atom_site_fract_x
_atom_site_fract_y
_atom_site_fract_z
Si Si1 0.802315 0.674763 0.682502
Si Si2 0.696364 0.182193 0.591434
Si Si3 0.294346 0.000000 0.930621
Si Si4 0.500000 0.500000 0.000000
Si Si5 0.302817 0.678200 0.781676
Si Si6 0.699845 0.683368 0.500000
Si Si7 0.192130 0.254109 0.000000
Si Si8 0.292893 0.000000 0.824859
O O1 0.757293 0.500000 0.668319
O O2 0.776795 0.779499 0.639239
O O3 0.702966 0.709036 0.728130
O O4 0.000000 0.678560 0.695622
O O5 0.500000 0.237361 0.594988
O O6 0.775379 0.258052 0.546942
O O7 0.697244 0.000000 0.584186
O O8 0.500000 0.000000 0.936921
O O9 0.216851 0.853641 0.956269
O O10 0.259270 0.000000 0.877872
O O11 0.349005 0.369029 0.000000
O O12 0.500000 0.669222 0.796405
O O13 0.232431 0.500000 0.788431
O O14 0.229584 0.835034 0.804373
O O15 0.701354 0.500000 0.500000
O O16 0.500000 0.737798 0.500000
O O17 0.000000 0.317437 0.000000
O O18 0.500000 0.000000 0.817833
#
# Coordination Sequence:
#
# PCOD9382376 Si02
#       8
#     8   8   4   1   8   4   4   4
#     4  10  21  36  53  74 104 141 180 224 279 337
#     4  10  20  33  52  78 103 131 165 214 266 328
#     4  10  18  39  62  90 128 178 221 267 329 392
#     4  12  22  42  64 102 136 182 222 288 348 392
#     4   9  18  35  56  82 114 151 196 251 298 351
#     4   9  17  31  52  75 100 127 164 208 264 325
#     4  11  22  40  66  96 134 177 229 280 331 398
#     4   9  19  34  59  92 118 157 211 250 305 376
#
# _framework density 20.308896000000001
#
# number of rings (size 3 to 8) (size 9 to 14) (size 15 to 20)
#    0.000    2.244    0.976    2.488    1.366    3.512 
#    1.756    2.439    0.000    2.927    0.000    0.000 
#    0.000    0.000    0.000    0.000    0.000    0.000 
#
# Total GULP energy -228257.057737 kJ/mol
# GULP energy per Si atom -5567.245311 kJ/mol
# Density = 2.026267 g / cm^3
# Si number density = 20.308896 Si / 1000 Ang^3
#
#
#
# Elastic Constant Matrix: (Units=GPa)
#
#
# Indices 1 2 3 4 5 6 
#
# 1 74.5135 29.7137 13.9921 0.0000 0.0000 0.0000
# 2 29.7137 126.0155 66.7138 0.0000 0.0000 0.0000
# 3 13.9921 66.7138 97.8109 0.0000 0.0000 0.0000
# 4 0.0000 0.0000 0.0000 -27.2948 0.0000 0.0000
# 5 0.0000 0.0000 0.0000 0.0000 -37.3948 0.0000
# 6 0.0000 0.0000 0.0000 0.0000 0.0000 34.7828
#
#
#
# Elastic Compliance Matrix: (Units=1/GPa)
#
#
# Indices 1 2 3 4 5 6 
#
# 1 0.014824 -0.003714 0.000412 0.000000 0.000000 0.000000
# 2 -0.003714 0.013351 -0.008575 0.000000 0.000000 0.000000
# 3 0.000412 -0.008575 0.016014 0.000000 0.000000 0.000000
# 4 0.000000 0.000000 0.000000 -0.036637 0.000000 0.000000
# 5 0.000000 0.000000 0.000000 0.000000 -0.026742 0.000000
# 6 0.000000 0.000000 0.000000 0.000000 0.000000 0.028750
#
#
# Mechanical properties :
#
#
# Convention : Reuss Voigt Hill
#
# Bulk Modulus (GPa) = 48.93384 57.68655 53.31020
# Shear Modulus (GPa) = 124.61446 6.54668 65.58057
#
# Velocity S-wave (km/s) = 7.84173 1.79737 5.68873
# Velocity P-wave (km/s) = 10.30230 5.72483 8.33400
#
# Compressibility (1/GPa) = 0.02043575
#
# Stress axis : x y z
#
# Youngs Moduli (GPa) = 67.45883 74.90153 62.44720
#
# Poissons Ratio (x) = 0.27816 -0.02575
# Poissons Ratio (y) = 0.25052 0.53548
# Poissons Ratio (z) = -0.02782 0.64228
#
# Static dielectric constant tensor:
#      x y z
#    x 1.757430 0.000000 0.000000 
#    y 0.000000 1.726480 0.000000 
#    z 0.000000 0.000000 1.694930 
# 
# From -- ./inp_files/33165.got.cif
#   From: 2010.05.17/outbox.cif.g08.bks.cpg/sg47_17_cif.got.tgz:33165.got - 2010.06.03 20:15:42.
