data_PCOD9382282
_publ_section_title
;
Structure prediction by ZEFSAII (Michael W. Deem and Ramdas Pophale) SiO2 
 PCOD9382282
Probable space group: P M M M
;
_chemical_formula_sum "Si O2"
_cell_formula_units_Z 52
_cell_length_a 8.586748
_cell_length_b 22.693941
_cell_length_c 15.181970
_cell_angle_alpha 90.000000
_cell_angle_beta 90.000000
_cell_angle_gamma 90.000000
_cell_volume 2958.467263
_symmetry_space_group_name_H-M "P M M M"
_symmetry_group_IT_number 47
_symmetry_cell_setting 'orthorhombic'
loop_
_space_group_symop_operation_xyz
x,y,z
-x,-y,z
x,-y,-z
-x,y,-z
-x,-y,-z
x,y,-z
-x,y,z
x,-y,z
loop_
_atom_site_type_symbol
_atom_site_label
_atom_site_fract_x
_atom_site_fract_y
_atom_site_fract_z
Si Si1 0.309956 0.433179 0.000000
Si Si2 0.312141 0.647326 0.161614
Si Si3 0.185067 0.567838 0.686720
Si Si4 0.812739 0.000000 0.896678
Si Si5 0.312837 0.889739 0.215184
Si Si6 0.309999 0.776728 0.897942
Si Si7 0.812165 0.930511 0.400220
Si Si8 0.324511 0.570914 0.500000
O O1 0.260181 0.396612 0.084497
O O2 0.254125 0.500000 0.000000
O O3 0.500000 0.434540 0.000000
O O4 0.500000 0.648737 0.161642
O O5 0.255542 0.616424 0.249542
O O6 0.258835 0.713387 0.139581
O O7 0.241909 0.500000 0.704405
O O8 0.233500 0.585129 0.588322
O O9 0.000000 0.566795 0.695257
O O10 0.750804 0.943363 0.843995
O O11 0.000000 0.000000 0.893840
O O12 0.764548 0.000000 0.000000
O O13 0.500000 0.892039 0.215143
O O14 0.262216 0.829707 0.166190
O O15 0.255779 0.896798 0.315920
O O16 0.500000 0.776418 0.899532
O O17 0.259983 0.784401 0.000000
O O18 0.764000 0.912194 0.500000
O O19 0.000000 0.926648 0.396776
O O20 0.771297 0.000000 0.390730
O O21 0.335722 0.500000 0.500000
O O22 0.500000 0.594970 0.500000
#
# Coordination Sequence:
#
# PCOD9382282 Si02
#       8
#     4   8   8   4   8   8   8   4
#     4   9  16  26  47  79 105 128 171 228 268 297
#     4  10  18  32  54  76 102 138 183 224 259 308
#     4  10  20  33  50  76 110 141 167 208 270 326
#     4  11  23  37  52  75 110 147 183 222 264 311
#     4  11  21  33  55  84 111 139 176 223 273 318
#     4   9  18  34  54  77 106 142 179 220 268 316
#     4   9  18  34  56  80 109 144 177 213 263 322
#     4   9  17  31  53  79 103 131 173 218 259 314
#
# _framework density 17.576668999999999
#
# number of rings (size 3 to 8) (size 9 to 14) (size 15 to 20)
#    0.000    2.231    1.538    2.769    0.000    4.000 
#    0.000    2.692    1.692    3.231    0.000    0.000 
#    0.000    0.000    0.000    0.000    0.000    0.000 
#
# Total GULP energy -289973.253117 kJ/mol
# GULP energy per Si atom -5576.408714 kJ/mol
# Density = 1.753666 g / cm^3
# Si number density = 17.576669 Si / 1000 Ang^3
#
#
#
# Elastic Constant Matrix: (Units=GPa)
#
#
# Indices 1 2 3 4 5 6 
#
# 1 19.4993 25.0076 25.4317 0.0000 0.0000 0.0000
# 2 25.0076 150.8176 98.5710 0.0000 0.0000 0.0000
# 3 25.4317 98.5710 185.9260 0.0000 0.0000 0.0000
# 4 0.0000 0.0000 0.0000 57.7440 0.0000 0.0000
# 5 0.0000 0.0000 0.0000 0.0000 66.6191 0.0000
# 6 0.0000 0.0000 0.0000 0.0000 0.0000 10.1953
#
#
#
# Elastic Compliance Matrix: (Units=1/GPa)
#
#
# Indices 1 2 3 4 5 6 
#
# 1 0.068152 -0.007969 -0.005097 0.000000 0.000000 0.000000
# 2 -0.007969 0.011078 -0.004783 0.000000 0.000000 0.000000
# 3 -0.005097 -0.004783 0.008612 0.000000 0.000000 0.000000
# 4 0.000000 0.000000 0.000000 0.017318 0.000000 0.000000
# 5 0.000000 0.000000 0.000000 0.000000 0.015011 0.000000
# 6 0.000000 0.000000 0.000000 0.000000 0.000000 0.098085
#
#
# Mechanical properties :
#
#
# Convention : Reuss Voigt Hill
#
# Bulk Modulus (GPa) = 19.17809 72.69595 45.93702
# Shear Modulus (GPa) = 18.42744 40.72720 29.57732
#
# Velocity S-wave (km/s) = 3.24142 4.81887 4.10660
# Velocity P-wave (km/s) = 4.99438 8.50947 6.97692
#
# Compressibility (1/GPa) = 0.05214283
#
# Stress axis : x y z
#
# Youngs Moduli (GPa) = 14.67306 90.26860 116.12341
#
# Poissons Ratio (x) = 0.71936 0.59190
# Poissons Ratio (y) = 0.11693 0.55543
# Poissons Ratio (z) = 0.07479 0.43177
#
# Static dielectric constant tensor:
#      x y z
#    x 1.603000 0.000000 0.000000 
#    y 0.000000 1.584090 0.000000 
#    z 0.000000 0.000000 1.572310 
# 
# From -- ./inp_files/21524.got.cif
#   From: 2010.05.17/outbox.cif.g08.bks.cpg/sg47_11_cif.got.tgz:21524.got - 2010.06.03 20:15:42.
