data_PCOD9382634
_publ_section_title
;
Structure prediction by ZEFSAII (Michael W. Deem and Ramdas Pophale) SiO2 
 PCOD9382634
Probable space group: P M M M
;
_chemical_formula_sum "Si O2"
_cell_formula_units_Z 64
_cell_length_a 26.181048
_cell_length_b 15.130689
_cell_length_c 7.476930
_cell_angle_alpha 90.000000
_cell_angle_beta 90.000000
_cell_angle_gamma 90.000000
_cell_volume 2961.890825
_symmetry_space_group_name_H-M "P M M M"
_symmetry_group_IT_number 47
_symmetry_cell_setting 'orthorhombic'
loop_
_space_group_symop_operation_xyz
x,y,z
-x,-y,z
x,-y,-z
-x,y,-z
-x,-y,-z
x,y,-z
-x,y,z
x,-y,z
loop_
_atom_site_type_symbol
_atom_site_label
_atom_site_fract_x
_atom_site_fract_y
_atom_site_fract_z
Si Si1 0.806334 0.095067 0.783761
Si Si2 0.442840 0.600553 0.218300
Si Si3 0.442860 0.101528 0.714960
Si Si4 0.055230 0.702846 0.791911
Si Si5 0.248999 0.727724 0.781040
Si Si6 0.364748 0.255485 0.787086
Si Si7 0.925429 0.903138 0.293467
Si Si8 0.157151 0.602651 0.218626
O O1 0.775809 0.179792 0.724145
O O2 0.864113 0.098586 0.717211
O O3 0.783816 0.000000 0.732160
O O4 0.808970 0.098086 0.000000
O O5 0.500000 0.624727 0.274862
O O6 0.432465 0.500000 0.271448
O O7 0.401716 0.668887 0.285557
O O8 0.442578 0.602223 0.000000
O O9 0.444726 0.100315 0.500000
O O10 0.500000 0.131669 0.776806
O O11 0.395604 0.164165 0.763004
O O12 0.435964 0.000000 0.775593
O O13 0.058050 0.809685 0.786204
O O14 0.107119 0.658163 0.719780
O O15 0.000000 0.676702 0.712833
O O16 0.054200 0.677058 0.000000
O O17 0.307421 0.730801 0.718459
O O18 0.209858 0.650507 0.725096
O O19 0.249474 0.725710 0.000000
O O20 0.360743 0.267618 0.000000
O O21 0.941062 0.901899 0.500000
O O22 0.940748 0.000000 0.218070
O O23 0.154440 0.500000 0.271930
O O24 0.157171 0.605135 0.000000
#
# Coordination Sequence:
#
# PCOD9382634 Si02
#       8
#     8   8   8   8   8   8   8   8
#     4   9  16  29  50  70  94 131 168 202 242 294
#     4   8  14  25  41  64  97 131 158 192 243 295
#     4   9  19  36  54  71  98 139 179 213 257 309
#     4  10  20  34  54  79 105 135 173 213 253 303
#     4   9  17  29  46  73 105 133 162 201 255 308
#     4  10  19  29  48  78 105 130 167 213 255 299
#     4  10  20  33  51  76 104 133 165 204 252 301
#     4   9  17  31  52  77 105 135 169 212 259 304
#
# _framework density 21.607818000000002
#
# number of rings (size 3 to 8) (size 9 to 14) (size 15 to 20)
#    0.000    2.750    1.250    1.500    0.000    3.500 
#    0.000    7.500    0.000    2.250    0.000    2.625 
#    0.000    0.000    0.000    0.000    0.000    0.000 
#
# Total GULP energy -357002.068628 kJ/mol
# GULP energy per Si atom -5578.157322 kJ/mol
# Density = 2.155864 g / cm^3
# Si number density = 21.607818 Si / 1000 Ang^3
#
#
#
# Elastic Constant Matrix: (Units=GPa)
#
#
# Indices 1 2 3 4 5 6 
#
# 1 202.0629 121.3626 5.1710 0.0000 0.0000 0.0000
# 2 121.3626 150.4615 1.0321 0.0000 0.0000 0.0000
# 3 5.1710 1.0321 59.7118 0.0000 0.0000 0.0000
# 4 0.0000 0.0000 0.0000 12.6268 0.0000 0.0000
# 5 0.0000 0.0000 0.0000 0.0000 -66.0272 0.0000
# 6 0.0000 0.0000 0.0000 0.0000 0.0000 -32.3412
#
#
#
# Elastic Compliance Matrix: (Units=1/GPa)
#
#
# Indices 1 2 3 4 5 6 
#
# 1 0.009629 -0.007762 -0.000700 0.000000 0.000000 0.000000
# 2 -0.007762 0.012904 0.000449 0.000000 0.000000 0.000000
# 3 -0.000700 0.000449 0.016800 0.000000 0.000000 0.000000
# 4 0.000000 0.000000 0.000000 0.079196 0.000000 0.000000
# 5 0.000000 0.000000 0.000000 0.000000 -0.015145 0.000000
# 6 0.000000 0.000000 0.000000 0.000000 0.000000 -0.030920
#
#
# Mechanical properties :
#
#
# Convention : Reuss Voigt Hill
#
# Bulk Modulus (GPa) = 42.90405 74.15197 58.52801
# Shear Modulus (GPa) = 51.94424 1.82971 26.88697
#
# Velocity S-wave (km/s) = 4.90833 0.92121 3.53131
# Velocity P-wave (km/s) = 7.21257 5.96013 6.61606
#
# Compressibility (1/GPa) = 0.02330782
#
# Stress axis : x y z
#
# Youngs Moduli (GPa) = 103.85640 77.49688 59.52400
#
# Poissons Ratio (x) = 0.60151 0.04165
# Poissons Ratio (y) = 0.80610 -0.02673
# Poissons Ratio (z) = 0.07267 -0.03481
#
# Static dielectric constant tensor:
#      x y z
#    x 1.782010 0.000000 0.000000 
#    y 0.000000 1.767120 0.000000 
#    z 0.000000 0.000000 1.826170 
# 
# From -- ./inp_files/12770.got.cif
#   From: 2010.05.17/outbox.cif.g08.bks.cpg/sg47_7_cif.got.tgz:12770.got - 2010.06.03 20:15:42.
