data_PCOD9382899
_publ_section_title
;
Structure prediction by ZEFSAII (Michael W. Deem and Ramdas Pophale) SiO2 
 PCOD9382899
Probable space group: P M M M
;
_chemical_formula_sum "Si O2"
_cell_formula_units_Z 64
_cell_length_a 15.158184
_cell_length_b 8.146914
_cell_length_c 25.938959
_cell_angle_alpha 90.000000
_cell_angle_beta 90.000000
_cell_angle_gamma 90.000000
_cell_volume 3203.264857
_symmetry_space_group_name_H-M "P M M M"
_symmetry_group_IT_number 47
_symmetry_cell_setting 'orthorhombic'
loop_
_space_group_symop_operation_xyz
x,y,z
-x,-y,z
x,-y,-z
-x,y,-z
-x,-y,-z
x,y,-z
-x,y,z
x,-y,z
loop_
_atom_site_type_symbol
_atom_site_label
_atom_site_fract_x
_atom_site_fract_y
_atom_site_fract_z
Si Si1 0.402266 0.309913 0.575574
Si Si2 0.752554 0.199109 0.136397
Si Si3 0.596265 0.190203 0.311109
Si Si4 0.601939 0.799880 0.941595
Si Si5 0.792938 0.806049 0.443942
Si Si6 0.899047 0.302947 0.657331
Si Si7 0.767362 0.304090 0.253665
Si Si8 0.899718 0.799871 0.057481
O O1 0.500000 0.244810 0.560454
O O2 0.398155 0.500000 0.560152
O O3 0.399391 0.297365 0.637517
O O4 0.312480 0.224387 0.558288
O O5 0.664951 0.253510 0.105127
O O6 0.770201 0.259490 0.193837
O O7 0.833029 0.254948 0.100610
O O8 0.750237 0.000000 0.138145
O O9 0.500000 0.214377 0.286428
O O10 0.676664 0.230635 0.274961
O O11 0.601962 0.000000 0.327778
O O12 0.500000 0.750600 0.934454
O O13 0.604271 0.000000 0.941776
O O14 0.629819 0.749854 0.000000
O O15 0.824055 0.741342 0.500000
O O16 0.842343 0.735188 0.394020
O O17 0.808105 0.000000 0.442657
O O18 0.903967 0.500000 0.660985
O O19 0.845812 0.244234 0.708244
O O20 0.000000 0.240054 0.654309
O O21 0.764175 0.500000 0.258798
O O22 0.000000 0.747485 0.066484
O O23 0.899063 0.000000 0.057697
O O24 0.872743 0.748969 0.000000
#
# Coordination Sequence:
#
# PCOD9382899 Si02
#       8
#     8   8   8   8   8   8   8   8
#     4  10  20  35  58  88 121 157 193 227 269 326
#     4  10  19  30  49  77 106 137 178 227 277 332
#     4  10  20  35  58  85 112 144 183 228 276 327
#     4   8  14  26  46  73 104 138 179 227 275 322
#     4  11  24  40  61  91 124 154 188 236 290 342
#     4  10  23  44  66  84 106 145 196 244 292 349
#     4  11  23  38  56  80 112 150 189 231 281 339
#     4   8  14  26  46  73 103 133 170 222 280 332
#
# _framework density 19.979616
#
# number of rings (size 3 to 8) (size 9 to 14) (size 15 to 20)
#    0.000    2.250    1.250    2.625    0.000    6.250 
#    0.000    3.750    0.000    1.500    0.000    1.750 
#    0.000    0.000    0.000    0.000    0.000    0.000 
#
# Total GULP energy -356997.403579 kJ/mol
# GULP energy per Si atom -5578.084431 kJ/mol
# Density = 1.993414 g / cm^3
# Si number density = 19.979616 Si / 1000 Ang^3
#
#
#
# Elastic Constant Matrix: (Units=GPa)
#
#
# Indices 1 2 3 4 5 6 
#
# 1 136.8008 13.5859 95.4267 0.0000 0.0000 0.0000
# 2 13.5859 22.2902 10.8274 0.0000 0.0000 0.0000
# 3 95.4267 10.8274 161.5740 0.0000 0.0000 0.0000
# 4 0.0000 0.0000 0.0000 37.8118 0.0000 0.0000
# 5 0.0000 0.0000 0.0000 0.0000 -8.5588 0.0000
# 6 0.0000 0.0000 0.0000 0.0000 0.0000 5.7559
#
#
#
# Elastic Compliance Matrix: (Units=1/GPa)
#
#
# Indices 1 2 3 4 5 6 
#
# 1 0.012813 -0.004273 -0.007281 0.000000 0.000000 0.000000
# 2 -0.004273 0.047797 -0.000679 0.000000 0.000000 0.000000
# 3 -0.007281 -0.000679 0.010535 0.000000 0.000000 0.000000
# 4 0.000000 0.000000 0.000000 0.026447 0.000000 0.000000
# 5 0.000000 0.000000 0.000000 0.000000 -0.116838 0.000000
# 6 0.000000 0.000000 0.000000 0.000000 0.000000 0.173734
#
#
# Mechanical properties :
#
#
# Convention : Reuss Voigt Hill
#
# Bulk Modulus (GPa) = 21.42325 62.26057 41.84191
# Shear Modulus (GPa) = 25.70506 20.39011 23.04758
#
# Velocity S-wave (km/s) = 3.59076 3.19806 3.40009
# Velocity P-wave (km/s) = 5.28557 6.69825 6.03340
#
# Compressibility (1/GPa) = 0.04667826
#
# Stress axis : x y z
#
# Youngs Moduli (GPa) = 78.04312 20.92179 94.92113
#
# Poissons Ratio (x) = 0.08940 0.69115
# Poissons Ratio (y) = 0.33347 0.06449
# Poissons Ratio (z) = 0.56826 0.01421
#
# Static dielectric constant tensor:
#      x y z
#    x 1.711390 0.000000 0.000000 
#    y 0.000000 1.712950 0.000000 
#    z 0.000000 0.000000 1.701680 
# 
# From -- ./inp_files/32795.got.cif
#   From: 2010.05.17/outbox.cif.g08.bks.cpg/sg47_17_cif.got.tgz:32795.got - 2010.06.03 20:15:42.
