data_PCOD9382467
_publ_section_title
;
Structure prediction by ZEFSAII (Michael W. Deem and Ramdas Pophale) SiO2 
 PCOD9382467
Probable space group: P M M M
;
_chemical_formula_sum "Si O2"
_cell_formula_units_Z 64
_cell_length_a 9.249699
_cell_length_b 35.009425
_cell_length_c 13.954324
_cell_angle_alpha 90.000000
_cell_angle_beta 90.000000
_cell_angle_gamma 90.000000
_cell_volume 4518.781902
_symmetry_space_group_name_H-M "P M M M"
_symmetry_group_IT_number 47
_symmetry_cell_setting 'orthorhombic'
loop_
_space_group_symop_operation_xyz
x,y,z
-x,-y,z
x,-y,-z
-x,y,-z
-x,-y,-z
x,y,-z
-x,y,z
x,-y,z
loop_
_atom_site_type_symbol
_atom_site_label
_atom_site_fract_x
_atom_site_fract_y
_atom_site_fract_z
Si Si1 0.672748 0.955984 0.613065
Si Si2 0.334298 0.382127 0.116538
Si Si3 0.171011 0.839533 0.890771
Si Si4 0.327582 0.231762 0.201572
Si Si5 0.828215 0.695560 0.885367
Si Si6 0.831494 0.457402 0.116486
Si Si7 0.171779 0.885078 0.297611
Si Si8 0.671905 0.186422 0.390857
O O1 0.703864 0.949912 0.500000
O O2 0.500000 0.951470 0.625184
O O3 0.756545 0.924915 0.674442
O O4 0.709515 0.000000 0.635970
O O5 0.500000 0.378219 0.147958
O O6 0.240066 0.345207 0.142444
O O7 0.263637 0.421854 0.149940
O O8 0.334565 0.383348 0.000000
O O9 0.264496 0.802653 0.862846
O O10 0.200168 0.871961 0.811843
O O11 0.000000 0.829548 0.882503
O O12 0.198743 0.851163 0.000000
O O13 0.500000 0.235120 0.189157
O O14 0.249255 0.270397 0.170745
O O15 0.297287 0.218491 0.310903
O O16 0.000000 0.695807 0.869608
O O17 0.803723 0.700909 0.000000
O O18 0.784799 0.500000 0.147192
O O19 0.000000 0.452198 0.142432
O O20 0.826484 0.457290 0.000000
O O21 0.241193 0.851498 0.361960
O O22 0.000000 0.886463 0.312335
O O23 0.704087 0.197709 0.500000
O O24 0.500000 0.177929 0.384334
#
# Coordination Sequence:
#
# PCOD9382467 Si02
#       8
#     8   8   8   8   8   8   8   8
#     4   9  18  32  48  65  87 115 140 160 192 242
#     4   9  16  24  34  49  68  91 124 166 205 238
#     4   9  18  32  46  60  83 113 139 163 197 240
#     4  10  19  29  43  63  82 101 132 171 202 230
#     4  10  19  29  40  53  74 105 135 164 203 248
#     4   8  13  21  32  45  63  89 121 157 198 244
#     4  10  19  29  45  69  90 108 135 170 201 228
#     4   9  18  32  47  62  84 113 137 157 191 241
#
# _framework density 14.163109
#
# number of rings (size 3 to 8) (size 9 to 14) (size 15 to 20)
#    0.000    2.750    0.000    3.000    0.000    7.500 
#    0.000    1.875    0.000    0.375    0.000    2.625 
#    0.000    0.000    0.000    0.000    0.000    0.625 
#
# Total GULP energy -356574.469186 kJ/mol
# GULP energy per Si atom -5571.476081 kJ/mol
# Density = 1.413087 g / cm^3
# Si number density = 14.163109 Si / 1000 Ang^3
#
#
#
# Elastic Constant Matrix: (Units=GPa)
#
#
# Indices 1 2 3 4 5 6 
#
# 1 70.7314 74.8300 42.9886 0.0000 0.0000 0.0000
# 2 74.8300 137.0215 52.3132 0.0000 0.0000 0.0000
# 3 42.9886 52.3132 66.8770 0.0000 0.0000 0.0000
# 4 0.0000 0.0000 0.0000 12.5090 0.0000 0.0000
# 5 0.0000 0.0000 0.0000 0.0000 16.3555 0.0000
# 6 0.0000 0.0000 0.0000 0.0000 0.0000 30.2778
#
#
#
# Elastic Compliance Matrix: (Units=1/GPa)
#
#
# Indices 1 2 3 4 5 6 
#
# 1 0.039320 -0.016858 -0.012088 0.000000 0.000000 0.000000
# 2 -0.016858 0.017634 -0.002957 0.000000 0.000000 0.000000
# 3 -0.012088 -0.002957 0.025036 0.000000 0.000000 0.000000
# 4 0.000000 0.000000 0.000000 0.079942 0.000000 0.000000
# 5 0.000000 0.000000 0.000000 0.000000 0.061142 0.000000
# 6 0.000000 0.000000 0.000000 0.000000 0.000000 0.033027
#
#
# Mechanical properties :
#
#
# Convention : Reuss Voigt Hill
#
# Bulk Modulus (GPa) = 54.99575 68.32148 61.65862
# Shear Modulus (GPa) = 15.33893 18.79501 17.06697
#
# Velocity S-wave (km/s) = 3.29450 3.64681 3.47512
# Velocity P-wave (km/s) = 7.30659 8.12872 7.72859
#
# Compressibility (1/GPa) = 0.01818322
#
# Stress axis : x y z
#
# Youngs Moduli (GPa) = 25.43256 56.70947 39.94260
#
# Poissons Ratio (x) = 0.95602 0.48281
# Poissons Ratio (y) = 0.42875 0.11812
# Poissons Ratio (z) = 0.30742 0.16770
#
# Static dielectric constant tensor:
#      x y z
#    x 1.471730 0.000000 0.000000 
#    y 0.000000 1.455880 0.000000 
#    z 0.000000 0.000000 1.451900 
# 
# From -- ./inp_files/22177.got.cif
#   From: 2010.05.17/outbox.cif.g08.bks.cpg/sg47_12_cif.got.tgz:22177.got - 2010.06.03 20:15:42.
