data_PCOD9382848
_publ_section_title
;
Structure prediction by ZEFSAII (Michael W. Deem and Ramdas Pophale) SiO2 
 PCOD9382848
Probable space group: P M M M
;
_chemical_formula_sum "Si O2"
_cell_formula_units_Z 56
_cell_length_a 7.551208
_cell_length_b 14.820537
_cell_length_c 24.692436
_cell_angle_alpha 90.000000
_cell_angle_beta 90.000000
_cell_angle_gamma 90.000000
_cell_volume 2763.403542
_symmetry_space_group_name_H-M "P M M M"
_symmetry_group_IT_number 47
_symmetry_cell_setting 'orthorhombic'
loop_
_space_group_symop_operation_xyz
x,y,z
-x,-y,z
x,-y,-z
-x,y,-z
-x,-y,-z
x,y,-z
-x,y,z
x,-y,z
loop_
_atom_site_type_symbol
_atom_site_label
_atom_site_fract_x
_atom_site_fract_y
_atom_site_fract_z
Si Si1 0.786535 0.241220 0.061524
Si Si2 0.213896 0.395634 0.439976
Si Si3 0.714172 0.740499 0.767586
Si Si4 0.288510 0.102105 0.153032
Si Si5 0.292821 0.753445 0.354208
Si Si6 0.210885 0.398046 0.859158
Si Si7 0.283743 0.104313 0.560295
O O1 0.743563 0.152189 0.096107
O O2 0.719664 0.327954 0.095549
O O3 0.000000 0.247465 0.059941
O O4 0.721517 0.238927 0.000000
O O5 0.273020 0.364292 0.500000
O O6 0.266538 0.500000 0.434172
O O7 0.279659 0.335043 0.391164
O O8 0.000000 0.392516 0.439535
O O9 0.500000 0.743280 0.767196
O O10 0.778545 0.828073 0.801243
O O11 0.780523 0.741254 0.706003
O O12 0.761933 0.651849 0.801893
O O13 0.500000 0.096789 0.160338
O O14 0.218534 0.000000 0.155462
O O15 0.500000 0.775155 0.346698
O O16 0.216482 0.832773 0.391737
O O17 0.281907 0.500000 0.861131
O O18 0.000000 0.403916 0.867634
O O19 0.226357 0.133512 0.500000
O O20 0.500000 0.108026 0.560229
O O21 0.234656 0.000000 0.567575
#
# Coordination Sequence:
#
# PCOD9382848 Si02
#       7
#     8   8   8   8   8   8   8
#     4   9  18  32  50  74 101 124 151 193 240 281
#     4   9  19  35  51  67  91 124 158 191 233 286
#     4   9  19  33  47  68  97 125 156 196 237 275
#     4   9  18  33  51  69  94 131 167 195 228 273
#     4  10  19  30  48  73  96 120 154 196 238 277
#     4   9  18  33  52  71  92 123 160 193 229 277
#     4   8  14  25  42  66  94 119 144 180 228 278
#
# _framework density 20.264865
#
# number of rings (size 3 to 8) (size 9 to 14) (size 15 to 20)
#    0.000    3.000    0.000    1.286    0.000    4.286 
#    0.000    9.286    0.000    0.429    0.000    8.000 
#    0.000    0.000    0.000    0.000    0.000    0.000 
#
# Total GULP energy -312352.535746 kJ/mol
# GULP energy per Si atom -5577.723853 kJ/mol
# Density = 2.021874 g / cm^3
# Si number density = 20.264865 Si / 1000 Ang^3
#
#
#
# Elastic Constant Matrix: (Units=GPa)
#
#
# Indices 1 2 3 4 5 6 
#
# 1 47.2977 -4.6365 -6.9805 0.0000 0.0000 0.0000
# 2 -4.6365 134.3343 66.2666 0.0000 0.0000 0.0000
# 3 -6.9805 66.2666 160.9062 0.0000 0.0000 0.0000
# 4 0.0000 0.0000 0.0000 18.1348 0.0000 0.0000
# 5 0.0000 0.0000 0.0000 0.0000 13.9492 0.0000
# 6 0.0000 0.0000 0.0000 0.0000 0.0000 30.1268
#
#
#
# Elastic Compliance Matrix: (Units=1/GPa)
#
#
# Indices 1 2 3 4 5 6 
#
# 1 0.021292 0.000350 0.000779 0.000000 0.000000 0.000000
# 2 0.000350 0.009348 -0.003835 0.000000 0.000000 0.000000
# 3 0.000779 -0.003835 0.007828 0.000000 0.000000 0.000000
# 4 0.000000 0.000000 0.000000 0.055143 0.000000 0.000000
# 5 0.000000 0.000000 0.000000 0.000000 0.071689 0.000000
# 6 0.000000 0.000000 0.000000 0.000000 0.000000 0.033193
#
#
# Mechanical properties :
#
#
# Convention : Reuss Voigt Hill
#
# Bulk Modulus (GPa) = 30.24968 50.20416 40.22692
# Shear Modulus (GPa) = 23.26440 31.63474 27.44957
#
# Velocity S-wave (km/s) = 3.39192 3.95532 3.68440
# Velocity P-wave (km/s) = 5.50451 6.75923 6.16388
#
# Compressibility (1/GPa) = 0.03305820
#
# Stress axis : x y z
#
# Youngs Moduli (GPa) = 46.96585 106.97745 127.74984
#
# Poissons Ratio (x) = -0.03749 -0.09957
# Poissons Ratio (y) = -0.01646 0.48986
# Poissons Ratio (z) = -0.03660 0.41021
#
# Static dielectric constant tensor:
#      x y z
#    x 1.798860 0.000000 0.000000 
#    y 0.000000 1.704040 0.000000 
#    z 0.000000 0.000000 1.706110 
# 
# From -- ./inp_files/30520.got.cif
#   From: 2010.05.17/outbox.cif.g08.bks.cpg/sg47_16_cif.got.tgz:30520.got - 2010.06.03 20:15:42.
