data_PCOD9382706
_publ_section_title
;
Structure prediction by ZEFSAII (Michael W. Deem and Ramdas Pophale) SiO2 
 PCOD9382706
Probable space group: P M M M
;
_chemical_formula_sum "Si O2"
_cell_formula_units_Z 52
_cell_length_a 7.493328
_cell_length_b 12.088263
_cell_length_c 29.302509
_cell_angle_alpha 90.000000
_cell_angle_beta 90.000000
_cell_angle_gamma 90.000000
_cell_volume 2654.259933
_symmetry_space_group_name_H-M "P M M M"
_symmetry_group_IT_number 47
_symmetry_cell_setting 'orthorhombic'
loop_
_space_group_symop_operation_xyz
x,y,z
-x,-y,z
x,-y,-z
-x,y,-z
-x,-y,-z
x,y,-z
-x,y,z
x,-y,z
loop_
_atom_site_type_symbol
_atom_site_label
_atom_site_fract_x
_atom_site_fract_y
_atom_site_fract_z
Si Si1 0.281105 0.629047 0.649460
Si Si2 0.216624 0.626622 0.820442
Si Si3 0.787434 0.239638 0.908447
Si Si4 0.789485 0.000000 0.886191
Si Si5 0.711819 0.374263 0.000000
Si Si6 0.707858 0.773444 0.733453
Si Si7 0.285619 0.367541 0.548989
Si Si8 0.282792 0.000000 0.222061
O O1 0.500000 0.627988 0.649867
O O2 0.228273 0.500000 0.656592
O O3 0.217653 0.710486 0.689249
O O4 0.222533 0.668414 0.598959
O O5 0.275102 0.500000 0.820993
O O6 0.280733 0.690572 0.865394
O O7 0.279018 0.689335 0.775559
O O8 0.000000 0.627645 0.820205
O O9 0.714893 0.114676 0.906113
O O10 0.000000 0.230929 0.901683
O O11 0.760928 0.305578 0.955039
O O12 0.771476 0.000000 0.831146
O O13 0.000000 0.000000 0.897036
O O14 0.785803 0.500000 0.000000
O O15 0.500000 0.383539 0.000000
O O16 0.500000 0.794748 0.723135
O O17 0.781376 0.889876 0.751893
O O18 0.217083 0.324366 0.500000
O O19 0.500000 0.351240 0.548641
O O20 0.256210 0.500000 0.548840
O O21 0.500000 0.000000 0.221503
#
# Coordination Sequence:
#
# PCOD9382706 Si02
#       8
#     8   8   8   4   4   8   8   4
#     4   8  13  21  34  55  84 116 151 191 236 287
#     4  10  20  33  51  75  99 125 159 195 234 282
#     4  10  21  38  60  81 102 131 164 199 238 279
#     4  10  20  37  61  82  99 125 165 203 235 278
#     4  11  25  42  59  82 110 137 164 195 234 281
#     4  10  19  30  45  66  93 127 160 194 239 287
#     4   7   9  14  26  46  74 108 145 187 234 280
#     4  10  20  32  47  69  97 128 163 200 237 280
#
# _framework density 19.591148
#
# number of rings (size 3 to 8) (size 9 to 14) (size 15 to 20)
#    0.000    2.692    1.538    2.538    0.000    3.692 
#    0.000    1.538    0.000    0.000    0.000    0.538 
#    0.000    4.923    0.000    5.692    0.000    7.385 
#
# Total GULP energy -289967.024619 kJ/mol
# GULP energy per Si atom -5576.288935 kJ/mol
# Density = 1.954656 g / cm^3
# Si number density = 19.591148 Si / 1000 Ang^3
#
#
#
# Elastic Constant Matrix: (Units=GPa)
#
#
# Indices 1 2 3 4 5 6 
#
# 1 46.2673 1.0444 -15.5663 0.0000 0.0000 0.0000
# 2 1.0444 159.5080 83.5485 0.0000 0.0000 0.0000
# 3 -15.5663 83.5485 175.6359 0.0000 0.0000 0.0000
# 4 0.0000 0.0000 0.0000 -2.9489 0.0000 0.0000
# 5 0.0000 0.0000 0.0000 0.0000 23.2818 0.0000
# 6 0.0000 0.0000 0.0000 0.0000 0.0000 -78.5135
#
#
#
# Elastic Compliance Matrix: (Units=1/GPa)
#
#
# Indices 1 2 3 4 5 6 
#
# 1 0.022578 -0.001593 0.002759 0.000000 0.000000 0.000000
# 2 -0.001593 0.008462 -0.004167 0.000000 0.000000 0.000000
# 3 0.002759 -0.004167 0.007920 0.000000 0.000000 0.000000
# 4 0.000000 0.000000 0.000000 -0.339104 0.000000 0.000000
# 5 0.000000 0.000000 0.000000 0.000000 0.042952 0.000000
# 6 0.000000 0.000000 0.000000 0.000000 0.000000 -0.012737
#
#
# Mechanical properties :
#
#
# Convention : Reuss Voigt Hill
#
# Bulk Modulus (GPa) = 30.34110 57.71826 44.02968
# Shear Modulus (GPa) = -19.76741 9.18951 -5.28895
#
# Velocity S-wave (km/s) = -3.17992 2.16814 -1.64485
# Velocity P-wave (km/s) = 1.42768 5.98274 4.34922
#
# Compressibility (1/GPa) = 0.03295860
#
# Stress axis : x y z
#
# Youngs Moduli (GPa) = 44.29156 118.17431 126.26151
#
# Poissons Ratio (x) = 0.18823 -0.34832
# Poissons Ratio (y) = 0.07055 0.52607
# Poissons Ratio (z) = -0.12219 0.49237
#
# Static dielectric constant tensor:
#      x y z
#    x 1.763710 0.000000 0.000000 
#    y 0.000000 1.679610 0.000000 
#    z 0.000000 0.000000 1.581810 
# 
# From -- ./inp_files/33328.got.cif
#   From: 2010.05.17/outbox.cif.g08.bks.cpg/sg47_17_cif.got.tgz:33328.got - 2010.06.03 20:15:42.
