data_PCOD9382968
_publ_section_title
;
Structure prediction by ZEFSAII (Michael W. Deem and Ramdas Pophale) SiO2 
 PCOD9382968
Probable space group: P M M M
;
_chemical_formula_sum "Si O2"
_cell_formula_units_Z 32
_cell_length_a 23.065835
_cell_length_b 7.435677
_cell_length_c 8.313419
_cell_angle_alpha 90.000000
_cell_angle_beta 90.000000
_cell_angle_gamma 90.000000
_cell_volume 1425.835314
_symmetry_space_group_name_H-M "P M M M"
_symmetry_group_IT_number 47
_symmetry_cell_setting 'orthorhombic'
loop_
_space_group_symop_operation_xyz
x,y,z
-x,-y,z
x,-y,-z
-x,y,-z
-x,-y,-z
x,y,-z
-x,y,z
x,-y,z
loop_
_atom_site_type_symbol
_atom_site_label
_atom_site_fract_x
_atom_site_fract_y
_atom_site_fract_z
Si Si1 0.000000 0.210187 0.197123
Si Si2 0.249684 0.285497 0.322002
Si Si3 0.366792 0.280337 0.823718
Si Si4 0.124605 0.215928 0.183082
Si Si5 0.567030 0.280584 0.500000
O O1 0.937419 0.285084 0.248257
O O2 0.000000 0.000000 0.244243
O O3 0.000000 0.217481 0.000000
O O4 0.261344 0.213429 0.500000
O O5 0.256349 0.500000 0.328254
O O6 0.299760 0.223401 0.201752
O O7 0.183456 0.252498 0.275689
O O8 0.369026 0.500000 0.824485
O O9 0.401686 0.222496 0.665019
O O10 0.387727 0.221569 0.000000
O O11 0.118809 0.000000 0.175963
O O12 0.131665 0.282010 0.000000
O O13 0.569534 0.500000 0.500000
O O14 0.500000 0.227588 0.500000
#
# Coordination Sequence:
#
# PCOD9382968 Si02
#       5
#     4   8   8   8   4
#     4   7  12  26  46  65  88 118 150 191 244 294
#     4  10  19  31  46  65  93 128 163 199 240 287
#     4   9  16  27  43  62  88 124 161 196 238 285
#     4   9  17  30  49  71  92 117 155 201 246 293
#     4   9  16  26  40  62  93 124 157 196 234 281
#
# _framework density 22.442985
#
# number of rings (size 3 to 8) (size 9 to 14) (size 15 to 20)
#    0.000    3.000    1.250    2.250    0.000    2.500 
#    0.000    3.750    0.000    6.000    0.000    0.000 
#    0.000    2.000    0.000    5.250    0.000    5.000 
#
# Total GULP energy -178446.915853 kJ/mol
# GULP energy per Si atom -5576.466120 kJ/mol
# Density = 2.239190 g / cm^3
# Si number density = 22.442985 Si / 1000 Ang^3
#
#
#
# Elastic Constant Matrix: (Units=GPa)
#
#
# Indices 1 2 3 4 5 6 
#
# 1 161.0171 -0.4464 83.3967 0.0000 0.0000 0.0000
# 2 -0.4464 66.8335 4.8537 0.0000 0.0000 0.0000
# 3 83.3967 4.8537 150.5631 0.0000 0.0000 0.0000
# 4 0.0000 0.0000 0.0000 1.9419 0.0000 0.0000
# 5 0.0000 0.0000 0.0000 0.0000 28.4789 0.0000
# 6 0.0000 0.0000 0.0000 0.0000 0.0000 12.1765
#
#
#
# Elastic Compliance Matrix: (Units=1/GPa)
#
#
# Indices 1 2 3 4 5 6 
#
# 1 0.008720 0.000410 -0.004843 0.000000 0.000000 0.000000
# 2 0.000410 0.015017 -0.000711 0.000000 0.000000 0.000000
# 3 -0.004843 -0.000711 0.009347 0.000000 0.000000 0.000000
# 4 0.000000 0.000000 0.000000 0.514968 0.000000 0.000000
# 5 0.000000 0.000000 0.000000 0.000000 0.035114 0.000000
# 6 0.000000 0.000000 0.000000 0.000000 0.000000 0.082125
#
#
# Mechanical properties :
#
#
# Convention : Reuss Voigt Hill
#
# Bulk Modulus (GPa) = 43.86842 61.55798 52.71320
# Shear Modulus (GPa) = 7.31872 27.89344 17.60608
#
# Velocity S-wave (km/s) = 1.80779 3.52924 2.80390
# Velocity P-wave (km/s) = 4.89352 6.64045 5.83276
#
# Compressibility (1/GPa) = 0.02279544
#
# Stress axis : x y z
#
# Youngs Moduli (GPa) = 114.67645 66.59148 106.98198
#
# Poissons Ratio (x) = -0.02730 0.51815
# Poissons Ratio (y) = -0.04702 0.07608
# Poissons Ratio (z) = 0.55541 0.04736
#
# Static dielectric constant tensor:
#      x y z
#    x 1.833710 0.000000 0.000000 
#    y 0.000000 1.876960 0.000000 
#    z 0.000000 0.000000 1.820580 
# 
# From -- ./inp_files/1094.got.cif
#   From: 2010.05.17/outbox.cif.g08.bks.cpg/sg47_1_cif.got.tgz:1094.got - 2010.06.03 20:15:42.
