data_PCOD9382462
_publ_section_title
;
Structure prediction by ZEFSAII (Michael W. Deem and Ramdas Pophale) SiO2 
 PCOD9382462
Probable space group: P M M M
;
_chemical_formula_sum "Si O2"
_cell_formula_units_Z 52
_cell_length_a 17.301815
_cell_length_b 12.891691
_cell_length_c 14.705648
_cell_angle_alpha 90.000000
_cell_angle_beta 90.000000
_cell_angle_gamma 90.000000
_cell_volume 3280.089679
_symmetry_space_group_name_H-M "P M M M"
_symmetry_group_IT_number 47
_symmetry_cell_setting 'orthorhombic'
loop_
_space_group_symop_operation_xyz
x,y,z
-x,-y,z
x,-y,-z
-x,y,-z
-x,-y,-z
x,y,-z
-x,y,z
x,-y,z
loop_
_atom_site_type_symbol
_atom_site_label
_atom_site_fract_x
_atom_site_fract_y
_atom_site_fract_z
Si Si1 0.909506 0.376195 0.780600
Si Si2 0.651419 0.875917 0.108055
Si Si3 0.820199 0.625759 0.603154
Si Si4 0.649679 0.617841 0.610071
Si Si5 0.500000 0.123013 0.784454
Si Si6 0.819063 0.206629 0.890617
Si Si7 0.500000 0.755481 0.608442
Si Si8 0.088912 0.000000 0.889408
O O1 0.897037 0.500000 0.792981
O O2 0.884299 0.349072 0.677433
O O3 0.856496 0.307174 0.845537
O O4 0.000000 0.355004 0.795821
O O5 0.577746 0.839605 0.165559
O O6 0.729565 0.815008 0.131605
O O7 0.664369 0.000000 0.122986
O O8 0.636397 0.864078 0.000000
O O9 0.834615 0.662714 0.500000
O O10 0.815932 0.500000 0.598616
O O11 0.734560 0.658854 0.636427
O O12 0.653290 0.611793 0.500000
O O13 0.639049 0.500000 0.644198
O O14 0.576339 0.688204 0.630241
O O15 0.500000 0.150418 0.678484
O O16 0.500000 0.000000 0.797202
O O17 0.867033 0.104383 0.861210
O O18 0.824708 0.214100 0.000000
O O19 0.500000 0.779254 0.500000
O O20 0.000000 0.000000 0.859726
O O21 0.089803 0.000000 0.000000
#
# Coordination Sequence:
#
# PCOD9382462 Si02
#       8
#     8   8   8   8   4   8   4   4
#     4  10  21  33  46  70 102 134 166 197 237 296
#     4   9  17  33  54  74  93 116 153 203 250 287
#     4   8  15  29  48  68  92 123 159 202 245 279
#     4   8  14  26  44  66  90 115 148 192 237 275
#     4  10  21  32  47  71  98 128 157 189 234 285
#     4  10  19  32  51  73  98 128 160 200 246 290
#     4  10  19  28  43  69  98 128 155 181 222 281
#     4   9  16  28  48  73  96 118 153 201 252 292
#
# _framework density 15.853225999999999
#
# number of rings (size 3 to 8) (size 9 to 14) (size 15 to 20)
#    0.000    2.846    0.769    1.846    2.154    3.538 
#    0.000    2.308    0.000    0.000    0.000    0.538 
#    0.000    6.769    0.000    0.000    0.000    0.000 
#
# Total GULP energy -289503.109483 kJ/mol
# GULP energy per Si atom -5567.367490 kJ/mol
# Density = 1.581714 g / cm^3
# Si number density = 15.853226 Si / 1000 Ang^3
#
#
#
# Elastic Constant Matrix: (Units=GPa)
#
#
# Indices 1 2 3 4 5 6 
#
# 1 121.6787 45.0438 50.7026 0.0000 0.0000 0.0000
# 2 45.0438 37.0703 25.5959 0.0000 0.0000 0.0000
# 3 50.7026 25.5959 52.0315 0.0000 0.0000 0.0000
# 4 0.0000 0.0000 0.0000 18.6738 0.0000 0.0000
# 5 0.0000 0.0000 0.0000 0.0000 23.6568 0.0000
# 6 0.0000 0.0000 0.0000 0.0000 0.0000 17.7768
#
#
#
# Elastic Compliance Matrix: (Units=1/GPa)
#
#
# Indices 1 2 3 4 5 6 
#
# 1 0.017933 -0.014726 -0.010231 0.000000 0.000000 0.000000
# 2 -0.014726 0.052944 -0.011695 0.000000 0.000000 0.000000
# 3 -0.010231 -0.011695 0.034942 0.000000 0.000000 0.000000
# 4 0.000000 0.000000 0.000000 0.053551 0.000000 0.000000
# 5 0.000000 0.000000 0.000000 0.000000 0.042271 0.000000
# 6 0.000000 0.000000 0.000000 0.000000 0.000000 0.056253
#
#
# Mechanical properties :
#
#
# Convention : Reuss Voigt Hill
#
# Bulk Modulus (GPa) = 30.75463 50.38500 40.56982
# Shear Modulus (GPa) = 14.61837 17.98403 16.30120
#
# Velocity S-wave (km/s) = 3.03992 3.37175 3.21012
# Velocity P-wave (km/s) = 5.63588 6.85634 6.27585
#
# Compressibility (1/GPa) = 0.03251542
#
# Stress axis : x y z
#
# Youngs Moduli (GPa) = 55.76388 18.88778 28.61925
#
# Poissons Ratio (x) = 0.27814 0.29279
# Poissons Ratio (y) = 0.82118 0.33470
# Poissons Ratio (z) = 0.57050 0.22089
#
# Static dielectric constant tensor:
#      x y z
#    x 1.552830 0.000000 0.000000 
#    y 0.000000 1.513870 0.000000 
#    z 0.000000 0.000000 1.523560 
# 
# From -- ./inp_files/24668.got.cif
#   From: 2010.05.17/outbox.cif.g08.bks.cpg/sg47_13_cif.got.tgz:24668.got - 2010.06.03 20:15:42.
