data_PCOD9382649
_publ_section_title
;
Structure prediction by ZEFSAII (Michael W. Deem and Ramdas Pophale) SiO2 
 PCOD9382649
Probable space group: P M M M
;
_chemical_formula_sum "Si O2"
_cell_formula_units_Z 48
_cell_length_a 8.493408
_cell_length_b 22.252394
_cell_length_c 20.478535
_cell_angle_alpha 90.000000
_cell_angle_beta 90.000000
_cell_angle_gamma 90.000000
_cell_volume 3870.415699
_symmetry_space_group_name_H-M "P M M M"
_symmetry_group_IT_number 47
_symmetry_cell_setting 'orthorhombic'
loop_
_space_group_symop_operation_xyz
x,y,z
-x,-y,z
x,-y,-z
-x,y,-z
-x,-y,-z
x,y,-z
-x,y,z
x,-y,z
loop_
_atom_site_type_symbol
_atom_site_label
_atom_site_fract_x
_atom_site_fract_y
_atom_site_fract_z
Si Si1 0.179823 0.862685 0.579042
Si Si2 0.685500 0.612933 0.343920
Si Si3 0.188258 0.500000 0.574720
Si Si4 0.311752 0.571876 0.928991
Si Si5 0.812392 0.430232 0.790735
Si Si6 0.500000 0.929823 0.579438
Si Si7 0.812778 0.277993 0.575014
O O1 0.175103 0.868325 0.500000
O O2 0.334686 0.899272 0.601455
O O3 0.206887 0.792016 0.592743
O O4 0.000000 0.879022 0.601411
O O5 0.500000 0.605367 0.343902
O O6 0.757984 0.559059 0.386809
O O7 0.746715 0.606189 0.270234
O O8 0.731289 0.675716 0.376911
O O9 0.247300 0.500000 0.500000
O O10 0.000000 0.500000 0.573131
O O11 0.500000 0.579646 0.925760
O O12 0.280891 0.500000 0.929799
O O13 0.237382 0.594074 0.861757
O O14 0.257038 0.595430 0.000000
O O15 0.755588 0.500000 0.784948
O O16 0.000000 0.431333 0.786908
O O17 0.500000 0.925417 0.500000
O O18 0.500000 0.000000 0.596721
O O19 0.757418 0.286338 0.500000
O O20 0.000000 0.290136 0.575687
#
# Coordination Sequence:
#
# PCOD9382649 Si02
#       7
#     8   8   4   8   8   4   8
#     4   8  15  27  41  56  76 100 124 152 186 225
#     4  12  23  31  43  59  73  92 120 157 199 240
#     4  11  23  37  47  53  68  91 116 153 199 247
#     4   8  14  25  41  59  77  94 112 137 172 217
#     4  10  19  30  43  55  73  97 118 146 185 230
#     4   9  16  24  38  60  82 101 121 147 182 226
#     4   9  18  32  46  57  71  95 126 159 195 235
#
# _framework density 12.401769
#
# number of rings (size 3 to 8) (size 9 to 14) (size 15 to 20)
#    0.000    2.500    0.833    4.250    1.167    4.333 
#    0.000    3.333    0.000    0.000    0.000    0.000 
#    0.000    0.000    0.000    0.000    0.000    0.000 
#
# Total GULP energy -267322.328439 kJ/mol
# GULP energy per Si atom -5569.215176 kJ/mol
# Density = 1.237354 g / cm^3
# Si number density = 12.401769 Si / 1000 Ang^3
#
#
#
# Elastic Constant Matrix: (Units=GPa)
#
#
# Indices 1 2 3 4 5 6 
#
# 1 67.4208 37.1751 38.8802 0.0000 0.0000 0.0000
# 2 37.1751 40.7704 29.4570 0.0000 0.0000 0.0000
# 3 38.8802 29.4570 81.2577 0.0000 0.0000 0.0000
# 4 0.0000 0.0000 0.0000 1.5718 0.0000 0.0000
# 5 0.0000 0.0000 0.0000 0.0000 18.2309 0.0000
# 6 0.0000 0.0000 0.0000 0.0000 0.0000 14.0578
#
#
#
# Elastic Compliance Matrix: (Units=1/GPa)
#
#
# Indices 1 2 3 4 5 6 
#
# 1 0.032139 -0.024651 -0.006442 0.000000 0.000000 0.000000
# 2 -0.024651 0.052139 -0.007106 0.000000 0.000000 0.000000
# 3 -0.006442 -0.007106 0.017965 0.000000 0.000000 0.000000
# 4 0.000000 0.000000 0.000000 0.636226 0.000000 0.000000
# 5 0.000000 0.000000 0.000000 0.000000 0.054852 0.000000
# 6 0.000000 0.000000 0.000000 0.000000 0.000000 0.071135
#
#
# Mechanical properties :
#
#
# Convention : Reuss Voigt Hill
#
# Bulk Modulus (GPa) = 38.69131 44.49704 41.59417
# Shear Modulus (GPa) = 5.26610 12.36787 8.81698
#
# Velocity S-wave (km/s) = 2.06288 3.16138 2.66925
# Velocity P-wave (km/s) = 6.07782 7.02020 6.56594
#
# Compressibility (1/GPa) = 0.02584560
#
# Stress axis : x y z
#
# Youngs Moduli (GPa) = 31.11454 19.17947 55.66440
#
# Poissons Ratio (x) = 0.47279 0.35857
# Poissons Ratio (y) = 0.76701 0.39556
# Poissons Ratio (z) = 0.20043 0.13629
#
# Static dielectric constant tensor:
#      x y z
#    x 1.427440 0.000000 0.000000 
#    y 0.000000 1.385160 0.000000 
#    z 0.000000 0.000000 1.402580 
# 
# From -- ./inp_files/30042.got.cif
#   From: 2010.05.17/outbox.cif.g08.bks.cpg/sg47_16_cif.got.tgz:30042.got - 2010.06.03 20:15:42.
