data_PCOD9382391
_publ_section_title
;
Structure prediction by ZEFSAII (Michael W. Deem and Ramdas Pophale) SiO2 
 PCOD9382391
Probable space group: P M M M
;
_chemical_formula_sum "Si O2"
_cell_formula_units_Z 64
_cell_length_a 19.983191
_cell_length_b 7.631329
_cell_length_c 24.189457
_cell_angle_alpha 90.000000
_cell_angle_beta 90.000000
_cell_angle_gamma 90.000000
_cell_volume 3688.851191
_symmetry_space_group_name_H-M "P M M M"
_symmetry_group_IT_number 47
_symmetry_cell_setting 'orthorhombic'
loop_
_space_group_symop_operation_xyz
x,y,z
-x,-y,z
x,-y,-z
-x,y,-z
-x,-y,-z
x,y,-z
-x,y,z
x,-y,z
loop_
_atom_site_type_symbol
_atom_site_label
_atom_site_fract_x
_atom_site_fract_y
_atom_site_fract_z
Si Si1 0.923531 0.288512 0.937707
Si Si2 0.848694 0.206466 0.827673
Si Si3 0.287961 0.788162 0.438283
Si Si4 0.074039 0.294763 0.279948
Si Si5 0.573983 0.786503 0.614310
Si Si6 0.713004 0.797962 0.779032
Si Si7 0.574235 0.214327 0.256782
Si Si8 0.210578 0.292367 0.329010
O O1 0.924254 0.500000 0.937903
O O2 0.874215 0.231924 0.889445
O O3 0.000000 0.230212 0.926091
O O4 0.905981 0.230567 0.000000
O O5 0.901079 0.282581 0.783465
O O6 0.774507 0.279317 0.814291
O O7 0.846362 0.000000 0.815452
O O8 0.271407 0.727376 0.500000
O O9 0.362115 0.726797 0.420169
O O10 0.236520 0.736029 0.390525
O O11 0.289633 0.000000 0.438890
O O12 0.069203 0.500000 0.293844
O O13 0.135884 0.223754 0.316074
O O14 0.000000 0.217069 0.286481
O O15 0.500000 0.730539 0.595124
O O16 0.581336 0.735034 0.678672
O O17 0.574293 0.000000 0.613133
O O18 0.638526 0.720799 0.776999
O O19 0.739831 0.792879 0.715805
O O20 0.705759 0.000000 0.796718
O O21 0.500000 0.267902 0.238059
O O22 0.575890 0.000000 0.256147
O O23 0.211537 0.500000 0.317039
#
# Coordination Sequence:
#
# PCOD9382391 Si02
#       8
#     8   8   8   8   8   8   8   8
#     4   9  18  32  47  61  83 121 161 187 207 237
#     4  10  19  27  41  68  96 118 140 173 216 253
#     4  10  19  30  45  62  81 107 136 168 208 253
#     4   9  18  32  48  64  83 109 140 173 208 249
#     4   8  13  22  39  62  82 102 135 174 202 231
#     4   9  16  28  44  62  88 115 139 171 210 251
#     4   8  12  20  39  62  81 107 142 174 201 236
#     4  10  19  30  45  63  82 105 134 169 210 253
#
# _framework density 17.349574
#
# number of rings (size 3 to 8) (size 9 to 14) (size 15 to 20)
#    0.000    2.875    1.250    2.250    0.000    3.750 
#    0.000    1.875    0.000    1.875    0.000    3.500 
#    0.000    0.500    0.000    6.250    0.000    1.000 
#
# Total GULP energy -356632.236693 kJ/mol
# GULP energy per Si atom -5572.378698 kJ/mol
# Density = 1.731009 g / cm^3
# Si number density = 17.349574 Si / 1000 Ang^3
#
#
#
# Elastic Constant Matrix: (Units=GPa)
#
#
# Indices 1 2 3 4 5 6 
#
# 1 151.9092 -0.9813 63.2447 0.0000 0.0000 0.0000
# 2 -0.9813 35.6187 -6.1253 0.0000 0.0000 0.0000
# 3 63.2447 -6.1253 91.8472 0.0000 0.0000 0.0000
# 4 0.0000 0.0000 0.0000 14.8525 0.0000 0.0000
# 5 0.0000 0.0000 0.0000 0.0000 26.4724 0.0000
# 6 0.0000 0.0000 0.0000 0.0000 0.0000 15.5704
#
#
#
# Elastic Compliance Matrix: (Units=1/GPa)
#
#
# Indices 1 2 3 4 5 6 
#
# 1 0.009254 -0.000851 -0.006429 0.000000 0.000000 0.000000
# 2 -0.000851 0.028479 0.002485 0.000000 0.000000 0.000000
# 3 -0.006429 0.002485 0.015480 0.000000 0.000000 0.000000
# 4 0.000000 0.000000 0.000000 0.067329 0.000000 0.000000
# 5 0.000000 0.000000 0.000000 0.000000 0.037775 0.000000
# 6 0.000000 0.000000 0.000000 0.000000 0.000000 0.064224
#
#
# Mechanical properties :
#
#
# Convention : Reuss Voigt Hill
#
# Bulk Modulus (GPa) = 22.92302 43.51681 33.21991
# Shear Modulus (GPa) = 20.26985 26.26153 23.26569
#
# Velocity S-wave (km/s) = 3.42178 3.89481 3.66593
# Velocity P-wave (km/s) = 5.37146 6.73520 6.09161
#
# Compressibility (1/GPa) = 0.04362428
#
# Stress axis : x y z
#
# Youngs Moduli (GPa) = 108.06222 35.11349 64.59862
#
# Poissons Ratio (x) = 0.02987 0.41530
# Poissons Ratio (y) = 0.09192 -0.16053
# Poissons Ratio (z) = 0.69472 -0.08726
#
# Static dielectric constant tensor:
#      x y z
#    x 1.636320 0.000000 0.000000 
#    y 0.000000 1.668200 0.000000 
#    z 0.000000 0.000000 1.555700 
# 
# From -- ./inp_files/11779.got.cif
#   From: 2010.05.17/outbox.cif.g08.bks.cpg/sg47_6_cif.got.tgz:11779.got - 2010.06.03 20:15:42.
