data_PCOD9382092
_publ_section_title
;
Structure prediction by ZEFSAII (Michael W. Deem and Ramdas Pophale) SiO2 
 PCOD9382092
Probable space group: P M M M
;
_chemical_formula_sum "Si O2"
_cell_formula_units_Z 56
_cell_length_a 8.534707
_cell_length_b 20.767304
_cell_length_c 16.104089
_cell_angle_alpha 90.000000
_cell_angle_beta 90.000000
_cell_angle_gamma 90.000000
_cell_volume 2854.334709
_symmetry_space_group_name_H-M "P M M M"
_symmetry_group_IT_number 47
_symmetry_cell_setting 'orthorhombic'
loop_
_space_group_symop_operation_xyz
x,y,z
-x,-y,z
x,-y,-z
-x,y,-z
-x,-y,-z
x,y,-z
-x,y,z
x,-y,z
loop_
_atom_site_type_symbol
_atom_site_label
_atom_site_fract_x
_atom_site_fract_y
_atom_site_fract_z
Si Si1 0.309770 0.815323 0.279870
Si Si2 0.316282 0.813626 0.091907
Si Si3 0.172737 0.430033 0.213555
Si Si4 0.309246 0.926575 0.405680
Si Si5 0.813248 0.287273 0.408772
Si Si6 0.681569 0.571879 0.384174
Si Si7 0.675289 0.659385 0.906252
O O1 0.500000 0.812755 0.275636
O O2 0.252664 0.827701 0.184898
O O3 0.258638 0.874142 0.338942
O O4 0.257381 0.750965 0.329804
O O5 0.500000 0.833575 0.091736
O O6 0.312811 0.736036 0.091514
O O7 0.251625 0.834248 0.000000
O O8 0.183697 0.500000 0.171449
O O9 0.299716 0.427578 0.285101
O O10 0.198288 0.372831 0.151120
O O11 0.000000 0.425871 0.252939
O O12 0.258488 0.911532 0.500000
O O13 0.500000 0.925666 0.405799
O O14 0.261611 0.000000 0.386356
O O15 0.760373 0.261082 0.500000
O O16 0.768138 0.362805 0.409383
O O17 0.000000 0.281259 0.403954
O O18 0.500000 0.576474 0.407490
O O19 0.739662 0.500000 0.409361
O O20 0.500000 0.643221 0.876011
O O21 0.690302 0.635514 0.000000
#
# Coordination Sequence:
#
# PCOD9382092 Si02
#       7
#     8   8   8   8   8   8   8
#     4  10  18  30  54  80 101 135 181 221 255 303
#     4   8  15  28  46  70  97 123 157 206 260 304
#     4  10  20  32  46  65  90 119 152 197 257 319
#     4   8  14  25  43  72 109 142 174 217 264 306
#     4  11  24  38  52  75 108 139 165 206 267 321
#     4  10  21  37  56  74  93 124 169 215 252 296
#     4   9  17  29  44  61  84 117 158 205 258 315
#
# _framework density 19.619282999999999
#
# number of rings (size 3 to 8) (size 9 to 14) (size 15 to 20)
#    0.000    2.571    0.000    3.857    0.000    5.429 
#    0.000    2.857    0.000    2.143    0.000    5.000 
#    0.000    0.000    0.000    1.286    0.000    1.571 
#
# Total GULP energy -311778.913724 kJ/mol
# GULP energy per Si atom -5567.480602 kJ/mol
# Density = 1.957463 g / cm^3
# Si number density = 19.619283 Si / 1000 Ang^3
#
#
#
# Elastic Constant Matrix: (Units=GPa)
#
#
# Indices 1 2 3 4 5 6 
#
# 1 24.1301 6.4732 19.5819 0.0000 0.0000 0.0000
# 2 6.4732 74.8997 58.3155 0.0000 0.0000 0.0000
# 3 19.5819 58.3155 143.0982 0.0000 0.0000 0.0000
# 4 0.0000 0.0000 0.0000 21.0562 0.0000 0.0000
# 5 0.0000 0.0000 0.0000 0.0000 11.0473 0.0000
# 6 0.0000 0.0000 0.0000 0.0000 0.0000 -3.5365
#
#
#
# Elastic Compliance Matrix: (Units=1/GPa)
#
#
# Indices 1 2 3 4 5 6 
#
# 1 0.046716 0.001377 -0.006954 0.000000 0.000000 0.000000
# 2 0.001377 0.019597 -0.008174 0.000000 0.000000 0.000000
# 3 -0.006954 -0.008174 0.011271 0.000000 0.000000 0.000000
# 4 0.000000 0.000000 0.000000 0.047492 0.000000 0.000000
# 5 0.000000 0.000000 0.000000 0.000000 0.090520 0.000000
# 6 0.000000 0.000000 0.000000 0.000000 0.000000 -0.282762
#
#
# Mechanical properties :
#
#
# Convention : Reuss Voigt Hill
#
# Bulk Modulus (GPa) = 19.96790 45.65215 32.81003
# Shear Modulus (GPa) = -217.67373 16.23055 -100.72159
#
# Velocity S-wave (km/s) = -10.54465 2.87936 -7.17283
# Velocity P-wave (km/s) = 11.74960 5.86292 7.19998
#
# Compressibility (1/GPa) = 0.05008038
#
# Stress axis : x y z
#
# Youngs Moduli (GPa) = 21.40608 51.02906 88.72303
#
# Poissons Ratio (x) = -0.07025 0.61695
# Poissons Ratio (y) = -0.02947 0.72526
# Poissons Ratio (z) = 0.14885 0.41713
#
# Static dielectric constant tensor:
#      x y z
#    x 1.691660 0.000000 0.000000 
#    y 0.000000 1.683290 0.000000 
#    z 0.000000 0.000000 1.743920 
# 
# From -- ./inp_files/11198.got.cif
#   From: 2010.05.17/outbox.cif.g08.bks.cpg/sg47_6_cif.got.tgz:11198.got - 2010.06.03 20:15:42.
