data_PCOD9382004
_publ_section_title
;
Structure prediction by ZEFSAII (Michael W. Deem and Ramdas Pophale) SiO2 
 PCOD9382004
Probable space group: P M M M
;
_chemical_formula_sum "Si O2"
_cell_formula_units_Z 52
_cell_length_a 7.602085
_cell_length_b 23.266086
_cell_length_c 14.040721
_cell_angle_alpha 90.000000
_cell_angle_beta 90.000000
_cell_angle_gamma 90.000000
_cell_volume 2483.393042
_symmetry_space_group_name_H-M "P M M M"
_symmetry_group_IT_number 47
_symmetry_cell_setting 'orthorhombic'
loop_
_space_group_symop_operation_xyz
x,y,z
-x,-y,z
x,-y,-z
-x,y,-z
-x,-y,-z
x,y,-z
-x,y,z
x,-y,z
loop_
_atom_site_type_symbol
_atom_site_label
_atom_site_fract_x
_atom_site_fract_y
_atom_site_fract_z
Si Si1 0.714757 0.066239 0.500000
Si Si2 0.206092 0.234730 0.893128
Si Si3 0.289363 0.434513 0.106023
Si Si4 0.700736 0.104153 0.895556
Si Si5 0.211656 0.753313 0.392782
Si Si6 0.788805 0.333219 0.244953
Si Si7 0.711405 0.874911 0.306838
O O1 0.500000 0.070316 0.500000
O O2 0.777369 0.096054 0.596483
O O3 0.762367 0.000000 0.500000
O O4 0.301304 0.173789 0.893507
O O5 0.277726 0.284030 0.826643
O O6 0.000000 0.222767 0.869753
O O7 0.210945 0.257558 0.000000
O O8 0.500000 0.436645 0.100212
O O9 0.225552 0.500000 0.119945
O O10 0.251108 0.393430 0.195171
O O11 0.226029 0.414755 0.000000
O O12 0.500000 0.082225 0.896034
O O13 0.780812 0.095124 0.790292
O O14 0.779143 0.088291 0.000000
O O15 0.280517 0.763015 0.500000
O O16 0.270189 0.692494 0.346763
O O17 0.254539 0.807072 0.323706
O O18 0.000000 0.752291 0.398447
O O19 0.000000 0.330372 0.246279
O O20 0.500000 0.881583 0.302073
#
# Coordination Sequence:
#
# PCOD9382004 Si02
#       7
#     4   8   8   8   8   8   8
#     4   9  18  32  51  75  99 127 168 215 256 291
#     4   9  16  25  38  60  91 122 152 185 223 274
#     4   9  19  35  52  71  97 129 165 205 248 291
#     4   9  17  27  40  63  95 127 157 191 235 288
#     4  10  20  33  49  71 100 131 158 197 253 303
#     4  10  19  30  46  69  96 126 161 198 241 294
#     4  10  18  30  50  72  97 130 167 206 246 295
#
# _framework density 20.939093
#
# number of rings (size 3 to 8) (size 9 to 14) (size 15 to 20)
#    0.000    2.538    2.308    0.923    0.000    2.462 
#    0.000    2.308    0.000    1.846    0.000    6.462 
#    0.000    0.000    0.000    5.231    0.000    5.538 
#
# Total GULP energy -289584.280029 kJ/mol
# GULP energy per Si atom -5568.928462 kJ/mol
# Density = 2.089144 g / cm^3
# Si number density = 20.939093 Si / 1000 Ang^3
#
#
#
# Elastic Constant Matrix: (Units=GPa)
#
#
# Indices 1 2 3 4 5 6 
#
# 1 47.3684 -6.3038 7.6397 0.0000 0.0000 0.0000
# 2 -6.3038 56.7673 31.1923 0.0000 0.0000 0.0000
# 3 7.6397 31.1923 166.2595 0.0000 0.0000 0.0000
# 4 0.0000 0.0000 0.0000 -8.8101 0.0000 0.0000
# 5 0.0000 0.0000 0.0000 0.0000 8.1994 0.0000
# 6 0.0000 0.0000 0.0000 0.0000 0.0000 6.4819
#
#
#
# Elastic Compliance Matrix: (Units=1/GPa)
#
#
# Indices 1 2 3 4 5 6 
#
# 1 0.021814 0.003315 -0.001624 0.000000 0.000000 0.000000
# 2 0.003315 0.020144 -0.003932 0.000000 0.000000 0.000000
# 3 -0.001624 -0.003932 0.006827 0.000000 0.000000 0.000000
# 4 0.000000 0.000000 0.000000 -0.113506 0.000000 0.000000
# 5 0.000000 0.000000 0.000000 0.000000 0.121960 0.000000
# 6 0.000000 0.000000 0.000000 0.000000 0.000000 0.154275
#
#
# Mechanical properties :
#
#
# Convention : Reuss Voigt Hill
#
# Bulk Modulus (GPa) = 22.57162 37.27241 29.92202
# Shear Modulus (GPa) = 21.66721 17.03206 19.34963
#
# Velocity S-wave (km/s) = 3.22028 2.85513 3.04318
# Velocity P-wave (km/s) = 4.96286 5.35799 5.16420
#
# Compressibility (1/GPa) = 0.04430341
#
# Stress axis : x y z
#
# Youngs Moduli (GPa) = 45.84156 49.64207 146.47830
#
# Poissons Ratio (x) = -0.16456 0.23792
# Poissons Ratio (y) = -0.15196 0.57590
# Poissons Ratio (z) = 0.07446 0.19517
#
# Static dielectric constant tensor:
#      x y z
#    x 1.804090 0.000000 0.000000 
#    y 0.000000 1.733960 0.000000 
#    z 0.000000 0.000000 1.859440 
# 
# From -- ./inp_files/21414.got.cif
#   From: 2010.05.17/outbox.cif.g08.bks.cpg/sg47_11_cif.got.tgz:21414.got - 2010.06.03 20:15:42.
