data_PCOD9382990
_publ_section_title
;
Structure prediction by ZEFSAII (Michael W. Deem and Ramdas Pophale) SiO2 
 PCOD9382990
Probable space group: P M M M
;
_chemical_formula_sum "Si O2"
_cell_formula_units_Z 52
_cell_length_a 24.108281
_cell_length_b 13.111562
_cell_length_c 10.009612
_cell_angle_alpha 90.000000
_cell_angle_beta 90.000000
_cell_angle_gamma 90.000000
_cell_volume 3164.010537
_symmetry_space_group_name_H-M "P M M M"
_symmetry_group_IT_number 47
_symmetry_cell_setting 'orthorhombic'
loop_
_space_group_symop_operation_xyz
x,y,z
-x,-y,z
x,-y,-z
-x,y,-z
-x,-y,-z
x,y,-z
-x,y,z
x,-y,z
loop_
_atom_site_type_symbol
_atom_site_label
_atom_site_fract_x
_atom_site_fract_y
_atom_site_fract_z
Si Si1 0.936227 0.169322 0.648389
Si Si2 0.106884 0.382259 0.289989
Si Si3 0.837732 0.118064 0.156598
Si Si4 0.062661 0.621491 0.000000
Si Si5 0.562335 0.376033 0.154560
Si Si6 0.338208 0.621617 0.344059
Si Si7 0.780412 0.722379 0.344640
O O1 0.920563 0.131139 0.500000
O O2 0.928648 0.292351 0.644188
O O3 0.895651 0.129841 0.763172
O O4 0.000000 0.144027 0.673898
O O5 0.091639 0.500000 0.317327
O O6 0.096621 0.358601 0.133615
O O7 0.170572 0.361217 0.327968
O O8 0.796358 0.189802 0.240171
O O9 0.820811 0.000000 0.162482
O O10 0.842609 0.146469 0.000000
O O11 0.055268 0.500000 0.000000
O O12 0.000000 0.667090 0.000000
O O13 0.500000 0.343295 0.193989
O O14 0.562224 0.500000 0.158807
O O15 0.611772 0.341893 0.250280
O O16 0.571560 0.347064 0.000000
O O17 0.352290 0.636961 0.500000
O O18 0.330952 0.500000 0.323724
O O19 0.279715 0.675680 0.317706
O O20 0.782558 0.756917 0.500000
#
# Coordination Sequence:
#
# PCOD9382990 Si02
#       7
#     8   8   8   4   8   8   8
#     4  10  22  36  51  74  97 119 149 185 231 285
#     4  10  19  31  47  67  94 127 158 188 224 273
#     4  10  22  39  57  74  90 113 148 192 242 293
#     4   9  18  30  42  60  85 115 152 190 227 264
#     4   8  14  25  40  61  93 134 177 213 240 266
#     4   9  17  29  45  68 100 135 169 203 234 269
#     4  10  21  34  50  73  98 125 157 194 239 288
#
# _framework density 16.434837999999999
#
# number of rings (size 3 to 8) (size 9 to 14) (size 15 to 20)
#    0.000    2.538    0.000    3.231    4.308    5.538 
#    0.000    3.846    0.000    0.000    0.000    0.000 
#    0.000    0.615    0.000    6.769    0.000    5.231 
#
# Total GULP energy -289769.811269 kJ/mol
# GULP energy per Si atom -5572.496371 kJ/mol
# Density = 1.639743 g / cm^3
# Si number density = 16.434838 Si / 1000 Ang^3
#
#
#
# Elastic Constant Matrix: (Units=GPa)
#
#
# Indices 1 2 3 4 5 6 
#
# 1 126.7093 13.0510 77.6867 0.0000 0.0000 0.0000
# 2 13.0510 49.4521 31.8371 0.0000 0.0000 0.0000
# 3 77.6867 31.8371 136.2740 0.0000 0.0000 0.0000
# 4 0.0000 0.0000 0.0000 7.6079 0.0000 0.0000
# 5 0.0000 0.0000 0.0000 0.0000 33.3702 0.0000
# 6 0.0000 0.0000 0.0000 0.0000 0.0000 -1.0914
#
#
#
# Elastic Compliance Matrix: (Units=1/GPa)
#
#
# Indices 1 2 3 4 5 6 
#
# 1 0.012224 0.001483 -0.007315 0.000000 0.000000 0.000000
# 2 0.001483 0.023982 -0.006448 0.000000 0.000000 0.000000
# 3 -0.007315 -0.006448 0.013015 0.000000 0.000000 0.000000
# 4 0.000000 0.000000 0.000000 0.131443 0.000000 0.000000
# 5 0.000000 0.000000 0.000000 0.000000 0.029967 0.000000
# 6 0.000000 0.000000 0.000000 0.000000 0.000000 -0.916274
#
#
# Mechanical properties :
#
#
# Convention : Reuss Voigt Hill
#
# Bulk Modulus (GPa) = 40.55102 61.95388 51.25245
# Shear Modulus (GPa) = -7.43094 20.63471 6.60189
#
# Velocity S-wave (km/s) = -2.12868 3.54721 2.00642
# Velocity P-wave (km/s) = 4.32269 7.38617 6.05149
#
# Compressibility (1/GPa) = 0.02466029
#
# Stress axis : x y z
#
# Youngs Moduli (GPa) = 81.80312 41.69876 76.83407
#
# Poissons Ratio (x) = -0.06186 0.56208
# Poissons Ratio (y) = -0.12135 0.49546
# Poissons Ratio (z) = 0.59843 0.26889
#
# Static dielectric constant tensor:
#      x y z
#    x 1.538990 0.000000 0.000000 
#    y 0.000000 1.562740 0.000000 
#    z 0.000000 0.000000 1.589750 
# 
# From -- ./inp_files/12573.got.cif
#   From: 2010.05.17/outbox.cif.g08.bks.cpg/sg47_7_cif.got.tgz:12573.got - 2010.06.03 20:15:42.
