data_PCOD9382296
_publ_section_title
;
Structure prediction by ZEFSAII (Michael W. Deem and Ramdas Pophale) SiO2 
 PCOD9382296
Probable space group: P M M M
;
_chemical_formula_sum "Si O2"
_cell_formula_units_Z 44
_cell_length_a 15.014951
_cell_length_b 13.760472
_cell_length_c 12.037666
_cell_angle_alpha 90.000000
_cell_angle_beta 90.000000
_cell_angle_gamma 90.000000
_cell_volume 2487.136032
_symmetry_space_group_name_H-M "P M M M"
_symmetry_group_IT_number 47
_symmetry_cell_setting 'orthorhombic'
loop_
_space_group_symop_operation_xyz
x,y,z
-x,-y,z
x,-y,-z
-x,y,-z
-x,-y,-z
x,y,-z
-x,y,z
x,-y,z
loop_
_atom_site_type_symbol
_atom_site_label
_atom_site_fract_x
_atom_site_fract_y
_atom_site_fract_z
Si Si1 0.896536 0.818428 0.500000
Si Si2 0.685621 0.389788 0.705676
Si Si3 0.815285 0.709368 0.867377
Si Si4 0.783111 0.887721 0.712517
Si Si5 0.176237 0.392018 0.500000
Si Si6 0.000000 0.389350 0.864869
Si Si7 0.401044 0.803149 0.633378
O O1 0.844742 0.858366 0.607854
O O2 0.886487 0.701287 0.500000
O O3 0.000000 0.846018 0.500000
O O4 0.651962 0.500000 0.710654
O O5 0.738222 0.358361 0.816218
O O6 0.759143 0.384698 0.607025
O O7 0.614978 0.306489 0.677025
O O8 0.805012 0.814706 0.812421
O O9 0.910270 0.664961 0.831298
O O10 0.811362 0.712367 0.000000
O O11 0.680759 0.866355 0.678432
O O12 0.795922 0.000000 0.739561
O O13 0.134919 0.500000 0.500000
O O14 0.000000 0.500000 0.824201
O O15 0.000000 0.392084 0.000000
O O16 0.394681 0.801576 0.500000
O O17 0.500000 0.837274 0.664287
#
# Coordination Sequence:
#
# PCOD9382296 Si02
#       7
#     4   8   8   8   4   4   8
#     4  12  23  39  58  83 117 151 189 226 277 347
#     4  10  18  32  54  80 116 151 180 218 273 340
#     4  10  21  36  55  81 111 149 196 241 278 324
#     4  11  23  40  59  80 112 149 188 237 287 338
#     4  10  18  34  55  80 113 149 183 220 270 327
#     4   9  18  34  55  80 109 142 187 236 278 321
#     4  10  19  34  57  85 115 143 179 231 287 343
#
# _framework density 17.691032
#
# number of rings (size 3 to 8) (size 9 to 14) (size 15 to 20)
#    0.000    1.727    5.455    0.818    1.273    3.091 
#    0.000    1.818    0.000   10.364    0.000   10.182 
#    0.000    0.000    0.000    0.000    0.000    0.000 
#
# Total GULP energy -245601.999043 kJ/mol
# GULP energy per Si atom -5581.863615 kJ/mol
# Density = 1.765077 g / cm^3
# Si number density = 17.691032 Si / 1000 Ang^3
#
#
#
# Elastic Constant Matrix: (Units=GPa)
#
#
# Indices 1 2 3 4 5 6 
#
# 1 96.8485 23.7835 24.4315 0.0000 0.0000 0.0000
# 2 23.7835 100.3084 17.1082 0.0000 0.0000 0.0000
# 3 24.4315 17.1082 76.9838 0.0000 0.0000 0.0000
# 4 0.0000 0.0000 0.0000 13.9091 0.0000 0.0000
# 5 0.0000 0.0000 0.0000 0.0000 17.6131 0.0000
# 6 0.0000 0.0000 0.0000 0.0000 0.0000 1.9221
#
#
#
# Elastic Compliance Matrix: (Units=1/GPa)
#
#
# Indices 1 2 3 4 5 6 
#
# 1 0.011682 -0.002222 -0.003214 0.000000 0.000000 0.000000
# 2 -0.002222 0.010785 -0.001692 0.000000 0.000000 0.000000
# 3 -0.003214 -0.001692 0.014386 0.000000 0.000000 0.000000
# 4 0.000000 0.000000 0.000000 0.071895 0.000000 0.000000
# 5 0.000000 0.000000 0.000000 0.000000 0.056776 0.000000
# 6 0.000000 0.000000 0.000000 0.000000 0.000000 0.520256
#
#
# Mechanical properties :
#
#
# Convention : Reuss Voigt Hill
#
# Bulk Modulus (GPa) = 44.25157 44.97636 44.61397
# Shear Modulus (GPa) = 7.06648 20.61003 13.83825
#
# Velocity S-wave (km/s) = 2.00076 3.41691 2.79985
# Velocity P-wave (km/s) = 5.51410 6.40667 5.97707
#
# Compressibility (1/GPa) = 0.02259807
#
# Stress axis : x y z
#
# Youngs Moduli (GPa) = 85.60431 92.72533 69.51434
#
# Poissons Ratio (x) = 0.20601 0.22339
# Poissons Ratio (y) = 0.19019 0.11759
# Poissons Ratio (z) = 0.27509 0.15685
#
# Static dielectric constant tensor:
#      x y z
#    x 1.607360 0.000000 0.000000 
#    y 0.000000 1.604720 0.000000 
#    z 0.000000 0.000000 1.587540 
# 
# From -- ./inp_files/17462.got.cif
#   From: 2010.05.17/outbox.cif.g08.bks.cpg/sg47_9_cif.got.tgz:17462.got - 2010.06.03 20:15:42.
