data_PCOD9382745
_publ_section_title
;
Structure prediction by ZEFSAII (Michael W. Deem and Ramdas Pophale) SiO2 
 PCOD9382745
Probable space group: P M M M
;
_chemical_formula_sum "Si O2"
_cell_formula_units_Z 64
_cell_length_a 8.890828
_cell_length_b 24.357421
_cell_length_c 19.516351
_cell_angle_alpha 90.000000
_cell_angle_beta 90.000000
_cell_angle_gamma 90.000000
_cell_volume 4226.414926
_symmetry_space_group_name_H-M "P M M M"
_symmetry_group_IT_number 47
_symmetry_cell_setting 'orthorhombic'
loop_
_space_group_symop_operation_xyz
x,y,z
-x,-y,z
x,-y,-z
-x,y,-z
-x,-y,-z
x,y,-z
-x,y,z
x,-y,z
loop_
_atom_site_type_symbol
_atom_site_label
_atom_site_fract_x
_atom_site_fract_y
_atom_site_fract_z
Si Si1 0.681169 0.437482 0.920959
Si Si2 0.319644 0.832504 0.794112
Si Si3 0.320491 0.239707 0.422143
Si Si4 0.818768 0.223431 0.920634
Si Si5 0.819710 0.730038 0.286843
Si Si6 0.680911 0.062078 0.292154
Si Si7 0.820670 0.118244 0.422122
Si Si8 0.180146 0.663837 0.844724
O O1 0.500000 0.435740 0.919081
O O2 0.727438 0.500000 0.903991
O O3 0.745859 0.391339 0.871667
O O4 0.727299 0.426502 0.000000
O O5 0.500000 0.826966 0.792575
O O6 0.258316 0.819620 0.869691
O O7 0.247222 0.785940 0.745544
O O8 0.278144 0.891867 0.763815
O O9 0.287274 0.257942 0.500000
O O10 0.500000 0.237357 0.413470
O O11 0.247422 0.275591 0.362345
O O12 0.254224 0.178230 0.414905
O O13 0.777643 0.284237 0.892912
O O14 0.000000 0.218762 0.914116
O O15 0.778075 0.217155 0.000000
O O16 0.780233 0.682461 0.232449
O O17 0.000000 0.734656 0.289367
O O18 0.500000 0.064375 0.300145
O O19 0.755011 0.079321 0.363887
O O20 0.722917 0.000000 0.273229
O O21 0.790106 0.098991 0.500000
O O22 0.000000 0.123801 0.414099
O O23 0.000000 0.658317 0.848375
#
# Coordination Sequence:
#
# PCOD9382745 Si02
#       8
#     8   8   8   8   8   8   8   8
#     4   9  18  31  45  64  94 131 167 200 231 263
#     4  10  19  31  48  68  89 114 147 185 227 278
#     4  10  19  30  46  68  93 121 153 187 225 273
#     4   9  18  32  49  69  94 120 145 183 233 278
#     4  10  19  31  47  67  94 123 152 189 232 275
#     4  10  21  35  49  65  87 116 150 189 230 274
#     4  10  20  32  47  67  90 117 149 185 224 270
#     4   9  18  30  45  68  95 123 156 192 227 266
#
# _framework density 15.142859
#
# number of rings (size 3 to 8) (size 9 to 14) (size 15 to 20)
#    0.000    2.375    1.250    3.000    0.000    6.250 
#    0.000    1.875    0.000    0.375    0.000    2.625 
#    0.000    0.500    0.000    5.500    0.000    4.000 
#
# Total GULP energy -356881.082794 kJ/mol
# GULP energy per Si atom -5576.266919 kJ/mol
# Density = 1.510839 g / cm^3
# Si number density = 15.142859 Si / 1000 Ang^3
#
#
#
# Elastic Constant Matrix: (Units=GPa)
#
#
# Indices 1 2 3 4 5 6 
#
# 1 33.1715 37.6982 45.2013 0.0000 0.0000 0.0000
# 2 37.6982 106.4129 72.9964 0.0000 0.0000 0.0000
# 3 45.2013 72.9964 130.3509 0.0000 0.0000 0.0000
# 4 0.0000 0.0000 0.0000 25.6277 0.0000 0.0000
# 5 0.0000 0.0000 0.0000 0.0000 27.6252 0.0000
# 6 0.0000 0.0000 0.0000 0.0000 0.0000 40.9317
#
#
#
# Elastic Compliance Matrix: (Units=1/GPa)
#
#
# Indices 1 2 3 4 5 6 
#
# 1 0.065979 -0.012469 -0.015896 0.000000 0.000000 0.000000
# 2 -0.012469 0.017616 -0.005541 0.000000 0.000000 0.000000
# 3 -0.015896 -0.005541 0.016287 0.000000 0.000000 0.000000
# 4 0.000000 0.000000 0.000000 0.039020 0.000000 0.000000
# 5 0.000000 0.000000 0.000000 0.000000 0.036199 0.000000
# 6 0.000000 0.000000 0.000000 0.000000 0.000000 0.024431
#
#
# Mechanical properties :
#
#
# Convention : Reuss Voigt Hill
#
# Bulk Modulus (GPa) = 31.18370 64.63635 47.91002
# Shear Modulus (GPa) = 17.98346 26.43954 22.21150
#
# Velocity S-wave (km/s) = 3.44988 4.18306 3.83403
# Velocity P-wave (km/s) = 6.04207 8.13066 7.16290
#
# Compressibility (1/GPa) = 0.03206804
#
# Stress axis : x y z
#
# Youngs Moduli (GPa) = 15.15643 56.76783 61.39960
#
# Poissons Ratio (x) = 0.70786 0.97603
# Poissons Ratio (y) = 0.18899 0.34020
# Poissons Ratio (z) = 0.24093 0.31454
#
# Static dielectric constant tensor:
#      x y z
#    x 1.506980 0.000000 0.000000 
#    y 0.000000 1.479990 0.000000 
#    z 0.000000 0.000000 1.515120 
# 
# From -- ./inp_files/11970.got.cif
#   From: 2010.05.17/outbox.cif.g08.bks.cpg/sg47_6_cif.got.tgz:11970.got - 2010.06.03 20:15:42.
