data_PCOD9382751
_publ_section_title
;
Structure prediction by ZEFSAII (Michael W. Deem and Ramdas Pophale) SiO2 
 PCOD9382751
Probable space group: P M M M
;
_chemical_formula_sum "Si O2"
_cell_formula_units_Z 40
_cell_length_a 24.178071
_cell_length_b 13.604463
_cell_length_c 7.846025
_cell_angle_alpha 90.000000
_cell_angle_beta 90.000000
_cell_angle_gamma 90.000000
_cell_volume 2580.790432
_symmetry_space_group_name_H-M "P M M M"
_symmetry_group_IT_number 47
_symmetry_cell_setting 'orthorhombic'
loop_
_space_group_symop_operation_xyz
x,y,z
-x,-y,z
x,-y,-z
-x,y,-z
-x,-y,-z
x,y,-z
-x,y,z
x,-y,z
loop_
_atom_site_type_symbol
_atom_site_label
_atom_site_fract_x
_atom_site_fract_y
_atom_site_fract_z
Si Si1 0.101780 0.752583 0.197677
Si Si2 0.440261 0.885493 0.294858
Si Si3 0.321900 0.112719 0.202275
Si Si4 0.798576 0.114476 0.699877
Si Si5 0.000000 0.109632 0.206197
Si Si6 0.933508 0.382944 0.500000
O O1 0.158982 0.812114 0.211436
O O2 0.054423 0.830286 0.251237
O O3 0.094389 0.665156 0.332556
O O4 0.092551 0.723151 0.000000
O O5 0.440261 0.886281 0.500000
O O6 0.500000 0.843548 0.238831
O O7 0.381699 0.840587 0.239912
O O8 0.440040 0.000000 0.236299
O O9 0.264593 0.150752 0.277740
O O10 0.325467 0.000000 0.268960
O O11 0.315139 0.110094 0.000000
O O12 0.812025 0.113075 0.500000
O O13 0.801954 0.000000 0.762486
O O14 0.000000 0.000000 0.276425
O O15 0.000000 0.103254 0.000000
O O16 0.926966 0.500000 0.500000
O O17 0.000000 0.362054 0.500000
#
# Coordination Sequence:
#
# PCOD9382751 Si02
#       6
#     8   8   8   8   4   4
#     4  11  21  36  55  76 100 126 159 194 236 284
#     4   8  13  21  32  45  65  99 146 197 239 270
#     4   9  16  24  34  52  79 112 151 193 234 273
#     4  10  19  30  46  68  96 129 161 193 233 284
#     4   9  18  31  49  74 103 131 156 188 226 270
#     4  11  24  42  60  78  98 120 155 200 245 289
#
# _framework density 15.499127
#
# number of rings (size 3 to 8) (size 9 to 14) (size 15 to 20)
#    0.000    2.400    2.000    2.400    0.000    5.200 
#    0.000    3.500    0.000    0.000    0.000    0.000 
#    0.000    0.000    0.000    0.000    0.000    2.000 
#
# Total GULP energy -222696.397322 kJ/mol
# GULP energy per Si atom -5567.409933 kJ/mol
# Density = 1.546385 g / cm^3
# Si number density = 15.499127 Si / 1000 Ang^3
#
#
#
# Elastic Constant Matrix: (Units=GPa)
#
#
# Indices 1 2 3 4 5 6 
#
# 1 118.6517 28.6743 18.3044 0.0000 0.0000 0.0000
# 2 28.6743 53.9405 27.9924 0.0000 0.0000 0.0000
# 3 18.3044 27.9924 66.2928 0.0000 0.0000 0.0000
# 4 0.0000 0.0000 0.0000 10.5098 0.0000 0.0000
# 5 0.0000 0.0000 0.0000 0.0000 -10.6639 0.0000
# 6 0.0000 0.0000 0.0000 0.0000 0.0000 0.2366
#
#
#
# Elastic Compliance Matrix: (Units=1/GPa)
#
#
# Indices 1 2 3 4 5 6 
#
# 1 0.009692 -0.004819 -0.000641 0.000000 0.000000 0.000000
# 2 -0.004819 0.026138 -0.009706 0.000000 0.000000 0.000000
# 3 -0.000641 -0.009706 0.019360 0.000000 0.000000 0.000000
# 4 0.000000 0.000000 0.000000 0.095149 0.000000 0.000000
# 5 0.000000 0.000000 0.000000 0.000000 -0.093774 0.000000
# 6 0.000000 0.000000 0.000000 0.000000 0.000000 4.225691
#
#
# Mechanical properties :
#
#
# Convention : Reuss Voigt Hill
#
# Bulk Modulus (GPa) = 40.23081 43.20303 41.71692
# Shear Modulus (GPa) = 1.15717 10.94410 6.05064
#
# Velocity S-wave (km/s) = 0.86500 2.66016 1.97796
# Velocity P-wave (km/s) = 5.19719 6.11312 5.67367
#
# Compressibility (1/GPa) = 0.02485657
#
# Stress axis : x y z
#
# Youngs Moduli (GPa) = 103.18223 38.25871 51.65284
#
# Poissons Ratio (x) = 0.18438 0.03311
# Poissons Ratio (y) = 0.49727 0.50135
# Poissons Ratio (z) = 0.06614 0.37134
#
# Static dielectric constant tensor:
#      x y z
#    x 1.575490 0.000000 0.000000 
#    y 0.000000 1.473810 0.000000 
#    z 0.000000 0.000000 1.548510 
# 
# From -- ./inp_files/10685.got.cif
#   From: 2010.05.17/outbox.cif.g08.bks.cpg/sg47_6_cif.got.tgz:10685.got - 2010.06.03 20:15:42.
