data_PCOD9382078
_publ_section_title
;
Structure prediction by ZEFSAII (Michael W. Deem and Ramdas Pophale) SiO2 
 PCOD9382078
Probable space group: P M M M
;
_chemical_formula_sum "Si O2"
_cell_formula_units_Z 56
_cell_length_a 23.195192
_cell_length_b 14.856706
_cell_length_c 8.479758
_cell_angle_alpha 90.000000
_cell_angle_beta 90.000000
_cell_angle_gamma 90.000000
_cell_volume 2922.159782
_symmetry_space_group_name_H-M "P M M M"
_symmetry_group_IT_number 47
_symmetry_cell_setting 'orthorhombic'
loop_
_space_group_symop_operation_xyz
x,y,z
-x,-y,z
x,-y,-z
-x,y,-z
-x,-y,-z
x,y,-z
-x,y,z
x,-y,z
loop_
_atom_site_type_symbol
_atom_site_label
_atom_site_fract_x
_atom_site_fract_y
_atom_site_fract_z
Si Si1 0.348858 0.898389 0.188025
Si Si2 0.000000 0.103702 0.807330
Si Si3 0.851576 0.602431 0.690498
Si Si4 0.280649 0.397292 0.691774
Si Si5 0.220384 0.895681 0.312396
Si Si6 0.388743 0.717307 0.690304
Si Si7 0.500000 0.603913 0.307209
Si Si8 0.887915 0.785741 0.188398
O O1 0.282847 0.878367 0.237887
O O2 0.388715 0.820110 0.255603
O O3 0.361922 0.000000 0.245069
O O4 0.352360 0.897853 0.000000
O O5 0.057174 0.156613 0.756055
O O6 0.000000 0.000000 0.755214
O O7 0.000000 0.103139 0.000000
O O8 0.852590 0.605783 0.500000
O O9 0.866590 0.500000 0.737239
O O10 0.785070 0.619841 0.742026
O O11 0.889831 0.682486 0.756946
O O12 0.280085 0.393554 0.500000
O O13 0.295765 0.500000 0.734820
O O14 0.329434 0.329251 0.747605
O O15 0.226154 0.885408 0.500000
O O16 0.170312 0.831158 0.252563
O O17 0.205147 0.000000 0.276766
O O18 0.387999 0.715603 0.500000
O O19 0.443102 0.658121 0.742707
O O20 0.500000 0.500000 0.255499
O O21 0.500000 0.602504 0.500000
O O22 0.886552 0.788923 0.000000
#
# Coordination Sequence:
#
# PCOD9382078 Si02
#       8
#     8   4   8   8   8   8   4   8
#     4  10  21  36  53  75 104 137 174 218 268 320
#     4   9  20  38  56  75 102 138 179 219 262 315
#     4   9  18  33  52  75 105 139 175 218 268 320
#     4   8  14  26  47  74 101 131 166 203 249 305
#     4  10  20  34  54  81 111 140 171 212 265 325
#     4  10  18  30  52  78 104 137 176 219 263 307
#     4   9  18  32  52  81 112 140 175 217 260 311
#     4  11  21  34  55  79 105 140 180 223 267 311
#
# _framework density 19.163907999999999
#
# number of rings (size 3 to 8) (size 9 to 14) (size 15 to 20)
#    0.000    2.429    0.000    3.857    0.000    5.429 
#    0.000    2.500    0.000    9.857    0.000    0.000 
#    0.000    0.000    0.000    0.000    0.000    0.000 
#
# Total GULP energy -312571.752310 kJ/mol
# GULP energy per Si atom -5581.638434 kJ/mol
# Density = 1.912029 g / cm^3
# Si number density = 19.163908 Si / 1000 Ang^3
#
#
#
# Elastic Constant Matrix: (Units=GPa)
#
#
# Indices 1 2 3 4 5 6 
#
# 1 58.6399 81.8743 8.3501 0.0000 0.0000 0.0000
# 2 81.8743 168.2791 19.2872 0.0000 0.0000 0.0000
# 3 8.3501 19.2872 9.4141 0.0000 0.0000 0.0000
# 4 0.0000 0.0000 0.0000 21.1904 0.0000 0.0000
# 5 0.0000 0.0000 0.0000 0.0000 -15.2245 0.0000
# 6 0.0000 0.0000 0.0000 0.0000 0.0000 35.1926
#
#
#
# Elastic Compliance Matrix: (Units=1/GPa)
#
#
# Indices 1 2 3 4 5 6 
#
# 1 0.053601 -0.026960 0.007693 0.000000 0.000000 0.000000
# 2 -0.026960 0.021327 -0.019780 0.000000 0.000000 0.000000
# 3 0.007693 -0.019780 0.139926 0.000000 0.000000 0.000000
# 4 0.000000 0.000000 0.000000 0.047191 0.000000 0.000000
# 5 0.000000 0.000000 0.000000 0.000000 -0.065684 0.000000
# 6 0.000000 0.000000 0.000000 0.000000 0.000000 0.028415
#
#
# Mechanical properties :
#
#
# Convention : Reuss Voigt Hill
#
# Bulk Modulus (GPa) = 7.31221 50.59515 28.95368
# Shear Modulus (GPa) = 14.34891 16.68645 15.51768
#
# Velocity S-wave (km/s) = 2.73929 2.95400 2.84867
# Velocity P-wave (km/s) = 3.71872 6.17199 5.09521
#
# Compressibility (1/GPa) = 0.13675751
#
# Stress axis : x y z
#
# Youngs Moduli (GPa) = 18.65654 46.88913 7.14662
#
# Poissons Ratio (x) = 1.26415 -0.05498
# Poissons Ratio (y) = 0.50299 0.14136
# Poissons Ratio (z) = -0.14352 0.92748
#
# Static dielectric constant tensor:
#      x y z
#    x 1.649420 0.000000 0.000000 
#    y 0.000000 1.680100 0.000000 
#    z 0.000000 0.000000 1.662430 
# 
# From -- ./inp_files/11345.got.cif
#   From: 2010.05.17/outbox.cif.g08.bks.cpg/sg47_6_cif.got.tgz:11345.got - 2010.06.03 20:15:42.
