data_PCOD9382027
_publ_section_title
;
Structure prediction by ZEFSAII (Michael W. Deem and Ramdas Pophale) SiO2 
 PCOD9382027
Probable space group: P M M M
;
_chemical_formula_sum "Si O2"
_cell_formula_units_Z 58
_cell_length_a 28.456773
_cell_length_b 14.908874
_cell_length_c 7.599881
_cell_angle_alpha 90.000000
_cell_angle_beta 90.000000
_cell_angle_gamma 90.000000
_cell_volume 3224.313681
_symmetry_space_group_name_H-M "P M M M"
_symmetry_group_IT_number 47
_symmetry_cell_setting 'orthorhombic'
loop_
_space_group_symop_operation_xyz
x,y,z
-x,-y,z
x,-y,-z
-x,y,-z
-x,-y,-z
x,y,-z
-x,y,z
x,-y,z
loop_
_atom_site_type_symbol
_atom_site_label
_atom_site_fract_x
_atom_site_fract_y
_atom_site_fract_z
Si Si1 0.947057 0.601378 0.788319
Si Si2 0.230292 0.399537 0.707168
Si Si3 0.143292 0.284512 0.289865
Si Si4 0.500000 0.628159 0.500000
Si Si5 0.582945 0.393976 0.209070
Si Si6 0.676650 0.707361 0.794804
Si Si7 0.818987 0.900733 0.714740
Si Si8 0.290171 0.900020 0.712117
O O1 0.935427 0.500000 0.726599
O O2 0.906845 0.670807 0.740074
O O3 0.000000 0.623305 0.726969
O O4 0.948518 0.598366 0.000000
O O5 0.220905 0.409117 0.500000
O O6 0.236550 0.500000 0.780417
O O7 0.185245 0.347229 0.782426
O O8 0.277049 0.340017 0.719638
O O9 0.149887 0.279158 0.500000
O O10 0.150699 0.183351 0.223286
O O11 0.459221 0.623737 0.343812
O O12 0.594394 0.500000 0.218580
O O13 0.628102 0.336046 0.267288
O O14 0.572246 0.374983 0.000000
O O15 0.680306 0.814197 0.769549
O O16 0.678459 0.687212 0.000000
O O17 0.819497 0.902233 0.500000
O O18 0.764341 0.887027 0.765940
O O19 0.833678 0.000000 0.773725
O O20 0.290705 0.900497 0.500000
O O21 0.305033 0.000000 0.771377
#
# Coordination Sequence:
#
# PCOD9382027 Si02
#       8
#     8   8   8   2   8   8   8   8
#     4   9  19  35  51  67  92 128 169 212 258 311
#     4  10  20  32  47  70 104 141 175 210 251 314
#     4  10  18  30  50  75  99 126 167 215 258 301
#     4  12  23  38  64  86 103 152 199 230 282 322
#     4  10  22  38  55  82 116 145 186 236 274 322
#     4  11  22  34  50  76 112 146 173 215 268 317
#     4   8  14  27  48  72  99 131 165 206 255 303
#     4   9  17  32  54  76 102 139 180 218 256 308
#
# _framework density 17.988323999999999
#
# number of rings (size 3 to 8) (size 9 to 14) (size 15 to 20)
#    0.000    2.345    1.379    3.310    1.931    3.310 
#    0.000    0.690    0.000    0.828    0.000    3.862 
#    0.000    2.207    0.000    0.000    0.000    0.000 
#
# Total GULP energy -322874.703274 kJ/mol
# GULP energy per Si atom -5566.805229 kJ/mol
# Density = 1.794738 g / cm^3
# Si number density = 17.988324 Si / 1000 Ang^3
#
#
#
# Elastic Constant Matrix: (Units=GPa)
#
#
# Indices 1 2 3 4 5 6 
#
# 1 126.2944 94.1588 17.9289 0.0000 0.0000 0.0000
# 2 94.1588 143.8714 17.5507 0.0000 0.0000 0.0000
# 3 17.9289 17.5507 48.7558 0.0000 0.0000 0.0000
# 4 0.0000 0.0000 0.0000 6.6171 0.0000 0.0000
# 5 0.0000 0.0000 0.0000 0.0000 26.8535 0.0000
# 6 0.0000 0.0000 0.0000 0.0000 0.0000 19.9862
#
#
#
# Elastic Compliance Matrix: (Units=1/GPa)
#
#
# Indices 1 2 3 4 5 6 
#
# 1 0.015679 -0.009997 -0.002167 0.000000 0.000000 0.000000
# 2 -0.009997 0.013644 -0.001235 0.000000 0.000000 0.000000
# 3 -0.002167 -0.001235 0.021752 0.000000 0.000000 0.000000
# 4 0.000000 0.000000 0.000000 0.151123 0.000000 0.000000
# 5 0.000000 0.000000 0.000000 0.000000 0.037239 0.000000
# 6 0.000000 0.000000 0.000000 0.000000 0.000000 0.050035
#
#
# Mechanical properties :
#
#
# Convention : Reuss Voigt Hill
#
# Bulk Modulus (GPa) = 41.19227 64.24427 52.71827
# Shear Modulus (GPa) = 15.41490 23.31023 19.36257
#
# Velocity S-wave (km/s) = 2.93053 3.60370 3.28441
# Velocity P-wave (km/s) = 5.86514 7.28749 6.61466
#
# Compressibility (1/GPa) = 0.02427640
#
# Stress axis : x y z
#
# Youngs Moduli (GPa) = 63.78034 73.29251 45.97297
#
# Poissons Ratio (x) = 0.73270 0.09962
# Poissons Ratio (y) = 0.63761 0.05679
# Poissons Ratio (z) = 0.13821 0.09054
#
# Static dielectric constant tensor:
#      x y z
#    x 1.595650 0.000000 0.000000 
#    y 0.000000 1.642470 0.000000 
#    z 0.000000 0.000000 1.678110 
# 
# From -- ./inp_files/12650.got.cif
#   From: 2010.05.17/outbox.cif.g08.bks.cpg/sg47_7_cif.got.tgz:12650.got - 2010.06.03 20:15:42.
