data_PCOD9382365
_publ_section_title
;
Structure prediction by ZEFSAII (Michael W. Deem and Ramdas Pophale) SiO2 
 PCOD9382365
Probable space group: P M M M
;
_chemical_formula_sum "Si O2"
_cell_formula_units_Z 52
_cell_length_a 8.988688
_cell_length_b 11.755897
_cell_length_c 30.364180
_cell_angle_alpha 90.000000
_cell_angle_beta 90.000000
_cell_angle_gamma 90.000000
_cell_volume 3208.585642
_symmetry_space_group_name_H-M "P M M M"
_symmetry_group_IT_number 47
_symmetry_cell_setting 'orthorhombic'
loop_
_space_group_symop_operation_xyz
x,y,z
-x,-y,z
x,-y,-z
-x,y,-z
-x,-y,-z
x,y,-z
-x,y,z
x,-y,z
loop_
_atom_site_type_symbol
_atom_site_label
_atom_site_fract_x
_atom_site_fract_y
_atom_site_fract_z
Si Si1 0.323317 0.000000 0.347004
Si Si2 0.171528 0.364525 0.297500
Si Si3 0.676583 0.768418 0.780564
Si Si4 0.331789 0.750566 0.375543
Si Si5 0.500000 0.635460 0.447906
Si Si6 0.823641 0.364277 0.139352
Si Si7 0.177873 0.000000 0.250505
Si Si8 0.326901 0.362088 0.951109
O O1 0.293367 0.883909 0.373680
O O2 0.234199 0.000000 0.301272
O O3 0.500000 0.000000 0.336406
O O4 0.184855 0.500000 0.296360
O O5 0.275430 0.308137 0.261022
O O6 0.220101 0.317575 0.344905
O O7 0.000000 0.333545 0.288094
O O8 0.500000 0.782867 0.782040
O O9 0.735957 0.705489 0.823957
O O10 0.756533 0.888600 0.772797
O O11 0.500000 0.740290 0.355464
O O12 0.359983 0.695242 0.423321
O O13 0.500000 0.500000 0.438775
O O14 0.500000 0.652753 0.500000
O O15 0.792926 0.500000 0.144289
O O16 0.771141 0.328146 0.090541
O O17 0.000000 0.348402 0.144643
O O18 0.000000 0.000000 0.249579
O O19 0.500000 0.329811 0.944691
O O20 0.323009 0.500000 0.952022
O O21 0.279085 0.323222 0.000000
#
# Coordination Sequence:
#
# PCOD9382365 Si02
#       8
#     4   8   8   8   4   8   4   8
#     4  10  18  34  52  78 106 136 172 224 261 312
#     4  11  22  34  50  76 109 140 176 221 267 320
#     4  12  24  37  53  74 102 140 180 220 264 322
#     4   9  19  32  53  77 105 138 178 220 265 312
#     4   9  18  33  55  83 113 148 187 227 272 321
#     4  10  20  33  49  73 107 142 178 222 272 325
#     4  12  24  38  56  76 103 138 177 221 272 316
#     4   8  14  26  45  69  98 134 176 220 268 325
#
# _framework density 16.206519
#
# number of rings (size 3 to 8) (size 9 to 14) (size 15 to 20)
#    0.462    1.462    1.538    4.385    0.000    4.000 
#    0.000    2.308    0.000    0.462    0.000    2.692 
#    0.000    6.154    0.000    0.000    0.000    0.000 
#
# Total GULP energy -289854.446794 kJ/mol
# GULP energy per Si atom -5574.123977 kJ/mol
# Density = 1.616963 g / cm^3
# Si number density = 16.206519 Si / 1000 Ang^3
#
#
#
# Elastic Constant Matrix: (Units=GPa)
#
#
# Indices 1 2 3 4 5 6 
#
# 1 86.1567 54.0054 51.4122 0.0000 0.0000 0.0000
# 2 54.0054 85.9802 56.4003 0.0000 0.0000 0.0000
# 3 51.4122 56.4003 120.7887 0.0000 0.0000 0.0000
# 4 0.0000 0.0000 0.0000 -27.8985 0.0000 0.0000
# 5 0.0000 0.0000 0.0000 0.0000 0.1220 0.0000
# 6 0.0000 0.0000 0.0000 0.0000 0.0000 18.2765
#
#
#
# Elastic Compliance Matrix: (Units=1/GPa)
#
#
# Indices 1 2 3 4 5 6 
#
# 1 0.020331 -0.010226 -0.003879 0.000000 0.000000 0.000000
# 2 -0.010226 0.021909 -0.005878 0.000000 0.000000 0.000000
# 3 -0.003879 -0.005878 0.012674 0.000000 0.000000 0.000000
# 4 0.000000 0.000000 0.000000 -0.035844 0.000000 0.000000
# 5 0.000000 0.000000 0.000000 0.000000 8.197410 0.000000
# 6 0.000000 0.000000 0.000000 0.000000 0.000000 0.054715
#
#
# Mechanical properties :
#
#
# Convention : Reuss Voigt Hill
#
# Bulk Modulus (GPa) = 66.88987 68.50683 67.69835
# Shear Modulus (GPa) = 0.60124 6.84053 3.72088
#
# Velocity S-wave (km/s) = 0.60975 2.05670 1.51687
# Velocity P-wave (km/s) = 6.46983 6.92842 6.70305
#
# Compressibility (1/GPa) = 0.01494995
#
# Stress axis : x y z
#
# Youngs Moduli (GPa) = 49.18516 45.64298 78.89935
#
# Poissons Ratio (x) = 0.46674 0.30604
# Poissons Ratio (y) = 0.50297 0.46374
# Poissons Ratio (z) = 0.19079 0.26827
#
# Static dielectric constant tensor:
#      x y z
#    x 1.542840 0.000000 0.000000 
#    y 0.000000 1.540240 0.000000 
#    z 0.000000 0.000000 1.537230 
# 
# From -- ./inp_files/34317.got.cif
#   From: 2010.05.17/outbox.cif.g08.bks.cpg/sg47_18_cif.got.tgz:34317.got - 2010.06.03 20:15:42.
