data_PCOD9382115
_publ_section_title
;
Structure prediction by ZEFSAII (Michael W. Deem and Ramdas Pophale) SiO2 
 PCOD9382115
Probable space group: P M M M
;
_chemical_formula_sum "Si O2"
_cell_formula_units_Z 56
_cell_length_a 9.115752
_cell_length_b 16.851772
_cell_length_c 23.880544
_cell_angle_alpha 90.000000
_cell_angle_beta 90.000000
_cell_angle_gamma 90.000000
_cell_volume 3668.447362
_symmetry_space_group_name_H-M "P M M M"
_symmetry_group_IT_number 47
_symmetry_cell_setting 'orthorhombic'
loop_
_space_group_symop_operation_xyz
x,y,z
-x,-y,z
x,-y,-z
-x,y,-z
-x,-y,-z
x,y,-z
-x,y,z
x,-y,z
loop_
_atom_site_type_symbol
_atom_site_label
_atom_site_fract_x
_atom_site_fract_y
_atom_site_fract_z
Si Si1 0.323411 0.332533 0.935082
Si Si2 0.324153 0.092109 0.777784
Si Si3 0.823098 0.500000 0.242807
Si Si4 0.325150 0.185716 0.336121
Si Si5 0.174473 0.232195 0.160083
Si Si6 0.174984 0.326315 0.275009
Si Si7 0.823884 0.092241 0.434990
Si Si8 0.676207 0.500000 0.878856
O O1 0.500000 0.324665 0.930848
O O2 0.247347 0.269451 0.894607
O O3 0.284879 0.420561 0.912833
O O4 0.282335 0.323801 0.000000
O O5 0.500000 0.098850 0.785367
O O6 0.290123 0.126939 0.716089
O O7 0.243043 0.148322 0.821903
O O8 0.283122 0.000000 0.781689
O O9 0.782464 0.581403 0.274020
O O10 0.752585 0.500000 0.181357
O O11 0.000000 0.500000 0.236322
O O12 0.500000 0.190483 0.341116
O O13 0.258961 0.270450 0.318391
O O14 0.255108 0.149556 0.391711
O O15 0.204596 0.290903 0.212874
O O16 0.000000 0.226264 0.153754
O O17 0.000000 0.319847 0.284512
O O18 0.787608 0.108608 0.500000
O O19 0.000000 0.099017 0.429106
O O20 0.784860 0.000000 0.423542
O O21 0.500000 0.500000 0.871160
#
# Coordination Sequence:
#
# PCOD9382115 Si02
#       8
#     8   8   4   8   8   8   8   4
#     4  10  20  33  48  67  93 125 158 190 229 282
#     4   9  18  32  49  69  95 125 155 190 234 283
#     4  10  18  31  49  69  97 127 158 195 236 280
#     4  10  19  30  47  72 101 128 160 199 235 275
#     4  10  19  31  48  69  93 120 153 194 237 280
#     4   9  18  31  47  67  94 128 160 193 235 283
#     4   9  18  32  49  70  99 135 169 198 232 277
#     4  10  19  30  48  70  94 123 157 193 230 275
#
# _framework density 15.265314
#
# number of rings (size 3 to 8) (size 9 to 14) (size 15 to 20)
#    0.000    2.429    1.429    1.929    0.000    4.286 
#    0.000    0.714    0.000    1.714    0.000    3.500 
#    0.000    4.000    0.000    0.000    0.000    0.000 
#
# Total GULP energy -312329.115092 kJ/mol
# GULP energy per Si atom -5577.305627 kJ/mol
# Density = 1.523057 g / cm^3
# Si number density = 15.265314 Si / 1000 Ang^3
#
#
#
# Elastic Constant Matrix: (Units=GPa)
#
#
# Indices 1 2 3 4 5 6 
#
# 1 32.1320 52.5522 50.5998 0.0000 0.0000 0.0000
# 2 52.5522 149.3103 79.1734 0.0000 0.0000 0.0000
# 3 50.5998 79.1734 114.9731 0.0000 0.0000 0.0000
# 4 0.0000 0.0000 0.0000 27.3984 0.0000 0.0000
# 5 0.0000 0.0000 0.0000 0.0000 26.8120 0.0000
# 6 0.0000 0.0000 0.0000 0.0000 0.0000 19.2844
#
#
#
# Elastic Compliance Matrix: (Units=1/GPa)
#
#
# Indices 1 2 3 4 5 6 
#
# 1 0.152557 -0.028500 -0.047515 0.000000 0.000000 0.000000
# 2 -0.028500 0.015874 0.001612 0.000000 0.000000 0.000000
# 3 -0.047515 0.001612 0.028499 0.000000 0.000000 0.000000
# 4 0.000000 0.000000 0.000000 0.036498 0.000000 0.000000
# 5 0.000000 0.000000 0.000000 0.000000 0.037297 0.000000
# 6 0.000000 0.000000 0.000000 0.000000 0.000000 0.051855
#
#
# Mechanical properties :
#
#
# Convention : Reuss Voigt Hill
#
# Bulk Modulus (GPa) = 20.77960 73.45178 47.11569
# Shear Modulus (GPa) = 10.25793 22.30495 16.28144
#
# Velocity S-wave (km/s) = 2.59506 3.82665 3.26937
# Velocity P-wave (km/s) = 4.75615 8.23077 6.72185
#
# Compressibility (1/GPa) = 0.04812412
#
# Stress axis : x y z
#
# Youngs Moduli (GPa) = 6.55493 62.99707 35.08855
#
# Poissons Ratio (x) = 1.79539 1.66723
# Poissons Ratio (y) = 0.18681 -0.05655
# Poissons Ratio (z) = 0.31146 -0.10153
#
# Static dielectric constant tensor:
#      x y z
#    x 1.501880 0.000000 0.000000 
#    y 0.000000 1.501110 0.000000 
#    z 0.000000 0.000000 1.477810 
# 
# From -- ./inp_files/25188.got.cif
#   From: 2010.05.17/outbox.cif.g08.bks.cpg/sg47_13_cif.got.tgz:25188.got - 2010.06.03 20:15:42.
