data_PCOD9382432
_publ_section_title
;
Structure prediction by ZEFSAII (Michael W. Deem and Ramdas Pophale) SiO2 
 PCOD9382432
Probable space group: P M M M
;
_chemical_formula_sum "Si O2"
_cell_formula_units_Z 60
_cell_length_a 24.580277
_cell_length_b 19.001327
_cell_length_c 9.107671
_cell_angle_alpha 90.000000
_cell_angle_beta 90.000000
_cell_angle_gamma 90.000000
_cell_volume 4253.809518
_symmetry_space_group_name_H-M "P M M M"
_symmetry_group_IT_number 47
_symmetry_cell_setting 'orthorhombic'
loop_
_space_group_symop_operation_xyz
x,y,z
-x,-y,z
x,-y,-z
-x,y,-z
-x,-y,-z
x,y,-z
-x,y,z
x,-y,z
loop_
_atom_site_type_symbol
_atom_site_label
_atom_site_fract_x
_atom_site_fract_y
_atom_site_fract_z
Si Si1 0.726950 0.157005 0.676356
Si Si2 0.375737 0.082568 0.825731
Si Si3 0.060483 0.914701 0.329467
Si Si4 0.171415 0.916227 0.825136
Si Si5 0.500000 0.585241 0.333859
Si Si6 0.664999 0.294799 0.325549
Si Si7 0.386967 0.417363 0.825611
Si Si8 0.439490 0.801198 0.325417
O O1 0.726697 0.150164 0.500000
O O2 0.678074 0.110708 0.743915
O O3 0.782551 0.128476 0.743893
O O4 0.712030 0.238460 0.711249
O O5 0.425135 0.128458 0.762819
O O6 0.382832 0.000000 0.799212
O O7 0.369719 0.094001 0.000000
O O8 0.068799 0.894407 0.500000
O O9 0.111653 0.894178 0.231187
O O10 0.000000 0.890701 0.282930
O O11 0.059272 0.000000 0.326350
O O12 0.178653 0.000000 0.791489
O O13 0.175844 0.908324 0.000000
O O14 0.500000 0.500000 0.342930
O O15 0.500000 0.614314 0.500000
O O16 0.444401 0.602751 0.250351
O O17 0.666882 0.308628 0.500000
O O18 0.659684 0.367012 0.238011
O O19 0.608795 0.253020 0.293172
O O20 0.377168 0.500000 0.794030
O O21 0.391944 0.408989 0.000000
O O22 0.436679 0.815596 0.500000
O O23 0.500000 0.775064 0.290975
#
# Coordination Sequence:
#
# PCOD9382432 Si02
#       8
#     8   8   8   8   4   8   8   8
#     4  10  20  33  47  62  80 105 139 175 209 248
#     4  10  20  32  45  61  80 100 126 165 209 251
#     4   8  14  25  40  58  82 113 148 183 217 252
#     4  10  19  28  41  63  88 114 145 182 221 257
#     4   9  17  29  45  63  83 107 130 153 184 225
#     4   9  19  33  48  64  81 105 134 165 202 244
#     4  10  20  32  46  67  90 107 128 158 194 241
#     4   9  19  34  48  62  79 100 128 161 197 244
#
# _framework density 14.105003999999999
#
# number of rings (size 3 to 8) (size 9 to 14) (size 15 to 20)
#    0.000    2.600    0.000    3.400    0.933    8.533 
#    0.000    2.667    0.000    0.000    0.000    0.000 
#    0.000    0.000    0.000    0.000    0.000    0.667 
#
# Total GULP energy -334457.010067 kJ/mol
# GULP energy per Si atom -5574.283501 kJ/mol
# Density = 1.407290 g / cm^3
# Si number density = 14.105004 Si / 1000 Ang^3
#
#
#
# Elastic Constant Matrix: (Units=GPa)
#
#
# Indices 1 2 3 4 5 6 
#
# 1 78.0614 29.4692 32.4282 0.0000 0.0000 0.0000
# 2 29.4692 65.5419 41.9764 0.0000 0.0000 0.0000
# 3 32.4282 41.9764 48.6177 0.0000 0.0000 0.0000
# 4 0.0000 0.0000 0.0000 19.0196 0.0000 0.0000
# 5 0.0000 0.0000 0.0000 0.0000 17.0834 0.0000
# 6 0.0000 0.0000 0.0000 0.0000 0.0000 11.8019
#
#
#
# Elastic Compliance Matrix: (Units=1/GPa)
#
#
# Indices 1 2 3 4 5 6 
#
# 1 0.017744 -0.000891 -0.011066 0.000000 0.000000 0.000000
# 2 -0.000891 0.034175 -0.028912 0.000000 0.000000 0.000000
# 3 -0.011066 -0.028912 0.052913 0.000000 0.000000 0.000000
# 4 0.000000 0.000000 0.000000 0.052577 0.000000 0.000000
# 5 0.000000 0.000000 0.000000 0.000000 0.058536 0.000000
# 6 0.000000 0.000000 0.000000 0.000000 0.000000 0.084732
#
#
# Mechanical properties :
#
#
# Convention : Reuss Voigt Hill
#
# Bulk Modulus (GPa) = 43.30342 44.44096 43.87219
# Shear Modulus (GPa) = 12.81677 15.47078 14.14378
#
# Velocity S-wave (km/s) = 3.01768 3.31543 3.17006
# Velocity P-wave (km/s) = 6.55052 6.79939 6.67612
#
# Compressibility (1/GPa) = 0.02309287
#
# Stress axis : x y z
#
# Youngs Moduli (GPa) = 56.35781 29.26122 18.89900
#
# Poissons Ratio (x) = 0.02606 0.20914
# Poissons Ratio (y) = 0.05020 0.54642
# Poissons Ratio (z) = 0.62366 0.84601
#
# Static dielectric constant tensor:
#      x y z
#    x 1.459540 0.000000 0.000000 
#    y 0.000000 1.468940 0.000000 
#    z 0.000000 0.000000 1.469790 
# 
# From -- ./inp_files/12903.got.cif
#   From: 2010.05.17/outbox.cif.g08.bks.cpg/sg47_7_cif.got.tgz:12903.got - 2010.06.03 20:15:42.
