data_PCOD9382439
_publ_section_title
;
Structure prediction by ZEFSAII (Michael W. Deem and Ramdas Pophale) SiO2 
 PCOD9382439
Probable space group: P M M M
;
_chemical_formula_sum "Si O2"
_cell_formula_units_Z 64
_cell_length_a 20.248453
_cell_length_b 18.884116
_cell_length_c 7.482873
_cell_angle_alpha 90.000000
_cell_angle_beta 90.000000
_cell_angle_gamma 90.000000
_cell_volume 2861.257093
_symmetry_space_group_name_H-M "P M M M"
_symmetry_group_IT_number 47
_symmetry_cell_setting 'orthorhombic'
loop_
_space_group_symop_operation_xyz
x,y,z
-x,-y,z
x,-y,-z
-x,y,-z
-x,-y,-z
x,y,-z
-x,y,z
x,-y,z
loop_
_atom_site_type_symbol
_atom_site_label
_atom_site_fract_x
_atom_site_fract_y
_atom_site_fract_z
Si Si1 0.924669 0.623288 0.216455
Si Si2 0.749742 0.879481 0.284822
Si Si3 0.921639 0.224131 0.201938
Si Si4 0.397995 0.077801 0.791850
Si Si5 0.109533 0.074951 0.205687
Si Si6 0.570940 0.763297 0.707497
Si Si7 0.217680 0.423894 0.711678
Si Si8 0.715803 0.278216 0.718428
O O1 0.903749 0.701340 0.286890
O O2 0.861562 0.577427 0.263607
O O3 0.000000 0.604898 0.274838
O O4 0.927767 0.626993 0.000000
O O5 0.752436 0.883273 0.500000
O O6 0.680887 0.912939 0.225403
O O7 0.811568 0.920469 0.207145
O O8 0.751259 0.796041 0.232413
O O9 0.909285 0.149317 0.292585
O O10 0.000000 0.230299 0.184498
O O11 0.893042 0.221538 0.000000
O O12 0.424483 0.150945 0.711768
O O13 0.416645 0.000000 0.719231
O O14 0.416296 0.078763 0.000000
O O15 0.088051 0.000000 0.284262
O O16 0.085037 0.076589 0.000000
O O17 0.570076 0.742227 0.500000
O O18 0.500000 0.742863 0.787754
O O19 0.639664 0.732131 0.780351
O O20 0.284253 0.278536 0.500000
O O21 0.242074 0.500000 0.783394
O O22 0.250180 0.350853 0.781736
O O23 0.769161 0.423421 0.500000
#
# Coordination Sequence:
#
# PCOD9382439 Si02
#       8
#     8   8   8   8   8   8   8   8
#     4   9  18  33  52  72  96 128 163 198 235 278
#     4  10  19  31  48  66  87 121 162 199 236 283
#     4   8  15  29  47  65  86 116 156 197 236 283
#     4  10  20  32  46  67  98 131 160 197 244 286
#     4  10  19  28  41  64  91 117 150 198 250 291
#     4   9  18  33  53  74  96 128 168 204 238 281
#     4  10  20  33  51  75 102 130 157 190 236 288
#     4   8  16  32  51  71  95 123 158 198 236 277
#
# _framework density 22.367789999999999
#
# number of rings (size 3 to 8) (size 9 to 14) (size 15 to 20)
#    0.000    2.750    0.000    3.375    0.000    4.250 
#    0.000    6.250    0.000    1.500    0.000    3.500 
#    0.000    0.000    0.000    5.625    0.000    6.250 
#
# Total GULP energy -356924.195441 kJ/mol
# GULP energy per Si atom -5576.940554 kJ/mol
# Density = 2.231688 g / cm^3
# Si number density = 22.367790 Si / 1000 Ang^3
#
#
#
# Elastic Constant Matrix: (Units=GPa)
#
#
# Indices 1 2 3 4 5 6 
#
# 1 76.1386 51.7304 -2.7765 0.0000 0.0000 0.0000
# 2 51.7304 164.9059 3.7246 0.0000 0.0000 0.0000
# 3 -2.7765 3.7246 72.8464 0.0000 0.0000 0.0000
# 4 0.0000 0.0000 0.0000 13.9070 0.0000 0.0000
# 5 0.0000 0.0000 0.0000 0.0000 6.0909 0.0000
# 6 0.0000 0.0000 0.0000 0.0000 0.0000 -2.0274
#
#
#
# Elastic Compliance Matrix: (Units=1/GPa)
#
#
# Indices 1 2 3 4 5 6 
#
# 1 0.016751 -0.005275 0.000908 0.000000 0.000000 0.000000
# 2 -0.005275 0.007732 -0.000596 0.000000 0.000000 0.000000
# 3 0.000908 -0.000596 0.013793 0.000000 0.000000 0.000000
# 4 0.000000 0.000000 0.000000 0.071906 0.000000 0.000000
# 5 0.000000 0.000000 0.000000 0.000000 0.164179 0.000000
# 6 0.000000 0.000000 0.000000 0.000000 0.000000 -0.493246
#
#
# Mechanical properties :
#
#
# Convention : Reuss Voigt Hill
#
# Bulk Modulus (GPa) = 35.27440 46.58309 40.92875
# Shear Modulus (GPa) = -25.06175 21.00826 -2.02675
#
# Velocity S-wave (km/s) = -3.35093 3.06799 -0.95293
# Velocity P-wave (km/s) = 0.91257 5.78112 4.13848
#
# Compressibility (1/GPa) = 0.02834917
#
# Stress axis : x y z
#
# Youngs Moduli (GPa) = 59.69704 129.32621 72.50252
#
# Poissons Ratio (x) = 0.68224 -0.06585
# Poissons Ratio (y) = 0.31492 0.04324
# Poissons Ratio (z) = -0.05422 0.07713
#
# Static dielectric constant tensor:
#      x y z
#    x 1.838050 0.000000 0.000000 
#    y 0.000000 1.879190 0.000000 
#    z 0.000000 0.000000 1.797410 
# 
# From -- ./inp_files/11588.got.cif
#   From: 2010.05.17/outbox.cif.g08.bks.cpg/sg47_6_cif.got.tgz:11588.got - 2010.06.03 20:15:42.
