data_PCOD9382823
_publ_section_title
;
Structure prediction by ZEFSAII (Michael W. Deem and Ramdas Pophale) SiO2 
 PCOD9382823
Probable space group: P M M M
;
_chemical_formula_sum "Si O2"
_cell_formula_units_Z 64
_cell_length_a 16.144313
_cell_length_b 7.823467
_cell_length_c 25.173905
_cell_angle_alpha 90.000000
_cell_angle_beta 90.000000
_cell_angle_gamma 90.000000
_cell_volume 3179.577484
_symmetry_space_group_name_H-M "P M M M"
_symmetry_group_IT_number 47
_symmetry_cell_setting 'orthorhombic'
loop_
_space_group_symop_operation_xyz
x,y,z
-x,-y,z
x,-y,-z
-x,y,-z
-x,-y,-z
x,y,-z
-x,y,z
x,-y,z
loop_
_atom_site_type_symbol
_atom_site_label
_atom_site_fract_x
_atom_site_fract_y
_atom_site_fract_z
Si Si1 0.273742 0.297301 0.851199
Si Si2 0.132742 0.206162 0.287948
Si Si3 0.266709 0.291058 0.439953
Si Si4 0.590054 0.700687 0.363361
Si Si5 0.593076 0.206303 0.938929
Si Si6 0.089909 0.703392 0.168937
Si Si7 0.911671 0.701905 0.594929
Si Si8 0.681389 0.200827 0.265241
O O1 0.266721 0.500000 0.844654
O O2 0.332720 0.261045 0.900802
O O3 0.178388 0.229091 0.853355
O O4 0.317022 0.229615 0.797645
O O5 0.094944 0.267040 0.232378
O O6 0.093677 0.276875 0.341427
O O7 0.228797 0.262163 0.285769
O O8 0.128520 0.000000 0.288990
O O9 0.290616 0.248638 0.500000
O O10 0.263345 0.500000 0.435956
O O11 0.334138 0.227223 0.397795
O O12 0.174038 0.226819 0.427780
O O13 0.500000 0.776924 0.374450
O O14 0.586315 0.500000 0.376571
O O15 0.611997 0.715050 0.301274
O O16 0.500000 0.263090 0.922176
O O17 0.592037 0.000000 0.938819
O O18 0.605496 0.262362 0.000000
O O19 0.088855 0.500000 0.158879
O O20 0.000000 0.772545 0.150421
O O21 0.912422 0.500000 0.582307
O O22 0.000000 0.774722 0.576622
O O23 0.676074 0.000000 0.275038
#
# Coordination Sequence:
#
# PCOD9382823 Si02
#       8
#     8   8   8   8   8   8   8   8
#     4  10  20  33  54  83 112 142 178 221 263 305
#     4  10  19  30  47  72 100 131 168 208 249 297
#     4   9  18  33  52  73  98 126 159 206 256 302
#     4  10  20  34  54  77  99 126 162 206 257 310
#     4   9  19  37  59  81 108 144 183 222 266 315
#     4   9  18  32  49  72 106 145 179 211 253 305
#     4  10  19  30  48  72  97 128 162 197 245 304
#     4  10  20  34  52  74 104 140 172 204 251 309
#
# _framework density 20.12846
#
# number of rings (size 3 to 8) (size 9 to 14) (size 15 to 20)
#    0.000    2.375    1.250    1.875    0.000    5.250 
#    0.000    3.125    0.000    1.875    0.000    4.375 
#    0.000    0.000    0.000    0.000    0.000    0.000 
#
# Total GULP energy -356972.133932 kJ/mol
# GULP energy per Si atom -5577.689593 kJ/mol
# Density = 2.008265 g / cm^3
# Si number density = 20.128460 Si / 1000 Ang^3
#
#
#
# Elastic Constant Matrix: (Units=GPa)
#
#
# Indices 1 2 3 4 5 6 
#
# 1 163.6933 5.5425 63.9607 0.0000 0.0000 0.0000
# 2 5.5425 24.1987 -7.6626 0.0000 0.0000 0.0000
# 3 63.9607 -7.6626 70.1481 0.0000 0.0000 0.0000
# 4 0.0000 0.0000 0.0000 32.4258 0.0000 0.0000
# 5 0.0000 0.0000 0.0000 0.0000 12.0181 0.0000
# 6 0.0000 0.0000 0.0000 0.0000 0.0000 7.0322
#
#
#
# Elastic Compliance Matrix: (Units=1/GPa)
#
#
# Indices 1 2 3 4 5 6 
#
# 1 0.010136 -0.005436 -0.009836 0.000000 0.000000 0.000000
# 2 -0.005436 0.045721 0.009951 0.000000 0.000000 0.000000
# 3 -0.009836 0.009951 0.024311 0.000000 0.000000 0.000000
# 4 0.000000 0.000000 0.000000 0.030840 0.000000 0.000000
# 5 0.000000 0.000000 0.000000 0.000000 0.083208 0.000000
# 6 0.000000 0.000000 0.000000 0.000000 0.000000 0.142203
#
#
# Mechanical properties :
#
#
# Convention : Reuss Voigt Hill
#
# Bulk Modulus (GPa) = 14.38322 42.41347 28.39835
# Shear Modulus (GPa) = 13.50487 23.37517 18.44002
#
# Velocity S-wave (km/s) = 2.59305 3.41148 3.03003
# Velocity P-wave (km/s) = 4.01577 6.05266 5.13620
#
# Compressibility (1/GPa) = 0.06952545
#
# Stress axis : x y z
#
# Youngs Moduli (GPa) = 98.65465 21.87194 41.13353
#
# Poissons Ratio (x) = 0.11890 0.40459
# Poissons Ratio (y) = 0.53632 -0.40932
# Poissons Ratio (z) = 0.97038 -0.21765
#
# Static dielectric constant tensor:
#      x y z
#    x 1.772800 0.000000 0.000000 
#    y 0.000000 1.724820 0.000000 
#    z 0.000000 0.000000 1.670880 
# 
# From -- ./inp_files/21929.got.cif
#   From: 2010.05.17/outbox.cif.g08.bks.cpg/sg47_11_cif.got.tgz:21929.got - 2010.06.03 20:15:42.
