data_PCOD9382540
_publ_section_title
;
Structure prediction by ZEFSAII (Michael W. Deem and Ramdas Pophale) SiO2 
 PCOD9382540
Probable space group: P M M M
;
_chemical_formula_sum "Si O2"
_cell_formula_units_Z 64
_cell_length_a 15.897228
_cell_length_b 7.576600
_cell_length_c 25.373614
_cell_angle_alpha 90.000000
_cell_angle_beta 90.000000
_cell_angle_gamma 90.000000
_cell_volume 3056.174104
_symmetry_space_group_name_H-M "P M M M"
_symmetry_group_IT_number 47
_symmetry_cell_setting 'orthorhombic'
loop_
_space_group_symop_operation_xyz
x,y,z
-x,-y,z
x,-y,-z
-x,y,-z
-x,-y,-z
x,y,-z
-x,y,z
x,-y,z
loop_
_atom_site_type_symbol
_atom_site_label
_atom_site_fract_x
_atom_site_fract_y
_atom_site_fract_z
Si Si1 0.089583 0.293718 0.916094
Si Si2 0.673082 0.792695 0.828967
Si Si3 0.860239 0.787576 0.199077
Si Si4 0.092154 0.291016 0.318266
Si Si5 0.409973 0.295467 0.728377
Si Si6 0.727258 0.716226 0.351911
Si Si7 0.724257 0.713005 0.057456
Si Si8 0.405500 0.285171 0.560825
O O1 0.089682 0.500000 0.931115
O O2 0.092713 0.280177 0.852667
O O3 0.179290 0.220162 0.935065
O O4 0.000000 0.217261 0.934079
O O5 0.764224 0.725358 0.809380
O O6 0.604625 0.710779 0.790782
O O7 0.671181 0.764859 0.891447
O O8 0.669965 0.000000 0.818992
O O9 0.894598 0.730154 0.255379
O O10 0.862311 0.000000 0.197176
O O11 0.089583 0.500000 0.329289
O O12 0.176868 0.220177 0.345934
O O13 0.000000 0.216976 0.332317
O O14 0.500000 0.213895 0.714823
O O15 0.413733 0.500000 0.712027
O O16 0.328681 0.223747 0.698157
O O17 0.731877 0.500000 0.351959
O O18 0.670937 0.770921 0.401874
O O19 0.727816 0.500000 0.058139
O O20 0.693249 0.769667 0.000000
O O21 0.394633 0.231381 0.500000
O O22 0.500000 0.230575 0.578146
O O23 0.405701 0.500000 0.561858
#
# Coordination Sequence:
#
# PCOD9382540 Si02
#       8
#     8   8   8   8   8   8   8   8
#     4   9  17  28  43  64  90 119 152 193 242 292
#     4  10  20  33  49  69  96 127 155 189 238 293
#     4  10  19  30  44  63  89 123 162 199 236 280
#     4  10  19  29  43  63  90 128 168 201 238 284
#     4  10  19  31  51  76  98 124 157 192 237 291
#     4   9  16  27  43  65  97 131 162 201 240 280
#     4   9  18  32  50  69  89 119 159 200 240 284
#     4   8  13  22  39  65  96 129 164 201 244 293
#
# _framework density 20.941213999999999
#
# number of rings (size 3 to 8) (size 9 to 14) (size 15 to 20)
#    0.000    2.625    1.250    1.875    0.000    5.250 
#    0.000    1.250    0.000    0.750    0.000    8.750 
#    0.000    2.000    0.000    8.000    0.000    7.500 
#
# Total GULP energy -356971.656477 kJ/mol
# GULP energy per Si atom -5577.682132 kJ/mol
# Density = 2.089355 g / cm^3
# Si number density = 20.941214 Si / 1000 Ang^3
#
#
#
# Elastic Constant Matrix: (Units=GPa)
#
#
# Indices 1 2 3 4 5 6 
#
# 1 145.5074 7.2442 64.7560 0.0000 0.0000 0.0000
# 2 7.2442 50.2438 -6.2071 0.0000 0.0000 0.0000
# 3 64.7560 -6.2071 110.3617 0.0000 0.0000 0.0000
# 4 0.0000 0.0000 0.0000 -100.3671 0.0000 0.0000
# 5 0.0000 0.0000 0.0000 0.0000 15.2701 0.0000
# 6 0.0000 0.0000 0.0000 0.0000 0.0000 -5.2850
#
#
#
# Elastic Compliance Matrix: (Units=1/GPa)
#
#
# Indices 1 2 3 4 5 6 
#
# 1 0.009512 -0.002075 -0.005698 0.000000 0.000000 0.000000
# 2 -0.002075 0.020495 0.002370 0.000000 0.000000 0.000000
# 3 -0.005698 0.002370 0.012538 0.000000 0.000000 0.000000
# 4 0.000000 0.000000 0.000000 -0.009963 0.000000 0.000000
# 5 0.000000 0.000000 0.000000 0.000000 0.065487 0.000000
# 6 0.000000 0.000000 0.000000 0.000000 0.000000 -0.189217
#
#
# Mechanical properties :
#
#
# Convention : Reuss Voigt Hill
#
# Bulk Modulus (GPa) = 31.50701 48.63324 40.07013
# Shear Modulus (GPa) = -71.67055 -2.05505 -36.86280
#
# Velocity S-wave (km/s) = -5.85653 -0.99170 -4.20014
# Velocity P-wave (km/s) = 5.53659 4.68645 2.08458
#
# Compressibility (1/GPa) = 0.03173896
#
# Stress axis : x y z
#
# Youngs Moduli (GPa) = 105.13586 48.79240 79.75991
#
# Poissons Ratio (x) = 0.10126 0.45445
# Poissons Ratio (y) = 0.21819 -0.18906
# Poissons Ratio (z) = 0.59903 -0.11566
#
# Static dielectric constant tensor:
#      x y z
#    x 1.781360 0.000000 0.000000 
#    y 0.000000 1.776370 0.000000 
#    z 0.000000 0.000000 1.744070 
# 
# From -- ./inp_files/34688.got.cif
#   From: 2010.05.17/outbox.cif.g08.bks.cpg/sg47_18_cif.got.tgz:34688.got - 2010.06.03 20:15:42.
