data_PCOD9382995
_publ_section_title
;
Structure prediction by ZEFSAII (Michael W. Deem and Ramdas Pophale) SiO2 
 PCOD9382995
Probable space group: P M M M
;
_chemical_formula_sum "Si O2"
_cell_formula_units_Z 64
_cell_length_a 9.000512
_cell_length_b 19.473356
_cell_length_c 24.078722
_cell_angle_alpha 90.000000
_cell_angle_beta 90.000000
_cell_angle_gamma 90.000000
_cell_volume 4220.281803
_symmetry_space_group_name_H-M "P M M M"
_symmetry_group_IT_number 47
_symmetry_cell_setting 'orthorhombic'
loop_
_space_group_symop_operation_xyz
x,y,z
-x,-y,z
x,-y,-z
-x,y,-z
-x,-y,-z
x,y,-z
-x,y,z
x,-y,z
loop_
_atom_site_type_symbol
_atom_site_label
_atom_site_fract_x
_atom_site_fract_y
_atom_site_fract_z
Si Si1 0.677220 0.345141 0.164795
Si Si2 0.822659 0.294932 0.337398
Si Si3 0.178896 0.579309 0.063303
Si Si4 0.675923 0.213692 0.564725
Si Si5 0.176967 0.922310 0.257423
Si Si6 0.177052 0.078072 0.609628
Si Si7 0.321756 0.419864 0.720217
Si Si8 0.677446 0.784826 0.234380
O O1 0.500000 0.349655 0.157278
O O2 0.755724 0.371451 0.109810
O O3 0.716111 0.393305 0.217711
O O4 0.713615 0.267874 0.184630
O O5 0.761315 0.265856 0.395075
O O6 0.762604 0.370482 0.322404
O O7 0.756138 0.246276 0.288968
O O8 0.000000 0.292273 0.335968
O O9 0.223908 0.500000 0.074322
O O10 0.000000 0.581491 0.065305
O O11 0.224152 0.596232 0.000000
O O12 0.702201 0.228007 0.500000
O O13 0.500000 0.217684 0.575839
O O14 0.733829 0.137376 0.579121
O O15 0.202854 0.916479 0.323962
O O16 0.264941 0.861842 0.227582
O O17 0.000000 0.914041 0.249126
O O18 0.218163 0.000000 0.241053
O O19 0.000000 0.087452 0.600743
O O20 0.215342 0.000000 0.592774
O O21 0.500000 0.410296 0.713713
O O22 0.287425 0.500000 0.714118
O O23 0.500000 0.783135 0.242636
#
# Coordination Sequence:
#
# PCOD9382995 Si02
#       8
#     8   8   8   8   8   8   8   8
#     4   9  18  30  45  69  98 126 159 196 228 266
#     4  11  21  33  50  70  93 119 150 187 229 279
#     4   9  18  31  45  64  94 131 168 203 235 268
#     4  11  23  36  50  68  90 117 152 192 230 274
#     4   9  17  29  46  69  95 122 153 188 229 279
#     4   9  18  32  49  69  93 120 150 186 227 272
#     4   9  18  33  52  73  98 124 149 185 232 278
#     4  10  19  31  47  68  95 124 156 193 234 277
#
# _framework density 15.164864
#
# number of rings (size 3 to 8) (size 9 to 14) (size 15 to 20)
#    0.000    2.375    1.250    4.125    0.000    5.500 
#    0.000    3.125    0.000    0.375    0.000    2.625 
#    0.000    0.500    0.000    5.500    0.000    4.000 
#
# Total GULP energy -356961.302126 kJ/mol
# GULP energy per Si atom -5577.520346 kJ/mol
# Density = 1.513035 g / cm^3
# Si number density = 15.164864 Si / 1000 Ang^3
#
#
#
# Elastic Constant Matrix: (Units=GPa)
#
#
# Indices 1 2 3 4 5 6 
#
# 1 59.0551 61.7314 52.6917 0.0000 0.0000 0.0000
# 2 61.7314 129.8723 64.9498 0.0000 0.0000 0.0000
# 3 52.6917 64.9498 85.7122 0.0000 0.0000 0.0000
# 4 0.0000 0.0000 0.0000 23.8754 0.0000 0.0000
# 5 0.0000 0.0000 0.0000 0.0000 4.4797 0.0000
# 6 0.0000 0.0000 0.0000 0.0000 0.0000 28.6614
#
#
#
# Elastic Compliance Matrix: (Units=1/GPa)
#
#
# Indices 1 2 3 4 5 6 
#
# 1 0.048149 -0.013016 -0.019737 0.000000 0.000000 0.000000
# 2 -0.013016 0.015917 -0.004060 0.000000 0.000000 0.000000
# 3 -0.019737 -0.004060 0.026876 0.000000 0.000000 0.000000
# 4 0.000000 0.000000 0.000000 0.041884 0.000000 0.000000
# 5 0.000000 0.000000 0.000000 0.000000 0.223231 0.000000
# 6 0.000000 0.000000 0.000000 0.000000 0.000000 0.034890
#
#
# Mechanical properties :
#
#
# Convention : Reuss Voigt Hill
#
# Bulk Modulus (GPa) = 57.74424 70.37615 64.06019
# Shear Modulus (GPa) = 10.63048 17.75441 14.19244
#
# Velocity S-wave (km/s) = 2.65050 3.42535 3.06253
# Velocity P-wave (km/s) = 6.89400 7.88366 7.40538
#
# Compressibility (1/GPa) = 0.01731775
#
# Stress axis : x y z
#
# Youngs Moduli (GPa) = 20.76870 62.82592 37.20727
#
# Poissons Ratio (x) = 0.81775 0.73435
# Poissons Ratio (y) = 0.27033 0.15105
# Poissons Ratio (z) = 0.40991 0.25506
#
# Static dielectric constant tensor:
#      x y z
#    x 1.505310 0.000000 0.000000 
#    y 0.000000 1.512900 0.000000 
#    z 0.000000 0.000000 1.479570 
# 
# From -- ./inp_files/30118.got.cif
#   From: 2010.05.17/outbox.cif.g08.bks.cpg/sg47_16_cif.got.tgz:30118.got - 2010.06.03 20:15:42.
