data_PCOD9382882
_publ_section_title
;
Structure prediction by ZEFSAII (Michael W. Deem and Ramdas Pophale) SiO2 
 PCOD9382882
Probable space group: P M M M
;
_chemical_formula_sum "Si O2"
_cell_formula_units_Z 48
_cell_length_a 7.586122
_cell_length_b 35.690597
_cell_length_c 9.434063
_cell_angle_alpha 90.000000
_cell_angle_beta 90.000000
_cell_angle_gamma 90.000000
_cell_volume 2554.302964
_symmetry_space_group_name_H-M "P M M M"
_symmetry_group_IT_number 47
_symmetry_cell_setting 'orthorhombic'
loop_
_space_group_symop_operation_xyz
x,y,z
-x,-y,z
x,-y,-z
-x,y,-z
-x,-y,-z
x,y,-z
-x,y,z
x,-y,z
loop_
_atom_site_type_symbol
_atom_site_label
_atom_site_fract_x
_atom_site_fract_y
_atom_site_fract_z
Si Si1 0.000000 0.399974 0.828137
Si Si2 0.291514 0.739670 0.667816
Si Si3 0.215157 0.957978 0.163726
Si Si4 0.702282 0.542012 0.172252
Si Si5 0.788734 0.887029 0.340213
Si Si6 0.288284 0.186935 0.839275
Si Si7 0.000000 0.321648 0.331071
O O1 0.168352 0.424978 0.784376
O O2 0.000000 0.359731 0.756238
O O3 0.000000 0.396371 0.000000
O O4 0.271008 0.747918 0.500000
O O5 0.500000 0.732881 0.693873
O O6 0.230944 0.775692 0.757061
O O7 0.170882 0.703975 0.700762
O O8 0.278399 0.924372 0.262265
O O9 0.000000 0.957672 0.165585
O O10 0.269758 0.000000 0.206447
O O11 0.267433 0.951888 0.000000
O O12 0.500000 0.547811 0.216355
O O13 0.758097 0.500000 0.216929
O O14 0.704818 0.541655 0.000000
O O15 0.720043 0.883005 0.500000
O O16 0.754570 0.850293 0.247723
O O17 0.000000 0.890989 0.348785
O O18 0.500000 0.189180 0.845637
O O19 0.220240 0.185122 0.000000
O O20 0.000000 0.329363 0.500000
#
# Coordination Sequence:
#
# PCOD9382882 Si02
#       7
#     4   8   8   8   8   8   4
#     4  10  19  30  48  76 104 132 172 219 263 306
#     4   9  19  37  57  74  97 132 172 213 256 308
#     4   8  14  26  44  66  95 130 165 202 245 291
#     4   8  14  26  46  73 104 137 174 218 266 311
#     4  10  20  31  47  74 103 131 164 200 241 294
#     4  10  21  36  54  76 100 126 158 202 257 308
#     4  10  22  37  53  75 104 140 177 211 258 320
#
# _framework density 18.791820999999999
#
# number of rings (size 3 to 8) (size 9 to 14) (size 15 to 20)
#    0.000    2.833    0.000    2.250    1.167    4.667 
#    0.000    1.667    0.000    1.500    0.000    4.667 
#    0.000    0.000    0.000    0.000    0.000    0.000 
#
# Total GULP energy -267759.997184 kJ/mol
# GULP energy per Si atom -5578.333275 kJ/mol
# Density = 1.874905 g / cm^3
# Si number density = 18.791821 Si / 1000 Ang^3
#
#
#
# Elastic Constant Matrix: (Units=GPa)
#
#
# Indices 1 2 3 4 5 6 
#
# 1 64.8857 61.0779 38.3101 0.0000 0.0000 0.0000
# 2 61.0779 209.0956 103.8583 0.0000 0.0000 0.0000
# 3 38.3101 103.8583 92.8070 0.0000 0.0000 0.0000
# 4 0.0000 0.0000 0.0000 173.7359 0.0000 0.0000
# 5 0.0000 0.0000 0.0000 0.0000 10.4598 0.0000
# 6 0.0000 0.0000 0.0000 0.0000 0.0000 -75.2391
#
#
#
# Elastic Compliance Matrix: (Units=1/GPa)
#
#
# Indices 1 2 3 4 5 6 
#
# 1 0.021977 -0.004308 -0.004251 0.000000 0.000000 0.000000
# 2 -0.004308 0.011612 -0.011217 0.000000 0.000000 0.000000
# 3 -0.004251 -0.011217 0.025082 0.000000 0.000000 0.000000
# 4 0.000000 0.000000 0.000000 0.005756 0.000000 0.000000
# 5 0.000000 0.000000 0.000000 0.000000 0.095604 0.000000
# 6 0.000000 0.000000 0.000000 0.000000 0.000000 -0.013291
#
#
# Mechanical properties :
#
#
# Convention : Reuss Voigt Hill
#
# Bulk Modulus (GPa) = 52.30101 85.92009 69.11055
# Shear Modulus (GPa) = 25.95183 32.69413 29.32298
#
# Velocity S-wave (km/s) = 3.72024 4.17562 3.95449
# Velocity P-wave (km/s) = 6.80777 8.31078 7.59654
#
# Compressibility (1/GPa) = 0.01912009
#
# Stress axis : x y z
#
# Youngs Moduli (GPa) = 45.50251 86.11538 39.86918
#
# Poissons Ratio (x) = 0.37101 0.16947
# Poissons Ratio (y) = 0.19604 0.44720
# Poissons Ratio (z) = 0.19341 0.96593
#
# Static dielectric constant tensor:
#      x y z
#    x 1.702270 0.000000 0.000000 
#    y 0.000000 1.613430 0.000000 
#    z 0.000000 0.000000 1.643280 
# 
# From -- ./inp_files/2652.got.cif
#   From: 2010.05.17/outbox.cif.g08.bks.cpg/sg47_2_cif.got.tgz:2652.got - 2010.06.03 20:15:42.
