data_PCOD9382414
_publ_section_title
;
Structure prediction by ZEFSAII (Michael W. Deem and Ramdas Pophale) SiO2 
 PCOD9382414
Probable space group: P M M M
;
_chemical_formula_sum "Si O2"
_cell_formula_units_Z 64
_cell_length_a 7.657065
_cell_length_b 24.691370
_cell_length_c 19.664584
_cell_angle_alpha 90.000000
_cell_angle_beta 90.000000
_cell_angle_gamma 90.000000
_cell_volume 3717.853603
_symmetry_space_group_name_H-M "P M M M"
_symmetry_group_IT_number 47
_symmetry_cell_setting 'orthorhombic'
loop_
_space_group_symop_operation_xyz
x,y,z
-x,-y,z
x,-y,-z
-x,y,-z
-x,-y,-z
x,y,-z
-x,y,z
x,-y,z
loop_
_atom_site_type_symbol
_atom_site_label
_atom_site_fract_x
_atom_site_fract_y
_atom_site_fract_z
Si Si1 0.209936 0.269219 0.215462
Si Si2 0.214186 0.060585 0.780219
Si Si3 0.203685 0.659799 0.333683
Si Si4 0.707232 0.763264 0.577329
Si Si5 0.789539 0.165067 0.300000
Si Si6 0.796384 0.102131 0.075495
Si Si7 0.292854 0.773621 0.924850
Si Si8 0.213623 0.438359 0.577791
O O1 0.278195 0.317975 0.262476
O O2 0.273026 0.213130 0.249863
O O3 0.251863 0.266488 0.136417
O O4 0.000000 0.269265 0.221820
O O5 0.272192 0.107669 0.728793
O O6 0.275888 0.074088 0.857020
O O7 0.000000 0.062342 0.781610
O O8 0.265998 0.000000 0.760924
O O9 0.213155 0.711128 0.384711
O O10 0.279402 0.607297 0.370706
O O11 0.000000 0.647441 0.321668
O O12 0.770832 0.768692 0.500000
O O13 0.500000 0.754293 0.575750
O O14 0.741021 0.815415 0.624633
O O15 0.000000 0.164596 0.296927
O O16 0.788127 0.166948 0.087080
O O17 0.000000 0.086466 0.072084
O O18 0.720048 0.091431 0.000000
O O19 0.500000 0.782034 0.925871
O O20 0.236413 0.755205 0.000000
O O21 0.266921 0.426338 0.500000
O O22 0.265218 0.500000 0.594173
O O23 0.000000 0.437081 0.577904
#
# Coordination Sequence:
#
# PCOD9382414 Si02
#       8
#     8   8   8   8   8   8   8   8
#     4   9  16  27  42  61  84 110 140 173 211 251
#     4   9  16  27  44  65  86 105 132 172 209 246
#     4   9  17  28  44  66  91 117 146 178 209 244
#     4  10  20  31  44  64  87 110 138 175 216 254
#     4   9  17  30  46  64  84 107 136 168 209 258
#     4   9  16  27  43  61  83 110 137 166 201 243
#     4  10  19  28  40  59  82 110 142 173 208 251
#     4   8  13  22  39  64  92 121 151 178 202 234
#
# _framework density 17.214233
#
# number of rings (size 3 to 8) (size 9 to 14) (size 15 to 20)
#    0.000    2.875    1.250    2.250    0.000    4.500 
#    0.000    1.250    0.000    2.250    0.000    6.125 
#    0.000    0.500    0.000    6.250    0.000    1.000 
#
# Total GULP energy -356634.087360 kJ/mol
# GULP energy per Si atom -5572.407615 kJ/mol
# Density = 1.717505 g / cm^3
# Si number density = 17.214233 Si / 1000 Ang^3
#
#
#
# Elastic Constant Matrix: (Units=GPa)
#
#
# Indices 1 2 3 4 5 6 
#
# 1 29.7879 -1.2724 -6.6916 0.0000 0.0000 0.0000
# 2 -1.2724 95.7669 53.5620 0.0000 0.0000 0.0000
# 3 -6.6916 53.5620 106.5243 0.0000 0.0000 0.0000
# 4 0.0000 0.0000 0.0000 28.8771 0.0000 0.0000
# 5 0.0000 0.0000 0.0000 0.0000 46.5639 0.0000
# 6 0.0000 0.0000 0.0000 0.0000 0.0000 -11.6030
#
#
#
# Elastic Compliance Matrix: (Units=1/GPa)
#
#
# Indices 1 2 3 4 5 6 
#
# 1 0.034125 -0.001037 0.002665 0.000000 0.000000 0.000000
# 2 -0.001037 0.014559 -0.007386 0.000000 0.000000 0.000000
# 3 0.002665 -0.007386 0.013269 0.000000 0.000000 0.000000
# 4 0.000000 0.000000 0.000000 0.034630 0.000000 0.000000
# 5 0.000000 0.000000 0.000000 0.000000 0.021476 0.000000
# 6 0.000000 0.000000 0.000000 0.000000 0.000000 -0.086185
#
#
# Mechanical properties :
#
#
# Convention : Reuss Voigt Hill
#
# Bulk Modulus (GPa) = 19.82660 35.91944 27.87302
# Shear Modulus (GPa) = 83.05541 25.19968 54.12755
#
# Velocity S-wave (km/s) = 6.95362 3.83023 5.61353
# Velocity P-wave (km/s) = 8.71855 6.36178 7.63169
#
# Compressibility (1/GPa) = 0.05043728
#
# Stress axis : x y z
#
# Youngs Moduli (GPa) = 29.30398 68.68611 75.36618
#
# Poissons Ratio (x) = 0.07124 -0.20086
# Poissons Ratio (y) = 0.03039 0.55663
# Poissons Ratio (z) = -0.07810 0.50729
#
# Static dielectric constant tensor:
#      x y z
#    x 1.648410 0.000000 0.000000 
#    y 0.000000 1.570450 0.000000 
#    z 0.000000 0.000000 1.610980 
# 
# From -- ./inp_files/10259.got.cif
#   From: 2010.05.17/outbox.cif.g08.bks.cpg/sg47_6_cif.got.tgz:10259.got - 2010.06.03 20:15:42.
