data_PCOD9382221
_publ_section_title
;
Structure prediction by ZEFSAII (Michael W. Deem and Ramdas Pophale) SiO2 
 PCOD9382221
Probable space group: P M M M
;
_chemical_formula_sum "Si O2"
_cell_formula_units_Z 45
_cell_length_a 7.483565
_cell_length_b 12.271839
_cell_length_c 24.069415
_cell_angle_alpha 90.000000
_cell_angle_beta 90.000000
_cell_angle_gamma 90.000000
_cell_volume 2210.465388
_symmetry_space_group_name_H-M "P M M M"
_symmetry_group_IT_number 47
_symmetry_cell_setting 'orthorhombic'
loop_
_space_group_symop_operation_xyz
x,y,z
-x,-y,z
x,-y,-z
-x,y,-z
-x,-y,-z
x,y,-z
-x,y,z
x,-y,z
loop_
_atom_site_type_symbol
_atom_site_label
_atom_site_fract_x
_atom_site_fract_y
_atom_site_fract_z
Si Si1 0.782014 0.126198 0.437751
Si Si2 0.287344 0.500000 0.698301
Si Si3 0.219045 0.873443 0.777685
Si Si4 0.209512 0.270527 0.879365
Si Si5 0.219100 0.199272 0.000000
Si Si6 0.712990 0.500000 0.175908
Si Si7 0.500000 0.000000 0.000000
Si Si8 0.211638 0.743401 0.668484
O O1 0.723965 0.157706 0.500000
O O2 0.717367 0.201303 0.387577
O O3 0.000000 0.129362 0.438153
O O4 0.732364 0.000000 0.428160
O O5 0.500000 0.500000 0.701281
O O6 0.214310 0.500000 0.761300
O O7 0.235736 0.613802 0.670383
O O8 0.283748 0.815817 0.834412
O O9 0.279700 0.801979 0.724661
O O10 0.000000 0.871721 0.777787
O O11 0.271932 0.000000 0.773707
O O12 0.232784 0.390707 0.855283
O O13 0.000000 0.246430 0.880987
O O14 0.268731 0.260392 0.942791
O O15 0.341024 0.093182 0.000000
O O16 0.000000 0.180740 0.000000
O O17 0.500000 0.500000 0.179242
O O18 0.000000 0.764426 0.668710
#
# Coordination Sequence:
#
# PCOD9382221 Si02
#       8
#     8   4   8   8   4   4   1   8
#     4   8  14  26  48  81 116 142 169 220 285 336
#     4  11  23  37  51  75 111 151 183 235 290 337
#     4   9  17  29  51  82 110 138 177 230 282 335
#     4  10  21  39  61  85 117 151 192 241 293 348
#     4  10  25  44  64  95 124 161 208 250 301 366
#     4  11  23  38  60  82 113 149 194 243 295 356
#     4  12  26  44  72  88 128 176 202 248 300 370
#     4  10  18  31  54  80 105 138 187 230 271 336
#
# _framework density 20.357703999999998
#
# number of rings (size 3 to 8) (size 9 to 14) (size 15 to 20)
#    0.000    2.311    1.778    1.733    2.489    3.200 
#    0.000    2.222    0.000    6.400    0.000    1.244 
#    0.000    0.000    0.000    0.000    0.000    0.000 
#
# Total GULP energy -250851.916125 kJ/mol
# GULP energy per Si atom -5574.487025 kJ/mol
# Density = 2.031137 g / cm^3
# Si number density = 20.357704 Si / 1000 Ang^3
#
#
#
# Elastic Constant Matrix: (Units=GPa)
#
#
# Indices 1 2 3 4 5 6 
#
# 1 55.7796 -10.0337 12.2359 0.0000 0.0000 0.0000
# 2 -10.0337 150.9861 112.2988 0.0000 0.0000 0.0000
# 3 12.2359 112.2988 207.0888 0.0000 0.0000 0.0000
# 4 0.0000 0.0000 0.0000 20.6272 0.0000 0.0000
# 5 0.0000 0.0000 0.0000 0.0000 -4.3064 0.0000
# 6 0.0000 0.0000 0.0000 0.0000 0.0000 32.6663
#
#
#
# Elastic Compliance Matrix: (Units=1/GPa)
#
#
# Indices 1 2 3 4 5 6 
#
# 1 0.019241 0.003560 -0.003067 0.000000 0.000000 0.000000
# 2 0.003560 0.011759 -0.006587 0.000000 0.000000 0.000000
# 3 -0.003067 -0.006587 0.008582 0.000000 0.000000 0.000000
# 4 0.000000 0.000000 0.000000 0.048480 0.000000 0.000000
# 5 0.000000 0.000000 0.000000 0.000000 -0.232211 0.000000
# 6 0.000000 0.000000 0.000000 0.000000 0.000000 0.030613
#
#
# Mechanical properties :
#
#
# Convention : Reuss Voigt Hill
#
# Bulk Modulus (GPa) = 36.50513 71.42849 53.96681
# Shear Modulus (GPa) = -54.21991 29.75429 -12.23281
#
# Velocity S-wave (km/s) = -5.16637 3.82720 -2.45397
# Velocity P-wave (km/s) = 4.19736 7.39546 4.30552
#
# Compressibility (1/GPa) = 0.02739341
#
# Stress axis : x y z
#
# Youngs Moduli (GPa) = 51.97245 85.04277 116.52364
#
# Poissons Ratio (x) = -0.30276 0.35742
# Poissons Ratio (y) = -0.18503 0.76752
# Poissons Ratio (z) = 0.15942 0.56016
#
# Static dielectric constant tensor:
#      x y z
#    x 1.762570 0.000000 0.000000 
#    y 0.000000 1.692270 0.000000 
#    z 0.000000 0.000000 1.742290 
# 
# From -- ./inp_files/31896.got.cif
#   From: 2010.05.17/outbox.cif.g08.bks.cpg/sg47_16_cif.got.tgz:31896.got - 2010.06.03 20:15:42.
