data_PCOD9382619
_publ_section_title
;
Structure prediction by ZEFSAII (Michael W. Deem and Ramdas Pophale) SiO2 
 PCOD9382619
Probable space group: P M M M
;
_chemical_formula_sum "Si O2"
_cell_formula_units_Z 56
_cell_length_a 16.340245
_cell_length_b 20.688273
_cell_length_c 7.437164
_cell_angle_alpha 90.000000
_cell_angle_beta 90.000000
_cell_angle_gamma 90.000000
_cell_volume 2514.144070
_symmetry_space_group_name_H-M "P M M M"
_symmetry_group_IT_number 47
_symmetry_cell_setting 'orthorhombic'
loop_
_space_group_symop_operation_xyz
x,y,z
-x,-y,z
x,-y,-z
-x,y,-z
-x,-y,-z
x,y,-z
-x,y,z
x,-y,z
loop_
_atom_site_type_symbol
_atom_site_label
_atom_site_fract_x
_atom_site_fract_y
_atom_site_fract_z
Si Si1 0.861961 0.325589 0.720265
Si Si2 0.905867 0.179461 0.719617
Si Si3 0.000000 0.573919 0.281292
Si Si4 0.406076 0.500000 0.721060
Si Si5 0.596298 0.255853 0.794711
Si Si6 0.307430 0.377224 0.701879
Si Si7 0.407502 0.889510 0.783448
Si Si8 0.223097 0.070605 0.714373
O O1 0.861196 0.322192 0.500000
O O2 0.885484 0.253070 0.777388
O O3 0.924024 0.381821 0.772405
O O4 0.774748 0.350229 0.786606
O O5 0.904754 0.179394 0.500000
O O6 0.835191 0.129084 0.780588
O O7 0.000000 0.163353 0.772045
O O8 0.000000 0.500000 0.217659
O O9 0.000000 0.571146 0.500000
O O10 0.500000 0.500000 0.780279
O O11 0.408793 0.500000 0.500000
O O12 0.357565 0.436414 0.782136
O O13 0.500000 0.266856 0.801475
O O14 0.636172 0.314441 0.693397
O O15 0.606552 0.184052 0.718965
O O16 0.627939 0.255838 0.000000
O O17 0.285049 0.399066 0.500000
O O18 0.500000 0.911071 0.722804
O O19 0.321407 0.923419 0.742774
O O20 0.413271 0.888138 0.000000
O O21 0.212039 0.070599 0.500000
O O22 0.197453 0.000000 0.784179
#
# Coordination Sequence:
#
# PCOD9382619 Si02
#       8
#     8   8   4   4   8   8   8   8
#     4   9  16  26  42  67  95 127 164 202 246 296
#     4   9  16  29  48  69  98 134 170 207 252 310
#     4   9  16  24  38  62  98 132 156 193 249 301
#     4   9  18  30  41  60  96 136 169 205 251 301
#     4   9  18  33  51  71  95 123 160 206 250 293
#     4  10  19  29  46  70  97 129 168 209 250 297
#     4   9  19  36  56  76 100 134 172 207 252 313
#     4  10  21  34  50  77 108 134 167 213 256 294
#
# _framework density 22.273982
#
# number of rings (size 3 to 8) (size 9 to 14) (size 15 to 20)
#    0.000    2.714    0.714    2.143    1.000    3.714 
#    0.000    4.643    0.000    1.714    0.000    1.500 
#    0.000    0.571    0.000    0.000    0.000    0.000 
#
# Total GULP energy -312266.467474 kJ/mol
# GULP energy per Si atom -5576.186919 kJ/mol
# Density = 2.222329 g / cm^3
# Si number density = 22.273982 Si / 1000 Ang^3
#
#
#
# Elastic Constant Matrix: (Units=GPa)
#
#
# Indices 1 2 3 4 5 6 
#
# 1 137.9827 120.6559 3.2826 0.0000 0.0000 0.0000
# 2 120.6559 179.1856 7.6557 0.0000 0.0000 0.0000
# 3 3.2826 7.6557 68.2290 0.0000 0.0000 0.0000
# 4 0.0000 0.0000 0.0000 -15.7470 0.0000 0.0000
# 5 0.0000 0.0000 0.0000 0.0000 -8.6619 0.0000
# 6 0.0000 0.0000 0.0000 0.0000 0.0000 42.3664
#
#
#
# Elastic Compliance Matrix: (Units=1/GPa)
#
#
# Indices 1 2 3 4 5 6 
#
# 1 0.017641 -0.011899 0.000486 0.000000 0.000000 0.000000
# 2 -0.011899 0.013634 -0.000957 0.000000 0.000000 0.000000
# 3 0.000486 -0.000957 0.014741 0.000000 0.000000 0.000000
# 4 0.000000 0.000000 0.000000 -0.063504 0.000000 0.000000
# 5 0.000000 0.000000 0.000000 0.000000 -0.115448 0.000000
# 6 0.000000 0.000000 0.000000 0.000000 0.000000 0.023604
#
#
# Mechanical properties :
#
#
# Convention : Reuss Voigt Hill
#
# Bulk Modulus (GPa) = 47.00331 72.06509 59.53420
# Shear Modulus (GPa) = -64.51571 20.51169 -22.00201
#
# Velocity S-wave (km/s) = -5.38772 3.03789 -3.14632
# Velocity P-wave (km/s) = 4.18989 6.68799 3.68606
#
# Compressibility (1/GPa) = 0.02127510
#
# Stress axis : x y z
#
# Youngs Moduli (GPa) = 56.68652 73.34470 67.84008
#
# Poissons Ratio (x) = 0.87276 -0.03300
# Poissons Ratio (y) = 0.67454 0.06495
# Poissons Ratio (z) = -0.02758 0.07022
#
# Static dielectric constant tensor:
#      x y z
#    x 1.144660 0.000000 0.000000 
#    y 0.000000 1.812500 0.000000 
#    z 0.000000 0.000000 1.851560 
# 
# From -- ./inp_files/7381.got.cif
#   From: 2010.05.17/outbox.cif.g08.bks.cpg/sg47_4_cif.got.tgz:7381.got - 2010.06.03 20:15:42.
