data_PCOD9382987
_publ_section_title
;
Structure prediction by ZEFSAII (Michael W. Deem and Ramdas Pophale) SiO2 
 PCOD9382987
Probable space group: P M M M
;
_chemical_formula_sum "Si O2"
_cell_formula_units_Z 44
_cell_length_a 10.043318
_cell_length_b 7.912897
_cell_length_c 30.961275
_cell_angle_alpha 90.000000
_cell_angle_beta 90.000000
_cell_angle_gamma 90.000000
_cell_volume 2460.546424
_symmetry_space_group_name_H-M "P M M M"
_symmetry_group_IT_number 47
_symmetry_cell_setting 'orthorhombic'
loop_
_space_group_symop_operation_xyz
x,y,z
-x,-y,z
x,-y,-z
-x,y,-z
-x,-y,-z
x,y,-z
-x,y,z
x,-y,z
loop_
_atom_site_type_symbol
_atom_site_label
_atom_site_fract_x
_atom_site_fract_y
_atom_site_fract_z
Si Si1 0.153480 0.706390 0.951456
Si Si2 0.837263 0.000000 0.450249
Si Si3 0.152501 0.199837 0.701559
Si Si4 0.346758 0.295717 0.778337
Si Si5 0.653059 0.706399 0.124166
Si Si6 0.838020 0.686086 0.607570
O O1 0.155909 0.500000 0.951024
O O2 0.249310 0.766078 0.913405
O O3 0.000000 0.756653 0.944540
O O4 0.193604 0.758454 0.000000
O O5 0.793271 0.834880 0.423866
O O6 0.794917 0.000000 0.500000
O O7 0.000000 0.000000 0.450203
O O8 0.246853 0.233640 0.741929
O O9 0.201680 0.285048 0.657321
O O10 0.000000 0.256496 0.710288
O O11 0.148331 0.000000 0.692862
O O12 0.500000 0.242582 0.770449
O O13 0.344921 0.500000 0.777797
O O14 0.309604 0.241347 0.827105
O O15 0.500000 0.756529 0.116399
O O16 0.655598 0.500000 0.123844
O O17 0.797464 0.500000 0.592912
O O18 0.000000 0.692626 0.608088
#
# Coordination Sequence:
#
# PCOD9382987 Si02
#       6
#     8   4   8   8   8   8
#     4   8  13  20  30  47  73 105 141 181 224 271
#     4   9  16  26  40  62  95 131 167 207 248 295
#     4  10  19  31  47  67  92 122 159 201 242 290
#     4   9  18  31  45  64  91 120 153 195 240 289
#     4   8  14  24  36  51  75 107 141 180 226 275
#     4   9  16  27  43  63  91 127 164 204 250 295
#
# _framework density 17.882204999999999
#
# number of rings (size 3 to 8) (size 9 to 14) (size 15 to 20)
#    0.000    3.182    0.909    2.182    0.000    2.909 
#    0.000    5.455    0.000    0.000    0.000    0.000 
#    0.000    2.182    0.000   11.818    0.000   16.727 
#
# Total GULP energy -245168.763297 kJ/mol
# GULP energy per Si atom -5572.017348 kJ/mol
# Density = 1.784150 g / cm^3
# Si number density = 17.882205 Si / 1000 Ang^3
#
#
#
# Elastic Constant Matrix: (Units=GPa)
#
#
# Indices 1 2 3 4 5 6 
#
# 1 44.8979 20.0517 68.2999 0.0000 0.0000 0.0000
# 2 20.0517 62.1648 49.1438 0.0000 0.0000 0.0000
# 3 68.2999 49.1438 164.7337 0.0000 0.0000 0.0000
# 4 0.0000 0.0000 0.0000 23.4301 0.0000 0.0000
# 5 0.0000 0.0000 0.0000 0.0000 -9.9322 0.0000
# 6 0.0000 0.0000 0.0000 0.0000 0.0000 8.1068
#
#
#
# Elastic Compliance Matrix: (Units=1/GPa)
#
#
# Indices 1 2 3 4 5 6 
#
# 1 0.060321 0.000411 -0.025132 0.000000 0.000000 0.000000
# 2 0.000411 0.021054 -0.006451 0.000000 0.000000 0.000000
# 3 -0.025132 -0.006451 0.018415 0.000000 0.000000 0.000000
# 4 0.000000 0.000000 0.000000 0.042680 0.000000 0.000000
# 5 0.000000 0.000000 0.000000 0.000000 -0.100682 0.000000
# 6 0.000000 0.000000 0.000000 0.000000 0.000000 0.123354
#
#
# Mechanical properties :
#
#
# Convention : Reuss Voigt Hill
#
# Bulk Modulus (GPa) = 26.70597 60.75413 43.73005
# Shear Modulus (GPa) = 20.83616 13.27432 17.05524
#
# Velocity S-wave (km/s) = 3.41719 2.72751 3.09164
# Velocity P-wave (km/s) = 5.52597 6.63080 6.10344
#
# Compressibility (1/GPa) = 0.03744482
#
# Stress axis : x y z
#
# Youngs Moduli (GPa) = 16.57802 47.49777 54.30377
#
# Poissons Ratio (x) = -0.01952 1.36477
# Poissons Ratio (y) = -0.00681 0.35032
# Poissons Ratio (z) = 0.41664 0.30642
#
# Static dielectric constant tensor:
#      x y z
#    x 1.583040 0.000000 0.000000 
#    y 0.000000 1.663150 0.000000 
#    z 0.000000 0.000000 1.598490 
# 
# From -- ./inp_files/33940.got.cif
#   From: 2010.05.17/outbox.cif.g08.bks.cpg/sg47_17_cif.got.tgz:33940.got - 2010.06.03 20:15:42.
