data_PCOD9382552
_publ_section_title
;
Structure prediction by ZEFSAII (Michael W. Deem and Ramdas Pophale) SiO2 
 PCOD9382552
Probable space group: P M M M
;
_chemical_formula_sum "Si O2"
_cell_formula_units_Z 52
_cell_length_a 14.006512
_cell_length_b 8.730904
_cell_length_c 27.504014
_cell_angle_alpha 90.000000
_cell_angle_beta 90.000000
_cell_angle_gamma 90.000000
_cell_volume 3363.452440
_symmetry_space_group_name_H-M "P M M M"
_symmetry_group_IT_number 47
_symmetry_cell_setting 'orthorhombic'
loop_
_space_group_symop_operation_xyz
x,y,z
-x,-y,z
x,-y,-z
-x,y,-z
-x,-y,-z
x,y,-z
-x,y,z
x,-y,z
loop_
_atom_site_type_symbol
_atom_site_label
_atom_site_fract_x
_atom_site_fract_y
_atom_site_fract_z
Si Si1 0.388828 0.816374 0.000000
Si Si2 0.115357 0.317417 0.552299
Si Si3 0.609101 0.684449 0.197253
Si Si4 0.890395 0.184926 0.145952
Si Si5 0.290998 0.683158 0.904230
Si Si6 0.789954 0.182873 0.753233
Si Si7 0.888228 0.685301 0.341478
O O1 0.335688 0.754976 0.952268
O O2 0.500000 0.766585 0.000000
O O3 0.386631 0.000000 0.000000
O O4 0.149192 0.253695 0.500000
O O5 0.134996 0.500000 0.551671
O O6 0.147149 0.259325 0.605170
O O7 0.000000 0.302751 0.552799
O O8 0.500000 0.732112 0.204750
O O9 0.614532 0.500000 0.201597
O O10 0.644083 0.723921 0.142716
O O11 0.684458 0.758837 0.233726
O O12 0.814542 0.256431 0.108822
O O13 0.855799 0.228740 0.200406
O O14 0.000000 0.231084 0.138044
O O15 0.884867 0.000000 0.142713
O O16 0.289415 0.500000 0.908690
O O17 0.829736 0.251657 0.703631
O O18 0.791264 0.000000 0.750445
O O19 0.884423 0.500000 0.341489
O O20 0.000000 0.728475 0.336137
#
# Coordination Sequence:
#
# PCOD9382552 Si02
#       7
#     4   8   8   8   8   8   8
#     4  11  23  37  54  75  98 123 149 178 216 265
#     4   7  10  18  33  53  77 107 145 186 223 257
#     4   9  18  33  51  69  90 116 145 179 221 265
#     4   9  18  33  50  67  92 126 158 185 216 257
#     4  10  20  34  53  76  98 118 145 183 223 262
#     4  10  19  29  43  65  92 120 150 183 219 263
#     4   9  16  25  39  60  86 117 152 188 223 258
#
# _framework density 15.460304000000001
#
# number of rings (size 3 to 8) (size 9 to 14) (size 15 to 20)
#    0.000    2.846    0.000    3.462    0.000    4.000 
#    0.000    0.385    0.000    2.769    0.000    2.154 
#    0.000    0.615    0.000    7.077    0.000    2.308 
#
# Total GULP energy -289675.670789 kJ/mol
# GULP energy per Si atom -5570.685977 kJ/mol
# Density = 1.542512 g / cm^3
# Si number density = 15.460304 Si / 1000 Ang^3
#
#
#
# Elastic Constant Matrix: (Units=GPa)
#
#
# Indices 1 2 3 4 5 6 
#
# 1 119.5297 31.6014 77.1672 0.0000 0.0000 0.0000
# 2 31.6014 18.4975 36.0521 0.0000 0.0000 0.0000
# 3 77.1672 36.0521 157.2095 0.0000 0.0000 0.0000
# 4 0.0000 0.0000 0.0000 13.7798 0.0000 0.0000
# 5 0.0000 0.0000 0.0000 0.0000 17.0100 0.0000
# 6 0.0000 0.0000 0.0000 0.0000 0.0000 17.2907
#
#
#
# Elastic Compliance Matrix: (Units=1/GPa)
#
#
# Indices 1 2 3 4 5 6 
#
# 1 0.015936 -0.021661 -0.002855 0.000000 0.000000 0.000000
# 2 -0.021661 0.127196 -0.018537 0.000000 0.000000 0.000000
# 3 -0.002855 -0.018537 0.012013 0.000000 0.000000 0.000000
# 4 0.000000 0.000000 0.000000 0.072570 0.000000 0.000000
# 5 0.000000 0.000000 0.000000 0.000000 0.058789 0.000000
# 6 0.000000 0.000000 0.000000 0.000000 0.000000 0.057835
#
#
# Mechanical properties :
#
#
# Convention : Reuss Voigt Hill
#
# Bulk Modulus (GPa) = 14.48441 64.98644 39.73543
# Shear Modulus (GPa) = 11.02640 19.64383 15.33512
#
# Velocity S-wave (km/s) = 2.67349 3.56841 3.15287
# Velocity P-wave (km/s) = 4.34962 7.68789 6.24592
#
# Compressibility (1/GPa) = 0.06903976
#
# Stress axis : x y z
#
# Youngs Moduli (GPa) = 62.75138 7.86189 83.24170
#
# Poissons Ratio (x) = 0.17030 0.23764
# Poissons Ratio (y) = 1.35925 1.54304
# Poissons Ratio (z) = 0.17914 0.14573
#
# Static dielectric constant tensor:
#      x y z
#    x 1.492730 0.000000 0.000000 
#    y 0.000000 1.515800 0.000000 
#    z 0.000000 0.000000 1.527900 
# 
# From -- ./inp_files/31977.got.cif
#   From: 2010.05.17/outbox.cif.g08.bks.cpg/sg47_16_cif.got.tgz:31977.got - 2010.06.03 20:15:42.
