data_PCOD9382393
_publ_section_title
;
Structure prediction by ZEFSAII (Michael W. Deem and Ramdas Pophale) SiO2 
 PCOD9382393
Probable space group: P M M M
;
_chemical_formula_sum "Si O2"
_cell_formula_units_Z 64
_cell_length_a 26.742651
_cell_length_b 9.053358
_cell_length_c 18.862139
_cell_angle_alpha 90.000000
_cell_angle_beta 90.000000
_cell_angle_gamma 90.000000
_cell_volume 4566.727438
_symmetry_space_group_name_H-M "P M M M"
_symmetry_group_IT_number 47
_symmetry_cell_setting 'orthorhombic'
loop_
_space_group_symop_operation_xyz
x,y,z
-x,-y,z
x,-y,-z
-x,y,-z
-x,-y,-z
x,y,-z
-x,y,z
x,-y,z
loop_
_atom_site_type_symbol
_atom_site_label
_atom_site_fract_x
_atom_site_fract_y
_atom_site_fract_z
Si Si1 0.054603 0.822644 0.150759
Si Si2 0.657285 0.673093 0.585426
Si Si3 0.206084 0.669638 0.788082
Si Si4 0.159095 0.178154 0.081755
Si Si5 0.095591 0.331390 0.283497
Si Si6 0.444402 0.827896 0.586013
Si Si7 0.247464 0.823749 0.654321
Si Si8 0.151176 0.678085 0.582071
O O1 0.102603 0.775725 0.104639
O O2 0.063187 0.766846 0.230902
O O3 0.000000 0.772088 0.125050
O O4 0.054868 0.000000 0.150288
O O5 0.660819 0.690889 0.500000
O O6 0.663409 0.500000 0.601264
O O7 0.602678 0.730817 0.608465
O O8 0.701047 0.765958 0.621443
O O9 0.222547 0.500000 0.794408
O O10 0.196927 0.745878 0.863559
O O11 0.151125 0.668363 0.751262
O O12 0.240026 0.760506 0.733610
O O13 0.162008 0.000000 0.089501
O O14 0.167984 0.215679 0.000000
O O15 0.076896 0.500000 0.283709
O O16 0.106577 0.280936 0.363719
O O17 0.445043 0.823057 0.500000
O O18 0.500000 0.780458 0.609800
O O19 0.437304 0.000000 0.605611
O O20 0.201695 0.757328 0.607954
O O21 0.244833 0.000000 0.654190
O O22 0.141127 0.710113 0.500000
O O23 0.158274 0.500000 0.589678
#
# Coordination Sequence:
#
# PCOD9382393 Si02
#       8
#     8   8   8   8   8   8   8   8
#     4   9  17  28  42  60  81 105 130 155 186 223
#     4  10  19  28  38  54  78 107 139 176 215 251
#     4   9  17  30  45  59  78 104 132 159 189 229
#     4   9  17  29  45  65  87 107 128 156 187 221
#     4   8  15  27  42  58  74  96 125 156 190 229
#     4   8  14  25  39  53  71  98 134 176 218 255
#     4  11  20  28  40  58  80 104 132 165 202 243
#     4   9  17  29  43  58  77  99 124 158 200 242
#
# _framework density 14.014412999999999
#
# number of rings (size 3 to 8) (size 9 to 14) (size 15 to 20)
#    0.000    2.875    0.000    3.375    0.000    6.500 
#    0.000    2.500    0.000    0.375    0.000    6.125 
#    0.000    0.000    0.000    0.000    0.000    0.625 
#
# Total GULP energy -356367.608726 kJ/mol
# GULP energy per Si atom -5568.243886 kJ/mol
# Density = 1.398252 g / cm^3
# Si number density = 14.014413 Si / 1000 Ang^3
#
#
#
# Elastic Constant Matrix: (Units=GPa)
#
#
# Indices 1 2 3 4 5 6 
#
# 1 22.0823 14.3626 5.8831 0.0000 0.0000 0.0000
# 2 14.3626 44.4740 25.4969 0.0000 0.0000 0.0000
# 3 5.8831 25.4969 81.0245 0.0000 0.0000 0.0000
# 4 0.0000 0.0000 0.0000 19.1926 0.0000 0.0000
# 5 0.0000 0.0000 0.0000 0.0000 9.5407 0.0000
# 6 0.0000 0.0000 0.0000 0.0000 0.0000 16.6388
#
#
#
# Elastic Compliance Matrix: (Units=1/GPa)
#
#
# Indices 1 2 3 4 5 6 
#
# 1 0.057601 -0.019771 0.002039 0.000000 0.000000 0.000000
# 2 -0.019771 0.034221 -0.009333 0.000000 0.000000 0.000000
# 3 0.002039 -0.009333 0.015131 0.000000 0.000000 0.000000
# 4 0.000000 0.000000 0.000000 0.052103 0.000000 0.000000
# 5 0.000000 0.000000 0.000000 0.000000 0.104815 0.000000
# 6 0.000000 0.000000 0.000000 0.000000 0.000000 0.060100
#
#
# Mechanical properties :
#
#
# Convention : Reuss Voigt Hill
#
# Bulk Modulus (GPa) = 18.93117 26.56288 22.74703
# Shear Modulus (GPa) = 12.63557 15.86362 14.24959
#
# Velocity S-wave (km/s) = 3.00594 3.36810 3.19216
# Velocity P-wave (km/s) = 5.05819 5.84128 5.46378
#
# Compressibility (1/GPa) = 0.05282293
#
# Stress axis : x y z
#
# Youngs Moduli (GPa) = 17.36075 29.22219 66.09032
#
# Poissons Ratio (x) = 0.57775 -0.13477
# Poissons Ratio (y) = 0.34324 0.61682
# Poissons Ratio (z) = -0.03540 0.27273
#
# Static dielectric constant tensor:
#      x y z
#    x 1.458540 0.000000 0.000000 
#    y 0.000000 1.471850 0.000000 
#    z 0.000000 0.000000 1.459460 
# 
# From -- ./inp_files/27151.got.cif
#   From: 2010.05.17/outbox.cif.g08.bks.cpg/sg47_14_cif.got.tgz:27151.got - 2010.06.03 20:15:42.
