data_PCOD9382712
_publ_section_title
;
Structure prediction by ZEFSAII (Michael W. Deem and Ramdas Pophale) SiO2 
 PCOD9382712
Probable space group: P M M M
;
_chemical_formula_sum "Si O2"
_cell_formula_units_Z 52
_cell_length_a 19.906572
_cell_length_b 7.284592
_cell_length_c 16.472001
_cell_angle_alpha 90.000000
_cell_angle_beta 90.000000
_cell_angle_gamma 90.000000
_cell_volume 2388.625540
_symmetry_space_group_name_H-M "P M M M"
_symmetry_group_IT_number 47
_symmetry_cell_setting 'orthorhombic'
loop_
_space_group_symop_operation_xyz
x,y,z
-x,-y,z
x,-y,-z
-x,y,-z
-x,-y,-z
x,y,-z
-x,y,z
x,-y,z
loop_
_atom_site_type_symbol
_atom_site_label
_atom_site_fract_x
_atom_site_fract_y
_atom_site_fract_z
Si Si1 0.082006 0.787598 0.500000
Si Si2 0.574108 0.722792 0.164264
Si Si3 0.718614 0.276184 0.411779
Si Si4 0.425626 0.277202 0.353763
Si Si5 0.076320 0.221229 0.676264
Si Si6 0.210881 0.714129 0.751616
Si Si7 0.713348 0.275744 0.910004
O O1 0.100525 0.708145 0.412510
O O2 0.000000 0.784736 0.500000
O O3 0.102716 0.000000 0.500000
O O4 0.500000 0.782531 0.137426
O O5 0.574083 0.500000 0.163397
O O6 0.582935 0.774769 0.258921
O O7 0.637238 0.780605 0.111444
O O8 0.744910 0.217234 0.500000
O O9 0.721002 0.500000 0.411455
O O10 0.640488 0.221408 0.401961
O O11 0.757210 0.209747 0.331643
O O12 0.500000 0.216908 0.380903
O O13 0.426358 0.500000 0.356086
O O14 0.131147 0.270670 0.742472
O O15 0.000000 0.282963 0.691112
O O16 0.074182 0.000000 0.670611
O O17 0.229777 0.500000 0.751311
O O18 0.240587 0.787660 0.835286
O O19 0.714683 0.500000 0.910820
O O20 0.732983 0.215618 0.000000
#
# Coordination Sequence:
#
# PCOD9382712 Si02
#       7
#     4   8   8   8   8   8   8
#     4   7  12  26  47  69  91 115 144 175 208 252
#     4   8  12  19  32  50  76 112 151 188 224 263
#     4   9  16  24  34  53  85 121 152 182 221 266
#     4   8  12  19  31  46  72 114 157 189 217 256
#     4   9  18  33  52  71  92 120 151 182 218 262
#     4  10  19  30  45  67  95 122 149 184 227 273
#     4   9  16  26  40  59  86 120 154 188 230 275
#
# _framework density 21.769841
#
# number of rings (size 3 to 8) (size 9 to 14) (size 15 to 20)
#    0.000    3.308    1.538    1.846    1.077    0.923 
#    0.000    3.077    0.000    2.308    0.000    3.231 
#    0.000    2.462    0.000    2.769    0.000    3.077 
#
# Total GULP energy -290228.052158 kJ/mol
# GULP energy per Si atom -5581.308695 kJ/mol
# Density = 2.172029 g / cm^3
# Si number density = 21.769841 Si / 1000 Ang^3
#
#
#
# Elastic Constant Matrix: (Units=GPa)
#
#
# Indices 1 2 3 4 5 6 
#
# 1 116.9382 -5.5694 94.9566 0.0000 0.0000 0.0000
# 2 -5.5694 92.2510 9.4875 0.0000 0.0000 0.0000
# 3 94.9566 9.4875 169.5341 0.0000 0.0000 0.0000
# 4 0.0000 0.0000 0.0000 -12.2583 0.0000 0.0000
# 5 0.0000 0.0000 0.0000 0.0000 20.4648 0.0000
# 6 0.0000 0.0000 0.0000 0.0000 0.0000 19.0105
#
#
#
# Elastic Compliance Matrix: (Units=1/GPa)
#
#
# Indices 1 2 3 4 5 6 
#
# 1 0.016010 0.001900 -0.009074 0.000000 0.000000 0.000000
# 2 0.001900 0.011128 -0.001687 0.000000 0.000000 0.000000
# 3 -0.009074 -0.001687 0.011075 0.000000 0.000000 0.000000
# 4 0.000000 0.000000 0.000000 -0.081578 0.000000 0.000000
# 5 0.000000 0.000000 0.000000 0.000000 0.048864 0.000000
# 6 0.000000 0.000000 0.000000 0.000000 0.000000 0.052602
#
#
# Mechanical properties :
#
#
# Convention : Reuss Voigt Hill
#
# Bulk Modulus (GPa) = 48.79976 64.05253 56.42615
# Shear Modulus (GPa) = 60.49305 24.09999 42.29652
#
# Velocity S-wave (km/s) = 5.27711 3.33082 4.41261
# Velocity P-wave (km/s) = 7.71980 6.65425 7.20675
#
# Compressibility (1/GPa) = 0.02049190
#
# Stress axis : x y z
#
# Youngs Moduli (GPa) = 62.46132 89.86211 90.29329
#
# Poissons Ratio (x) = -0.17071 0.81928
# Poissons Ratio (y) = -0.11866 0.15231
# Poissons Ratio (z) = 0.56674 0.15158
#
# Static dielectric constant tensor:
#      x y z
#    x 1.791130 0.000000 0.000000 
#    y 0.000000 1.884410 0.000000 
#    z 0.000000 0.000000 1.778380 
# 
# From -- ./inp_files/24627.got.cif
#   From: 2010.05.17/outbox.cif.g08.bks.cpg/sg47_13_cif.got.tgz:24627.got - 2010.06.03 20:15:42.
