data_PCOD9382448
_publ_section_title
;
Structure prediction by ZEFSAII (Michael W. Deem and Ramdas Pophale) SiO2 
 PCOD9382448
Probable space group: P M M M
;
_chemical_formula_sum "Si O2"
_cell_formula_units_Z 56
_cell_length_a 31.744593
_cell_length_b 8.032895
_cell_length_c 13.973498
_cell_angle_alpha 90.000000
_cell_angle_beta 90.000000
_cell_angle_gamma 90.000000
_cell_volume 3563.255717
_symmetry_space_group_name_H-M "P M M M"
_symmetry_group_IT_number 47
_symmetry_cell_setting 'orthorhombic'
loop_
_space_group_symop_operation_xyz
x,y,z
-x,-y,z
x,-y,-z
-x,y,-z
-x,-y,-z
x,y,-z
-x,y,z
x,-y,z
loop_
_atom_site_type_symbol
_atom_site_label
_atom_site_fract_x
_atom_site_fract_y
_atom_site_fract_z
Si Si1 0.910884 0.302306 0.609429
Si Si2 0.000000 0.802518 0.390552
Si Si3 0.353002 0.698021 0.393982
Si Si4 0.820648 0.799700 0.610299
Si Si5 0.733887 0.196218 0.301478
Si Si6 0.304659 0.301350 0.107132
Si Si7 0.603622 0.700401 0.198620
Si Si8 0.449899 0.000000 0.886159
O O1 0.910963 0.231503 0.500000
O O2 0.910738 0.500000 0.603999
O O3 0.866216 0.248100 0.652024
O O4 0.955455 0.250021 0.654189
O O5 0.000000 0.730624 0.500000
O O6 0.000000 0.000000 0.396644
O O7 0.360453 0.769196 0.500000
O O8 0.358549 0.500000 0.399015
O O9 0.305020 0.728550 0.360768
O O10 0.383255 0.750971 0.307070
O O11 0.818531 0.738947 0.500000
O O12 0.779434 0.738689 0.666127
O O13 0.819208 0.000000 0.608192
O O14 0.723884 0.225714 0.190290
O O15 0.732917 0.000000 0.320786
O O16 0.297707 0.500000 0.108118
O O17 0.353358 0.277409 0.137587
O O18 0.297355 0.237882 0.000000
O O19 0.593026 0.500000 0.195284
O O20 0.570141 0.831771 0.158596
O O21 0.500000 0.000000 0.871572
O O22 0.441321 0.000000 0.000000
#
# Coordination Sequence:
#
# PCOD9382448 Si02
#       8
#     8   4   8   8   8   8   8   4
#     4   9  16  24  35  51  69  95 136 181 219 256
#     4   9  15  23  35  49  67  93 128 173 222 267
#     4   9  18  32  50  72  97 126 160 195 232 274
#     4   9  17  28  38  51  79 116 147 175 215 267
#     4  10  19  28  41  66  94 119 151 189 228 271
#     4   9  18  32  49  68  90 120 156 190 228 273
#     4   9  19  36  55  77 104 132 162 198 239 283
#     4  11  24  38  55  81 105 129 164 200 243 296
#
# _framework density 15.715965000000001
#
# number of rings (size 3 to 8) (size 9 to 14) (size 15 to 20)
#    0.000    2.714    0.000    2.786    4.000    6.000 
#    0.000    2.143    0.000    0.857    0.000    2.000 
#    0.000    0.000    0.000    0.643    0.000   12.071 
#
# Total GULP energy -311801.744837 kJ/mol
# GULP energy per Si atom -5567.888301 kJ/mol
# Density = 1.568019 g / cm^3
# Si number density = 15.715965 Si / 1000 Ang^3
#
#
#
# Elastic Constant Matrix: (Units=GPa)
#
#
# Indices 1 2 3 4 5 6 
#
# 1 121.7970 39.6587 51.3786 0.0000 0.0000 0.0000
# 2 39.6587 38.4334 19.2312 0.0000 0.0000 0.0000
# 3 51.3786 19.2312 86.0086 0.0000 0.0000 0.0000
# 4 0.0000 0.0000 0.0000 14.8998 0.0000 0.0000
# 5 0.0000 0.0000 0.0000 0.0000 11.1550 0.0000
# 6 0.0000 0.0000 0.0000 0.0000 0.0000 46.4026
#
#
#
# Elastic Compliance Matrix: (Units=1/GPa)
#
#
# Indices 1 2 3 4 5 6 
#
# 1 0.014737 -0.012163 -0.006084 0.000000 0.000000 0.000000
# 2 -0.012163 0.039335 -0.001530 0.000000 0.000000 0.000000
# 3 -0.006084 -0.001530 0.015603 0.000000 0.000000 0.000000
# 4 0.000000 0.000000 0.000000 0.067115 0.000000 0.000000
# 5 0.000000 0.000000 0.000000 0.000000 0.089646 0.000000
# 6 0.000000 0.000000 0.000000 0.000000 0.000000 0.021551
#
#
# Mechanical properties :
#
#
# Convention : Reuss Voigt Hill
#
# Bulk Modulus (GPa) = 33.19754 51.86401 42.53078
# Shear Modulus (GPa) = 16.80219 23.55617 20.17918
#
# Velocity S-wave (km/s) = 3.27328 3.87572 3.58717
# Velocity P-wave (km/s) = 5.95442 7.28703 6.65417
#
# Compressibility (1/GPa) = 0.03012271
#
# Stress axis : x y z
#
# Youngs Moduli (GPa) = 67.85561 25.42272 64.08990
#
# Poissons Ratio (x) = 0.30921 0.38992
# Poissons Ratio (y) = 0.82531 0.09803
# Poissons Ratio (z) = 0.41283 0.03888
#
# Static dielectric constant tensor:
#      x y z
#    x 1.539820 0.000000 0.000000 
#    y 0.000000 1.550790 0.000000 
#    z 0.000000 0.000000 1.534190 
# 
# From -- ./inp_files/25831.got.cif
#   From: 2010.05.17/outbox.cif.g08.bks.cpg/sg47_13_cif.got.tgz:25831.got - 2010.06.03 20:15:42.
