data_PCOD9382728
_publ_section_title
;
Structure prediction by ZEFSAII (Michael W. Deem and Ramdas Pophale) SiO2 
 PCOD9382728
Probable space group: P M M M
;
_chemical_formula_sum "Si O2"
_cell_formula_units_Z 52
_cell_length_a 7.807903
_cell_length_b 14.111625
_cell_length_c 25.235257
_cell_angle_alpha 90.000000
_cell_angle_beta 90.000000
_cell_angle_gamma 90.000000
_cell_volume 2780.476113
_symmetry_space_group_name_H-M "P M M M"
_symmetry_group_IT_number 47
_symmetry_cell_setting 'orthorhombic'
loop_
_space_group_symop_operation_xyz
x,y,z
-x,-y,z
x,-y,-z
-x,y,-z
-x,-y,-z
x,y,-z
-x,y,z
x,-y,z
loop_
_atom_site_type_symbol
_atom_site_label
_atom_site_fract_x
_atom_site_fract_y
_atom_site_fract_z
Si Si1 0.203065 0.390823 0.500000
Si Si2 0.294178 0.391158 0.614316
Si Si3 0.799631 0.107257 0.325971
Si Si4 0.709619 0.610999 0.827695
Si Si5 0.299528 0.294550 0.278984
Si Si6 0.705558 0.614103 0.942986
Si Si7 0.701995 0.115002 0.443035
O O1 0.274612 0.500000 0.500000
O O2 0.255396 0.347742 0.556513
O O3 0.000000 0.396118 0.500000
O O4 0.500000 0.392175 0.617709
O O5 0.231642 0.500000 0.613837
O O6 0.226104 0.341353 0.667293
O O7 0.715251 0.182684 0.287444
O O8 0.778758 0.142249 0.386745
O O9 0.000000 0.104308 0.314250
O O10 0.729929 0.000000 0.322762
O O11 0.500000 0.615119 0.829145
O O12 0.754039 0.500000 0.821811
O O13 0.772281 0.667477 0.776323
O O14 0.770237 0.646894 0.885499
O O15 0.500000 0.320597 0.278094
O O16 0.500000 0.630097 0.943670
O O17 0.728717 0.500000 0.942406
O O18 0.773959 0.648934 0.000000
O O19 0.772995 0.148206 0.500000
O O20 0.500000 0.137769 0.441402
O O21 0.717065 0.000000 0.444033
#
# Coordination Sequence:
#
# PCOD9382728 Si02
#       7
#     4   8   8   8   8   8   8
#     4   9  17  29  45  63  82 107 140 177 215 250
#     4   9  17  30  47  65  85 109 138 172 210 253
#     4  10  21  35  48  62  83 111 141 176 220 267
#     4   8  13  22  38  62  92 122 151 181 209 244
#     4  10  19  30  46  67  87 112 145 180 217 255
#     4   7   9  14  27  51  86 125 154 172 198 240
#     4   8  14  27  48  69  84  99 123 160 208 261
#
# _framework density 18.701833000000001
#
# number of rings (size 3 to 8) (size 9 to 14) (size 15 to 20)
#    0.000    3.308    0.000    3.000    0.000    4.615 
#    1.385    1.538    0.000    1.385    0.000    0.000 
#    0.000    1.231    0.000   11.538    0.000    4.615 
#
# Total GULP energy -289670.682653 kJ/mol
# GULP energy per Si atom -5570.590051 kJ/mol
# Density = 1.865927 g / cm^3
# Si number density = 18.701833 Si / 1000 Ang^3
#
#
#
# Elastic Constant Matrix: (Units=GPa)
#
#
# Indices 1 2 3 4 5 6 
#
# 1 20.6602 -4.7667 11.2930 0.0000 0.0000 0.0000
# 2 -4.7667 52.9184 64.3759 0.0000 0.0000 0.0000
# 3 11.2930 64.3759 208.0140 0.0000 0.0000 0.0000
# 4 0.0000 0.0000 0.0000 17.5042 0.0000 0.0000
# 5 0.0000 0.0000 0.0000 0.0000 -33.3262 0.0000
# 6 0.0000 0.0000 0.0000 0.0000 0.0000 -0.5521
#
#
#
# Elastic Compliance Matrix: (Units=1/GPa)
#
#
# Indices 1 2 3 4 5 6 
#
# 1 0.055622 0.013927 -0.007330 0.000000 0.000000 0.000000
# 2 0.013927 0.033794 -0.011215 0.000000 0.000000 0.000000
# 3 -0.007330 -0.011215 0.008676 0.000000 0.000000 0.000000
# 4 0.000000 0.000000 0.000000 0.057129 0.000000 0.000000
# 5 0.000000 0.000000 0.000000 0.000000 -0.030006 0.000000
# 6 0.000000 0.000000 0.000000 0.000000 0.000000 -1.811360
#
#
# Mechanical properties :
#
#
# Convention : Reuss Voigt Hill
#
# Bulk Modulus (GPa) = 11.25399 47.04410 29.14905
# Shear Modulus (GPa) = -3.03529 10.77121 3.86796
#
# Velocity S-wave (km/s) = -1.27535 2.40249 1.43969
# Velocity P-wave (km/s) = 1.96519 5.73632 4.28762
#
# Compressibility (1/GPa) = 0.08885739
#
# Stress axis : x y z
#
# Youngs Moduli (GPa) = 17.97848 29.59075 115.26034
#
# Poissons Ratio (x) = -0.41211 0.84484
# Poissons Ratio (y) = -0.25039 1.29261
# Poissons Ratio (z) = 0.13178 0.33185
#
# Static dielectric constant tensor:
#      x y z
#    x 1.671430 0.000000 0.000000 
#    y 0.000000 1.678400 0.000000 
#    z 0.000000 0.000000 1.701410 
# 
# From -- ./inp_files/32012.got.cif
#   From: 2010.05.17/outbox.cif.g08.bks.cpg/sg47_17_cif.got.tgz:32012.got - 2010.06.03 20:15:42.
