data_PCOD9382746
_publ_section_title
;
Structure prediction by ZEFSAII (Michael W. Deem and Ramdas Pophale) SiO2 
 PCOD9382746
Probable space group: P M M M
;
_chemical_formula_sum "Si O2"
_cell_formula_units_Z 64
_cell_length_a 19.070756
_cell_length_b 21.290794
_cell_length_c 7.426831
_cell_angle_alpha 90.000000
_cell_angle_beta 90.000000
_cell_angle_gamma 90.000000
_cell_volume 3015.527609
_symmetry_space_group_name_H-M "P M M M"
_symmetry_group_IT_number 47
_symmetry_cell_setting 'orthorhombic'
loop_
_space_group_symop_operation_xyz
x,y,z
-x,-y,z
x,-y,-z
-x,y,-z
-x,-y,-z
x,y,-z
-x,y,z
x,-y,z
loop_
_atom_site_type_symbol
_atom_site_label
_atom_site_fract_x
_atom_site_fract_y
_atom_site_fract_z
Si Si1 0.327328 0.070998 0.780550
Si Si2 0.665478 0.689958 0.214207
Si Si3 0.580807 0.811771 0.220406
Si Si4 0.078871 0.806608 0.286667
Si Si5 0.830223 0.689713 0.283479
Si Si6 0.580985 0.429558 0.780522
Si Si7 0.080896 0.429008 0.280657
Si Si8 0.832927 0.929611 0.783468
O O1 0.380189 0.124774 0.721019
O O2 0.247002 0.083920 0.723798
O O3 0.345633 0.000000 0.725097
O O4 0.327434 0.071471 0.000000
O O5 0.624834 0.751351 0.282067
O O6 0.748278 0.693018 0.242332
O O7 0.631382 0.625582 0.284140
O O8 0.653664 0.689558 0.000000
O O9 0.500000 0.808780 0.276241
O O10 0.581275 0.811935 0.000000
O O11 0.073455 0.795498 0.500000
O O12 0.128228 0.750934 0.214977
O O13 0.114997 0.874094 0.265447
O O14 0.000000 0.805301 0.212604
O O15 0.835860 0.689136 0.500000
O O16 0.867522 0.625832 0.218535
O O17 0.500000 0.417441 0.729948
O O18 0.600259 0.500000 0.721726
O O19 0.582578 0.430120 0.000000
O O20 0.081932 0.429078 0.500000
O O21 0.099377 0.500000 0.223356
O O22 0.000000 0.416384 0.228482
O O23 0.852279 0.000000 0.720873
O O24 0.831168 0.931671 0.000000
#
# Coordination Sequence:
#
# PCOD9382746 Si02
#       8
#     8   8   8   8   8   8   8   8
#     4   8  14  25  41  62  89 118 145 177 221 269
#     4  10  19  30  46  68  93 121 154 192 232 274
#     4   9  16  25  40  63  88 115 150 189 223 258
#     4  10  21  35  50  69  94 124 158 197 237 276
#     4  10  20  33  49  70  96 124 155 193 237 283
#     4   8  14  26  45  68  93 122 157 195 233 276
#     4   8  14  27  49  73  93 117 153 194 233 276
#     4   9  18  33  52  73  98 127 156 188 231 283
#
# _framework density 21.223482000000001
#
# number of rings (size 3 to 8) (size 9 to 14) (size 15 to 20)
#    0.000    3.000    0.000    3.000    0.000    6.000 
#    0.000    2.500    0.000    2.625    0.000    1.750 
#    0.000    0.000    0.000   10.750    0.000    8.750 
#
# Total GULP energy -357313.810237 kJ/mol
# GULP energy per Si atom -5583.028285 kJ/mol
# Density = 2.117518 g / cm^3
# Si number density = 21.223482 Si / 1000 Ang^3
#
#
#
# Elastic Constant Matrix: (Units=GPa)
#
#
# Indices 1 2 3 4 5 6 
#
# 1 188.3217 157.7922 -1.0154 0.0000 0.0000 0.0000
# 2 157.7922 211.1067 2.6412 0.0000 0.0000 0.0000
# 3 -1.0154 2.6412 65.2633 0.0000 0.0000 0.0000
# 4 0.0000 0.0000 0.0000 -19.6973 0.0000 0.0000
# 5 0.0000 0.0000 0.0000 0.0000 18.4363 0.0000
# 6 0.0000 0.0000 0.0000 0.0000 0.0000 52.8554
#
#
#
# Elastic Compliance Matrix: (Units=1/GPa)
#
#
# Indices 1 2 3 4 5 6 
#
# 1 0.014236 -0.010649 0.000652 0.000000 0.000000 0.000000
# 2 -0.010649 0.012705 -0.000680 0.000000 0.000000 0.000000
# 3 0.000652 -0.000680 0.015360 0.000000 0.000000 0.000000
# 4 0.000000 0.000000 0.000000 -0.050768 0.000000 0.000000
# 5 0.000000 0.000000 0.000000 0.000000 0.054241 0.000000
# 6 0.000000 0.000000 0.000000 0.000000 0.000000 0.018920
#
#
# Mechanical properties :
#
#
# Convention : Reuss Voigt Hill
#
# Bulk Modulus (GPa) = 47.73579 87.05863 67.39721
# Shear Modulus (GPa) = 53.74609 30.67045 42.20827
#
# Velocity S-wave (km/s) = 5.03774 3.80560 4.46438
# Velocity P-wave (km/s) = 7.50861 7.77297 7.64194
#
# Compressibility (1/GPa) = 0.02094864
#
# Stress axis : x y z
#
# Youngs Moduli (GPa) = 70.24254 78.70793 65.10328
#
# Poissons Ratio (x) = 0.83818 -0.04248
# Poissons Ratio (y) = 0.74803 0.04426
# Poissons Ratio (z) = -0.04583 0.05351
#
# Static dielectric constant tensor:
#      x y z
#    x 1.713340 0.000000 0.000000 
#    y 0.000000 1.750540 0.000000 
#    z 0.000000 0.000000 1.834980 
# 
# From -- ./inp_files/11555.got.cif
#   From: 2010.05.17/outbox.cif.g08.bks.cpg/sg47_6_cif.got.tgz:11555.got - 2010.06.03 20:15:42.
