data_PCOD9382451
_publ_section_title
;
Structure prediction by ZEFSAII (Michael W. Deem and Ramdas Pophale) SiO2 
 PCOD9382451
Probable space group: P M M M
;
_chemical_formula_sum "Si O2"
_cell_formula_units_Z 52
_cell_length_a 7.815550
_cell_length_b 27.793487
_cell_length_c 14.090909
_cell_angle_alpha 90.000000
_cell_angle_beta 90.000000
_cell_angle_gamma 90.000000
_cell_volume 3060.846802
_symmetry_space_group_name_H-M "P M M M"
_symmetry_group_IT_number 47
_symmetry_cell_setting 'orthorhombic'
loop_
_space_group_symop_operation_xyz
x,y,z
-x,-y,z
x,-y,-z
-x,y,-z
-x,-y,-z
x,y,-z
-x,y,z
x,-y,z
loop_
_atom_site_type_symbol
_atom_site_label
_atom_site_fract_x
_atom_site_fract_y
_atom_site_fract_z
Si Si1 0.204655 0.551770 0.614582
Si Si2 0.201012 0.854238 0.605663
Si Si3 0.709463 0.801910 0.105725
Si Si4 0.290112 0.000000 0.110984
Si Si5 0.296627 0.756113 0.297985
Si Si6 0.702734 0.099572 0.198567
Si Si7 0.206744 0.656068 0.609281
O O1 0.224353 0.552545 0.500000
O O2 0.274850 0.500000 0.648284
O O3 0.269747 0.604003 0.647012
O O4 0.000000 0.550897 0.632594
O O5 0.273414 0.862253 0.500000
O O6 0.223789 0.798343 0.635313
O O7 0.273043 0.886332 0.691439
O O8 0.000000 0.864174 0.602565
O O9 0.500000 0.802147 0.104682
O O10 0.763296 0.766812 0.190729
O O11 0.768269 0.855184 0.137304
O O12 0.767218 0.789883 0.000000
O O13 0.229402 0.048330 0.163909
O O14 0.500000 0.000000 0.113604
O O15 0.242067 0.000000 0.000000
O O16 0.500000 0.763098 0.300071
O O17 0.256441 0.702908 0.332668
O O18 0.500000 0.098202 0.181205
O O19 0.265146 0.661844 0.500000
O O20 0.000000 0.653743 0.607159
#
# Coordination Sequence:
#
# PCOD9382451 Si02
#       7
#     8   8   8   4   8   8   8
#     4   7  10  18  33  52  73 101 140 177 201 229
#     4  10  20  33  47  61  82 115 148 175 206 244
#     4   8  14  26  43  61  81 105 133 164 200 244
#     4   9  16  28  50  77  98 114 137 171 210 253
#     4  10  19  28  42  64  85 107 137 173 210 248
#     4   9  17  29  48  72  91 109 136 170 206 244
#     4   9  16  25  38  57  83 114 142 169 204 243
#
# _framework density 16.988764
#
# number of rings (size 3 to 8) (size 9 to 14) (size 15 to 20)
#    0.000    3.154    0.000    4.154    0.000    5.231 
#    0.000    0.769    0.000   18.923    0.000    2.154 
#    0.000    0.615    0.000    7.692    0.000    0.308 
#
# Total GULP energy -289519.476735 kJ/mol
# GULP energy per Si atom -5567.682245 kJ/mol
# Density = 1.695010 g / cm^3
# Si number density = 16.988764 Si / 1000 Ang^3
#
#
#
# Elastic Constant Matrix: (Units=GPa)
#
#
# Indices 1 2 3 4 5 6 
#
# 1 16.1122 -3.7620 -6.9604 0.0000 0.0000 0.0000
# 2 -3.7620 148.4332 60.1210 0.0000 0.0000 0.0000
# 3 -6.9604 60.1210 98.2416 0.0000 0.0000 0.0000
# 4 0.0000 0.0000 0.0000 14.2587 0.0000 0.0000
# 5 0.0000 0.0000 0.0000 0.0000 16.7271 0.0000
# 6 0.0000 0.0000 0.0000 0.0000 0.0000 15.7085
#
#
#
# Elastic Compliance Matrix: (Units=1/GPa)
#
#
# Indices 1 2 3 4 5 6 
#
# 1 0.064033 -0.000285 0.004711 0.000000 0.000000 0.000000
# 2 -0.000285 0.008959 -0.005503 0.000000 0.000000 0.000000
# 3 0.004711 -0.005503 0.013880 0.000000 0.000000 0.000000
# 4 0.000000 0.000000 0.000000 0.070133 0.000000 0.000000
# 5 0.000000 0.000000 0.000000 0.000000 0.059783 0.000000
# 6 0.000000 0.000000 0.000000 0.000000 0.000000 0.063660
#
#
# Mechanical properties :
#
#
# Convention : Reuss Voigt Hill
#
# Bulk Modulus (GPa) = 11.80373 40.17603 25.98988
# Shear Modulus (GPa) = 16.08541 23.56475 19.82508
#
# Velocity S-wave (km/s) = 3.08039 3.72839 3.41977
# Velocity P-wave (km/s) = 4.42886 6.49880 5.56099
#
# Compressibility (1/GPa) = 0.08471900
#
# Stress axis : x y z
#
# Youngs Moduli (GPa) = 15.61685 111.62498 72.04496
#
# Poissons Ratio (x) = 0.03186 -0.33943
# Poissons Ratio (y) = 0.00446 0.39643
# Poissons Ratio (z) = -0.07358 0.61423
#
# Static dielectric constant tensor:
#      x y z
#    x 1.636400 0.000000 0.000000 
#    y 0.000000 1.604050 0.000000 
#    z 0.000000 0.000000 1.571510 
# 
# From -- ./inp_files/22010.got.cif
#   From: 2010.05.17/outbox.cif.g08.bks.cpg/sg47_12_cif.got.tgz:22010.got - 2010.06.03 20:15:42.
