data_PCOD9382718
_publ_section_title
;
Structure prediction by ZEFSAII (Michael W. Deem and Ramdas Pophale) SiO2 
 PCOD9382718
Probable space group: P M M M
;
_chemical_formula_sum "Si O2"
_cell_formula_units_Z 48
_cell_length_a 14.631829
_cell_length_b 13.145676
_cell_length_c 15.854824
_cell_angle_alpha 90.000000
_cell_angle_beta 90.000000
_cell_angle_gamma 90.000000
_cell_volume 3049.600614
_symmetry_space_group_name_H-M "P M M M"
_symmetry_group_IT_number 47
_symmetry_cell_setting 'orthorhombic'
loop_
_space_group_symop_operation_xyz
x,y,z
-x,-y,z
x,-y,-z
-x,y,-z
-x,-y,-z
x,y,-z
-x,y,z
x,-y,z
loop_
_atom_site_type_symbol
_atom_site_label
_atom_site_fract_x
_atom_site_fract_y
_atom_site_fract_z
Si Si1 0.284634 0.120831 0.094507
Si Si2 0.110690 0.500000 0.401972
Si Si3 0.604315 0.123667 0.256788
Si Si4 0.893128 0.278419 0.659921
Si Si5 0.747282 0.119657 0.402638
Si Si6 0.110086 0.613108 0.000000
Si Si7 0.105855 0.227526 0.142593
O O1 0.348773 0.160370 0.169910
O O2 0.180016 0.142884 0.120016
O O3 0.298261 0.000000 0.091286
O O4 0.302386 0.161371 0.000000
O O5 0.137184 0.500000 0.500000
O O6 0.139295 0.393259 0.360351
O O7 0.000000 0.500000 0.397280
O O8 0.500000 0.158763 0.265020
O O9 0.668177 0.148793 0.336403
O O10 0.602419 0.000000 0.253565
O O11 0.832342 0.193741 0.614215
O O12 0.888041 0.257402 0.759784
O O13 0.000000 0.270448 0.634537
O O14 0.717876 0.128505 0.500000
O O15 0.770746 0.000000 0.387677
O O16 0.132010 0.677690 0.917014
O O17 0.148969 0.500000 0.000000
O O18 0.000000 0.604989 0.000000
O O19 0.000000 0.199494 0.124338
#
# Coordination Sequence:
#
# PCOD9382718 Si02
#       7
#     8   4   8   8   8   4   8
#     4  10  19  31  48  70  98 129 161 196 234 284
#     4   9  18  32  48  67  94 128 165 203 240 278
#     4   9  18  33  50  69  96 126 158 201 250 293
#     4  10  20  32  49  71 100 134 167 201 238 283
#     4  10  20  33  50  73 100 130 165 202 243 293
#     4   9  18  30  45  65  94 127 159 197 239 278
#     4  10  19  30  45  68  97 130 163 195 233 281
#
# _framework density 15.739765999999999
#
# number of rings (size 3 to 8) (size 9 to 14) (size 15 to 20)
#    0.000    2.333    2.500    0.500    1.167    2.333 
#    0.000    6.667    0.000    0.000    0.000    0.583 
#    0.000    2.667    0.000    0.000    0.000    0.000 
#
# Total GULP energy -267307.796998 kJ/mol
# GULP energy per Si atom -5568.912437 kJ/mol
# Density = 1.570394 g / cm^3
# Si number density = 15.739766 Si / 1000 Ang^3
#
#
#
# Elastic Constant Matrix: (Units=GPa)
#
#
# Indices 1 2 3 4 5 6 
#
# 1 82.1640 29.0771 49.3760 0.0000 0.0000 0.0000
# 2 29.0771 41.7586 31.5538 0.0000 0.0000 0.0000
# 3 49.3760 31.5538 111.7873 0.0000 0.0000 0.0000
# 4 0.0000 0.0000 0.0000 12.8957 0.0000 0.0000
# 5 0.0000 0.0000 0.0000 0.0000 21.0523 0.0000
# 6 0.0000 0.0000 0.0000 0.0000 0.0000 0.1663
#
#
#
# Elastic Compliance Matrix: (Units=1/GPa)
#
#
# Indices 1 2 3 4 5 6 
#
# 1 0.018734 -0.008634 -0.005838 0.000000 0.000000 0.000000
# 2 -0.008634 0.034418 -0.005902 0.000000 0.000000 0.000000
# 3 -0.005838 -0.005902 0.013190 0.000000 0.000000 0.000000
# 4 0.000000 0.000000 0.000000 0.077545 0.000000 0.000000
# 5 0.000000 0.000000 0.000000 0.000000 0.047501 0.000000
# 6 0.000000 0.000000 0.000000 0.000000 0.000000 6.014920
#
#
# Mechanical properties :
#
#
# Convention : Reuss Voigt Hill
#
# Bulk Modulus (GPa) = 39.06839 50.63596 44.85217
# Shear Modulus (GPa) = 0.79929 15.20306 8.00117
#
# Velocity S-wave (km/s) = 0.71338 3.11127 2.25709
# Velocity P-wave (km/s) = 5.05509 6.71917 5.94563
#
# Compressibility (1/GPa) = 0.02559614
#
# Stress axis : x y z
#
# Youngs Moduli (GPa) = 53.37749 29.05420 75.81517
#
# Poissons Ratio (x) = 0.25085 0.44260
# Poissons Ratio (y) = 0.46085 0.44743
# Poissons Ratio (z) = 0.31161 0.17147
#
# Static dielectric constant tensor:
#      x y z
#    x 1.513200 0.000000 0.000000 
#    y 0.000000 1.522260 0.000000 
#    z 0.000000 0.000000 1.526660 
# 
# From -- ./inp_files/17586.got.cif
#   From: 2010.05.17/outbox.cif.g08.bks.cpg/sg47_9_cif.got.tgz:17586.got - 2010.06.03 20:15:42.
