data_PCOD9382981
_publ_section_title
;
Structure prediction by ZEFSAII (Michael W. Deem and Ramdas Pophale) SiO2 
 PCOD9382981
Probable space group: P M M M
;
_chemical_formula_sum "Si O2"
_cell_formula_units_Z 56
_cell_length_a 19.518522
_cell_length_b 7.682501
_cell_length_c 19.592487
_cell_angle_alpha 90.000000
_cell_angle_beta 90.000000
_cell_angle_gamma 90.000000
_cell_volume 2937.914287
_symmetry_space_group_name_H-M "P M M M"
_symmetry_group_IT_number 47
_symmetry_cell_setting 'orthorhombic'
loop_
_space_group_symop_operation_xyz
x,y,z
-x,-y,z
x,-y,-z
-x,y,-z
-x,-y,-z
x,y,-z
-x,y,z
x,-y,z
loop_
_atom_site_type_symbol
_atom_site_label
_atom_site_fract_x
_atom_site_fract_y
_atom_site_fract_z
Si Si1 0.576921 0.789992 0.338969
Si Si2 0.917013 0.294496 0.072601
Si Si3 0.336748 0.793633 0.790456
Si Si4 0.577848 0.290565 0.077546
Si Si5 0.921251 0.714152 0.777987
Si Si6 0.293991 0.291497 0.424058
Si Si7 0.209704 0.705410 0.295479
O O1 0.500000 0.724839 0.347674
O O2 0.610300 0.727575 0.267648
O O3 0.628771 0.740873 0.398896
O O4 0.574550 0.000000 0.336056
O O5 0.899515 0.500000 0.072015
O O6 0.897576 0.224874 0.146531
O O7 0.000000 0.284891 0.072421
O O8 0.892823 0.219211 0.000000
O O9 0.367451 0.756923 0.864763
O O10 0.262832 0.723558 0.767507
O O11 0.332052 0.000000 0.783148
O O12 0.500000 0.230073 0.094929
O O13 0.575680 0.500000 0.075639
O O14 0.593469 0.230720 0.000000
O O15 0.921441 0.500000 0.779572
O O16 0.864679 0.774749 0.724517
O O17 0.000000 0.766556 0.765784
O O18 0.281527 0.222503 0.500000
O O19 0.284647 0.500000 0.426222
O O20 0.245809 0.220597 0.363231
O O21 0.201058 0.500000 0.307221
#
# Coordination Sequence:
#
# PCOD9382981 Si02
#       7
#     8   8   8   8   8   8   8
#     4   9  18  31  46  66  90 114 143 181 223 264
#     4   7   9  14  26  47  76 104 126 154 197 246
#     4  10  19  31  47  66  91 122 155 189 225 270
#     4   9  18  32  49  69  93 122 158 199 237 268
#     4   8  13  22  39  62  84 109 145 186 225 267
#     4   9  18  31  45  62  86 117 149 178 214 266
#     4   9  17  30  47  65  87 116 149 186 229 274
#
# _framework density 19.061140999999999
#
# number of rings (size 3 to 8) (size 9 to 14) (size 15 to 20)
#    0.000    3.286    0.000    2.571    0.000    2.571 
#    0.000    2.857    0.000    3.429    0.000    3.000 
#    0.000    0.000    0.000   12.000    0.000   12.143 
#
# Total GULP energy -311846.117459 kJ/mol
# GULP energy per Si atom -5568.680669 kJ/mol
# Density = 1.901776 g / cm^3
# Si number density = 19.061141 Si / 1000 Ang^3
#
#
#
# Elastic Constant Matrix: (Units=GPa)
#
#
# Indices 1 2 3 4 5 6 
#
# 1 117.6870 -0.0334 73.3035 0.0000 0.0000 0.0000
# 2 -0.0334 32.0186 -1.1017 0.0000 0.0000 0.0000
# 3 73.3035 -1.1017 117.0291 0.0000 0.0000 0.0000
# 4 0.0000 0.0000 0.0000 3.9493 0.0000 0.0000
# 5 0.0000 0.0000 0.0000 0.0000 14.0357 0.0000
# 6 0.0000 0.0000 0.0000 0.0000 0.0000 -24.4956
#
#
#
# Elastic Compliance Matrix: (Units=1/GPa)
#
#
# Indices 1 2 3 4 5 6 
#
# 1 0.013936 -0.000286 -0.008732 0.000000 0.000000 0.000000
# 2 -0.000286 0.031248 0.000473 0.000000 0.000000 0.000000
# 3 -0.008732 0.000473 0.014019 0.000000 0.000000 0.000000
# 4 0.000000 0.000000 0.000000 0.253207 0.000000 0.000000
# 5 0.000000 0.000000 0.000000 0.000000 0.071247 0.000000
# 6 0.000000 0.000000 0.000000 0.000000 0.000000 -0.040824
#
#
# Mechanical properties :
#
#
# Convention : Reuss Voigt Hill
#
# Bulk Modulus (GPa) = 23.74532 45.67461 34.70997
# Shear Modulus (GPa) = 13.37047 11.66898 12.51973
#
# Velocity S-wave (km/s) = 2.65137 2.47693 2.56563
# Velocity P-wave (km/s) = 4.67520 5.67401 5.19865
#
# Compressibility (1/GPa) = 0.04211356
#
# Stress axis : x y z
#
# Youngs Moduli (GPa) = 71.75848 32.00222 71.33426
#
# Poissons Ratio (x) = 0.00915 0.62286
# Poissons Ratio (y) = 0.02052 -0.03376
# Poissons Ratio (z) = 0.62656 -0.01515
#
# Static dielectric constant tensor:
#      x y z
#    x 1.652070 0.000000 0.000000 
#    y 0.000000 1.734050 0.000000 
#    z 0.000000 0.000000 1.697430 
# 
# From -- ./inp_files/26947.got.cif
#   From: 2010.05.17/outbox.cif.g08.bks.cpg/sg47_14_cif.got.tgz:26947.got - 2010.06.03 20:15:42.
