data_PCOD9382169
_publ_section_title
;
Structure prediction by ZEFSAII (Michael W. Deem and Ramdas Pophale) SiO2 
 PCOD9382169
Probable space group: P M M M
;
_chemical_formula_sum "Si O2"
_cell_formula_units_Z 45
_cell_length_a 27.501147
_cell_length_b 7.963435
_cell_length_c 12.096736
_cell_angle_alpha 90.000000
_cell_angle_beta 90.000000
_cell_angle_gamma 90.000000
_cell_volume 2649.228691
_symmetry_space_group_name_H-M "P M M M"
_symmetry_group_IT_number 47
_symmetry_cell_setting 'orthorhombic'
loop_
_space_group_symop_operation_xyz
x,y,z
-x,-y,z
x,-y,-z
-x,y,-z
-x,-y,-z
x,y,-z
-x,y,z
x,-y,z
loop_
_atom_site_type_symbol
_atom_site_label
_atom_site_fract_x
_atom_site_fract_y
_atom_site_fract_z
Si Si1 0.161015 0.687867 0.366363
Si Si2 0.401930 0.698720 0.000000
Si Si3 0.100496 0.000000 0.376659
Si Si4 0.445629 0.799390 0.766270
Si Si5 0.645430 0.794667 0.626622
Si Si6 0.000000 0.000000 0.500000
Si Si7 0.257795 0.204036 0.241413
Si Si8 0.711476 0.203023 0.000000
O O1 0.168075 0.693329 0.500000
O O2 0.143789 0.500000 0.340531
O O3 0.211605 0.724198 0.305401
O O4 0.122241 0.828932 0.328493
O O5 0.427004 0.769820 0.109664
O O6 0.344673 0.740939 0.000000
O O7 0.407985 0.500000 0.000000
O O8 0.123280 0.000000 0.500000
O O9 0.043519 0.000000 0.404246
O O10 0.500000 0.730739 0.750683
O O11 0.404054 0.734092 0.684058
O O12 0.448026 0.000000 0.749189
O O13 0.649358 0.740853 0.500000
O O14 0.692491 0.745033 0.697096
O O15 0.644700 0.000000 0.627856
O O16 0.254563 0.000000 0.245510
O O17 0.262635 0.256399 0.113434
O O18 0.710537 0.000000 0.000000
#
# Coordination Sequence:
#
# PCOD9382169 Si02
#       8
#     8   4   4   8   8   1   8   4
#     4  10  19  31  50  77 110 148 186 223 263 313
#     4  12  23  35  52  71  96 122 156 211 261 321
#     4   8  16  32  50  77 113 151 190 221 262 298
#     4  10  20  35  54  71  91 121 158 206 261 320
#     4   9  17  29  49  76  98 121 159 203 259 321
#     4   8  16  32  58  80 116 168 196 228 268 308
#     4  10  18  31  52  73 102 138 172 218 266 322
#     4  10  20  35  55  76 100 131 171 215 268 322
#
# _framework density 16.986077000000002
#
# number of rings (size 3 to 8) (size 9 to 14) (size 15 to 20)
#    0.267    1.956    2.667    1.600    0.000    3.200 
#    0.000    2.667    0.000    0.533    0.000    1.244 
#    0.000    1.422    0.000    1.600    0.000    0.000 
#
# Total GULP energy -250533.880637 kJ/mol
# GULP energy per Si atom -5567.419570 kJ/mol
# Density = 1.694742 g / cm^3
# Si number density = 16.986077 Si / 1000 Ang^3
#
#
#
# Elastic Constant Matrix: (Units=GPa)
#
#
# Indices 1 2 3 4 5 6 
#
# 1 130.2446 48.3883 41.6721 0.0000 0.0000 0.0000
# 2 48.3883 56.4342 21.6538 0.0000 0.0000 0.0000
# 3 41.6721 21.6538 93.8587 0.0000 0.0000 0.0000
# 4 0.0000 0.0000 0.0000 3.3235 0.0000 0.0000
# 5 0.0000 0.0000 0.0000 0.0000 6.0752 0.0000
# 6 0.0000 0.0000 0.0000 0.0000 0.0000 0.0126
#
#
#
# Elastic Compliance Matrix: (Units=1/GPa)
#
#
# Indices 1 2 3 4 5 6 
#
# 1 0.012119 -0.009135 -0.003273 0.000000 0.000000 0.000000
# 2 -0.009135 0.026327 -0.002018 0.000000 0.000000 0.000000
# 3 -0.003273 -0.002018 0.012573 0.000000 0.000000 0.000000
# 4 0.000000 0.000000 0.000000 0.300889 0.000000 0.000000
# 5 0.000000 0.000000 0.000000 0.000000 0.164604 0.000000
# 6 0.000000 0.000000 0.000000 0.000000 0.000000 79.355241
#
#
# Mechanical properties :
#
#
# Convention : Reuss Voigt Hill
#
# Bulk Modulus (GPa) = 45.11321 55.99620 50.55471
# Shear Modulus (GPa) = 0.06257 13.13714 6.59986
#
# Velocity S-wave (km/s) = 0.19214 2.78404 1.97329
# Velocity P-wave (km/s) = 5.16390 6.58574 5.91768
#
# Compressibility (1/GPa) = 0.02216646
#
# Stress axis : x y z
#
# Youngs Moduli (GPa) = 82.51473 37.98406 79.53511
#
# Poissons Ratio (x) = 0.34700 0.26033
# Poissons Ratio (y) = 0.75380 0.16049
# Poissons Ratio (z) = 0.27008 0.07664
#
# Static dielectric constant tensor:
#      x y z
#    x 1.539510 0.000000 0.000000 
#    y 0.000000 1.629110 0.000000 
#    z 0.000000 0.000000 1.567680 
# 
# From -- ./inp_files/19782.got.cif
#   From: 2010.05.17/outbox.cif.g08.bks.cpg/sg47_10_cif.got.tgz:19782.got - 2010.06.03 20:15:42.
