data_PCOD9382682
_publ_section_title
;
Structure prediction by ZEFSAII (Michael W. Deem and Ramdas Pophale) SiO2 
 PCOD9382682
Probable space group: P M M M
;
_chemical_formula_sum "Si O2"
_cell_formula_units_Z 52
_cell_length_a 18.290699
_cell_length_b 9.554754
_cell_length_c 17.016687
_cell_angle_alpha 90.000000
_cell_angle_beta 90.000000
_cell_angle_gamma 90.000000
_cell_volume 2973.889473
_symmetry_space_group_name_H-M "P M M M"
_symmetry_group_IT_number 47
_symmetry_cell_setting 'orthorhombic'
loop_
_space_group_symop_operation_xyz
x,y,z
-x,-y,z
x,-y,-z
-x,y,-z
-x,-y,-z
x,y,-z
-x,y,z
x,-y,z
loop_
_atom_site_type_symbol
_atom_site_label
_atom_site_fract_x
_atom_site_fract_y
_atom_site_fract_z
Si Si1 0.917288 0.167766 0.756216
Si Si2 0.216753 0.661179 0.185908
Si Si3 0.416357 0.161234 0.405022
Si Si4 0.500000 0.838657 0.096093
Si Si5 0.279665 0.660390 0.637815
Si Si6 0.641237 0.337039 0.094490
Si Si7 0.142972 0.166506 0.585764
O O1 0.855388 0.245499 0.806217
O O2 0.903324 0.201347 0.663595
O O3 0.000000 0.207405 0.777174
O O4 0.909858 0.000000 0.764253
O O5 0.197878 0.500000 0.166385
O O6 0.253818 0.661890 0.271913
O O7 0.280467 0.710424 0.127410
O O8 0.412713 0.168933 0.500000
O O9 0.500000 0.191855 0.381936
O O10 0.357416 0.266030 0.370679
O O11 0.399837 0.000000 0.383111
O O12 0.426937 0.756818 0.121421
O O13 0.500000 0.000000 0.121531
O O14 0.500000 0.837539 0.000000
O O15 0.281781 0.500000 0.610528
O O16 0.218599 0.749695 0.592366
O O17 0.630907 0.500000 0.118559
O O18 0.642401 0.333563 0.000000
O O19 0.108852 0.194977 0.500000
O O20 0.157766 0.000000 0.589579
#
# Coordination Sequence:
#
# PCOD9382682 Si02
#       7
#     8   8   8   4   8   8   8
#     4   9  18  32  50  72  97 126 160 197 238 287
#     4   9  19  34  50  71  97 125 158 195 237 285
#     4   9  18  32  47  61  81 114 156 198 235 273
#     4   9  17  29  47  75 107 131 154 189 234 281
#     4  10  19  30  44  64  91 119 149 190 238 283
#     4   9  17  32  54  75  97 130 168 200 233 279
#     4   9  17  29  46  67  91 121 155 192 234 279
#
# _framework density 17.485517999999999
#
# number of rings (size 3 to 8) (size 9 to 14) (size 15 to 20)
#    0.000    2.846    0.000    1.615    0.000    5.538 
#    1.385    2.308    0.000    0.462    0.000    7.538 
#    0.000    0.000    0.000    0.000    0.000    0.000 
#
# Total GULP energy -289825.954030 kJ/mol
# GULP energy per Si atom -5573.576039 kJ/mol
# Density = 1.744572 g / cm^3
# Si number density = 17.485518 Si / 1000 Ang^3
#
#
#
# Elastic Constant Matrix: (Units=GPa)
#
#
# Indices 1 2 3 4 5 6 
#
# 1 150.7268 75.1656 23.4286 0.0000 0.0000 0.0000
# 2 75.1656 61.4914 15.2219 0.0000 0.0000 0.0000
# 3 23.4286 15.2219 13.7500 0.0000 0.0000 0.0000
# 4 0.0000 0.0000 0.0000 16.8604 0.0000 0.0000
# 5 0.0000 0.0000 0.0000 0.0000 12.6627 0.0000
# 6 0.0000 0.0000 0.0000 0.0000 0.0000 25.0723
#
#
#
# Elastic Compliance Matrix: (Units=1/GPa)
#
#
# Indices 1 2 3 4 5 6 
#
# 1 0.017694 -0.019513 -0.008547 0.000000 0.000000 0.000000
# 2 -0.019513 0.043920 -0.015374 0.000000 0.000000 0.000000
# 3 -0.008547 -0.015374 0.104310 0.000000 0.000000 0.000000
# 4 0.000000 0.000000 0.000000 0.059311 0.000000 0.000000
# 5 0.000000 0.000000 0.000000 0.000000 0.078972 0.000000
# 6 0.000000 0.000000 0.000000 0.000000 0.000000 0.039885
#
#
# Mechanical properties :
#
#
# Convention : Reuss Voigt Hill
#
# Bulk Modulus (GPa) = 12.64918 50.40007 31.52462
# Shear Modulus (GPa) = 10.93350 18.39588 14.66469
#
# Velocity S-wave (km/s) = 2.50329 3.24707 2.89913
# Velocity P-wave (km/s) = 3.95033 6.55320 5.41062
#
# Compressibility (1/GPa) = 0.07905650
#
# Stress axis : x y z
#
# Youngs Moduli (GPa) = 56.51711 22.76865 9.58683
#
# Poissons Ratio (x) = 0.44428 0.08194
# Poissons Ratio (y) = 1.10280 0.14739
# Poissons Ratio (z) = 0.48304 0.35005
#
# Static dielectric constant tensor:
#      x y z
#    x 1.578410 0.000000 0.000000 
#    y 0.000000 1.591580 0.000000 
#    z 0.000000 0.000000 1.610210 
# 
# From -- ./inp_files/9566.got.cif
#   From: 2010.05.17/outbox.cif.g08.bks.cpg/sg47_5_cif.got.tgz:9566.got - 2010.06.03 20:15:42.
