data_PCOD9382799
_publ_section_title
;
Structure prediction by ZEFSAII (Michael W. Deem and Ramdas Pophale) SiO2 
 PCOD9382799
Probable space group: P M M M
;
_chemical_formula_sum "Si O2"
_cell_formula_units_Z 60
_cell_length_a 8.079889
_cell_length_b 19.738014
_cell_length_c 21.773042
_cell_angle_alpha 90.000000
_cell_angle_beta 90.000000
_cell_angle_gamma 90.000000
_cell_volume 3472.385688
_symmetry_space_group_name_H-M "P M M M"
_symmetry_group_IT_number 47
_symmetry_cell_setting 'orthorhombic'
loop_
_space_group_symop_operation_xyz
x,y,z
-x,-y,z
x,-y,-z
-x,y,-z
-x,-y,-z
x,y,-z
-x,y,z
x,-y,z
loop_
_atom_site_type_symbol
_atom_site_label
_atom_site_fract_x
_atom_site_fract_y
_atom_site_fract_z
Si Si1 0.699543 0.350802 0.375002
Si Si2 0.696579 0.708220 0.816231
Si Si3 0.801281 0.209074 0.068769
Si Si4 0.198278 0.576377 0.250322
Si Si5 0.199152 0.074960 0.720508
Si Si6 0.300911 0.219110 0.692385
Si Si7 0.798010 0.075325 0.862861
Si Si8 0.297081 0.421257 0.500000
O O1 0.500000 0.348737 0.378310
O O2 0.745509 0.397798 0.317288
O O3 0.757177 0.274896 0.357105
O O4 0.759490 0.382573 0.438636
O O5 0.500000 0.715492 0.817056
O O6 0.762443 0.734360 0.880782
O O7 0.739732 0.631588 0.798324
O O8 0.761215 0.754289 0.759150
O O9 0.738706 0.137399 0.095984
O O10 0.000000 0.203825 0.065404
O O11 0.738399 0.221990 0.000000
O O12 0.257971 0.500000 0.239356
O O13 0.000000 0.576577 0.249132
O O14 0.253016 0.141309 0.683925
O O15 0.253937 0.083511 0.791722
O O16 0.000000 0.074009 0.720988
O O17 0.255760 0.000000 0.699799
O O18 0.500000 0.222571 0.693641
O O19 0.000000 0.076577 0.863013
O O20 0.747962 0.000000 0.883574
O O21 0.246385 0.500000 0.500000
O O22 0.500000 0.420971 0.500000
#
# Coordination Sequence:
#
# PCOD9382799 Si02
#       8
#     8   8   8   8   8   8   8   4
#     4   9  18  31  48  73 102 132 166 195 223 268
#     4  10  20  33  49  68  92 123 156 193 236 281
#     4  10  19  30  47  69  92 122 158 194 235 284
#     4  10  20  33  51  75  99 122 151 191 238 281
#     4   9  16  26  43  65  88 118 155 195 239 284
#     4   9  17  28  43  66  93 120 154 196 237 274
#     4   8  14  25  41  63  90 119 154 194 233 275
#     4   9  16  28  49  73 100 137 170 192 219 263
#
# _framework density 17.279187
#
# number of rings (size 3 to 8) (size 9 to 14) (size 15 to 20)
#    0.000    2.733    1.333    2.800    0.000    4.533 
#    0.000    1.667    0.000    2.000    0.000    4.200 
#    0.000    3.733    0.000    0.000    0.000    0.000 
#
# Total GULP energy -334388.565988 kJ/mol
# GULP energy per Si atom -5573.142766 kJ/mol
# Density = 1.723986 g / cm^3
# Si number density = 17.279187 Si / 1000 Ang^3
#
#
#
# Elastic Constant Matrix: (Units=GPa)
#
#
# Indices 1 2 3 4 5 6 
#
# 1 7.0957 4.4716 7.8183 0.0000 0.0000 0.0000
# 2 4.4716 155.1442 72.0731 0.0000 0.0000 0.0000
# 3 7.8183 72.0731 100.0676 0.0000 0.0000 0.0000
# 4 0.0000 0.0000 0.0000 28.8609 0.0000 0.0000
# 5 0.0000 0.0000 0.0000 0.0000 13.1630 0.0000
# 6 0.0000 0.0000 0.0000 0.0000 0.0000 16.6736
#
#
#
# Elastic Compliance Matrix: (Units=1/GPa)
#
#
# Indices 1 2 3 4 5 6 
#
# 1 0.154517 0.001735 -0.013322 0.000000 0.000000 0.000000
# 2 0.001735 0.009706 -0.007126 0.000000 0.000000 0.000000
# 3 -0.013322 -0.007126 0.016167 0.000000 0.000000 0.000000
# 4 0.000000 0.000000 0.000000 0.034649 0.000000 0.000000
# 5 0.000000 0.000000 0.000000 0.000000 0.075971 0.000000
# 6 0.000000 0.000000 0.000000 0.000000 0.000000 0.059975
#
#
# Mechanical properties :
#
#
# Convention : Reuss Voigt Hill
#
# Bulk Modulus (GPa) = 6.99482 47.89262 27.44372
# Shear Modulus (GPa) = 11.46616 23.60244 17.53430
#
# Velocity S-wave (km/s) = 2.57880 3.69988 3.18899
# Velocity P-wave (km/s) = 3.59498 6.78449 5.42923
#
# Compressibility (1/GPa) = 0.14296301
#
# Stress axis : x y z
#
# Youngs Moduli (GPa) = 6.47180 103.02667 61.85480
#
# Poissons Ratio (x) = -0.17879 0.82405
# Poissons Ratio (y) = -0.01123 0.44080
# Poissons Ratio (z) = 0.08622 0.73421
#
# Static dielectric constant tensor:
#      x y z
#    x 1.613840 0.000000 0.000000 
#    y 0.000000 1.574120 0.000000 
#    z 0.000000 0.000000 1.586670 
# 
# From -- ./inp_files/29976.got.cif
#   From: 2010.05.17/outbox.cif.g08.bks.cpg/sg47_15_cif.got.tgz:29976.got - 2010.06.03 20:15:42.
