data_PCOD9382596
_publ_section_title
;
Structure prediction by ZEFSAII (Michael W. Deem and Ramdas Pophale) SiO2 
 PCOD9382596
Probable space group: P M M M
;
_chemical_formula_sum "Si O2"
_cell_formula_units_Z 44
_cell_length_a 14.490264
_cell_length_b 8.952872
_cell_length_c 21.721381
_cell_angle_alpha 90.000000
_cell_angle_beta 90.000000
_cell_angle_gamma 90.000000
_cell_volume 2817.903437
_symmetry_space_group_name_H-M "P M M M"
_symmetry_group_IT_number 47
_symmetry_cell_setting 'orthorhombic'
loop_
_space_group_symop_operation_xyz
x,y,z
-x,-y,z
x,-y,-z
-x,y,-z
-x,-y,-z
x,y,-z
-x,y,z
x,-y,z
loop_
_atom_site_type_symbol
_atom_site_label
_atom_site_fract_x
_atom_site_fract_y
_atom_site_fract_z
Si Si1 0.611964 0.330689 0.500000
Si Si2 0.892855 0.320261 0.194360
Si Si3 0.224431 0.319156 0.686788
Si Si4 0.391888 0.821894 0.371149
Si Si5 0.111666 0.175851 0.067413
Si Si6 0.892458 0.318529 0.568136
O O1 0.648809 0.500000 0.500000
O O2 0.500000 0.337678 0.500000
O O3 0.636511 0.247073 0.437286
O O4 0.893157 0.500000 0.192389
O O5 0.830140 0.274030 0.251834
O O6 0.857914 0.259314 0.128893
O O7 0.000000 0.272359 0.203384
O O8 0.230444 0.500000 0.685843
O O9 0.325123 0.249277 0.679291
O O10 0.166472 0.269746 0.626534
O O11 0.500000 0.785917 0.361329
O O12 0.382650 0.000000 0.373098
O O13 0.000000 0.189327 0.066716
O O14 0.132936 0.000000 0.072039
O O15 0.144311 0.230193 0.000000
O O16 0.860165 0.269780 0.500000
O O17 0.890354 0.500000 0.568286
O O18 0.000000 0.275703 0.574874
#
# Coordination Sequence:
#
# PCOD9382596 Si02
#       6
#     4   8   8   8   8   8
#     4   9  17  31  51  69  82 101 134 177 225 276
#     4   9  17  28  42  64  95 125 152 185 222 261
#     4  10  19  29  45  67  89 115 151 188 221 264
#     4  10  21  35  48  64  88 115 143 181 231 280
#     4   8  14  25  41  61  86 118 155 189 218 254
#     4   8  14  25  41  61  84 110 144 184 219 252
#
# _framework density 15.614445
#
# number of rings (size 3 to 8) (size 9 to 14) (size 15 to 20)
#    0.000    3.000    0.000    2.455    1.273    5.455 
#    0.000    1.818    0.000    1.636    0.000    1.273 
#    0.000    0.727    0.000    8.000    0.000    6.182 
#
# Total GULP energy -245125.248287 kJ/mol
# GULP energy per Si atom -5571.028370 kJ/mol
# Density = 1.557891 g / cm^3
# Si number density = 15.614445 Si / 1000 Ang^3
#
#
#
# Elastic Constant Matrix: (Units=GPa)
#
#
# Indices 1 2 3 4 5 6 
#
# 1 64.2976 25.1449 63.1125 0.0000 0.0000 0.0000
# 2 25.1449 20.4251 37.3768 0.0000 0.0000 0.0000
# 3 63.1125 37.3768 147.5745 0.0000 0.0000 0.0000
# 4 0.0000 0.0000 0.0000 19.8288 0.0000 0.0000
# 5 0.0000 0.0000 0.0000 0.0000 11.7594 0.0000
# 6 0.0000 0.0000 0.0000 0.0000 0.0000 13.0750
#
#
#
# Elastic Compliance Matrix: (Units=1/GPa)
#
#
# Indices 1 2 3 4 5 6 
#
# 1 0.033727 -0.028192 -0.007284 0.000000 0.000000 0.000000
# 2 -0.028192 0.114818 -0.017024 0.000000 0.000000 0.000000
# 3 -0.007284 -0.017024 0.014203 0.000000 0.000000 0.000000
# 4 0.000000 0.000000 0.000000 0.050432 0.000000 0.000000
# 5 0.000000 0.000000 0.000000 0.000000 0.085039 0.000000
# 6 0.000000 0.000000 0.000000 0.000000 0.000000 0.076482
#
#
# Mechanical properties :
#
#
# Convention : Reuss Voigt Hill
#
# Bulk Modulus (GPa) = 17.31619 53.72954 35.52286
# Shear Modulus (GPa) = 10.02106 16.04351 13.03228
#
# Velocity S-wave (km/s) = 2.53609 3.20891 2.89213
# Velocity P-wave (km/s) = 4.43729 6.94365 5.82683
#
# Compressibility (1/GPa) = 0.05774944
#
# Stress axis : x y z
#
# Youngs Moduli (GPa) = 29.64971 8.70940 70.40843
#
# Poissons Ratio (x) = 0.24554 0.51283
# Poissons Ratio (y) = 0.83589 1.19861
# Poissons Ratio (z) = 0.21596 0.14827
#
# Static dielectric constant tensor:
#      x y z
#    x 1.529280 0.000000 0.000000 
#    y 0.000000 1.524000 0.000000 
#    z 0.000000 0.000000 1.528980 
# 
# From -- ./inp_files/6820.got.cif
#   From: 2010.05.17/outbox.cif.g08.bks.cpg/sg47_4_cif.got.tgz:6820.got - 2010.06.03 20:15:42.
