data_PCOD9382310
_publ_section_title
;
Structure prediction by ZEFSAII (Michael W. Deem and Ramdas Pophale) SiO2 
 PCOD9382310
Probable space group: P M M M
;
_chemical_formula_sum "Si O2"
_cell_formula_units_Z 48
_cell_length_a 8.106320
_cell_length_b 16.024213
_cell_length_c 18.381598
_cell_angle_alpha 90.000000
_cell_angle_beta 90.000000
_cell_angle_gamma 90.000000
_cell_volume 2387.721757
_symmetry_space_group_name_H-M "P M M M"
_symmetry_group_IT_number 47
_symmetry_cell_setting 'orthorhombic'
loop_
_space_group_symop_operation_xyz
x,y,z
-x,-y,z
x,-y,-z
-x,y,-z
-x,-y,-z
x,y,-z
-x,y,z
x,-y,z
loop_
_atom_site_type_symbol
_atom_site_label
_atom_site_fract_x
_atom_site_fract_y
_atom_site_fract_z
Si Si1 0.800747 0.266540 0.918747
Si Si2 0.195493 0.406226 0.500000
Si Si3 0.305086 0.333756 0.653288
Si Si4 0.798747 0.093258 0.851177
Si Si5 0.800355 0.146892 0.311724
Si Si6 0.300607 0.592845 0.803891
Si Si7 0.798352 0.000000 0.417374
O O1 0.743587 0.173060 0.897654
O O2 0.750359 0.334407 0.859026
O O3 0.000000 0.264311 0.918911
O O4 0.743779 0.288614 0.000000
O O5 0.268228 0.500000 0.500000
O O6 0.241551 0.359773 0.574372
O O7 0.000000 0.412848 0.500000
O O8 0.500000 0.346256 0.651385
O O9 0.266531 0.238062 0.671822
O O10 0.239548 0.386566 0.722188
O O11 0.752329 0.112975 0.767679
O O12 0.000000 0.092001 0.854072
O O13 0.742879 0.000000 0.872159
O O14 0.746864 0.081452 0.372876
O O15 0.000000 0.151181 0.312219
O O16 0.500000 0.592725 0.802046
O O17 0.245152 0.500000 0.825997
O O18 0.740992 0.000000 0.500000
O O19 0.000000 0.000000 0.417863
#
# Coordination Sequence:
#
# PCOD9382310 Si02
#       7
#     8   4   8   8   8   8   4
#     4  10  21  36  56  86 120 150 187 242 299 344
#     4  11  25  43  63  88 115 146 187 233 282 339
#     4  11  23  39  60  86 118 152 188 234 290 343
#     4   9  16  30  54  82 113 150 191 234 284 342
#     4  10  18  32  55  81 110 149 195 236 280 339
#     4  10  22  40  61  83 110 152 199 236 281 347
#     4   9  18  30  49  81 114 146 188 239 288 333
#
# _framework density 20.102844000000001
#
# number of rings (size 3 to 8) (size 9 to 14) (size 15 to 20)
#    0.000    2.000    2.500    1.250    1.167    3.333 
#    0.000    3.750    0.000    2.000    0.000    1.167 
#    0.000    0.000    0.000    0.000    0.000    0.000 
#
# Total GULP energy -268002.015164 kJ/mol
# GULP energy per Si atom -5583.375316 kJ/mol
# Density = 2.005709 g / cm^3
# Si number density = 20.102844 Si / 1000 Ang^3
#
#
#
# Elastic Constant Matrix: (Units=GPa)
#
#
# Indices 1 2 3 4 5 6 
#
# 1 15.3494 10.2545 17.0893 0.0000 0.0000 0.0000
# 2 10.2545 153.0766 61.8304 0.0000 0.0000 0.0000
# 3 17.0893 61.8304 133.8030 0.0000 0.0000 0.0000
# 4 0.0000 0.0000 0.0000 17.8768 0.0000 0.0000
# 5 0.0000 0.0000 0.0000 0.0000 12.7401 0.0000
# 6 0.0000 0.0000 0.0000 0.0000 0.0000 -4.7726
#
#
#
# Elastic Compliance Matrix: (Units=1/GPa)
#
#
# Indices 1 2 3 4 5 6 
#
# 1 0.076207 -0.001443 -0.009066 0.000000 0.000000 0.000000
# 2 -0.001443 0.008059 -0.003540 0.000000 0.000000 0.000000
# 3 -0.009066 -0.003540 0.010267 0.000000 0.000000 0.000000
# 4 0.000000 0.000000 0.000000 0.055939 0.000000 0.000000
# 5 0.000000 0.000000 0.000000 0.000000 0.078492 0.000000
# 6 0.000000 0.000000 0.000000 0.000000 0.000000 -0.209532
#
#
# Mechanical properties :
#
#
# Convention : Reuss Voigt Hill
#
# Bulk Modulus (GPa) = 15.05219 53.39748 34.22483
# Shear Modulus (GPa) = 71.76004 19.37252 45.56628
#
# Velocity S-wave (km/s) = 5.98113 3.10767 4.76611
# Velocity P-wave (km/s) = 7.42984 6.28464 6.88110
#
# Compressibility (1/GPa) = 0.06643553
#
# Stress axis : x y z
#
# Youngs Moduli (GPa) = 13.12208 124.08264 97.39571
#
# Poissons Ratio (x) = 0.17905 0.88303
# Poissons Ratio (y) = 0.01893 0.34476
# Poissons Ratio (z) = 0.11897 0.43923
#
# Static dielectric constant tensor:
#      x y z
#    x 1.721690 0.000000 0.000000 
#    y 0.000000 1.699580 0.000000 
#    z 0.000000 0.000000 1.700610 
# 
# From -- ./inp_files/21057.got.cif
#   From: 2010.05.17/outbox.cif.g08.bks.cpg/sg47_11_cif.got.tgz:21057.got - 2010.06.03 20:15:42.
