data_PCOD9382213
_publ_section_title
;
Structure prediction by ZEFSAII (Michael W. Deem and Ramdas Pophale) SiO2 
 PCOD9382213
Probable space group: P M M M
;
_chemical_formula_sum "Si O2"
_cell_formula_units_Z 48
_cell_length_a 17.656254
_cell_length_b 16.258928
_cell_length_c 7.630690
_cell_angle_alpha 90.000000
_cell_angle_beta 90.000000
_cell_angle_gamma 90.000000
_cell_volume 2190.555628
_symmetry_space_group_name_H-M "P M M M"
_symmetry_group_IT_number 47
_symmetry_cell_setting 'orthorhombic'
loop_
_space_group_symop_operation_xyz
x,y,z
-x,-y,z
x,-y,-z
-x,y,-z
-x,-y,-z
x,y,-z
-x,y,z
x,-y,z
loop_
_atom_site_type_symbol
_atom_site_label
_atom_site_fract_x
_atom_site_fract_y
_atom_site_fract_z
Si Si1 0.914376 0.748534 0.290191
Si Si2 0.812503 0.590435 0.789233
Si Si3 0.823964 0.090877 0.285159
Si Si4 0.660590 0.326128 0.206551
Si Si5 0.500000 0.405982 0.709917
Si Si6 0.661184 0.141460 0.700491
Si Si7 0.500000 0.902057 0.298588
O O1 0.918544 0.757487 0.500000
O O2 0.866382 0.666305 0.257197
O O3 0.872332 0.830850 0.224300
O O4 0.000000 0.741705 0.222030
O O5 0.835324 0.500000 0.722948
O O6 0.726658 0.612223 0.733449
O O7 0.812124 0.586439 0.000000
O O8 0.822632 0.094018 0.500000
O O9 0.737113 0.102163 0.224285
O O10 0.852133 0.000000 0.235998
O O11 0.576728 0.360979 0.233289
O O12 0.671620 0.239186 0.299565
O O13 0.671576 0.311203 0.000000
O O14 0.500000 0.500000 0.774927
O O15 0.500000 0.407003 0.500000
O O16 0.655674 0.109929 0.500000
O O17 0.579402 0.124772 0.784251
O O18 0.500000 0.867793 0.500000
O O19 0.500000 0.000000 0.306189
#
# Coordination Sequence:
#
# PCOD9382213 Si02
#       7
#     8   8   8   8   4   8   4
#     4  10  21  37  58  86 118 149 186 239 297 347
#     4  10  22  40  61  84 112 151 195 236 285 348
#     4   9  17  31  54  83 115 152 192 234 283 341
#     4  11  22  37  58  82 113 151 191 235 286 340
#     4  11  24  39  56  82 114 149 192 238 283 333
#     4  10  18  31  53  79 110 147 189 235 283 337
#     4   9  17  28  46  76 108 139 182 232 275 323
#
# _framework density 21.912247000000001
#
# number of rings (size 3 to 8) (size 9 to 14) (size 15 to 20)
#    0.000    2.000    1.667    2.250    0.000    6.000 
#    0.000    3.333    0.000    4.000    0.000    1.167 
#    0.000    0.000    0.000    0.000    0.000    0.000 
#
# Total GULP energy -268106.662999 kJ/mol
# GULP energy per Si atom -5585.555479 kJ/mol
# Density = 2.186237 g / cm^3
# Si number density = 21.912247 Si / 1000 Ang^3
#
#
#
# Elastic Constant Matrix: (Units=GPa)
#
#
# Indices 1 2 3 4 5 6 
#
# 1 168.7938 81.5743 4.8392 0.0000 0.0000 0.0000
# 2 81.5743 174.4653 0.2275 0.0000 0.0000 0.0000
# 3 4.8392 0.2275 49.8326 0.0000 0.0000 0.0000
# 4 0.0000 0.0000 0.0000 -61.4296 0.0000 0.0000
# 5 0.0000 0.0000 0.0000 0.0000 14.5278 0.0000
# 6 0.0000 0.0000 0.0000 0.0000 0.0000 -0.0706
#
#
#
# Elastic Compliance Matrix: (Units=1/GPa)
#
#
# Indices 1 2 3 4 5 6 
#
# 1 0.007680 -0.003590 -0.000729 0.000000 0.000000 0.000000
# 2 -0.003590 0.007410 0.000315 0.000000 0.000000 0.000000
# 3 -0.000729 0.000315 0.020137 0.000000 0.000000 0.000000
# 4 0.000000 0.000000 0.000000 -0.016279 0.000000 0.000000
# 5 0.000000 0.000000 0.000000 0.000000 0.068833 0.000000
# 6 0.000000 0.000000 0.000000 0.000000 0.000000-14.162895
#
#
# Mechanical properties :
#
#
# Convention : Reuss Voigt Hill
#
# Bulk Modulus (GPa) = 36.74118 62.93041 49.83579
# Shear Modulus (GPa) = -0.35567 11.03557 5.33995
#
# Velocity S-wave (km/s) = -0.40332 2.24660 1.56277
# Velocity P-wave (km/s) = 4.07271 5.95913 5.10383
#
# Compressibility (1/GPa) = 0.02721741
#
# Stress axis : x y z
#
# Youngs Moduli (GPa) = 130.20281 134.95261 49.66085
#
# Poissons Ratio (x) = 0.48450 0.03622
# Poissons Ratio (y) = 0.46744 -0.01563
# Poissons Ratio (z) = 0.09497 -0.04248
#
# Static dielectric constant tensor:
#      x y z
#    x 1.798260 0.000000 0.000000 
#    y 0.000000 1.781050 0.000000 
#    z 0.000000 0.000000 1.859000 
# 
# From -- ./inp_files/9233.got.cif
#   From: 2010.05.17/outbox.cif.g08.bks.cpg/sg47_5_cif.got.tgz:9233.got - 2010.06.03 20:15:42.
