data_PCOD9382055
_publ_section_title
;
Structure prediction by ZEFSAII (Michael W. Deem and Ramdas Pophale) SiO2 
 PCOD9382055
Probable space group: P M M M
;
_chemical_formula_sum "Si O2"
_cell_formula_units_Z 36
_cell_length_a 7.400890
_cell_length_b 13.892274
_cell_length_c 14.949066
_cell_angle_alpha 90.000000
_cell_angle_beta 90.000000
_cell_angle_gamma 90.000000
_cell_volume 1536.991087
_symmetry_space_group_name_H-M "P M M M"
_symmetry_group_IT_number 47
_symmetry_cell_setting 'orthorhombic'
loop_
_space_group_symop_operation_xyz
x,y,z
-x,-y,z
x,-y,-z
-x,y,-z
-x,-y,-z
x,y,-z
-x,y,z
x,-y,z
loop_
_atom_site_type_symbol
_atom_site_label
_atom_site_fract_x
_atom_site_fract_y
_atom_site_fract_z
Si Si1 0.208746 0.615831 0.906072
Si Si2 0.278803 0.000000 0.397308
Si Si3 0.783652 0.607084 0.290114
Si Si4 0.719211 0.112907 0.899967
Si Si5 0.284402 0.186548 0.710997
O O1 0.202218 0.500000 0.911033
O O2 0.294002 0.628742 0.809205
O O3 0.000000 0.648550 0.904448
O O4 0.292020 0.649861 0.000000
O O5 0.218813 0.096085 0.346245
O O6 0.500000 0.000000 0.395706
O O7 0.222886 0.000000 0.500000
O O8 0.721420 0.500000 0.320540
O O9 0.752092 0.710088 0.335073
O O10 0.000000 0.598816 0.281981
O O11 0.500000 0.120111 0.902234
O O12 0.783791 0.172156 0.813620
O O13 0.761172 0.000000 0.885357
O O14 0.784250 0.138629 0.000000
O O15 0.500000 0.177874 0.716373
#
# Coordination Sequence:
#
# PCOD9382055 Si02
#       5
#     8   4   8   8   8
#     4   7  10  19  36  56  80 117 165 204 228 261
#     4   9  18  34  56  80 102 123 153 199 252 298
#     4   9  18  31  46  67  98 135 168 198 240 290
#     4   8  13  23  41  66  97 130 161 194 237 291
#     4  10  18  30  51  76  99 126 164 204 242 287
#
# _framework density 23.422387000000001
#
# number of rings (size 3 to 8) (size 9 to 14) (size 15 to 20)
#    0.000    3.444    1.111    2.667    0.000    1.333 
#    0.000    0.556    0.000    2.000    0.000   12.444 
#    0.000    0.000    0.000    0.000    0.000    0.000 
#
# Total GULP energy -200510.661548 kJ/mol
# GULP energy per Si atom -5569.740599 kJ/mol
# Density = 2.336908 g / cm^3
# Si number density = 23.422387 Si / 1000 Ang^3
#
#
#
# Elastic Constant Matrix: (Units=GPa)
#
#
# Indices 1 2 3 4 5 6 
#
# 1 84.5491 3.5929 7.4838 0.0000 0.0000 0.0000
# 2 3.5929 232.0286 58.9547 0.0000 0.0000 0.0000
# 3 7.4838 58.9547 66.4259 0.0000 0.0000 0.0000
# 4 0.0000 0.0000 0.0000 -1.7642 0.0000 0.0000
# 5 0.0000 0.0000 0.0000 0.0000 -29.2896 0.0000
# 6 0.0000 0.0000 0.0000 0.0000 0.0000 18.1898
#
#
#
# Elastic Compliance Matrix: (Units=1/GPa)
#
#
# Indices 1 2 3 4 5 6 
#
# 1 0.011954 0.000203 -0.001527 0.000000 0.000000 0.000000
# 2 0.000203 0.005568 -0.004965 0.000000 0.000000 0.000000
# 3 -0.001527 -0.004965 0.019633 0.000000 0.000000 0.000000
# 4 0.000000 0.000000 0.000000 -0.566820 0.000000 0.000000
# 5 0.000000 0.000000 0.000000 0.000000 -0.034142 0.000000
# 6 0.000000 0.000000 0.000000 0.000000 0.000000 0.054976
#
#
# Mechanical properties :
#
#
# Convention : Reuss Voigt Hill
#
# Bulk Modulus (GPa) = 40.68774 58.11851 49.40313
# Shear Modulus (GPa) = -10.24460 18.29201 4.02370
#
# Velocity S-wave (km/s) = -2.09364 2.79760 1.31210
# Velocity P-wave (km/s) = 3.40067 5.94159 4.84082
#
# Compressibility (1/GPa) = 0.02457743
#
# Stress axis : x y z
#
# Youngs Moduli (GPa) = 83.65418 179.59368 50.93547
#
# Poissons Ratio (x) = -0.03643 0.07777
# Poissons Ratio (y) = -0.01697 0.25288
# Poissons Ratio (z) = 0.12772 0.89163
#
# Static dielectric constant tensor:
#      x y z
#    x 1.899380 0.000000 0.000000 
#    y 0.000000 1.948170 0.000000 
#    z 0.000000 0.000000 1.908900 
# 
# From -- ./inp_files/27375.got.cif
#   From: 2010.05.17/outbox.cif.g08.bks.cpg/sg47_14_cif.got.tgz:27375.got - 2010.06.03 20:15:42.
