data_PCOD9382232
_publ_section_title
;
Structure prediction by ZEFSAII (Michael W. Deem and Ramdas Pophale) SiO2 
 PCOD9382232
Probable space group: P M M M
;
_chemical_formula_sum "Si O2"
_cell_formula_units_Z 52
_cell_length_a 8.337467
_cell_length_b 29.014042
_cell_length_c 12.156030
_cell_angle_alpha 90.000000
_cell_angle_beta 90.000000
_cell_angle_gamma 90.000000
_cell_volume 2940.587634
_symmetry_space_group_name_H-M "P M M M"
_symmetry_group_IT_number 47
_symmetry_cell_setting 'orthorhombic'
loop_
_space_group_symop_operation_xyz
x,y,z
-x,-y,z
x,-y,-z
-x,y,-z
-x,-y,-z
x,y,-z
-x,y,z
x,-y,z
loop_
_atom_site_type_symbol
_atom_site_label
_atom_site_fract_x
_atom_site_fract_y
_atom_site_fract_z
Si Si1 0.808519 0.315268 0.268966
Si Si2 0.196175 0.861002 0.265560
Si Si3 0.804349 0.052431 0.873791
Si Si4 0.688958 0.718634 0.500000
Si Si5 0.804221 0.227917 0.874362
Si Si6 0.690930 0.599715 0.127154
Si Si7 0.815610 0.500000 0.866834
Si Si8 0.193344 0.175932 0.500000
O O1 0.740218 0.308394 0.390520
O O2 0.751050 0.272258 0.194517
O O3 0.762577 0.362002 0.207025
O O4 0.000000 0.312326 0.276621
O O5 0.250189 0.909006 0.212066
O O6 0.244027 0.818800 0.186742
O O7 0.250631 0.848849 0.388647
O O8 0.000000 0.861811 0.267275
O O9 0.000000 0.052649 0.872481
O O10 0.753459 0.000000 0.849249
O O11 0.757669 0.063592 0.000000
O O12 0.500000 0.724694 0.500000
O O13 0.764539 0.769947 0.500000
O O14 0.000000 0.228425 0.875633
O O15 0.749294 0.229616 0.000000
O O16 0.500000 0.604519 0.125604
O O17 0.734174 0.548004 0.165212
O O18 0.749528 0.605715 0.000000
O O19 0.000000 0.500000 0.831351
O O20 0.810868 0.500000 0.000000
O O21 0.000000 0.173461 0.500000
#
# Coordination Sequence:
#
# PCOD9382232 Si02
#       8
#     8   8   8   4   8   8   4   4
#     4  11  21  35  54  76 103 135 177 221 260 311
#     4   9  15  24  40  61  90 126 167 206 247 300
#     4   8  13  21  34  56  90 129 163 198 249 312
#     4  12  24  38  54  72  98 135 176 216 267 322
#     4   9  16  25  42  69  96 123 159 204 251 301
#     4  10  20  34  53  81 117 150 178 217 271 320
#     4   9  17  31  53  80 109 146 191 229 262 309
#     4  10  18  32  49  68  91 127 170 212 255 304
#
# _framework density 17.683537999999999
#
# number of rings (size 3 to 8) (size 9 to 14) (size 15 to 20)
#    0.000    2.385    1.538    3.231    0.000    4.308 
#    0.000    0.385    0.000    2.769    0.000    3.231 
#    0.000    1.231    0.000    1.692    0.000    1.538 
#
# Total GULP energy -290050.961398 kJ/mol
# GULP energy per Si atom -5577.903104 kJ/mol
# Density = 1.764329 g / cm^3
# Si number density = 17.683538 Si / 1000 Ang^3
#
#
#
# Elastic Constant Matrix: (Units=GPa)
#
#
# Indices 1 2 3 4 5 6 
#
# 1 12.5463 2.6173 12.2213 0.0000 0.0000 0.0000
# 2 2.6173 130.8010 84.0055 0.0000 0.0000 0.0000
# 3 12.2213 84.0055 153.6804 0.0000 0.0000 0.0000
# 4 0.0000 0.0000 0.0000 245.0834 0.0000 0.0000
# 5 0.0000 0.0000 0.0000 0.0000 10.5452 0.0000
# 6 0.0000 0.0000 0.0000 0.0000 0.0000 -5.5708
#
#
#
# Elastic Compliance Matrix: (Units=1/GPa)
#
#
# Indices 1 2 3 4 5 6 
#
# 1 0.087874 0.004206 -0.009287 0.000000 0.000000 0.000000
# 2 0.004206 0.011982 -0.006884 0.000000 0.000000 0.000000
# 3 -0.009287 -0.006884 0.011009 0.000000 0.000000 0.000000
# 4 0.000000 0.000000 0.000000 0.004080 0.000000 0.000000
# 5 0.000000 0.000000 0.000000 0.000000 0.094830 0.000000
# 6 0.000000 0.000000 0.000000 0.000000 0.000000 -0.179506
#
#
# Mechanical properties :
#
#
# Convention : Reuss Voigt Hill
#
# Bulk Modulus (GPa) = 11.50289 54.96841 33.23565
# Shear Modulus (GPa) = 60.11163 63.22379 61.66771
#
# Velocity S-wave (km/s) = 5.83668 5.98586 5.91174
# Velocity P-wave (km/s) = 7.20704 8.88403 8.08911
#
# Compressibility (1/GPa) = 0.08693466
#
# Stress axis : x y z
#
# Youngs Moduli (GPa) = 11.37989 83.45512 90.83645
#
# Poissons Ratio (x) = -0.35105 0.84364
# Poissons Ratio (y) = -0.04787 0.62536
# Poissons Ratio (z) = 0.10569 0.57454
#
# Static dielectric constant tensor:
#      x y z
#    x 1.613120 0.000000 0.000000 
#    y 0.000000 1.590040 0.000000 
#    z 0.000000 0.000000 1.591730 
# 
# From -- ./inp_files/15513.got.cif
#   From: 2010.05.17/outbox.cif.g08.bks.cpg/sg47_8_cif.got.tgz:15513.got - 2010.06.03 20:15:42.
