data_PCOD9382067
_publ_section_title
;
Structure prediction by ZEFSAII (Michael W. Deem and Ramdas Pophale) SiO2 
 PCOD9382067
Probable space group: P M M M
;
_chemical_formula_sum "Si O2"
_cell_formula_units_Z 64
_cell_length_a 15.964490
_cell_length_b 8.212446
_cell_length_c 25.381125
_cell_angle_alpha 90.000000
_cell_angle_beta 90.000000
_cell_angle_gamma 90.000000
_cell_volume 3327.656152
_symmetry_space_group_name_H-M "P M M M"
_symmetry_group_IT_number 47
_symmetry_cell_setting 'orthorhombic'
loop_
_space_group_symop_operation_xyz
x,y,z
-x,-y,z
x,-y,-z
-x,y,-z
-x,-y,-z
x,y,-z
-x,y,z
x,-y,z
loop_
_atom_site_type_symbol
_atom_site_label
_atom_site_fract_x
_atom_site_fract_y
_atom_site_fract_z
Si Si1 0.090040 0.307775 0.595830
Si Si2 0.729663 0.302830 0.559327
Si Si3 0.593100 0.805958 0.643870
Si Si4 0.694520 0.688548 0.263687
Si Si5 0.276320 0.194565 0.148755
Si Si6 0.090754 0.198261 0.171525
Si Si7 0.128066 0.188976 0.709402
Si Si8 0.404950 0.696731 0.060853
O O1 0.089020 0.500000 0.583592
O O2 0.176342 0.241241 0.572050
O O3 0.097119 0.285119 0.658814
O O4 0.000000 0.238701 0.578429
O O5 0.706351 0.255413 0.500000
O O6 0.731723 0.500000 0.562224
O O7 0.663150 0.244202 0.601924
O O8 0.500000 0.755726 0.626792
O O9 0.615869 0.728152 0.700077
O O10 0.594846 0.000000 0.649689
O O11 0.717497 0.500000 0.269780
O O12 0.686370 0.729590 0.202286
O O13 0.771824 0.793383 0.286061
O O14 0.178578 0.250393 0.145310
O O15 0.334071 0.238688 0.099642
O O16 0.275104 0.000000 0.155470
O O17 0.096335 0.244886 0.233322
O O18 0.000000 0.253011 0.150382
O O19 0.090871 0.000000 0.170198
O O20 0.105105 0.000000 0.702729
O O21 0.500000 0.747959 0.075729
O O22 0.403297 0.500000 0.062576
O O23 0.391039 0.745831 0.000000
#
# Coordination Sequence:
#
# PCOD9382067 Si02
#       8
#     8   8   8   8   8   8   8   8
#     4  10  20  33  52  80 111 144 182 222 268 325
#     4  10  22  40  60  81 108 144 183 225 273 329
#     4  11  24  41  61  84 109 139 178 227 281 334
#     4  11  21  35  56  81 113 149 182 219 271 332
#     4  10  20  33  54  85 117 149 186 231 277 324
#     4   8  15  28  46  72 108 147 183 218 261 314
#     4  10  18  30  51  78 108 143 182 224 272 323
#     4   9  19  37  59  81 108 146 191 236 283 336
#
# _framework density 19.232755999999998
#
# number of rings (size 3 to 8) (size 9 to 14) (size 15 to 20)
#    0.000    2.125    1.250    3.750    0.000    3.500 
#    0.000    3.125    0.000    7.875    0.000    4.375 
#    0.000    0.000    0.000    0.000    0.000    0.000 
#
# Total GULP energy -357113.697244 kJ/mol
# GULP energy per Si atom -5579.901519 kJ/mol
# Density = 1.918898 g / cm^3
# Si number density = 19.232756 Si / 1000 Ang^3
#
#
#
# Elastic Constant Matrix: (Units=GPa)
#
#
# Indices 1 2 3 4 5 6 
#
# 1 147.0662 17.0565 68.6373 0.0000 0.0000 0.0000
# 2 17.0565 26.4679 10.8802 0.0000 0.0000 0.0000
# 3 68.6373 10.8802 81.5888 0.0000 0.0000 0.0000
# 4 0.0000 0.0000 0.0000 78.9505 0.0000 0.0000
# 5 0.0000 0.0000 0.0000 0.0000 3.2830 0.0000
# 6 0.0000 0.0000 0.0000 0.0000 0.0000 13.1959
#
#
#
# Elastic Compliance Matrix: (Units=1/GPa)
#
#
# Indices 1 2 3 4 5 6 
#
# 1 0.011517 -0.003639 -0.009204 0.000000 0.000000 0.000000
# 2 -0.003639 0.041122 -0.002423 0.000000 0.000000 0.000000
# 3 -0.009204 -0.002423 0.020322 0.000000 0.000000 0.000000
# 4 0.000000 0.000000 0.000000 0.012666 0.000000 0.000000
# 5 0.000000 0.000000 0.000000 0.000000 0.304601 0.000000
# 6 0.000000 0.000000 0.000000 0.000000 0.000000 0.075781
#
#
# Mechanical properties :
#
#
# Convention : Reuss Voigt Hill
#
# Bulk Modulus (GPa) = 23.56730 49.80787 36.68759
# Shear Modulus (GPa) = 9.79079 29.65580 19.72330
#
# Velocity S-wave (km/s) = 2.25870 3.93102 3.20583
# Velocity P-wave (km/s) = 4.36837 6.82331 5.72888
#
# Compressibility (1/GPa) = 0.04243167
#
# Stress axis : x y z
#
# Youngs Moduli (GPa) = 86.82743 24.31770 49.20688
#
# Poissons Ratio (x) = 0.08848 0.45288
# Poissons Ratio (y) = 0.31592 0.11922
# Poissons Ratio (z) = 0.79913 0.05892
#
# Static dielectric constant tensor:
#      x y z
#    x 1.717550 0.000000 0.000000 
#    y 0.000000 1.683670 0.000000 
#    z 0.000000 0.000000 1.637500 
# 
# From -- ./inp_files/25535.got.cif
#   From: 2010.05.17/outbox.cif.g08.bks.cpg/sg47_13_cif.got.tgz:25535.got - 2010.06.03 20:15:42.
