data_PCOD9382730
_publ_section_title
;
Structure prediction by ZEFSAII (Michael W. Deem and Ramdas Pophale) SiO2 
 PCOD9382730
Probable space group: P M M M
;
_chemical_formula_sum "Si O2"
_cell_formula_units_Z 52
_cell_length_a 14.320729
_cell_length_b 7.955578
_cell_length_c 27.506722
_cell_angle_alpha 90.000000
_cell_angle_beta 90.000000
_cell_angle_gamma 90.000000
_cell_volume 3133.831941
_symmetry_space_group_name_H-M "P M M M"
_symmetry_group_IT_number 47
_symmetry_cell_setting 'orthorhombic'
loop_
_space_group_symop_operation_xyz
x,y,z
-x,-y,z
x,-y,-z
-x,y,-z
-x,-y,-z
x,y,-z
-x,y,z
x,-y,z
loop_
_atom_site_type_symbol
_atom_site_label
_atom_site_fract_x
_atom_site_fract_y
_atom_site_fract_z
Si Si1 0.217505 0.300387 0.648836
Si Si2 0.106111 0.202431 0.445240
Si Si3 0.613419 0.805251 0.000000
Si Si4 0.894321 0.702662 0.743382
Si Si5 0.284517 0.202672 0.798403
Si Si6 0.604942 0.201669 0.703045
Si Si7 0.608578 0.206238 0.106202
O O1 0.217365 0.500000 0.652779
O O2 0.176186 0.253728 0.596883
O O3 0.150931 0.234122 0.692568
O O4 0.321875 0.240928 0.660597
O O5 0.130077 0.260113 0.500000
O O6 0.000000 0.260895 0.434227
O O7 0.103863 0.000000 0.446274
O O8 0.639418 0.732621 0.947404
O O9 0.500000 0.806882 0.000000
O O10 0.644585 0.000000 0.000000
O O11 0.897762 0.500000 0.740943
O O12 0.821149 0.749372 0.785361
O O13 0.000000 0.764523 0.749793
O O14 0.348376 0.264573 0.753320
O O15 0.326609 0.261905 0.849456
O O16 0.289899 0.000000 0.798642
O O17 0.500000 0.266328 0.696230
O O18 0.599778 0.000000 0.707063
O O19 0.500000 0.253219 0.114525
O O20 0.609650 0.000000 0.104771
#
# Coordination Sequence:
#
# PCOD9382730 Si02
#       7
#     8   8   4   8   8   8   8
#     4  10  19  30  46  67  89 113 141 173 209 248
#     4   9  18  32  49  69  92 116 141 170 206 249
#     4   7  10  16  28  50  80 111 136 158 195 247
#     4   9  18  31  43  57  82 113 140 167 204 250
#     4   9  16  25  40  63  85 106 137 175 209 241
#     4   9  17  29  44  62  86 116 146 173 205 247
#     4   8  12  19  33  55  84 112 135 163 201 245
#
# _framework density 16.593104
#
# number of rings (size 3 to 8) (size 9 to 14) (size 15 to 20)
#    0.000    3.154    0.000    2.769    0.000    4.308 
#    0.000    0.769    0.000    1.846    0.000    4.308 
#    0.000    6.154    0.000    0.000    0.000    0.000 
#
# Total GULP energy -289605.459652 kJ/mol
# GULP energy per Si atom -5569.335763 kJ/mol
# Density = 1.655534 g / cm^3
# Si number density = 16.593104 Si / 1000 Ang^3
#
#
#
# Elastic Constant Matrix: (Units=GPa)
#
#
# Indices 1 2 3 4 5 6 
#
# 1 145.2788 9.5045 87.5678 0.0000 0.0000 0.0000
# 2 9.5045 12.6822 4.5812 0.0000 0.0000 0.0000
# 3 87.5678 4.5812 129.5532 0.0000 0.0000 0.0000
# 4 0.0000 0.0000 0.0000 4.3062 0.0000 0.0000
# 5 0.0000 0.0000 0.0000 0.0000 25.1044 0.0000
# 6 0.0000 0.0000 0.0000 0.0000 0.0000 -0.2186
#
#
#
# Elastic Compliance Matrix: (Units=1/GPa)
#
#
# Indices 1 2 3 4 5 6 
#
# 1 0.012076 -0.006181 -0.007944 0.000000 0.000000 0.000000
# 2 -0.006181 0.083034 0.001241 0.000000 0.000000 0.000000
# 3 -0.007944 0.001241 0.013044 0.000000 0.000000 0.000000
# 4 0.000000 0.000000 0.000000 0.232222 0.000000 0.000000
# 5 0.000000 0.000000 0.000000 0.000000 0.039834 0.000000
# 6 0.000000 0.000000 0.000000 0.000000 0.000000 -4.575138
#
#
# Mechanical properties :
#
#
# Convention : Reuss Voigt Hill
#
# Bulk Modulus (GPa) = 12.13763 54.53567 33.33665
# Shear Modulus (GPa) = -1.20723 18.22913 8.51095
#
# Velocity S-wave (km/s) = -0.85389 3.31810 2.26723
# Velocity P-wave (km/s) = 2.52162 6.90055 5.19500
#
# Compressibility (1/GPa) = 0.08238837
#
# Stress axis : x y z
#
# Youngs Moduli (GPa) = 82.81017 12.04325 76.66188
#
# Poissons Ratio (x) = 0.07443 0.60898
# Poissons Ratio (y) = 0.51181 -0.09517
# Poissons Ratio (z) = 0.65782 -0.01495
#
# Static dielectric constant tensor:
#      x y z
#    x 1.548240 0.000000 0.000000 
#    y 0.000000 1.594530 0.000000 
#    z 0.000000 0.000000 1.575360 
# 
# From -- ./inp_files/13385.got.cif
#   From: 2010.05.17/outbox.cif.g08.bks.cpg/sg47_7_cif.got.tgz:13385.got - 2010.06.03 20:15:42.
