data_PCOD9382342
_publ_section_title
;
Structure prediction by ZEFSAII (Michael W. Deem and Ramdas Pophale) SiO2 
 PCOD9382342
Probable space group: P M M M
;
_chemical_formula_sum "Si O2"
_cell_formula_units_Z 52
_cell_length_a 16.913964
_cell_length_b 8.750676
_cell_length_c 21.300119
_cell_angle_alpha 90.000000
_cell_angle_beta 90.000000
_cell_angle_gamma 90.000000
_cell_volume 3152.601194
_symmetry_space_group_name_H-M "P M M M"
_symmetry_group_IT_number 47
_symmetry_cell_setting 'orthorhombic'
loop_
_space_group_symop_operation_xyz
x,y,z
-x,-y,z
x,-y,-z
-x,y,-z
-x,-y,-z
x,y,-z
-x,y,z
x,-y,z
loop_
_atom_site_type_symbol
_atom_site_label
_atom_site_fract_x
_atom_site_fract_y
_atom_site_fract_z
Si Si1 0.678322 0.316742 0.377958
Si Si2 0.000000 0.815061 0.720927
Si Si3 0.734307 0.183178 0.816228
Si Si4 0.407268 0.183483 0.500000
Si Si5 0.000000 0.682171 0.861667
Si Si6 0.825819 0.815991 0.311711
Si Si7 0.410505 0.316174 0.249646
Si Si8 0.845235 0.184831 0.072487
O O1 0.678631 0.500000 0.383013
O O2 0.638320 0.245683 0.439068
O O3 0.766587 0.258499 0.361851
O O4 0.625495 0.271834 0.317335
O O5 0.082031 0.770798 0.687127
O O6 0.000000 0.749146 0.791256
O O7 0.000000 0.000000 0.726294
O O8 0.791553 0.225128 0.757551
O O9 0.649656 0.254160 0.801906
O O10 0.773943 0.229941 0.881410
O O11 0.727759 0.000000 0.815474
O O12 0.500000 0.231700 0.500000
O O13 0.405413 0.000000 0.500000
O O14 0.923735 0.742328 0.898761
O O15 0.000000 0.500000 0.858812
O O16 0.821051 0.000000 0.317814
O O17 0.500000 0.261154 0.242810
O O18 0.410512 0.500000 0.247552
O O19 0.853070 0.000000 0.075741
O O20 0.833993 0.227324 0.000000
#
# Coordination Sequence:
#
# PCOD9382342 Si02
#       8
#     8   4   8   4   4   8   8   8
#     4  10  20  34  53  77 108 139 168 203 251 306
#     4  10  18  33  55  75 103 139 175 212 254 300
#     4   9  17  30  49  72  95 123 164 211 254 298
#     4  11  23  37  55  80 109 140 175 211 246 293
#     4  12  23  31  46  73 105 133 167 212 255 301
#     4   9  17  31  52  75 101 133 171 213 252 295
#     4   9  18  32  50  73 101 131 162 199 247 304
#     4  10  20  35  52  68  94 134 173 207 254 314
#
# _framework density 16.494316000000001
#
# number of rings (size 3 to 8) (size 9 to 14) (size 15 to 20)
#    0.000    2.231    1.538    2.077    0.000    4.615 
#    0.000    0.000    0.000    0.923    0.000    6.462 
#    0.000    0.000    0.000    0.000    0.000    0.000 
#
# Total GULP energy -290073.258305 kJ/mol
# GULP energy per Si atom -5578.331890 kJ/mol
# Density = 1.645677 g / cm^3
# Si number density = 16.494316 Si / 1000 Ang^3
#
#
#
# Elastic Constant Matrix: (Units=GPa)
#
#
# Indices 1 2 3 4 5 6 
#
# 1 181.3902 40.9783 86.6318 0.0000 0.0000 0.0000
# 2 40.9783 20.2071 35.0837 0.0000 0.0000 0.0000
# 3 86.6318 35.0837 116.1277 0.0000 0.0000 0.0000
# 4 0.0000 0.0000 0.0000 15.5968 0.0000 0.0000
# 5 0.0000 0.0000 0.0000 0.0000 18.9679 0.0000
# 6 0.0000 0.0000 0.0000 0.0000 0.0000 14.2530
#
#
#
# Elastic Compliance Matrix: (Units=1/GPa)
#
#
# Indices 1 2 3 4 5 6 
#
# 1 0.010644 -0.016403 -0.002985 0.000000 0.000000 0.000000
# 2 -0.016403 0.129358 -0.026844 0.000000 0.000000 0.000000
# 3 -0.002985 -0.026844 0.018948 0.000000 0.000000 0.000000
# 4 0.000000 0.000000 0.000000 0.064116 0.000000 0.000000
# 5 0.000000 0.000000 0.000000 0.000000 0.052721 0.000000
# 6 0.000000 0.000000 0.000000 0.000000 0.000000 0.070161
#
#
# Mechanical properties :
#
#
# Convention : Reuss Voigt Hill
#
# Bulk Modulus (GPa) = 15.04076 71.45696 43.24886
# Shear Modulus (GPa) = 10.85604 20.09897 15.47751
#
# Velocity S-wave (km/s) = 2.56826 3.49455 3.06658
# Velocity P-wave (km/s) = 4.23476 7.72649 6.23024
#
# Compressibility (1/GPa) = 0.06648602
#
# Stress axis : x y z
#
# Youngs Moduli (GPa) = 93.94680 7.73050 52.77579
#
# Poissons Ratio (x) = 0.12680 0.15755
# Poissons Ratio (y) = 1.54100 1.41671
# Poissons Ratio (z) = 0.28045 0.20752
#
# Static dielectric constant tensor:
#      x y z
#    x 1.556690 0.000000 0.000000 
#    y 0.000000 1.555240 0.000000 
#    z 0.000000 0.000000 1.533920 
# 
# From -- ./inp_files/28550.got.cif
#   From: 2010.05.17/outbox.cif.g08.bks.cpg/sg47_15_cif.got.tgz:28550.got - 2010.06.03 20:15:42.
