data_PCOD9382534
_publ_section_title
;
Structure prediction by ZEFSAII (Michael W. Deem and Ramdas Pophale) SiO2 
 PCOD9382534
Probable space group: P M M M
;
_chemical_formula_sum "Si O2"
_cell_formula_units_Z 52
_cell_length_a 8.549178
_cell_length_b 14.173522
_cell_length_c 27.497593
_cell_angle_alpha 90.000000
_cell_angle_beta 90.000000
_cell_angle_gamma 90.000000
_cell_volume 3331.937307
_symmetry_space_group_name_H-M "P M M M"
_symmetry_group_IT_number 47
_symmetry_cell_setting 'orthorhombic'
loop_
_space_group_symop_operation_xyz
x,y,z
-x,-y,z
x,-y,-z
-x,y,-z
-x,-y,-z
x,y,-z
-x,y,z
x,-y,z
loop_
_atom_site_type_symbol
_atom_site_label
_atom_site_fract_x
_atom_site_fract_y
_atom_site_fract_z
Si Si1 0.311024 0.893702 0.746935
Si Si2 0.681099 0.614277 0.000000
Si Si3 0.810918 0.393951 0.294092
Si Si4 0.813222 0.390505 0.896330
Si Si5 0.810692 0.207765 0.348028
Si Si6 0.687337 0.706735 0.801014
Si Si7 0.190573 0.109521 0.554392
O O1 0.500000 0.892804 0.745181
O O2 0.248459 0.861482 0.694370
O O3 0.262233 0.812273 0.784899
O O4 0.259546 0.000000 0.758578
O O5 0.759885 0.643936 0.050468
O O6 0.691294 0.500000 0.000000
O O7 0.500000 0.641339 0.000000
O O8 0.759013 0.500000 0.305693
O O9 0.760993 0.312912 0.332002
O O10 0.750332 0.361795 0.241383
O O11 0.000000 0.393340 0.292611
O O12 0.759193 0.500000 0.890217
O O13 0.748116 0.327806 0.852752
O O14 0.000000 0.390906 0.894389
O O15 0.755772 0.173286 0.400783
O O16 0.000000 0.205330 0.347820
O O17 0.500000 0.703567 0.800843
O O18 0.241726 0.137667 0.500000
O O19 0.000000 0.111806 0.554322
O O20 0.234968 0.000000 0.562273
#
# Coordination Sequence:
#
# PCOD9382534 Si02
#       7
#     8   4   8   8   8   8   8
#     4   9  18  31  44  60  85 112 135 166 211 255
#     4   9  17  29  45  65  88 115 148 181 209 242
#     4   9  17  28  40  56  81 110 137 168 208 248
#     4  10  19  30  44  63  90 120 145 172 209 248
#     4   9  16  26  42  61  79 104 139 172 201 243
#     4  10  19  29  43  63  84 109 142 174 204 244
#     4   8  13  21  35  57  81 101 126 166 212 251
#
# _framework density 15.606536999999999
#
# number of rings (size 3 to 8) (size 9 to 14) (size 15 to 20)
#    0.000    2.846    0.000    2.538    0.000    5.538 
#    0.000    0.000    0.000    0.923    0.000    5.923 
#    0.000    4.308    0.000    7.692    0.000    8.308 
#
# Total GULP energy -289695.985634 kJ/mol
# GULP energy per Si atom -5571.076647 kJ/mol
# Density = 1.557102 g / cm^3
# Si number density = 15.606537 Si / 1000 Ang^3
#
#
#
# Elastic Constant Matrix: (Units=GPa)
#
#
# Indices 1 2 3 4 5 6 
#
# 1 7.9852 16.8724 18.7947 0.0000 0.0000 0.0000
# 2 16.8724 108.3785 76.9290 0.0000 0.0000 0.0000
# 3 18.7947 76.9290 153.0636 0.0000 0.0000 0.0000
# 4 0.0000 0.0000 0.0000 21.4269 0.0000 0.0000
# 5 0.0000 0.0000 0.0000 0.0000 -2.1887 0.0000
# 6 0.0000 0.0000 0.0000 0.0000 0.0000 14.6478
#
#
#
# Elastic Compliance Matrix: (Units=1/GPa)
#
#
# Indices 1 2 3 4 5 6 
#
# 1 0.204654 -0.021801 -0.014173 0.000000 0.000000 0.000000
# 2 -0.021801 0.016667 -0.005700 0.000000 0.000000 0.000000
# 3 -0.014173 -0.005700 0.011138 0.000000 0.000000 0.000000
# 4 0.000000 0.000000 0.000000 0.046670 0.000000 0.000000
# 5 0.000000 0.000000 0.000000 0.000000 -0.456896 0.000000
# 6 0.000000 0.000000 0.000000 0.000000 0.000000 0.068270
#
#
# Mechanical properties :
#
#
# Convention : Reuss Voigt Hill
#
# Bulk Modulus (GPa) = 6.70634 54.95773 30.83204
# Shear Modulus (GPa) = 212.28976 17.23261 114.76119
#
# Velocity S-wave (km/s) = 11.67568 3.32654 8.58450
# Velocity P-wave (km/s) = 13.64069 7.07429 10.86540
#
# Compressibility (1/GPa) = 0.14911257
#
# Stress axis : x y z
#
# Youngs Moduli (GPa) = 4.88630 60.00036 89.78210
#
# Poissons Ratio (x) = 1.30805 1.27244
# Poissons Ratio (y) = 0.10652 0.51172
# Poissons Ratio (z) = 0.06925 0.34198
#
# Static dielectric constant tensor:
#      x y z
#    x 1.532140 0.000000 0.000000 
#    y 0.000000 1.528400 0.000000 
#    z 0.000000 0.000000 1.506720 
# 
# From -- ./inp_files/33381.got.cif
#   From: 2010.05.17/outbox.cif.g08.bks.cpg/sg47_17_cif.got.tgz:33381.got - 2010.06.03 20:15:42.
