data_PCOD9382833
_publ_section_title
;
Structure prediction by ZEFSAII (Michael W. Deem and Ramdas Pophale) SiO2 
 PCOD9382833
Probable space group: P M M M
;
_chemical_formula_sum "Si O2"
_cell_formula_units_Z 64
_cell_length_a 14.578271
_cell_length_b 7.450380
_cell_length_c 29.547168
_cell_angle_alpha 90.000000
_cell_angle_beta 90.000000
_cell_angle_gamma 90.000000
_cell_volume 3209.226020
_symmetry_space_group_name_H-M "P M M M"
_symmetry_group_IT_number 47
_symmetry_cell_setting 'orthorhombic'
loop_
_space_group_symop_operation_xyz
x,y,z
-x,-y,z
x,-y,-z
-x,y,-z
-x,-y,-z
x,y,-z
-x,y,z
x,-y,z
loop_
_atom_site_type_symbol
_atom_site_label
_atom_site_fract_x
_atom_site_fract_y
_atom_site_fract_z
Si Si1 0.757145 0.711557 0.623249
Si Si2 0.605910 0.216277 0.550289
Si Si3 0.105818 0.281039 0.549391
Si Si4 0.894956 0.214987 0.193699
Si Si5 0.395223 0.281902 0.206720
Si Si6 0.397227 0.780993 0.947256
Si Si7 0.757542 0.715387 0.274923
Si Si8 0.260429 0.793772 0.126397
O O1 0.776096 0.500000 0.628176
O O2 0.665436 0.726770 0.593232
O O3 0.834754 0.788363 0.590464
O O4 0.759518 0.785912 0.673947
O O5 0.638092 0.278310 0.500000
O O6 0.500000 0.272111 0.554976
O O7 0.607975 0.000000 0.549489
O O8 0.139697 0.222206 0.500000
O O9 0.109504 0.500000 0.549513
O O10 0.000000 0.231086 0.553606
O O11 0.842817 0.246121 0.241440
O O12 0.827722 0.284135 0.153342
O O13 0.000000 0.281726 0.193018
O O14 0.898460 0.000000 0.188367
O O15 0.500000 0.224579 0.208718
O O16 0.393233 0.500000 0.204378
O O17 0.334333 0.223587 0.249347
O O18 0.341546 0.210348 0.163381
O O19 0.500000 0.724507 0.931582
O O20 0.311565 0.714855 0.917457
O O21 0.396680 0.000000 0.944710
O O22 0.388681 0.732764 0.000000
O O23 0.752016 0.500000 0.277240
O O24 0.236466 0.000000 0.115388
#
# Coordination Sequence:
#
# PCOD9382833 Si02
#       8
#     8   8   8   8   8   8   8   8
#     4  10  19  30  48  72  92 112 144 186 226 264
#     4   9  19  35  51  67  91 124 157 185 217 261
#     4   8  14  25  41  62  87 110 131 161 206 257
#     4   9  18  32  48  65  87 117 153 193 232 265
#     4   9  17  29  43  59  85 118 145 175 220 268
#     4   8  13  21  36  62  93 119 144 180 227 274
#     4   9  19  32  45  66  92 116 145 181 223 272
#     4   9  16  27  45  66  86 112 151 192 222 258
#
# _framework density 19.942502999999999
#
# number of rings (size 3 to 8) (size 9 to 14) (size 15 to 20)
#    0.000    3.125    0.000    1.875    0.000    3.500 
#    0.000    3.125    0.000    1.125    0.000    6.125 
#    0.000    0.000    0.000    6.250    0.000    6.750 
#
# Total GULP energy -356694.199306 kJ/mol
# GULP energy per Si atom -5573.346864 kJ/mol
# Density = 1.989711 g / cm^3
# Si number density = 19.942503 Si / 1000 Ang^3
#
#
#
# Elastic Constant Matrix: (Units=GPa)
#
#
# Indices 1 2 3 4 5 6 
#
# 1 138.3112 -6.9607 63.6819 0.0000 0.0000 0.0000
# 2 -6.9607 58.8068 -2.9015 0.0000 0.0000 0.0000
# 3 63.6819 -2.9015 121.5249 0.0000 0.0000 0.0000
# 4 0.0000 0.0000 0.0000 73.7534 0.0000 0.0000
# 5 0.0000 0.0000 0.0000 0.0000 26.6672 0.0000
# 6 0.0000 0.0000 0.0000 0.0000 0.0000 12.6254
#
#
#
# Elastic Compliance Matrix: (Units=1/GPa)
#
#
# Indices 1 2 3 4 5 6 
#
# 1 0.009575 0.000887 -0.004996 0.000000 0.000000 0.000000
# 2 0.000887 0.017107 -0.000056 0.000000 0.000000 0.000000
# 3 -0.004996 -0.000056 0.010846 0.000000 0.000000 0.000000
# 4 0.000000 0.000000 0.000000 0.013559 0.000000 0.000000
# 5 0.000000 0.000000 0.000000 0.000000 0.037499 0.000000
# 6 0.000000 0.000000 0.000000 0.000000 0.000000 0.079205
#
#
# Mechanical properties :
#
#
# Convention : Reuss Voigt Hill
#
# Bulk Modulus (GPa) = 34.25110 47.36470 40.80790
# Shear Modulus (GPa) = 26.90269 40.26409 33.58339
#
# Velocity S-wave (km/s) = 3.67688 4.49821 4.10812
# Velocity P-wave (km/s) = 5.93617 7.12606 6.55816
#
# Compressibility (1/GPa) = 0.02919614
#
# Stress axis : x y z
#
# Youngs Moduli (GPa) = 104.43652 58.45544 92.20262
#
# Poissons Ratio (x) = -0.05184 0.46069
# Poissons Ratio (y) = -0.09262 0.00519
# Poissons Ratio (z) = 0.52181 0.00329
#
# Static dielectric constant tensor:
#      x y z
#    x 1.699910 0.000000 0.000000 
#    y 0.000000 1.769840 0.000000 
#    z 0.000000 0.000000 1.717140 
# 
# From -- ./inp_files/34681.got.cif
#   From: 2010.05.17/outbox.cif.g08.bks.cpg/sg47_18_cif.got.tgz:34681.got - 2010.06.03 20:15:42.
