data_PCOD9382929
_publ_section_title
;
Structure prediction by ZEFSAII (Michael W. Deem and Ramdas Pophale) SiO2 
 PCOD9382929
Probable space group: P M M M
;
_chemical_formula_sum "Si O2"
_cell_formula_units_Z 44
_cell_length_a 7.992457
_cell_length_b 27.864515
_cell_length_c 10.560516
_cell_angle_alpha 90.000000
_cell_angle_beta 90.000000
_cell_angle_gamma 90.000000
_cell_volume 2351.889621
_symmetry_space_group_name_H-M "P M M M"
_symmetry_group_IT_number 47
_symmetry_cell_setting 'orthorhombic'
loop_
_space_group_symop_operation_xyz
x,y,z
-x,-y,z
x,-y,-z
-x,y,-z
-x,-y,-z
x,y,-z
-x,y,z
x,-y,z
loop_
_atom_site_type_symbol
_atom_site_label
_atom_site_fract_x
_atom_site_fract_y
_atom_site_fract_z
Si Si1 0.188014 0.780472 0.642970
Si Si2 0.688851 0.942229 0.500000
Si Si3 0.188814 0.445132 0.846631
Si Si4 0.500000 0.708745 0.353336
Si Si5 0.500000 0.376993 0.153853
Si Si6 0.804376 0.054851 0.778246
Si Si7 0.305028 0.153756 0.861973
O O1 0.207520 0.800357 0.500000
O O2 0.334443 0.741670 0.660324
O O3 0.209475 0.821120 0.748034
O O4 0.000000 0.760039 0.652313
O O5 0.500000 0.921925 0.500000
O O6 0.781239 0.931545 0.369681
O O7 0.675224 0.000000 0.500000
O O8 0.223532 0.500000 0.805009
O O9 0.335643 0.408558 0.814141
O O10 0.000000 0.431932 0.804973
O O11 0.186066 0.446289 0.000000
O O12 0.500000 0.690336 0.500000
O O13 0.500000 0.669331 0.243217
O O14 0.500000 0.367541 0.000000
O O15 0.712340 0.096473 0.852690
O O16 0.000000 0.055727 0.810514
O O17 0.743347 0.000000 0.796315
O O18 0.500000 0.166394 0.850432
O O19 0.243528 0.169677 0.000000
#
# Coordination Sequence:
#
# PCOD9382929 Si02
#       7
#     8   4   8   4   4   8   8
#     4  10  22  42  67  88 107 142 190 236 287 347
#     4   9  17  31  51  75 103 137 177 219 259 301
#     4   8  14  26  46  76 116 158 200 246 289 329
#     4  10  22  41  59  83 117 149 184 237 296 353
#     4  10  19  30  52  84 114 149 197 244 287 341
#     4  10  21  36  54  79 112 147 181 217 262 322
#     4  11  24  40  60  86 114 144 180 224 277 338
#
# _framework density 18.708362999999999
#
# number of rings (size 3 to 8) (size 9 to 14) (size 15 to 20)
#    0.000    2.273    0.909    2.182    1.273    6.545 
#    0.000    1.818    0.000    1.091    0.000    1.273 
#    0.000    0.000    0.000    0.000    0.000    0.000 
#
# Total GULP energy -245370.068372 kJ/mol
# GULP energy per Si atom -5576.592463 kJ/mol
# Density = 1.866578 g / cm^3
# Si number density = 18.708363 Si / 1000 Ang^3
#
#
#
# Elastic Constant Matrix: (Units=GPa)
#
#
# Indices 1 2 3 4 5 6 
#
# 1 105.8654 49.3037 44.6972 0.0000 0.0000 0.0000
# 2 49.3037 77.1526 57.7785 0.0000 0.0000 0.0000
# 3 44.6972 57.7785 93.6596 0.0000 0.0000 0.0000
# 4 0.0000 0.0000 0.0000 111.1480 0.0000 0.0000
# 5 0.0000 0.0000 0.0000 0.0000 -39.6118 0.0000
# 6 0.0000 0.0000 0.0000 0.0000 0.0000 9.5832
#
#
#
# Elastic Compliance Matrix: (Units=1/GPa)
#
#
# Indices 1 2 3 4 5 6 
#
# 1 0.013669 -0.007156 -0.002109 0.000000 0.000000 0.000000
# 2 -0.007156 0.027837 -0.013758 0.000000 0.000000 0.000000
# 3 -0.002109 -0.013758 0.020171 0.000000 0.000000 0.000000
# 4 0.000000 0.000000 0.000000 0.008997 0.000000 0.000000
# 5 0.000000 0.000000 0.000000 0.000000 -0.025245 0.000000
# 6 0.000000 0.000000 0.000000 0.000000 0.000000 0.104349
#
#
# Mechanical properties :
#
#
# Convention : Reuss Voigt Hill
#
# Bulk Modulus (GPa) = 63.97184 64.47070 64.22127
# Shear Modulus (GPa) = 24.87158 24.55044 24.71101
#
# Velocity S-wave (km/s) = 3.65010 3.62646 3.63830
# Velocity P-wave (km/s) = 7.21338 7.21600 7.21469
#
# Compressibility (1/GPa) = 0.01563188
#
# Stress axis : x y z
#
# Youngs Moduli (GPa) = 73.15888 35.92327 49.57729
#
# Poissons Ratio (x) = 0.25706 0.10455
# Poissons Ratio (y) = 0.52350 0.68207
# Poissons Ratio (z) = 0.15428 0.49422
#
# Static dielectric constant tensor:
#      x y z
#    x 1.666940 0.000000 0.000000 
#    y 0.000000 1.633160 0.000000 
#    z 0.000000 0.000000 1.660250 
# 
# From -- ./inp_files/2338.got.cif
#   From: 2010.05.17/outbox.cif.g08.bks.cpg/sg47_2_cif.got.tgz:2338.got - 2010.06.03 20:15:42.
