data_PCOD9382841
_publ_section_title
;
Structure prediction by ZEFSAII (Michael W. Deem and Ramdas Pophale) SiO2 
 PCOD9382841
Probable space group: P M M M
;
_chemical_formula_sum "Si O2"
_cell_formula_units_Z 64
_cell_length_a 20.912170
_cell_length_b 19.337321
_cell_length_c 7.532543
_cell_angle_alpha 90.000000
_cell_angle_beta 90.000000
_cell_angle_gamma 90.000000
_cell_volume 3046.049993
_symmetry_space_group_name_H-M "P M M M"
_symmetry_group_IT_number 47
_symmetry_cell_setting 'orthorhombic'
loop_
_space_group_symop_operation_xyz
x,y,z
-x,-y,z
x,-y,-z
-x,y,-z
-x,-y,-z
x,y,-z
-x,y,z
x,-y,z
loop_
_atom_site_type_symbol
_atom_site_label
_atom_site_fract_x
_atom_site_fract_y
_atom_site_fract_z
Si Si1 0.693282 0.329358 0.290833
Si Si2 0.427459 0.079048 0.283750
Si Si3 0.427498 0.421448 0.785839
Si Si4 0.927740 0.832082 0.211392
Si Si5 0.309645 0.172527 0.718216
Si Si6 0.193400 0.922342 0.709476
Si Si7 0.927897 0.326150 0.288237
Si Si8 0.811795 0.420457 0.717927
O O1 0.706495 0.322489 0.500000
O O2 0.625628 0.367314 0.270984
O O3 0.692872 0.251552 0.219111
O O4 0.749469 0.378483 0.220207
O O5 0.427397 0.079372 0.500000
O O6 0.500000 0.095310 0.227297
O O7 0.373861 0.132755 0.225756
O O8 0.412402 0.000000 0.230161
O O9 0.500000 0.405389 0.726900
O O10 0.411836 0.500000 0.726726
O O11 0.427991 0.422183 0.000000
O O12 0.875364 0.886581 0.272269
O O13 0.908441 0.753516 0.257981
O O14 0.000000 0.843226 0.281360
O O15 0.930472 0.836509 0.000000
O O16 0.309808 0.173532 0.500000
O O17 0.248360 0.128551 0.779162
O O18 0.206457 0.928157 0.500000
O O19 0.194872 0.000000 0.784169
O O20 0.931317 0.335777 0.500000
O O21 0.874959 0.379400 0.222339
O O22 0.000000 0.335054 0.216398
O O23 0.811705 0.420770 0.500000
O O24 0.810790 0.500000 0.774474
#
# Coordination Sequence:
#
# PCOD9382841 Si02
#       8
#     8   8   8   8   8   8   8   8
#     4  10  19  30  48  73 100 130 161 197 242 291
#     4   8  13  22  38  61  91 127 161 191 229 280
#     4   9  19  36  54  70  93 127 164 204 250 295
#     4  10  21  36  53  73 100 133 164 199 248 300
#     4   9  17  29  45  69 101 130 158 197 243 285
#     4  10  20  34  54  77 100 130 168 207 244 286
#     4   9  17  31  53  77  99 127 165 205 241 285
#     4   9  17  29  46  71 103 133 161 200 250 296
#
# _framework density 21.010815999999998
#
# number of rings (size 3 to 8) (size 9 to 14) (size 15 to 20)
#    0.000    2.750    0.000    2.625    0.000    6.500 
#    0.000    6.875    0.000    1.125    0.000    1.750 
#    0.000    0.000    0.000    6.625    0.000    5.750 
#
# Total GULP energy -357326.667541 kJ/mol
# GULP energy per Si atom -5583.229180 kJ/mol
# Density = 2.096299 g / cm^3
# Si number density = 21.010816 Si / 1000 Ang^3
#
#
#
# Elastic Constant Matrix: (Units=GPa)
#
#
# Indices 1 2 3 4 5 6 
#
# 1 135.3897 135.3620 -3.0038 0.0000 0.0000 0.0000
# 2 135.3620 216.5522 1.6681 0.0000 0.0000 0.0000
# 3 -3.0038 1.6681 49.8098 0.0000 0.0000 0.0000
# 4 0.0000 0.0000 0.0000 102.8106 0.0000 0.0000
# 5 0.0000 0.0000 0.0000 0.0000 8.4485 0.0000
# 6 0.0000 0.0000 0.0000 0.0000 0.0000 40.4498
#
#
#
# Elastic Compliance Matrix: (Units=1/GPa)
#
#
# Indices 1 2 3 4 5 6 
#
# 1 0.019822 -0.012403 0.001611 0.000000 0.000000 0.000000
# 2 -0.012403 0.012379 -0.001163 0.000000 0.000000 0.000000
# 3 0.001611 -0.001163 0.020212 0.000000 0.000000 0.000000
# 4 0.000000 0.000000 0.000000 0.009727 0.000000 0.000000
# 5 0.000000 0.000000 0.000000 0.000000 0.118364 0.000000
# 6 0.000000 0.000000 0.000000 0.000000 0.000000 0.024722
#
#
# Mechanical properties :
#
#
# Convention : Reuss Voigt Hill
#
# Bulk Modulus (GPa) = 35.08173 74.42270 54.75221
# Shear Modulus (GPa) = 20.95230 48.19015 34.57122
#
# Velocity S-wave (km/s) = 3.16130 4.79434 4.06076
# Velocity P-wave (km/s) = 5.48254 8.13299 6.93556
#
# Compressibility (1/GPa) = 0.02850487
#
# Stress axis : x y z
#
# Youngs Moduli (GPa) = 50.44913 80.77927 49.47449
#
# Poissons Ratio (x) = 1.00188 -0.07969
# Poissons Ratio (y) = 0.62570 0.05752
# Poissons Ratio (z) = -0.08126 0.09391
#
# Static dielectric constant tensor:
#      x y z
#    x 1.732140 0.000000 0.000000 
#    y 0.000000 1.717750 0.000000 
#    z 0.000000 0.000000 1.803300 
# 
# From -- ./inp_files/11554.got.cif
#   From: 2010.05.17/outbox.cif.g08.bks.cpg/sg47_6_cif.got.tgz:11554.got - 2010.06.03 20:15:42.
