data_PCOD9382886
_publ_section_title
;
Structure prediction by ZEFSAII (Michael W. Deem and Ramdas Pophale) SiO2 
 PCOD9382886
Probable space group: P M M M
;
_chemical_formula_sum "Si O2"
_cell_formula_units_Z 52
_cell_length_a 7.455712
_cell_length_b 21.282190
_cell_length_c 14.838373
_cell_angle_alpha 90.000000
_cell_angle_beta 90.000000
_cell_angle_gamma 90.000000
_cell_volume 2354.462207
_symmetry_space_group_name_H-M "P M M M"
_symmetry_group_IT_number 47
_symmetry_cell_setting 'orthorhombic'
loop_
_space_group_symop_operation_xyz
x,y,z
-x,-y,z
x,-y,-z
-x,y,-z
-x,-y,-z
x,y,-z
-x,y,z
x,-y,z
loop_
_atom_site_type_symbol
_atom_site_label
_atom_site_fract_x
_atom_site_fract_y
_atom_site_fract_z
Si Si1 0.281539 0.929984 0.394724
Si Si2 0.280124 0.309392 0.397311
Si Si3 0.709932 0.571019 0.295197
Si Si4 0.784475 0.136292 0.101770
Si Si5 0.784182 0.426185 0.903482
Si Si6 0.713412 0.190593 0.714682
Si Si7 0.205519 0.000000 0.890125
O O1 0.232311 0.921250 0.500000
O O2 0.500000 0.930048 0.392104
O O3 0.216301 0.872572 0.333833
O O4 0.223502 0.000000 0.365742
O O5 0.228495 0.297451 0.500000
O O6 0.500000 0.310501 0.394489
O O7 0.215563 0.376910 0.362096
O O8 0.218256 0.253286 0.332802
O O9 0.500000 0.564885 0.315960
O O10 0.786919 0.500000 0.297923
O O11 0.722285 0.597583 0.193097
O O12 0.744587 0.185888 0.178905
O O13 0.000000 0.130091 0.096569
O O14 0.712759 0.067520 0.132979
O O15 0.721308 0.149899 0.000000
O O16 0.731799 0.500000 0.903975
O O17 0.000000 0.423660 0.902815
O O18 0.723316 0.398980 0.000000
O O19 0.500000 0.190235 0.700472
O O20 0.000000 0.000000 0.857456
O O21 0.200955 0.000000 0.000000
#
# Coordination Sequence:
#
# PCOD9382886 Si02
#       7
#     8   8   8   8   8   8   4
#     4   8  14  25  42  66  94 120 149 188 231 274
#     4   9  18  33  51  71  97 128 160 195 243 301
#     4   9  17  29  48  74  98 122 160 207 246 282
#     4   9  18  33  51  70  96 131 166 197 234 285
#     4   8  14  26  45  69  98 130 158 186 229 285
#     4  10  19  30  49  73  96 124 159 198 240 283
#     4   7  12  26  47  67  88 121 162 194 225 273
#
# _framework density 22.085723999999999
#
# number of rings (size 3 to 8) (size 9 to 14) (size 15 to 20)
#    0.000    3.308    0.000    2.308    1.077    2.769 
#    0.000    4.615    0.000    9.231    0.000    3.231 
#    0.000    0.000    0.000    0.000    0.000    0.000 
#
# Total GULP energy -289965.803310 kJ/mol
# GULP energy per Si atom -5576.265448 kJ/mol
# Density = 2.203546 g / cm^3
# Si number density = 22.085724 Si / 1000 Ang^3
#
#
#
# Elastic Constant Matrix: (Units=GPa)
#
#
# Indices 1 2 3 4 5 6 
#
# 1 64.7345 7.9897 -3.5985 0.0000 0.0000 0.0000
# 2 7.9897 117.9027 92.2243 0.0000 0.0000 0.0000
# 3 -3.5985 92.2243 133.6081 0.0000 0.0000 0.0000
# 4 0.0000 0.0000 0.0000 37.9128 0.0000 0.0000
# 5 0.0000 0.0000 0.0000 0.0000 21.5232 0.0000
# 6 0.0000 0.0000 0.0000 0.0000 0.0000 41.9327
#
#
#
# Elastic Compliance Matrix: (Units=1/GPa)
#
#
# Indices 1 2 3 4 5 6 
#
# 1 0.015971 -0.003084 0.002559 0.000000 0.000000 0.000000
# 2 -0.003084 0.019031 -0.013219 0.000000 0.000000 0.000000
# 3 0.002559 -0.013219 0.016678 0.000000 0.000000 0.000000
# 4 0.000000 0.000000 0.000000 0.026376 0.000000 0.000000
# 5 0.000000 0.000000 0.000000 0.000000 0.046462 0.000000
# 6 0.000000 0.000000 0.000000 0.000000 0.000000 0.023848
#
#
# Mechanical properties :
#
#
# Convention : Reuss Voigt Hill
#
# Bulk Modulus (GPa) = 41.33759 56.60846 48.97302
# Shear Modulus (GPa) = 27.18621 34.91573 31.05097
#
# Velocity S-wave (km/s) = 3.51228 3.98039 3.75364
# Velocity P-wave (km/s) = 5.93344 6.84190 6.40380
#
# Compressibility (1/GPa) = 0.02419106
#
# Stress axis : x y z
#
# Youngs Moduli (GPa) = 62.61528 52.54688 59.95880
#
# Poissons Ratio (x) = 0.16204 -0.15341
# Poissons Ratio (y) = 0.19308 0.79260
# Poissons Ratio (z) = -0.16021 0.69462
#
# Static dielectric constant tensor:
#      x y z
#    x 1.849790 0.000000 0.000000 
#    y 0.000000 1.816470 0.000000 
#    z 0.000000 0.000000 1.816070 
# 
# From -- ./inp_files/21439.got.cif
#   From: 2010.05.17/outbox.cif.g08.bks.cpg/sg47_11_cif.got.tgz:21439.got - 2010.06.03 20:15:42.
