data_PCOD9382676
_publ_section_title
;
Structure prediction by ZEFSAII (Michael W. Deem and Ramdas Pophale) SiO2 
 PCOD9382676
Probable space group: P M M M
;
_chemical_formula_sum "Si O2"
_cell_formula_units_Z 52
_cell_length_a 28.665608
_cell_length_b 7.762523
_cell_length_c 13.203570
_cell_angle_alpha 90.000000
_cell_angle_beta 90.000000
_cell_angle_gamma 90.000000
_cell_volume 2938.024614
_symmetry_space_group_name_H-M "P M M M"
_symmetry_group_IT_number 47
_symmetry_cell_setting 'orthorhombic'
loop_
_space_group_symop_operation_xyz
x,y,z
-x,-y,z
x,-y,-z
-x,y,-z
-x,-y,-z
x,y,-z
-x,y,z
x,-y,z
loop_
_atom_site_type_symbol
_atom_site_label
_atom_site_fract_x
_atom_site_fract_y
_atom_site_fract_z
Si Si1 0.379074 0.806324 0.619692
Si Si2 0.946257 0.788784 0.697981
Si Si3 0.222337 0.208345 0.884830
Si Si4 0.720082 0.297315 0.311211
Si Si5 0.108968 0.793712 0.500000
Si Si6 0.217765 0.707609 0.500000
Si Si7 0.446777 0.500000 0.376871
Si Si8 0.884706 0.789821 0.885773
O O1 0.368786 0.774493 0.500000
O O2 0.330233 0.788330 0.677274
O O3 0.416982 0.667044 0.653107
O O4 0.397199 0.000000 0.629186
O O5 0.916866 0.729811 0.600768
O O6 0.920218 0.731959 0.799944
O O7 0.000000 0.734856 0.693017
O O8 0.946026 0.000000 0.698019
O O9 0.256147 0.272310 0.797301
O O10 0.168742 0.262264 0.863960
O O11 0.223151 0.000000 0.883055
O O12 0.234010 0.262501 0.000000
O O13 0.712628 0.500000 0.329501
O O14 0.754915 0.232053 0.399529
O O15 0.163832 0.758072 0.500000
O O16 0.103461 0.000000 0.500000
O O17 0.218928 0.500000 0.500000
O O18 0.500000 0.500000 0.340344
O O19 0.448610 0.500000 0.500000
O O20 0.884957 0.000000 0.885507
O O21 0.896629 0.735046 0.000000
#
# Coordination Sequence:
#
# PCOD9382676 Si02
#       8
#     8   8   8   8   4   4   4   8
#     4  10  19  31  50  74 105 144 184 224 269 318
#     4   9  16  25  39  60  84 110 143 189 241 292
#     4   9  18  32  48  68  97 130 165 206 253 310
#     4  11  20  32  49  70 102 135 170 215 261 310
#     4  10  19  30  44  62  86 114 151 191 232 297
#     4  10  22  33  47  69  96 129 161 206 255 298
#     4   9  18  32  50  72 107 149 187 231 270 306
#     4   8  14  25  40  58  83 114 146 188 241 297
#
# _framework density 17.698967
#
# number of rings (size 3 to 8) (size 9 to 14) (size 15 to 20)
#    0.000    2.538    1.538    2.538    0.000    4.308 
#    0.000    3.077    0.000    0.923    0.000    0.000 
#    0.000    1.231    0.000   16.462    0.000   10.923 
#
# Total GULP energy -290177.408445 kJ/mol
# GULP energy per Si atom -5580.334778 kJ/mol
# Density = 1.765868 g / cm^3
# Si number density = 17.698967 Si / 1000 Ang^3
#
#
#
# Elastic Constant Matrix: (Units=GPa)
#
#
# Indices 1 2 3 4 5 6 
#
# 1 144.6769 31.1859 71.5050 0.0000 0.0000 0.0000
# 2 31.1859 46.6131 19.1077 0.0000 0.0000 0.0000
# 3 71.5050 19.1077 93.0167 0.0000 0.0000 0.0000
# 4 0.0000 0.0000 0.0000 11.0398 0.0000 0.0000
# 5 0.0000 0.0000 0.0000 0.0000 3.2521 0.0000
# 6 0.0000 0.0000 0.0000 0.0000 0.0000 17.6681
#
#
#
# Elastic Compliance Matrix: (Units=1/GPa)
#
#
# Indices 1 2 3 4 5 6 
#
# 1 0.012000 -0.004638 -0.008272 0.000000 0.000000 0.000000
# 2 -0.004638 0.025218 -0.001615 0.000000 0.000000 0.000000
# 3 -0.008272 -0.001615 0.017442 0.000000 0.000000 0.000000
# 4 0.000000 0.000000 0.000000 0.090581 0.000000 0.000000
# 5 0.000000 0.000000 0.000000 0.000000 0.307491 0.000000
# 6 0.000000 0.000000 0.000000 0.000000 0.000000 0.056599
#
#
# Mechanical properties :
#
#
# Convention : Reuss Voigt Hill
#
# Bulk Modulus (GPa) = 39.04775 58.65600 48.85187
# Shear Modulus (GPa) = 9.14215 17.22588 13.18402
#
# Velocity S-wave (km/s) = 2.27521 3.12311 2.73225
# Velocity P-wave (km/s) = 5.38629 6.79838 6.13311
#
# Compressibility (1/GPa) = 0.02560967
#
# Stress axis : x y z
#
# Youngs Moduli (GPa) = 83.33320 39.65421 57.33401
#
# Poissons Ratio (x) = 0.18390 0.47428
# Poissons Ratio (y) = 0.38646 0.09261
# Poissons Ratio (z) = 0.68935 0.06405
#
# Static dielectric constant tensor:
#      x y z
#    x 1.567800 0.000000 0.000000 
#    y 0.000000 1.661820 0.000000 
#    z 0.000000 0.000000 1.589480 
# 
# From -- ./inp_files/19850.got.cif
#   From: 2010.05.17/outbox.cif.g08.bks.cpg/sg47_10_cif.got.tgz:19850.got - 2010.06.03 20:15:42.
