data_PCOD9382759
_publ_section_title
;
Structure prediction by ZEFSAII (Michael W. Deem and Ramdas Pophale) SiO2 
 PCOD9382759
Probable space group: P M M M
;
_chemical_formula_sum "Si O2"
_cell_formula_units_Z 60
_cell_length_a 22.136941
_cell_length_b 18.811660
_cell_length_c 9.031124
_cell_angle_alpha 90.000000
_cell_angle_beta 90.000000
_cell_angle_gamma 90.000000
_cell_volume 3760.854516
_symmetry_space_group_name_H-M "P M M M"
_symmetry_group_IT_number 47
_symmetry_cell_setting 'orthorhombic'
loop_
_space_group_symop_operation_xyz
x,y,z
-x,-y,z
x,-y,-z
-x,y,-z
-x,-y,-z
x,y,-z
-x,y,z
x,-y,z
loop_
_atom_site_type_symbol
_atom_site_label
_atom_site_fract_x
_atom_site_fract_y
_atom_site_fract_z
Si Si1 0.569311 0.198474 0.176245
Si Si2 0.804645 0.225550 0.676895
Si Si3 0.776457 0.918160 0.177573
Si Si4 0.929616 0.500000 0.819745
Si Si5 0.354258 0.082466 0.670232
Si Si6 0.714804 0.417022 0.832194
Si Si7 0.329270 0.287877 0.327325
Si Si8 0.852249 0.635289 0.826374
O O1 0.500000 0.214056 0.215396
O O2 0.593497 0.127974 0.256122
O O3 0.616591 0.256858 0.231780
O O4 0.573377 0.190296 0.000000
O O5 0.811663 0.221229 0.500000
O O6 0.812481 0.147874 0.750450
O O7 0.734916 0.249580 0.708003
O O8 0.845865 0.289523 0.741705
O O9 0.708155 0.910737 0.239546
O O10 0.795712 0.000000 0.214268
O O11 0.776612 0.911282 0.000000
O O12 0.897542 0.573577 0.770573
O O13 0.000000 0.500000 0.781386
O O14 0.923816 0.500000 0.000000
O O15 0.343324 0.105113 0.500000
O O16 0.370631 0.000000 0.669939
O O17 0.704425 0.500000 0.814547
O O18 0.680928 0.369399 0.714149
O O19 0.786028 0.400654 0.818976
O O20 0.697312 0.395617 0.000000
O O21 0.341412 0.277974 0.500000
O O22 0.865482 0.649665 0.000000
#
# Coordination Sequence:
#
# PCOD9382759 Si02
#       8
#     8   8   8   4   8   8   8   8
#     4  11  23  36  50  66  85 113 151 193 236 288
#     4  10  19  30  46  69  96 127 162 202 245 290
#     4  10  19  30  47  70  95 125 158 195 244 298
#     4   9  16  28  49  77 109 145 184 217 242 273
#     4  10  20  33  48  66  89 117 150 188 232 284
#     4   9  16  28  48  71  95 122 153 191 233 281
#     4  10  20  32  47  68  91 117 148 188 241 291
#     4   9  16  28  46  70 100 134 171 207 240 276
#
# _framework density 15.953821
#
# number of rings (size 3 to 8) (size 9 to 14) (size 15 to 20)
#    0.000    2.200    2.000    2.000    0.000    4.267 
#    0.000    1.667    0.000    1.200    0.000    2.800 
#    0.000    0.533    0.000    6.133    0.000    1.733 
#
# Total GULP energy -334396.599490 kJ/mol
# GULP energy per Si atom -5573.276658 kJ/mol
# Density = 1.591751 g / cm^3
# Si number density = 15.953821 Si / 1000 Ang^3
#
#
#
# Elastic Constant Matrix: (Units=GPa)
#
#
# Indices 1 2 3 4 5 6 
#
# 1 51.3910 44.0591 28.6937 0.0000 0.0000 0.0000
# 2 44.0591 117.0122 53.5500 0.0000 0.0000 0.0000
# 3 28.6937 53.5500 55.6492 0.0000 0.0000 0.0000
# 4 0.0000 0.0000 0.0000 20.7093 0.0000 0.0000
# 5 0.0000 0.0000 0.0000 0.0000 8.3065 0.0000
# 6 0.0000 0.0000 0.0000 0.0000 0.0000 15.1692
#
#
#
# Elastic Compliance Matrix: (Units=1/GPa)
#
#
# Indices 1 2 3 4 5 6 
#
# 1 0.030803 -0.007737 -0.008437 0.000000 0.000000 0.000000
# 2 -0.007737 0.017215 -0.012576 0.000000 0.000000 0.000000
# 3 -0.008437 -0.012576 0.034422 0.000000 0.000000 0.000000
# 4 0.000000 0.000000 0.000000 0.048288 0.000000 0.000000
# 5 0.000000 0.000000 0.000000 0.000000 0.120388 0.000000
# 6 0.000000 0.000000 0.000000 0.000000 0.000000 0.065923
#
#
# Mechanical properties :
#
#
# Convention : Reuss Voigt Hill
#
# Bulk Modulus (GPa) = 40.09849 52.96199 46.53024
# Shear Modulus (GPa) = 13.05992 15.35364 14.20678
#
# Velocity S-wave (km/s) = 2.86424 3.10559 2.98735
# Velocity P-wave (km/s) = 6.01058 6.79181 6.41311
#
# Compressibility (1/GPa) = 0.02493859
#
# Stress axis : x y z
#
# Youngs Moduli (GPa) = 32.46465 58.09001 29.05144
#
# Poissons Ratio (x) = 0.44944 0.24512
# Poissons Ratio (y) = 0.25118 0.36535
# Poissons Ratio (z) = 0.27391 0.73054
#
# Static dielectric constant tensor:
#      x y z
#    x 1.501370 0.000000 0.000000 
#    y 0.000000 1.564540 0.000000 
#    z 0.000000 0.000000 1.539860 
# 
# From -- ./inp_files/11624.got.cif
#   From: 2010.05.17/outbox.cif.g08.bks.cpg/sg47_6_cif.got.tgz:11624.got - 2010.06.03 20:15:42.
