data_PCOD9382651
_publ_section_title
;
Structure prediction by ZEFSAII (Michael W. Deem and Ramdas Pophale) SiO2 
 PCOD9382651
Probable space group: P M M M
;
_chemical_formula_sum "Si O2"
_cell_formula_units_Z 64
_cell_length_a 20.708571
_cell_length_b 21.005453
_cell_length_c 7.360975
_cell_angle_alpha 90.000000
_cell_angle_beta 90.000000
_cell_angle_gamma 90.000000
_cell_volume 3201.971971
_symmetry_space_group_name_H-M "P M M M"
_symmetry_group_IT_number 47
_symmetry_cell_setting 'orthorhombic'
loop_
_space_group_symop_operation_xyz
x,y,z
-x,-y,z
x,-y,-z
-x,y,-z
-x,-y,-z
x,y,-z
-x,y,z
x,-y,z
loop_
_atom_site_type_symbol
_atom_site_label
_atom_site_fract_x
_atom_site_fract_y
_atom_site_fract_z
Si Si1 0.293561 0.754246 0.787217
Si Si2 0.072973 0.926774 0.221208
Si Si3 0.928429 0.705629 0.221413
Si Si4 0.429512 0.709264 0.777575
Si Si5 0.398606 0.568486 0.789372
Si Si6 0.112622 0.430932 0.210147
Si Si7 0.743964 0.609370 0.283357
Si Si8 0.167766 0.183747 0.777472
O O1 0.366109 0.746812 0.713062
O O2 0.262825 0.683368 0.772032
O O3 0.240880 0.803724 0.714405
O O4 0.300757 0.768641 0.000000
O O5 0.128736 0.878690 0.280737
O O6 0.000000 0.907586 0.276199
O O7 0.083258 0.000000 0.276306
O O8 0.073026 0.925700 0.000000
O O9 0.916231 0.633984 0.288177
O O10 0.874618 0.755368 0.279706
O O11 0.000000 0.727237 0.271122
O O12 0.925199 0.703981 0.000000
O O13 0.500000 0.734243 0.727010
O O14 0.423453 0.635659 0.714782
O O15 0.426276 0.707679 0.000000
O O16 0.417259 0.500000 0.709652
O O17 0.320911 0.575087 0.782236
O O18 0.418558 0.567521 0.000000
O O19 0.096874 0.500000 0.290416
O O20 0.189904 0.420686 0.214310
O O21 0.091760 0.432784 0.000000
O O22 0.744902 0.605901 0.500000
O O23 0.168856 0.183344 0.000000
#
# Coordination Sequence:
#
# PCOD9382651 Si02
#       8
#     8   8   8   8   8   8   8   8
#     4   9  16  28  45  62  81 104 134 169 205 241
#     4   8  13  20  31  54  91 125 143 160 197 246
#     4   9  16  25  39  59  78  97 128 169 207 242
#     4   8  14  24  39  59  80 100 126 166 211 249
#     4   9  17  28  42  58  76  99 128 163 206 256
#     4  10  19  30  43  57  76 101 131 171 216 255
#     4  11  20  29  42  59  79 102 132 170 212 254
#     4   9  14  22  39  59  81 109 139 168 198 237
#
# _framework density 19.987684000000002
#
# number of rings (size 3 to 8) (size 9 to 14) (size 15 to 20)
#    0.000    2.875    1.250    3.000    0.000    4.000 
#    0.000    2.500    0.000    6.375    0.000    4.375 
#    0.000    1.000    0.000    8.375    0.000    1.250 
#
# Total GULP energy -357119.088989 kJ/mol
# GULP energy per Si atom -5579.985765 kJ/mol
# Density = 1.994219 g / cm^3
# Si number density = 19.987684 Si / 1000 Ang^3
#
#
#
# Elastic Constant Matrix: (Units=GPa)
#
#
# Indices 1 2 3 4 5 6 
#
# 1 147.3988 73.2507 6.6190 0.0000 0.0000 0.0000
# 2 73.2507 93.3983 -0.9406 0.0000 0.0000 0.0000
# 3 6.6190 -0.9406 75.6359 0.0000 0.0000 0.0000
# 4 0.0000 0.0000 0.0000 -81.1544 0.0000 0.0000
# 5 0.0000 0.0000 0.0000 0.0000 -53.0881 0.0000
# 6 0.0000 0.0000 0.0000 0.0000 0.0000 18.0846
#
#
#
# Elastic Compliance Matrix: (Units=1/GPa)
#
#
# Indices 1 2 3 4 5 6 
#
# 1 0.011206 -0.008800 -0.001090 0.000000 0.000000 0.000000
# 2 -0.008800 0.017619 0.000989 0.000000 0.000000 0.000000
# 3 -0.001090 0.000989 0.013329 0.000000 0.000000 0.000000
# 4 0.000000 0.000000 0.000000 -0.012322 0.000000 0.000000
# 5 0.000000 0.000000 0.000000 0.000000 -0.018837 0.000000
# 6 0.000000 0.000000 0.000000 0.000000 0.000000 0.055296
#
#
# Mechanical properties :
#
#
# Convention : Reuss Voigt Hill
#
# Bulk Modulus (GPa) = 41.06435 52.69900 46.88168
# Shear Modulus (GPa) = 54.22409 -7.39796 23.41306
#
# Velocity S-wave (km/s) = 5.21418 -1.92595 3.42625
# Velocity P-wave (km/s) = 7.53921 4.63436 6.25767
#
# Compressibility (1/GPa) = 0.02435202
#
# Stress axis : x y z
#
# Youngs Moduli (GPa) = 89.23398 56.75850 75.02476
#
# Poissons Ratio (x) = 0.49948 0.08179
# Poissons Ratio (y) = 0.78526 -0.07422
# Poissons Ratio (z) = 0.09728 -0.05615
#
# Static dielectric constant tensor:
#      x y z
#    x 1.723980 0.000000 0.000000 
#    y 0.000000 1.683720 0.000000 
#    z 0.000000 0.000000 1.748830 
# 
# From -- ./inp_files/11849.got.cif
#   From: 2010.05.17/outbox.cif.g08.bks.cpg/sg47_6_cif.got.tgz:11849.got - 2010.06.03 20:15:42.
