data_PCOD9382825
_publ_section_title
;
Structure prediction by ZEFSAII (Michael W. Deem and Ramdas Pophale) SiO2 
 PCOD9382825
Probable space group: P M M M
;
_chemical_formula_sum "Si O2"
_cell_formula_units_Z 44
_cell_length_a 17.198928
_cell_length_b 16.358145
_cell_length_c 7.533069
_cell_angle_alpha 90.000000
_cell_angle_beta 90.000000
_cell_angle_gamma 90.000000
_cell_volume 2119.372903
_symmetry_space_group_name_H-M "P M M M"
_symmetry_group_IT_number 47
_symmetry_cell_setting 'orthorhombic'
loop_
_space_group_symop_operation_xyz
x,y,z
-x,-y,z
x,-y,-z
-x,y,-z
-x,-y,-z
x,y,-z
-x,y,z
x,-y,z
loop_
_atom_site_type_symbol
_atom_site_label
_atom_site_fract_x
_atom_site_fract_y
_atom_site_fract_z
Si Si1 0.670151 0.589667 0.282659
Si Si2 0.500000 0.645353 0.715756
Si Si3 0.500000 0.834782 0.284011
Si Si4 0.755065 0.751737 0.294483
Si Si5 0.911914 0.318296 0.793585
Si Si6 0.907070 0.500000 0.291468
Si Si7 0.334928 0.091698 0.717274
O O1 0.674537 0.589250 0.500000
O O2 0.698343 0.500000 0.224645
O O3 0.579968 0.602121 0.231934
O O4 0.716157 0.669517 0.217620
O O5 0.500000 0.645772 0.500000
O O6 0.500000 0.740143 0.773457
O O7 0.500000 0.833346 0.500000
O O8 0.421630 0.880602 0.229957
O O9 0.730232 0.751994 0.500000
O O10 0.847279 0.739910 0.287527
O O11 0.722999 0.836725 0.220830
O O12 0.881939 0.411953 0.777263
O O13 0.000000 0.314479 0.718711
O O14 0.916549 0.298888 0.000000
O O15 0.891193 0.500000 0.500000
O O16 0.000000 0.500000 0.258248
O O17 0.333326 0.089476 0.500000
O O18 0.317282 0.000000 0.778011
#
# Coordination Sequence:
#
# PCOD9382825 Si02
#       7
#     8   4   4   8   8   4   8
#     4   9  16  24  36  59  93 131 166 201 240 282
#     4   9  13  21  35  54  91 134 166 196 236 286
#     4   9  13  21  37  60  95 134 164 196 247 306
#     4  10  19  30  47  72  99 127 165 212 255 301
#     4  10  21  36  52  71  99 134 169 204 246 298
#     4   9  17  31  53  79 103 128 161 200 241 287
#     4   9  16  26  42  67  99 131 163 206 260 308
#
# _framework density 20.760857000000001
#
# number of rings (size 3 to 8) (size 9 to 14) (size 15 to 20)
#    0.000    2.636    1.818    1.364    1.273    4.364 
#    0.000    0.000    0.000    1.091    0.000    6.364 
#    0.000    2.909    0.000    0.000    0.000    0.000 
#
# Total GULP energy -245561.760539 kJ/mol
# GULP energy per Si atom -5580.949103 kJ/mol
# Density = 2.071360 g / cm^3
# Si number density = 20.760857 Si / 1000 Ang^3
#
#
#
# Elastic Constant Matrix: (Units=GPa)
#
#
# Indices 1 2 3 4 5 6 
#
# 1 109.3346 85.2866 -6.3316 0.0000 0.0000 0.0000
# 2 85.2866 200.9962 5.5527 0.0000 0.0000 0.0000
# 3 -6.3316 5.5527 48.1500 0.0000 0.0000 0.0000
# 4 0.0000 0.0000 0.0000 -21.9663 0.0000 0.0000
# 5 0.0000 0.0000 0.0000 0.0000 -94.5010 0.0000
# 6 0.0000 0.0000 0.0000 0.0000 0.0000 12.2747
#
#
#
# Elastic Compliance Matrix: (Units=1/GPa)
#
#
# Indices 1 2 3 4 5 6 
#
# 1 0.013972 -0.005998 0.002529 0.000000 0.000000 0.000000
# 2 -0.005998 0.007566 -0.001661 0.000000 0.000000 0.000000
# 3 0.002529 -0.001661 0.021293 0.000000 0.000000 0.000000
# 4 0.000000 0.000000 0.000000 -0.045524 0.000000 0.000000
# 5 0.000000 0.000000 0.000000 0.000000 -0.010582 0.000000
# 6 0.000000 0.000000 0.000000 0.000000 0.000000 0.081468
#
#
# Mechanical properties :
#
#
# Convention : Reuss Voigt Hill
#
# Bulk Modulus (GPa) = 30.70381 58.61068 44.65724
# Shear Modulus (GPa) = 55.98459 -2.57364 26.70547
#
# Velocity S-wave (km/s) = 5.19855 -1.11461 3.59045
# Velocity P-wave (km/s) = 7.13125 5.16102 6.22458
#
# Compressibility (1/GPa) = 0.03256925
#
# Stress axis : x y z
#
# Youngs Moduli (GPa) = 71.57329 132.16466 46.96475
#
# Poissons Ratio (x) = 0.79277 -0.11877
# Poissons Ratio (y) = 0.42932 0.07802
# Poissons Ratio (z) = -0.18101 0.21957
#
# Static dielectric constant tensor:
#      x y z
#    x 1.752030 0.000000 0.000000 
#    y 0.000000 1.736140 0.000000 
#    z 0.000000 0.000000 1.794320 
# 
# From -- ./inp_files/9081.got.cif
#   From: 2010.05.17/outbox.cif.g08.bks.cpg/sg47_5_cif.got.tgz:9081.got - 2010.06.03 20:15:42.
