data_PCOD9382364
_publ_section_title
;
Structure prediction by ZEFSAII (Michael W. Deem and Ramdas Pophale) SiO2 
 PCOD9382364
Probable space group: P M M M
;
_chemical_formula_sum "Si O2"
_cell_formula_units_Z 64
_cell_length_a 16.071442
_cell_length_b 24.594266
_cell_length_c 7.900920
_cell_angle_alpha 90.000000
_cell_angle_beta 90.000000
_cell_angle_gamma 90.000000
_cell_volume 3122.959669
_symmetry_space_group_name_H-M "P M M M"
_symmetry_group_IT_number 47
_symmetry_cell_setting 'orthorhombic'
loop_
_space_group_symop_operation_xyz
x,y,z
-x,-y,z
x,-y,-z
-x,y,-z
-x,-y,-z
x,y,-z
-x,y,z
x,-y,z
loop_
_atom_site_type_symbol
_atom_site_label
_atom_site_fract_x
_atom_site_fract_y
_atom_site_fract_z
Si Si1 0.151613 0.749537 0.204740
Si Si2 0.749060 0.061288 0.701334
Si Si3 0.407971 0.368677 0.795554
Si Si4 0.091247 0.631449 0.702476
Si Si5 0.091766 0.132589 0.204014
Si Si6 0.655083 0.748535 0.206643
Si Si7 0.591869 0.865532 0.203904
Si Si8 0.247542 0.561845 0.703749
O O1 0.107392 0.694983 0.264559
O O2 0.111134 0.805955 0.263448
O O3 0.248253 0.748231 0.257477
O O4 0.149555 0.749373 0.000000
O O5 0.748432 0.057878 0.500000
O O6 0.832298 0.093591 0.750431
O O7 0.667192 0.094750 0.752137
O O8 0.748498 0.000000 0.772287
O O9 0.500000 0.385348 0.736958
O O10 0.387980 0.307153 0.737405
O O11 0.333347 0.407853 0.743954
O O12 0.408902 0.367518 0.000000
O O13 0.089763 0.623643 0.500000
O O14 0.169087 0.596752 0.769772
O O15 0.000000 0.615987 0.769545
O O16 0.000000 0.115240 0.263889
O O17 0.089680 0.134628 0.000000
O O18 0.612701 0.804355 0.264119
O O19 0.652946 0.748824 0.000000
O O20 0.500000 0.882428 0.264359
O O21 0.589259 0.863183 0.000000
O O22 0.240710 0.560049 0.500000
O O23 0.246730 0.500000 0.767224
#
# Coordination Sequence:
#
# PCOD9382364 Si02
#       8
#     8   8   8   8   8   8   8   8
#     4  10  18  33  59  86 114 146 177 217 274 335
#     4  11  25  42  58  79 113 155 193 232 279 331
#     4  10  20  35  57  84 112 142 177 219 270 328
#     4  10  21  36  55  81 111 143 182 227 274 326
#     4  10  21  38  61  88 115 145 185 232 280 332
#     4   9  16  31  57  86 114 142 173 217 274 330
#     4  10  20  37  63  90 114 144 186 233 278 330
#     4  10  22  39  56  75 104 144 188 232 275 319
#
# _framework density 20.493379000000001
#
# number of rings (size 3 to 8) (size 9 to 14) (size 15 to 20)
#    0.000    2.000    2.500    1.125    0.000    5.750 
#    0.000    5.625    0.000    1.500    0.000    1.750 
#    0.000    0.000    0.000    0.000    0.000    0.000 
#
# Total GULP energy -357453.250895 kJ/mol
# GULP energy per Si atom -5585.207045 kJ/mol
# Density = 2.044674 g / cm^3
# Si number density = 20.493379 Si / 1000 Ang^3
#
#
#
# Elastic Constant Matrix: (Units=GPa)
#
#
# Indices 1 2 3 4 5 6 
#
# 1 223.4328 106.2792 13.4967 0.0000 0.0000 0.0000
# 2 106.2792 171.1225 7.2393 0.0000 0.0000 0.0000
# 3 13.4967 7.2393 20.7120 0.0000 0.0000 0.0000
# 4 0.0000 0.0000 0.0000 22.1882 0.0000 0.0000
# 5 0.0000 0.0000 0.0000 0.0000 12.5308 0.0000
# 6 0.0000 0.0000 0.0000 0.0000 0.0000 -4.7798
#
#
#
# Elastic Compliance Matrix: (Units=1/GPa)
#
#
# Indices 1 2 3 4 5 6 
#
# 1 0.006517 -0.003926 -0.002874 0.000000 0.000000 0.000000
# 2 -0.003926 0.008296 -0.000342 0.000000 0.000000 0.000000
# 3 -0.002874 -0.000342 0.050273 0.000000 0.000000 0.000000
# 4 0.000000 0.000000 0.000000 0.045069 0.000000 0.000000
# 5 0.000000 0.000000 0.000000 0.000000 0.079803 0.000000
# 6 0.000000 0.000000 0.000000 0.000000 0.000000 -0.209216
#
#
# Mechanical properties :
#
#
# Convention : Reuss Voigt Hill
#
# Bulk Modulus (GPa) = 19.68382 74.36641 47.02512
# Shear Modulus (GPa) = 418.03716 25.20465 221.62091
#
# Velocity S-wave (km/s) = 14.29788 3.51079 10.41045
# Velocity P-wave (km/s) = 16.79876 7.26643 12.94216
#
# Compressibility (1/GPa) = 0.05080314
#
# Stress axis : x y z
#
# Youngs Moduli (GPa) = 153.45595 120.53545 19.89120
#
# Poissons Ratio (x) = 0.47318 0.05717
# Poissons Ratio (y) = 0.60241 0.00680
# Poissons Ratio (z) = 0.44108 0.04118
#
# Static dielectric constant tensor:
#      x y z
#    x 1.752920 0.000000 0.000000 
#    y 0.000000 1.706960 0.000000 
#    z 0.000000 0.000000 1.751720 
# 
# From -- ./inp_files/7795.got.cif
#   From: 2010.05.17/outbox.cif.g08.bks.cpg/sg47_4_cif.got.tgz:7795.got - 2010.06.03 20:15:42.
