data_PCOD9382743
_publ_section_title
;
Structure prediction by ZEFSAII (Michael W. Deem and Ramdas Pophale) SiO2 
 PCOD9382743
Probable space group: P M M M
;
_chemical_formula_sum "Si O2"
_cell_formula_units_Z 64
_cell_length_a 7.642126
_cell_length_b 17.006020
_cell_length_c 23.107450
_cell_angle_alpha 90.000000
_cell_angle_beta 90.000000
_cell_angle_gamma 90.000000
_cell_volume 3003.093828
_symmetry_space_group_name_H-M "P M M M"
_symmetry_group_IT_number 47
_symmetry_cell_setting 'orthorhombic'
loop_
_space_group_symop_operation_xyz
x,y,z
-x,-y,z
x,-y,-z
-x,y,-z
-x,-y,-z
x,y,-z
-x,y,z
x,-y,z
loop_
_atom_site_type_symbol
_atom_site_label
_atom_site_fract_x
_atom_site_fract_y
_atom_site_fract_z
Si Si1 0.289707 0.876942 0.775624
Si Si2 0.296985 0.410623 0.282855
Si Si3 0.789955 0.746279 0.937343
Si Si4 0.290416 0.295866 0.812377
Si Si5 0.207557 0.087577 0.356810
Si Si6 0.200519 0.411480 0.586708
Si Si7 0.788086 0.765564 0.565567
Si Si8 0.794262 0.917569 0.903542
O O1 0.500000 0.882380 0.776759
O O2 0.232111 0.787502 0.786887
O O3 0.231548 0.904241 0.712463
O O4 0.222144 0.917465 0.833872
O O5 0.500000 0.387385 0.294671
O O6 0.298518 0.500000 0.263481
O O7 0.220481 0.359876 0.231488
O O8 0.202143 0.406449 0.343819
O O9 0.750823 0.697619 0.879852
O O10 0.720355 0.835054 0.926004
O O11 0.000000 0.751289 0.939463
O O12 0.727718 0.717792 0.000000
O O13 0.500000 0.297493 0.808884
O O14 0.275306 0.166658 0.389609
O O15 0.000000 0.086252 0.368787
O O16 0.276732 0.000000 0.373604
O O17 0.275503 0.500000 0.572564
O O18 0.277112 0.325676 0.569669
O O19 0.000000 0.413062 0.565918
O O20 0.754131 0.792745 0.500000
O O21 0.000000 0.759624 0.573542
O O22 0.000000 0.916984 0.918368
O O23 0.718505 0.000000 0.925268
#
# Coordination Sequence:
#
# PCOD9382743 Si02
#       8
#     8   8   8   8   8   8   8   8
#     4  10  19  30  46  68  93 119 148 185 231 280
#     4   9  17  30  49  72  97 122 147 179 222 272
#     4   9  18  31  46  65  88 117 154 190 224 264
#     4   9  18  31  47  68  92 119 151 186 225 270
#     4  10  20  32  47  67  90 119 157 198 235 271
#     4   9  17  29  48  75 101 122 147 182 227 280
#     4   9  18  32  49  69  93 122 157 195 231 268
#     4   9  17  29  45  65  90 118 147 183 226 270
#
# _framework density 21.311354999999999
#
# number of rings (size 3 to 8) (size 9 to 14) (size 15 to 20)
#    0.000    2.750    0.000    1.500    0.000    4.000 
#    0.000    3.750    0.000    1.875    0.000    8.750 
#    0.000    0.000    0.000    0.000    0.000    0.000 
#
# Total GULP energy -356571.676974 kJ/mol
# GULP energy per Si atom -5571.432453 kJ/mol
# Density = 2.126285 g / cm^3
# Si number density = 21.311355 Si / 1000 Ang^3
#
#
#
# Elastic Constant Matrix: (Units=GPa)
#
#
# Indices 1 2 3 4 5 6 
#
# 1 41.7108 12.3647 -3.9038 0.0000 0.0000 0.0000
# 2 12.3647 78.7346 62.9485 0.0000 0.0000 0.0000
# 3 -3.9038 62.9485 109.7392 0.0000 0.0000 0.0000
# 4 0.0000 0.0000 0.0000 1.8189 0.0000 0.0000
# 5 0.0000 0.0000 0.0000 0.0000 12.4041 0.0000
# 6 0.0000 0.0000 0.0000 0.0000 0.0000 2.0907
#
#
#
# Elastic Compliance Matrix: (Units=1/GPa)
#
#
# Indices 1 2 3 4 5 6 
#
# 1 0.027346 -0.009369 0.006347 0.000000 0.000000 0.000000
# 2 -0.009369 0.026670 -0.015631 0.000000 0.000000 0.000000
# 3 0.006347 -0.015631 0.018305 0.000000 0.000000 0.000000
# 4 0.000000 0.000000 0.000000 0.549792 0.000000 0.000000
# 5 0.000000 0.000000 0.000000 0.000000 0.080618 0.000000
# 6 0.000000 0.000000 0.000000 0.000000 0.000000 0.478314
#
#
# Mechanical properties :
#
#
# Convention : Reuss Voigt Hill
#
# Bulk Modulus (GPa) = 28.56041 41.44483 35.00262
# Shear Modulus (GPa) = 4.06497 13.84776 8.95636
#
# Velocity S-wave (km/s) = 1.38259 2.55185 2.05225
# Velocity P-wave (km/s) = 3.99742 5.30774 4.69848
#
# Compressibility (1/GPa) = 0.03501350
#
# Stress axis : x y z
#
# Youngs Moduli (GPa) = 36.56856 37.49588 54.63049
#
# Poissons Ratio (x) = 0.35129 -0.34674
# Poissons Ratio (y) = 0.34261 0.85395
# Poissons Ratio (z) = -0.23210 0.58612
#
# Static dielectric constant tensor:
#      x y z
#    x 1.810300 0.000000 0.000000 
#    y 0.000000 1.818690 0.000000 
#    z 0.000000 0.000000 1.758570 
# 
# From -- ./inp_files/29985.got.cif
#   From: 2010.05.17/outbox.cif.g08.bks.cpg/sg47_15_cif.got.tgz:29985.got - 2010.06.03 20:15:42.
