data_PCOD9382908
_publ_section_title
;
Structure prediction by ZEFSAII (Michael W. Deem and Ramdas Pophale) SiO2 
 PCOD9382908
Probable space group: P M M M
;
_chemical_formula_sum "Si O2"
_cell_formula_units_Z 60
_cell_length_a 9.106990
_cell_length_b 18.853309
_cell_length_c 20.795280
_cell_angle_alpha 90.000000
_cell_angle_beta 90.000000
_cell_angle_gamma 90.000000
_cell_volume 3570.485038
_symmetry_space_group_name_H-M "P M M M"
_symmetry_group_IT_number 47
_symmetry_cell_setting 'orthorhombic'
loop_
_space_group_symop_operation_xyz
x,y,z
-x,-y,z
x,-y,-z
-x,y,-z
-x,-y,-z
x,y,-z
-x,y,z
x,-y,z
loop_
_atom_site_type_symbol
_atom_site_label
_atom_site_fract_x
_atom_site_fract_y
_atom_site_fract_z
Si Si1 0.675828 0.352214 0.364645
Si Si2 0.824121 0.916595 0.425968
Si Si3 0.321348 0.418068 0.500000
Si Si4 0.325323 0.811007 0.673273
Si Si5 0.676665 0.424028 0.109206
Si Si6 0.167766 0.388459 0.238581
Si Si7 0.167966 0.222241 0.198784
Si Si8 0.677025 0.733935 0.071813
O O1 0.500000 0.362722 0.358350
O O2 0.723817 0.378570 0.434739
O O3 0.704408 0.268524 0.353846
O O4 0.757129 0.394149 0.307832
O O5 0.784680 0.899041 0.500000
O O6 0.741876 0.867477 0.375592
O O7 0.000000 0.907414 0.419610
O O8 0.792282 0.000000 0.416032
O O9 0.273907 0.500000 0.500000
O O10 0.500000 0.417706 0.500000
O O11 0.500000 0.818752 0.678237
O O12 0.253501 0.816656 0.743895
O O13 0.500000 0.422889 0.109738
O O14 0.722456 0.500000 0.079981
O O15 0.737836 0.421778 0.181564
O O16 0.722031 0.349510 0.077474
O O17 0.166020 0.304627 0.221236
O O18 0.000000 0.413556 0.238544
O O19 0.247925 0.223983 0.129950
O O20 0.000000 0.197888 0.193582
O O21 0.500000 0.736633 0.079438
O O22 0.714066 0.758898 0.000000
#
# Coordination Sequence:
#
# PCOD9382908 Si02
#       8
#     8   8   4   8   8   8   8   8
#     4   9  18  31  47  66  87 112 149 196 243 293
#     4   9  19  35  52  73 106 144 175 202 236 284
#     4   9  18  32  47  61  80 109 146 190 241 297
#     4  10  19  30  50  75 100 128 162 208 250 286
#     4   9  17  28  42  60  82 111 148 185 228 291
#     4   9  17  29  44  61  81 105 138 184 235 280
#     4   9  17  30  47  66  91 121 157 195 234 286
#     4   9  17  29  45  65  91 120 151 195 249 296
#
# _framework density 16.804441000000001
#
# number of rings (size 3 to 8) (size 9 to 14) (size 15 to 20)
#    0.000    2.867    0.000    1.600    0.933    5.600 
#    0.000    3.667    0.000    0.400    0.000    3.733 
#    0.000    0.533    0.000    5.600    0.000    2.400 
#
# Total GULP energy -334347.108492 kJ/mol
# GULP energy per Si atom -5572.451808 kJ/mol
# Density = 1.676619 g / cm^3
# Si number density = 16.804441 Si / 1000 Ang^3
#
#
#
# Elastic Constant Matrix: (Units=GPa)
#
#
# Indices 1 2 3 4 5 6 
#
# 1 37.2429 30.1010 52.4131 0.0000 0.0000 0.0000
# 2 30.1010 42.8323 44.9742 0.0000 0.0000 0.0000
# 3 52.4131 44.9742 162.5948 0.0000 0.0000 0.0000
# 4 0.0000 0.0000 0.0000 -4.7595 0.0000 0.0000
# 5 0.0000 0.0000 0.0000 0.0000 19.9705 0.0000
# 6 0.0000 0.0000 0.0000 0.0000 0.0000 12.9419
#
#
#
# Elastic Compliance Matrix: (Units=1/GPa)
#
#
# Indices 1 2 3 4 5 6 
#
# 1 0.081060 -0.041616 -0.014619 0.000000 0.000000 0.000000
# 2 -0.041616 0.054269 -0.001596 0.000000 0.000000 0.000000
# 3 -0.014619 -0.001596 0.011304 0.000000 0.000000 0.000000
# 4 0.000000 0.000000 0.000000 -0.210107 0.000000 0.000000
# 5 0.000000 0.000000 0.000000 0.000000 0.050074 0.000000
# 6 0.000000 0.000000 0.000000 0.000000 0.000000 0.077268
#
#
# Mechanical properties :
#
#
# Convention : Reuss Voigt Hill
#
# Bulk Modulus (GPa) = 32.28799 55.29408 43.79103
# Shear Modulus (GPa) = 26.33607 13.30938 19.82272
#
# Velocity S-wave (km/s) = 3.96309 2.81733 3.43827
# Velocity P-wave (km/s) = 6.34012 6.59992 6.47133
#
# Compressibility (1/GPa) = 0.03097127
#
# Stress axis : x y z
#
# Youngs Moduli (GPa) = 12.33650 18.42675 88.46348
#
# Poissons Ratio (x) = 0.76685 1.29324
# Poissons Ratio (y) = 0.51340 0.14116
# Poissons Ratio (z) = 0.18035 0.02940
#
# Static dielectric constant tensor:
#      x y z
#    x 1.563960 0.000000 0.000000 
#    y 0.000000 1.565930 0.000000 
#    z 0.000000 0.000000 1.560680 
# 
# From -- ./inp_files/29973.got.cif
#   From: 2010.05.17/outbox.cif.g08.bks.cpg/sg47_15_cif.got.tgz:29973.got - 2010.06.03 20:15:42.
