data_PCOD9382604
_publ_section_title
;
Structure prediction by ZEFSAII (Michael W. Deem and Ramdas Pophale) SiO2 
 PCOD9382604
Probable space group: P M M M
;
_chemical_formula_sum "Si O2"
_cell_formula_units_Z 56
_cell_length_a 8.039256
_cell_length_b 19.120064
_cell_length_c 19.812969
_cell_angle_alpha 90.000000
_cell_angle_beta 90.000000
_cell_angle_gamma 90.000000
_cell_volume 3045.473046
_symmetry_space_group_name_H-M "P M M M"
_symmetry_group_IT_number 47
_symmetry_cell_setting 'orthorhombic'
loop_
_space_group_symop_operation_xyz
x,y,z
-x,-y,z
x,-y,-z
-x,y,-z
-x,-y,-z
x,y,-z
-x,y,z
x,-y,z
loop_
_atom_site_type_symbol
_atom_site_label
_atom_site_fract_x
_atom_site_fract_y
_atom_site_fract_z
Si Si1 0.702865 0.657887 0.925239
Si Si2 0.700193 0.421317 0.792437
Si Si3 0.696406 0.077689 0.648108
Si Si4 0.799241 0.708839 0.707741
Si Si5 0.700639 0.179466 0.925144
Si Si6 0.801910 0.782806 0.424820
Si Si7 0.197716 0.149974 0.780728
O O1 0.500000 0.657645 0.923940
O O2 0.762395 0.611154 0.863314
O O3 0.753933 0.739063 0.918053
O O4 0.753544 0.633574 0.000000
O O5 0.500000 0.424398 0.796920
O O6 0.762284 0.500000 0.781252
O O7 0.742964 0.365474 0.735054
O O8 0.500000 0.078425 0.634845
O O9 0.774972 0.139187 0.603761
O O10 0.724760 0.097386 0.726550
O O11 0.762038 0.000000 0.634122
O O12 0.737611 0.730825 0.633424
O O13 0.744753 0.771997 0.757660
O O14 0.000000 0.709466 0.707325
O O15 0.500000 0.178632 0.924499
O O16 0.761053 0.139488 0.858958
O O17 0.754806 0.155387 0.000000
O O18 0.731871 0.774649 0.500000
O O19 0.000000 0.771629 0.428493
O O20 0.000000 0.146989 0.771464
#
# Coordination Sequence:
#
# PCOD9382604 Si02
#       7
#     8   8   8   8   8   8   8
#     4   8  14  25  41  63  92 125 161 202 248 294
#     4  10  19  29  45  69  95 127 167 210 253 295
#     4  10  21  35  52  77 108 138 165 194 232 285
#     4   9  18  32  49  70  95 125 161 200 244 292
#     4   9  16  27  46  70  95 127 167 211 259 304
#     4   9  19  36  57  80 104 130 162 199 239 286
#     4  10  19  31  50  73  97 130 171 211 250 291
#
# _framework density 18.387947
#
# number of rings (size 3 to 8) (size 9 to 14) (size 15 to 20)
#    0.000    2.714    1.429    2.571    0.000    4.857 
#    0.000    2.857    0.000    1.286    0.000    7.000 
#    0.000    0.000    0.000    0.000    0.000    0.000 
#
# Total GULP energy -312168.168082 kJ/mol
# GULP energy per Si atom -5574.431573 kJ/mol
# Density = 1.834609 g / cm^3
# Si number density = 18.387947 Si / 1000 Ang^3
#
#
#
# Elastic Constant Matrix: (Units=GPa)
#
#
# Indices 1 2 3 4 5 6 
#
# 1 9.7168 -6.4274 -1.5330 0.0000 0.0000 0.0000
# 2 -6.4274 48.1706 33.1084 0.0000 0.0000 0.0000
# 3 -1.5330 33.1084 142.5514 0.0000 0.0000 0.0000
# 4 0.0000 0.0000 0.0000 12.6329 0.0000 0.0000
# 5 0.0000 0.0000 0.0000 0.0000 20.4843 0.0000
# 6 0.0000 0.0000 0.0000 0.0000 0.0000 7.0386
#
#
#
# Elastic Compliance Matrix: (Units=1/GPa)
#
#
# Indices 1 2 3 4 5 6 
#
# 1 0.113770 0.017063 -0.002740 0.000000 0.000000 0.000000
# 2 0.017063 0.027262 -0.006148 0.000000 0.000000 0.000000
# 3 -0.002740 -0.006148 0.008414 0.000000 0.000000 0.000000
# 4 0.000000 0.000000 0.000000 0.079158 0.000000 0.000000
# 5 0.000000 0.000000 0.000000 0.000000 0.048818 0.000000
# 6 0.000000 0.000000 0.000000 0.000000 0.000000 0.142074
#
#
# Mechanical properties :
#
#
# Convention : Reuss Voigt Hill
#
# Bulk Modulus (GPa) = 6.03150 27.85941 16.94545
# Shear Modulus (GPa) = 10.90726 19.71722 15.31224
#
# Velocity S-wave (km/s) = 2.43816 3.27814 2.88884
# Velocity P-wave (km/s) = 3.34864 5.43250 4.51251
#
# Compressibility (1/GPa) = 0.16579634
#
# Stress axis : x y z
#
# Youngs Moduli (GPa) = 8.78968 36.68096 118.85621
#
# Poissons Ratio (x) = -0.62590 0.32562
# Poissons Ratio (y) = -0.14998 0.73076
# Poissons Ratio (z) = 0.02408 0.22552
#
# Static dielectric constant tensor:
#      x y z
#    x 1.659280 0.000000 0.000000 
#    y 0.000000 1.620390 0.000000 
#    z 0.000000 0.000000 1.658930 
# 
# From -- ./inp_files/11493.got.cif
#   From: 2010.05.17/outbox.cif.g08.bks.cpg/sg47_6_cif.got.tgz:11493.got - 2010.06.03 20:15:42.
