data_PCOD9382454
_publ_section_title
;
Structure prediction by ZEFSAII (Michael W. Deem and Ramdas Pophale) SiO2 
 PCOD9382454
Probable space group: P M M M
;
_chemical_formula_sum "Si O2"
_cell_formula_units_Z 52
_cell_length_a 8.476762
_cell_length_b 27.633641
_cell_length_c 14.069286
_cell_angle_alpha 90.000000
_cell_angle_beta 90.000000
_cell_angle_gamma 90.000000
_cell_volume 3295.642987
_symmetry_space_group_name_H-M "P M M M"
_symmetry_group_IT_number 47
_symmetry_cell_setting 'orthorhombic'
loop_
_space_group_symop_operation_xyz
x,y,z
-x,-y,z
x,-y,-z
-x,y,-z
-x,-y,-z
x,y,-z
-x,y,z
x,-y,z
loop_
_atom_site_type_symbol
_atom_site_label
_atom_site_fract_x
_atom_site_fract_y
_atom_site_fract_z
Si Si1 0.188701 0.000000 0.109767
Si Si2 0.308028 0.803891 0.893997
Si Si3 0.188643 0.552049 0.614691
Si Si4 0.311078 0.902883 0.206813
Si Si5 0.689182 0.244770 0.702550
Si Si6 0.190956 0.342379 0.611368
Si Si7 0.189118 0.852550 0.392078
O O1 0.245908 0.952356 0.164661
O O2 0.000000 0.000000 0.107861
O O3 0.246432 0.000000 0.000000
O O4 0.500000 0.803375 0.896075
O O5 0.261052 0.857563 0.859523
O O6 0.259434 0.767532 0.810404
O O7 0.250830 0.793358 0.000000
O O8 0.206332 0.552532 0.500000
O O9 0.253303 0.500000 0.648973
O O10 0.247813 0.604644 0.647064
O O11 0.000000 0.551476 0.632620
O O12 0.500000 0.904629 0.206490
O O13 0.255168 0.889022 0.312685
O O14 0.500000 0.242007 0.698255
O O15 0.744991 0.296775 0.667854
O O16 0.756188 0.201322 0.637854
O O17 0.234915 0.337442 0.500000
O O18 0.000000 0.342201 0.615206
O O19 0.240812 0.863038 0.500000
O O20 0.000000 0.854087 0.388866
#
# Coordination Sequence:
#
# PCOD9382454 Si02
#       7
#     4   8   8   8   8   8   8
#     4  11  23  37  54  77 104 129 153 186 226 267
#     4   8  15  29  47  65  85 110 141 176 215 259
#     4   7  10  18  33  52  73 101 141 182 213 248
#     4  10  20  34  54  77  97 119 150 188 227 269
#     4  10  19  28  42  65  89 115 148 184 219 259
#     4   9  16  25  38  57  83 115 146 177 216 258
#     4  10  20  34  51  69  93 125 155 184 221 265
#
# _framework density 15.778408000000001
#
# number of rings (size 3 to 8) (size 9 to 14) (size 15 to 20)
#    0.000    2.846    0.000    4.846    0.000    4.615 
#    0.000    0.385    0.000   12.000    0.000    2.154 
#    0.000    0.615    0.000    7.692    0.000    0.308 
#
# Total GULP energy -289625.002692 kJ/mol
# GULP energy per Si atom -5569.711590 kJ/mol
# Density = 1.574250 g / cm^3
# Si number density = 15.778408 Si / 1000 Ang^3
#
#
#
# Elastic Constant Matrix: (Units=GPa)
#
#
# Indices 1 2 3 4 5 6 
#
# 1 24.7174 25.7420 22.1570 0.0000 0.0000 0.0000
# 2 25.7420 157.6856 71.5027 0.0000 0.0000 0.0000
# 3 22.1570 71.5027 111.1401 0.0000 0.0000 0.0000
# 4 0.0000 0.0000 0.0000 12.5638 0.0000 0.0000
# 5 0.0000 0.0000 0.0000 0.0000 12.8721 0.0000
# 6 0.0000 0.0000 0.0000 0.0000 0.0000 1.6891
#
#
#
# Elastic Compliance Matrix: (Units=1/GPa)
#
#
# Indices 1 2 3 4 5 6 
#
# 1 0.052305 -0.005380 -0.006966 0.000000 0.000000 0.000000
# 2 -0.005380 0.009507 -0.005044 0.000000 0.000000 0.000000
# 3 -0.006966 -0.005044 0.013632 0.000000 0.000000 0.000000
# 4 0.000000 0.000000 0.000000 0.079594 0.000000 0.000000
# 5 0.000000 0.000000 0.000000 0.000000 0.077687 0.000000
# 6 0.000000 0.000000 0.000000 0.000000 0.000000 0.592028
#
#
# Mechanical properties :
#
#
# Convention : Reuss Voigt Hill
#
# Bulk Modulus (GPa) = 24.59226 59.14960 41.87093
# Shear Modulus (GPa) = 5.72680 17.03444 11.38062
#
# Velocity S-wave (km/s) = 1.90720 3.28930 2.68858
# Velocity P-wave (km/s) = 4.52435 7.21076 6.01933
#
# Compressibility (1/GPa) = 0.04066319
#
# Stress axis : x y z
#
# Youngs Moduli (GPa) = 19.11870 105.18385 73.35909
#
# Poissons Ratio (x) = 0.56586 0.51105
# Poissons Ratio (y) = 0.10285 0.37002
# Poissons Ratio (z) = 0.13319 0.53055
#
# Static dielectric constant tensor:
#      x y z
#    x 1.540730 0.000000 0.000000 
#    y 0.000000 1.538830 0.000000 
#    z 0.000000 0.000000 1.522620 
# 
# From -- ./inp_files/22009.got.cif
#   From: 2010.05.17/outbox.cif.g08.bks.cpg/sg47_12_cif.got.tgz:22009.got - 2010.06.03 20:15:42.
