data_PCOD9382709
_publ_section_title
;
Structure prediction by ZEFSAII (Michael W. Deem and Ramdas Pophale) SiO2 
 PCOD9382709
Probable space group: P M M M
;
_chemical_formula_sum "Si O2"
_cell_formula_units_Z 52
_cell_length_a 23.662181
_cell_length_b 14.929113
_cell_length_c 7.677515
_cell_angle_alpha 90.000000
_cell_angle_beta 90.000000
_cell_angle_gamma 90.000000
_cell_volume 2712.123433
_symmetry_space_group_name_H-M "P M M M"
_symmetry_group_IT_number 47
_symmetry_cell_setting 'orthorhombic'
loop_
_space_group_symop_operation_xyz
x,y,z
-x,-y,z
x,-y,-z
-x,y,-z
-x,-y,-z
x,y,-z
-x,y,z
x,-y,z
loop_
_atom_site_type_symbol
_atom_site_label
_atom_site_fract_x
_atom_site_fract_y
_atom_site_fract_z
Si Si1 0.171455 0.283878 0.206152
Si Si2 0.648693 0.900865 0.709162
Si Si3 0.218813 0.099372 0.790126
Si Si4 0.936074 0.398819 0.290327
Si Si5 0.719857 0.600779 0.293085
Si Si6 0.500000 0.603418 0.712899
Si Si7 0.611199 0.288878 0.713726
O O1 0.183163 0.183891 0.276614
O O2 0.110885 0.326980 0.242338
O O3 0.220860 0.349595 0.269503
O O4 0.178116 0.278548 0.000000
O O5 0.642601 0.903535 0.500000
O O6 0.715143 0.885892 0.747146
O O7 0.614667 0.814317 0.772354
O O8 0.633574 0.000000 0.777220
O O9 0.203216 0.000000 0.724231
O O10 0.214002 0.096811 0.000000
O O11 0.937541 0.401923 0.500000
O O12 0.921060 0.500000 0.229969
O O13 0.000000 0.378868 0.229765
O O14 0.710594 0.593728 0.500000
O O15 0.720733 0.500000 0.221000
O O16 0.667805 0.660063 0.226076
O O17 0.500000 0.500000 0.769775
O O18 0.500000 0.602178 0.500000
O O19 0.444016 0.656605 0.767923
O O20 0.611439 0.287794 0.500000
#
# Coordination Sequence:
#
# PCOD9382709 Si02
#       7
#     8   8   8   8   8   4   8
#     4  11  21  31  48  75 101 124 156 199 245 284
#     4   9  16  27  45  68  92 118 151 195 246 293
#     4   9  18  32  48  68  96 128 160 193 234 287
#     4   9  19  36  55  73  97 133 170 197 227 275
#     4  10  19  30  45  66  94 127 159 194 239 289
#     4   9  16  26  41  61  88 125 165 199 234 284
#     4   9  16  27  42  63  91 122 158 199 238 283
#
# _framework density 19.173169000000001
#
# number of rings (size 3 to 8) (size 9 to 14) (size 15 to 20)
#    0.000    2.538    1.538    1.846    0.000    5.231 
#    0.000    1.154    0.000    2.769    0.000    5.385 
#    0.000    6.154    0.000    0.000    0.000    0.000 
#
# Total GULP energy -290065.319479 kJ/mol
# GULP energy per Si atom -5578.179221 kJ/mol
# Density = 1.912953 g / cm^3
# Si number density = 19.173169 Si / 1000 Ang^3
#
#
#
# Elastic Constant Matrix: (Units=GPa)
#
#
# Indices 1 2 3 4 5 6 
#
# 1 99.9751 95.9942 -8.1131 0.0000 0.0000 0.0000
# 2 95.9942 217.6549 5.5904 0.0000 0.0000 0.0000
# 3 -8.1131 5.5904 30.2245 0.0000 0.0000 0.0000
# 4 0.0000 0.0000 0.0000 11.0870 0.0000 0.0000
# 5 0.0000 0.0000 0.0000 0.0000 -362.4118 0.0000
# 6 0.0000 0.0000 0.0000 0.0000 0.0000 31.7604
#
#
#
# Elastic Compliance Matrix: (Units=1/GPa)
#
#
# Indices 1 2 3 4 5 6 
#
# 1 0.018547 -0.008347 0.006522 0.000000 0.000000 0.000000
# 2 -0.008347 0.008373 -0.003789 0.000000 0.000000 0.000000
# 3 0.006522 -0.003789 0.035537 0.000000 0.000000 0.000000
# 4 0.000000 0.000000 0.000000 0.090196 0.000000 0.000000
# 5 0.000000 0.000000 0.000000 0.000000 -0.002759 0.000000
# 6 0.000000 0.000000 0.000000 0.000000 0.000000 0.031486
#
#
# Mechanical properties :
#
#
# Convention : Reuss Voigt Hill
#
# Bulk Modulus (GPa) = 19.52026 59.42194 39.47110
# Shear Modulus (GPa) = 23.84529 -46.95402 -11.55436
#
# Velocity S-wave (km/s) = 3.53041 -4.95405 -2.45752
# Velocity P-wave (km/s) = 5.17895 1.28994 3.54666
#
# Compressibility (1/GPa) = 0.05122882
#
# Stress axis : x y z
#
# Youngs Moduli (GPa) = 53.91773 119.42768 28.13933
#
# Poissons Ratio (x) = 0.99691 -0.18354
# Poissons Ratio (y) = 0.45007 0.10663
# Poissons Ratio (z) = -0.35168 0.45256
#
# Static dielectric constant tensor:
#      x y z
#    x 1.633920 0.000000 0.000000 
#    y 0.000000 1.707240 0.000000 
#    z 0.000000 0.000000 1.719460 
# 
# From -- ./inp_files/12536.got.cif
#   From: 2010.05.17/outbox.cif.g08.bks.cpg/sg47_7_cif.got.tgz:12536.got - 2010.06.03 20:15:42.
