data_PCOD9382829
_publ_section_title
;
Structure prediction by ZEFSAII (Michael W. Deem and Ramdas Pophale) SiO2 
 PCOD9382829
Probable space group: P M M M
;
_chemical_formula_sum "Si O2"
_cell_formula_units_Z 52
_cell_length_a 14.407018
_cell_length_b 23.010528
_cell_length_c 9.085653
_cell_angle_alpha 90.000000
_cell_angle_beta 90.000000
_cell_angle_gamma 90.000000
_cell_volume 3012.012911
_symmetry_space_group_name_H-M "P M M M"
_symmetry_group_IT_number 47
_symmetry_cell_setting 'orthorhombic'
loop_
_space_group_symop_operation_xyz
x,y,z
-x,-y,z
x,-y,-z
-x,y,-z
-x,-y,-z
x,y,-z
-x,y,z
x,-y,z
loop_
_atom_site_type_symbol
_atom_site_label
_atom_site_fract_x
_atom_site_fract_y
_atom_site_fract_z
Si Si1 0.888764 0.818659 0.671277
Si Si2 0.207307 0.936761 0.678641
Si Si3 0.390146 0.569036 0.500000
Si Si4 0.722693 0.342332 0.333407
Si Si5 0.605293 0.880633 0.323343
Si Si6 0.388943 0.758148 0.828864
Si Si7 0.891923 0.697152 0.175614
O O1 0.860007 0.810817 0.500000
O O2 0.845683 0.878846 0.728501
O O3 0.865238 0.761184 0.763254
O O4 0.000000 0.824267 0.673680
O O5 0.197991 0.937208 0.500000
O O6 0.315662 0.926877 0.713372
O O7 0.175166 0.000000 0.732132
O O8 0.379599 0.500000 0.500000
O O9 0.500000 0.583149 0.500000
O O10 0.338105 0.599833 0.362277
O O11 0.742735 0.321361 0.500000
O O12 0.661978 0.294633 0.249998
O O13 0.819621 0.347173 0.248531
O O14 0.606290 0.873148 0.500000
O O15 0.500000 0.896166 0.279582
O O16 0.630780 0.819253 0.250158
O O17 0.500000 0.749606 0.819254
O O18 0.362518 0.760982 0.000000
O O19 0.000000 0.686909 0.215581
O O20 0.884350 0.696389 0.000000
#
# Coordination Sequence:
#
# PCOD9382829 Si02
#       7
#     8   8   4   8   8   8   8
#     4   9  17  29  47  70  97 129 165 209 264 319
#     4   9  17  28  42  61  85 116 161 214 262 309
#     4   9  20  38  59  85 115 147 181 216 252 290
#     4  10  20  31  55  81 107 141 178 216 253 301
#     4   9  17  28  43  63  89 121 159 206 263 321
#     4  10  19  30  47  74 106 134 165 212 269 325
#     4  10  20  34  53  80 113 143 173 215 269 322
#
# _framework density 17.264202999999998
#
# number of rings (size 3 to 8) (size 9 to 14) (size 15 to 20)
#    0.462    2.077    0.000    2.769    0.000    3.385 
#    0.000    3.077    0.000    4.615    0.000   10.769 
#    0.000    0.000    0.000    0.000    0.000    0.000 
#
# Total GULP energy -289738.197175 kJ/mol
# GULP energy per Si atom -5571.888407 kJ/mol
# Density = 1.722491 g / cm^3
# Si number density = 17.264203 Si / 1000 Ang^3
#
#
#
# Elastic Constant Matrix: (Units=GPa)
#
#
# Indices 1 2 3 4 5 6 
#
# 1 73.4394 54.4095 26.9526 0.0000 0.0000 0.0000
# 2 54.4095 74.2473 20.0467 0.0000 0.0000 0.0000
# 3 26.9526 20.0467 40.4105 0.0000 0.0000 0.0000
# 4 0.0000 0.0000 0.0000 -2.6431 0.0000 0.0000
# 5 0.0000 0.0000 0.0000 0.0000 24.4304 0.0000
# 6 0.0000 0.0000 0.0000 0.0000 0.0000 21.7291
#
#
#
# Elastic Compliance Matrix: (Units=1/GPa)
#
#
# Indices 1 2 3 4 5 6 
#
# 1 0.034163 -0.021804 -0.011970 0.000000 0.000000 0.000000
# 2 -0.021804 0.029467 -0.000075 0.000000 0.000000 0.000000
# 3 -0.011970 -0.000075 0.032767 0.000000 0.000000 0.000000
# 4 0.000000 0.000000 0.000000 -0.378345 0.000000 0.000000
# 5 0.000000 0.000000 0.000000 0.000000 0.040933 0.000000
# 6 0.000000 0.000000 0.000000 0.000000 0.000000 0.046021
#
#
# Mechanical properties :
#
#
# Convention : Reuss Voigt Hill
#
# Bulk Modulus (GPa) = 34.84365 43.43497 39.13931
# Shear Modulus (GPa) = -42.47042 14.48249 -13.99396
#
# Velocity S-wave (km/s) = -4.96525 2.89947 -2.85015
# Velocity P-wave (km/s) = 3.55600 6.03514 3.44802
#
# Compressibility (1/GPa) = 0.02869964
#
# Stress axis : x y z
#
# Youngs Moduli (GPa) = 29.27103 33.93634 30.51858
#
# Poissons Ratio (x) = 0.73994 0.36530
# Poissons Ratio (y) = 0.63822 0.00230
# Poissons Ratio (z) = 0.35037 0.00256
#
# Static dielectric constant tensor:
#      x y z
#    x 1.630650 0.000000 0.000000 
#    y 0.000000 1.558250 0.000000 
#    z 0.000000 0.000000 1.578850 
# 
# From -- ./inp_files/7619.got.cif
#   From: 2010.05.17/outbox.cif.g08.bks.cpg/sg47_4_cif.got.tgz:7619.got - 2010.06.03 20:15:42.
