data_PCOD9382764
_publ_section_title
;
Structure prediction by ZEFSAII (Michael W. Deem and Ramdas Pophale) SiO2 
 PCOD9382764
Probable space group: P M M M
;
_chemical_formula_sum "Si O2"
_cell_formula_units_Z 56
_cell_length_a 16.334868
_cell_length_b 20.525388
_cell_length_c 7.593553
_cell_angle_alpha 90.000000
_cell_angle_beta 90.000000
_cell_angle_gamma 90.000000
_cell_volume 2545.962681
_symmetry_space_group_name_H-M "P M M M"
_symmetry_group_IT_number 47
_symmetry_cell_setting 'orthorhombic'
loop_
_space_group_symop_operation_xyz
x,y,z
-x,-y,z
x,-y,-z
-x,y,-z
-x,-y,-z
x,y,-z
-x,y,z
x,-y,z
loop_
_atom_site_type_symbol
_atom_site_label
_atom_site_fract_x
_atom_site_fract_y
_atom_site_fract_z
Si Si1 0.588358 0.889632 0.794187
Si Si2 0.366117 0.254999 0.712662
Si Si3 0.817100 0.712944 0.292990
Si Si4 0.766856 0.926487 0.785502
Si Si5 0.910219 0.834041 0.205341
Si Si6 0.412506 0.399129 0.793269
Si Si7 0.230895 0.429299 0.212610
O O1 0.500000 0.909529 0.718049
O O2 0.595717 0.811375 0.781290
O O3 0.674356 0.914853 0.718790
O O4 0.587127 0.908626 0.000000
O O5 0.368709 0.254084 0.500000
O O6 0.271551 0.261717 0.772832
O O7 0.408451 0.320985 0.775598
O O8 0.819270 0.724669 0.500000
O O9 0.886844 0.757976 0.213548
O O10 0.817589 0.635487 0.264452
O O11 0.834001 0.875073 0.719567
O O12 0.792487 0.000000 0.745286
O O13 0.762262 0.920004 0.000000
O O14 0.000000 0.845864 0.283432
O O15 0.914457 0.852554 0.000000
O O16 0.500000 0.421255 0.718294
O O17 0.325114 0.422664 0.720927
O O18 0.412585 0.416516 0.000000
O O19 0.198595 0.500000 0.268329
O O20 0.234261 0.428356 0.000000
#
# Coordination Sequence:
#
# PCOD9382764 Si02
#       7
#     8   8   8   8   8   8   8
#     4  10  19  30  48  73 102 140 182 221 264 312
#     4  10  19  30  46  69  98 135 179 224 268 311
#     4  10  20  34  54  78 106 141 178 219 266 316
#     4   9  18  33  53  79 112 144 174 217 268 315
#     4  10  20  35  59  87 110 136 172 215 267 325
#     4   9  17  28  43  66  98 135 176 222 270 318
#     4   9  18  32  51  75 104 141 181 221 268 320
#
# _framework density 21.995609000000002
#
# number of rings (size 3 to 8) (size 9 to 14) (size 15 to 20)
#    0.000    2.429    1.429    1.286    0.000    4.857 
#    0.000    4.286    0.000    2.143    0.000    9.000 
#    0.000    0.000    0.000    0.000    0.000    0.000 
#
# Total GULP energy -312551.940421 kJ/mol
# GULP energy per Si atom -5581.284650 kJ/mol
# Density = 2.194555 g / cm^3
# Si number density = 21.995609 Si / 1000 Ang^3
#
#
#
# Elastic Constant Matrix: (Units=GPa)
#
#
# Indices 1 2 3 4 5 6 
#
# 1 136.0048 53.9425 8.2878 0.0000 0.0000 0.0000
# 2 53.9425 109.7675 -7.9205 0.0000 0.0000 0.0000
# 3 8.2878 -7.9205 54.4404 0.0000 0.0000 0.0000
# 4 0.0000 0.0000 0.0000 1395.7034 0.0000 0.0000
# 5 0.0000 0.0000 0.0000 0.0000 -2.1606 0.0000
# 6 0.0000 0.0000 0.0000 0.0000 0.0000 1.4880
#
#
#
# Elastic Compliance Matrix: (Units=1/GPa)
#
#
# Indices 1 2 3 4 5 6 
#
# 1 0.009368 -0.004757 -0.002118 0.000000 0.000000 0.000000
# 2 -0.004757 0.011622 0.002415 0.000000 0.000000 0.000000
# 3 -0.002118 0.002415 0.019043 0.000000 0.000000 0.000000
# 4 0.000000 0.000000 0.000000 0.000716 0.000000 0.000000
# 5 0.000000 0.000000 0.000000 0.000000 -0.462838 0.000000
# 6 0.000000 0.000000 0.000000 0.000000 0.000000 0.672062
#
#
# Mechanical properties :
#
#
# Convention : Reuss Voigt Hill
#
# Bulk Modulus (GPa) = 32.14089 45.42582 38.78335
# Shear Modulus (GPa) = 18.56909 295.39968 156.98439
#
# Velocity S-wave (km/s) = 2.90870 11.60133 8.45729
# Velocity P-wave (km/s) = 5.09164 14.14750 10.63194
#
# Compressibility (1/GPa) = 0.03111302
#
# Stress axis : x y z
#
# Youngs Moduli (GPa) = 106.74213 86.04385 52.51401
#
# Poissons Ratio (x) = 0.40928 0.11124
# Poissons Ratio (y) = 0.50774 -0.12682
# Poissons Ratio (z) = 0.22611 -0.20780
#
# Static dielectric constant tensor:
#      x y z
#    x 1.829650 0.000000 0.000000 
#    y 0.000000 1.791010 0.000000 
#    z 0.000000 0.000000 1.809820 
# 
# From -- ./inp_files/7215.got.cif
#   From: 2010.05.17/outbox.cif.g08.bks.cpg/sg47_4_cif.got.tgz:7215.got - 2010.06.03 20:15:42.
