data_PCOD9382618
_publ_section_title
;
Structure prediction by ZEFSAII (Michael W. Deem and Ramdas Pophale) SiO2 
 PCOD9382618
Probable space group: P M M M
;
_chemical_formula_sum "Si O2"
_cell_formula_units_Z 45
_cell_length_a 14.208044
_cell_length_b 21.614804
_cell_length_c 7.330925
_cell_angle_alpha 90.000000
_cell_angle_beta 90.000000
_cell_angle_gamma 90.000000
_cell_volume 2251.357024
_symmetry_space_group_name_H-M "P M M M"
_symmetry_group_IT_number 47
_symmetry_cell_setting 'orthorhombic'
loop_
_space_group_symop_operation_xyz
x,y,z
-x,-y,z
x,-y,-z
-x,y,-z
-x,-y,-z
x,y,-z
-x,y,z
x,-y,z
loop_
_atom_site_type_symbol
_atom_site_label
_atom_site_fract_x
_atom_site_fract_y
_atom_site_fract_z
Si Si1 0.103456 0.353983 0.780203
Si Si2 0.500000 0.883232 0.275481
Si Si3 0.283946 0.570101 0.777404
Si Si4 0.394800 0.687792 0.779465
Si Si5 0.895208 0.207384 0.715459
Si Si6 0.500000 0.000000 0.000000
Si Si7 0.306814 0.815347 0.290903
O O1 0.186256 0.398543 0.717419
O O2 0.114815 0.281789 0.732668
O O3 0.000000 0.373678 0.717750
O O4 0.105091 0.356168 0.000000
O O5 0.500000 0.889462 0.500000
O O6 0.403069 0.847058 0.222004
O O7 0.500000 0.945962 0.161265
O O8 0.296225 0.500000 0.715324
O O9 0.362628 0.619685 0.723301
O O10 0.283655 0.568573 0.000000
O O11 0.500000 0.701449 0.717864
O O12 0.327377 0.742076 0.714455
O O13 0.392284 0.689659 0.000000
O O14 0.897338 0.193588 0.500000
O O15 0.798473 0.177227 0.790221
O O16 0.000000 0.191505 0.788831
O O17 0.299959 0.835971 0.500000
#
# Coordination Sequence:
#
# PCOD9382618 Si02
#       7
#     8   4   8   8   8   1   8
#     4   9  16  26  41  62  87 121 165 219 281 335
#     4  10  23  41  63  96 128 160 197 226 267 327
#     4   9  17  28  40  59  88 126 171 223 282 340
#     4  10  19  29  46  69  95 127 172 230 278 333
#     4   9  17  29  47  73 105 139 175 221 281 334
#     4  12  26  44  68  98 134 172 184 224 272 308
#     4  10  19  32  53  81 111 142 179 227 272 321
#
# _framework density 19.987943999999999
#
# number of rings (size 3 to 8) (size 9 to 14) (size 15 to 20)
#    0.000    2.489    2.667    0.133    1.244    0.711 
#    0.000    3.556    0.000    2.133    0.000    4.978 
#    0.000    4.267    0.000    0.000    0.000    0.000 
#
# Total GULP energy -250545.058751 kJ/mol
# GULP energy per Si atom -5567.667972 kJ/mol
# Density = 1.994245 g / cm^3
# Si number density = 19.987944 Si / 1000 Ang^3
#
#
#
# Elastic Constant Matrix: (Units=GPa)
#
#
# Indices 1 2 3 4 5 6 
#
# 1 160.8468 50.1300 8.1097 0.0000 0.0000 0.0000
# 2 50.1300 73.6448 7.5852 0.0000 0.0000 0.0000
# 3 8.1097 7.5852 84.1671 0.0000 0.0000 0.0000
# 4 0.0000 0.0000 0.0000 23.2199 0.0000 0.0000
# 5 0.0000 0.0000 0.0000 0.0000 -0.2708 0.0000
# 6 0.0000 0.0000 0.0000 0.0000 0.0000 -2.3328
#
#
#
# Elastic Compliance Matrix: (Units=1/GPa)
#
#
# Indices 1 2 3 4 5 6 
#
# 1 0.007898 -0.005347 -0.000279 0.000000 0.000000 0.000000
# 2 -0.005347 0.017326 -0.001046 0.000000 0.000000 0.000000
# 3 -0.000279 -0.001046 0.012002 0.000000 0.000000 0.000000
# 4 0.000000 0.000000 0.000000 0.043066 0.000000 0.000000
# 5 0.000000 0.000000 0.000000 0.000000 -3.692982 0.000000
# 6 0.000000 0.000000 0.000000 0.000000 0.000000 -0.428667
#
#
# Mechanical properties :
#
#
# Convention : Reuss Voigt Hill
#
# Bulk Modulus (GPa) = 41.87386 50.03428 45.95407
# Shear Modulus (GPa) = -1.24377 20.97886 9.86755
#
# Velocity S-wave (km/s) = -0.78969 3.24323 2.22429
# Velocity P-wave (km/s) = 4.49038 6.25390 5.44403
#
# Compressibility (1/GPa) = 0.02388125
#
# Stress axis : x y z
#
# Youngs Moduli (GPa) = 126.61925 57.71577 83.31737
#
# Poissons Ratio (x) = 0.30862 0.02325
# Poissons Ratio (y) = 0.67706 0.08717
# Poissons Ratio (z) = 0.03534 0.06038
#
# Static dielectric constant tensor:
#      x y z
#    x 1.765430 0.000000 0.000000 
#    y 0.000000 1.633970 0.000000 
#    z 0.000000 0.000000 1.748330 
# 
# From -- ./inp_files/6889.got.cif
#   From: 2010.05.17/outbox.cif.g08.bks.cpg/sg47_4_cif.got.tgz:6889.got - 2010.06.03 20:15:42.
