data_PCOD9382101
_publ_section_title
;
Structure prediction by ZEFSAII (Michael W. Deem and Ramdas Pophale) SiO2 
 PCOD9382101
Probable space group: P M M M
;
_chemical_formula_sum "Si O2"
_cell_formula_units_Z 64
_cell_length_a 19.738805
_cell_length_b 8.489939
_cell_length_c 24.427041
_cell_angle_alpha 90.000000
_cell_angle_beta 90.000000
_cell_angle_gamma 90.000000
_cell_volume 4093.514074
_symmetry_space_group_name_H-M "P M M M"
_symmetry_group_IT_number 47
_symmetry_cell_setting 'orthorhombic'
loop_
_space_group_symop_operation_xyz
x,y,z
-x,-y,z
x,-y,-z
-x,y,-z
-x,-y,-z
x,y,-z
-x,y,z
x,-y,z
loop_
_atom_site_type_symbol
_atom_site_label
_atom_site_fract_x
_atom_site_fract_y
_atom_site_fract_z
Si Si1 0.923271 0.809530 0.730434
Si Si2 0.285051 0.811712 0.223990
Si Si3 0.077901 0.190092 0.063058
Si Si4 0.712937 0.807369 0.438410
Si Si5 0.575501 0.809677 0.381014
Si Si6 0.842296 0.686639 0.834965
Si Si7 0.424011 0.688431 0.256942
Si Si8 0.794748 0.191687 0.666334
O O1 0.891186 0.758238 0.788102
O O2 0.870096 0.757770 0.683729
O O3 0.000000 0.752512 0.723844
O O4 0.924326 0.000000 0.729969
O O5 0.233115 0.746280 0.179146
O O6 0.361970 0.754272 0.221864
O O7 0.254090 0.761522 0.283237
O O8 0.283093 0.000000 0.222299
O O9 0.129276 0.260392 0.106640
O O10 0.000000 0.236639 0.076011
O O11 0.080651 0.000000 0.066181
O O12 0.091553 0.235009 0.000000
O O13 0.727669 0.754595 0.500000
O O14 0.637596 0.759632 0.419059
O O15 0.765108 0.754212 0.391459
O O16 0.713994 0.000000 0.438600
O O17 0.500000 0.762532 0.399790
O O18 0.584895 0.747526 0.319413
O O19 0.577297 0.000000 0.378391
O O20 0.843919 0.500000 0.830435
O O21 0.500000 0.738093 0.239664
O O22 0.421338 0.500000 0.256711
O O23 0.794250 0.000000 0.665263
#
# Coordination Sequence:
#
# PCOD9382101 Si02
#       8
#     8   8   8   8   8   8   8   8
#     4   9  17  29  45  62  83 115 152 188 227 275
#     4  10  18  31  49  65  87 120 156 190 224 270
#     4   9  18  33  51  69  94 133 175 204 226 261
#     4   9  15  23  38  60  82 104 138 187 233 270
#     4   9  16  26  40  58  80 109 145 180 217 268
#     4  11  21  30  44  70 100 124 151 192 237 275
#     4  10  19  29  43  65  92 119 146 182 230 277
#     4   8  14  25  40  59  80 104 137 180 229 274
#
# _framework density 15.634489
#
# number of rings (size 3 to 8) (size 9 to 14) (size 15 to 20)
#    0.000    2.625    1.250    3.375    0.000    3.250 
#    0.000    1.875    0.000    0.750    0.000    4.375 
#    0.000    0.500    0.000    8.500    0.000    6.500 
#
# Total GULP energy -356682.116360 kJ/mol
# GULP energy per Si atom -5573.158068 kJ/mol
# Density = 1.559890 g / cm^3
# Si number density = 15.634489 Si / 1000 Ang^3
#
#
#
# Elastic Constant Matrix: (Units=GPa)
#
#
# Indices 1 2 3 4 5 6 
#
# 1 133.2000 19.8453 65.6429 0.0000 0.0000 0.0000
# 2 19.8453 12.3257 14.4705 0.0000 0.0000 0.0000
# 3 65.6429 14.4705 89.3838 0.0000 0.0000 0.0000
# 4 0.0000 0.0000 0.0000 -4.9189 0.0000 0.0000
# 5 0.0000 0.0000 0.0000 0.0000 25.7075 0.0000
# 6 0.0000 0.0000 0.0000 0.0000 0.0000 12.9427
#
#
#
# Elastic Compliance Matrix: (Units=1/GPa)
#
#
# Indices 1 2 3 4 5 6 
#
# 1 0.013075 -0.012074 -0.007648 0.000000 0.000000 0.000000
# 2 -0.012074 0.111318 -0.009155 0.000000 0.000000 0.000000
# 3 -0.007648 -0.009155 0.018286 0.000000 0.000000 0.000000
# 4 0.000000 0.000000 0.000000 -0.203296 0.000000 0.000000
# 5 0.000000 0.000000 0.000000 0.000000 0.038899 0.000000
# 6 0.000000 0.000000 0.000000 0.000000 0.000000 0.077263
#
#
# Mechanical properties :
#
#
# Convention : Reuss Voigt Hill
#
# Bulk Modulus (GPa) = 11.77473 48.31408 30.04440
# Shear Modulus (GPa) = 35.30872 15.74298 25.52585
#
# Velocity S-wave (km/s) = 4.75740 3.17667 4.04501
# Velocity P-wave (km/s) = 6.14205 6.66516 6.40894
#
# Compressibility (1/GPa) = 0.08492766
#
# Stress axis : x y z
#
# Youngs Moduli (GPa) = 76.48031 8.98325 54.68582
#
# Poissons Ratio (x) = 0.10846 0.41823
# Poissons Ratio (y) = 0.92339 0.50064
# Poissons Ratio (z) = 0.58490 0.08224
#
# Static dielectric constant tensor:
#      x y z
#    x 1.542690 0.000000 0.000000 
#    y 0.000000 1.529260 0.000000 
#    z 0.000000 0.000000 1.499960 
# 
# From -- ./inp_files/32943.got.cif
#   From: 2010.05.17/outbox.cif.g08.bks.cpg/sg47_17_cif.got.tgz:32943.got - 2010.06.03 20:15:42.
