data_PCOD9382010
_publ_section_title
;
Structure prediction by ZEFSAII (Michael W. Deem and Ramdas Pophale) SiO2 
 PCOD9382010
Probable space group: P M M M
;
_chemical_formula_sum "Si O2"
_cell_formula_units_Z 52
_cell_length_a 7.484925
_cell_length_b 14.746536
_cell_length_c 26.128750
_cell_angle_alpha 90.000000
_cell_angle_beta 90.000000
_cell_angle_gamma 90.000000
_cell_volume 2884.005617
_symmetry_space_group_name_H-M "P M M M"
_symmetry_group_IT_number 47
_symmetry_cell_setting 'orthorhombic'
loop_
_space_group_symop_operation_xyz
x,y,z
-x,-y,z
x,-y,-z
-x,y,-z
-x,-y,-z
x,y,-z
-x,y,z
x,-y,z
loop_
_atom_site_type_symbol
_atom_site_label
_atom_site_fract_x
_atom_site_fract_y
_atom_site_fract_z
Si Si1 0.290836 0.203990 0.055360
Si Si2 0.784186 0.600737 0.093314
Si Si3 0.500000 0.109788 0.558014
Si Si4 0.283868 0.104230 0.843189
Si Si5 0.213204 0.892509 0.641316
Si Si6 0.781966 0.600815 0.787586
Si Si7 0.789320 0.215747 0.259291
O O1 0.500000 0.179635 0.054037
O O2 0.278554 0.312209 0.062624
O O3 0.216510 0.156126 0.106123
O O4 0.213053 0.178824 0.000000
O O5 0.726025 0.500000 0.076429
O O6 0.729929 0.612597 0.152850
O O7 0.000000 0.601370 0.091713
O O8 0.500000 0.144746 0.500000
O O9 0.673572 0.134299 0.591527
O O10 0.500000 0.000000 0.555018
O O11 0.500000 0.105181 0.844272
O O12 0.230968 0.155487 0.791557
O O13 0.224854 0.000000 0.842750
O O14 0.277677 0.836245 0.690688
O O15 0.000000 0.880459 0.633966
O O16 0.242685 0.000000 0.650994
O O17 0.726890 0.500000 0.771132
O O18 0.716059 0.684775 0.754164
O O19 0.000000 0.602446 0.787432
O O20 0.000000 0.227118 0.268315
#
# Coordination Sequence:
#
# PCOD9382010 Si02
#       7
#     8   8   4   8   8   8   8
#     4  10  21  35  48  64  87 114 149 194 241 289
#     4   9  17  31  50  69  88 112 145 184 229 285
#     4   9  18  32  50  72 101 143 184 212 246 287
#     4  10  21  34  48  66  86 116 156 194 239 292
#     4   9  18  30  45  72 106 137 172 212 251 291
#     4   8  14  26  46  70  94 120 149 184 232 290
#     4  10  18  30  50  73  98 125 154 194 243 291
#
# _framework density 18.030477000000001
#
# number of rings (size 3 to 8) (size 9 to 14) (size 15 to 20)
#    0.000    2.692    1.538    1.385    1.077    2.462 
#    0.000    4.615    0.000    0.462    0.000    2.154 
#    0.000    1.231    0.000    6.000    0.000    0.154 
#
# Total GULP energy -290044.702783 kJ/mol
# GULP energy per Si atom -5577.782746 kJ/mol
# Density = 1.798944 g / cm^3
# Si number density = 18.030477 Si / 1000 Ang^3
#
#
#
# Elastic Constant Matrix: (Units=GPa)
#
#
# Indices 1 2 3 4 5 6 
#
# 1 50.4123 3.6450 17.4221 0.0000 0.0000 0.0000
# 2 3.6450 91.0631 58.1430 0.0000 0.0000 0.0000
# 3 17.4221 58.1430 145.0868 0.0000 0.0000 0.0000
# 4 0.0000 0.0000 0.0000 17.6511 0.0000 0.0000
# 5 0.0000 0.0000 0.0000 0.0000 30.7601 0.0000
# 6 0.0000 0.0000 0.0000 0.0000 0.0000 11.5248
#
#
#
# Elastic Compliance Matrix: (Units=1/GPa)
#
#
# Indices 1 2 3 4 5 6 
#
# 1 0.020766 0.001023 -0.002903 0.000000 0.000000 0.000000
# 2 0.001023 0.014808 -0.006057 0.000000 0.000000 0.000000
# 3 -0.002903 -0.006057 0.009668 0.000000 0.000000 0.000000
# 4 0.000000 0.000000 0.000000 0.056654 0.000000 0.000000
# 5 0.000000 0.000000 0.000000 0.000000 0.032510 0.000000
# 6 0.000000 0.000000 0.000000 0.000000 0.000000 0.086770
#
#
# Mechanical properties :
#
#
# Convention : Reuss Voigt Hill
#
# Bulk Modulus (GPa) = 34.05238 49.44250 41.74744
# Shear Modulus (GPa) = 20.25611 25.81068 23.03339
#
# Velocity S-wave (km/s) = 3.35541 3.78763 3.57805
# Velocity P-wave (km/s) = 5.82569 6.82710 6.34618
#
# Compressibility (1/GPa) = 0.02936652
#
# Stress axis : x y z
#
# Youngs Moduli (GPa) = 48.15591 67.53212 103.43017
#
# Poissons Ratio (x) = -0.06906 0.30030
# Poissons Ratio (y) = -0.04924 0.62647
# Poissons Ratio (z) = 0.13981 0.40904
#
# Static dielectric constant tensor:
#      x y z
#    x 1.689170 0.000000 0.000000 
#    y 0.000000 1.624910 0.000000 
#    z 0.000000 0.000000 1.602100 
# 
# From -- ./inp_files/11026.got.cif
#   From: 2010.05.17/outbox.cif.g08.bks.cpg/sg47_6_cif.got.tgz:11026.got - 2010.06.03 20:15:42.
