data_PCOD9382542
_publ_section_title
;
Structure prediction by ZEFSAII (Michael W. Deem and Ramdas Pophale) SiO2 
 PCOD9382542
Probable space group: P M M M
;
_chemical_formula_sum "Si O2"
_cell_formula_units_Z 52
_cell_length_a 27.613130
_cell_length_b 14.276253
_cell_length_c 7.771882
_cell_angle_alpha 90.000000
_cell_angle_beta 90.000000
_cell_angle_gamma 90.000000
_cell_volume 3063.769380
_symmetry_space_group_name_H-M "P M M M"
_symmetry_group_IT_number 47
_symmetry_cell_setting 'orthorhombic'
loop_
_space_group_symop_operation_xyz
x,y,z
-x,-y,z
x,-y,-z
-x,y,-z
-x,-y,-z
x,y,-z
-x,y,z
x,-y,z
loop_
_atom_site_type_symbol
_atom_site_label
_atom_site_fract_x
_atom_site_fract_y
_atom_site_fract_z
Si Si1 0.500000 0.106573 0.204445
Si Si2 0.849673 0.289413 0.210996
Si Si3 0.247497 0.605038 0.207218
Si Si4 0.799673 0.895667 0.204371
Si Si5 0.394914 0.107600 0.706010
Si Si6 0.945867 0.608536 0.790063
Si Si7 0.298728 0.792458 0.705066
O O1 0.551692 0.147816 0.256902
O O2 0.500000 0.000000 0.277835
O O3 0.500000 0.101253 0.000000
O O4 0.805275 0.356931 0.263903
O O5 0.835423 0.185301 0.271006
O O6 0.901312 0.328177 0.268807
O O7 0.849801 0.289083 0.000000
O O8 0.256971 0.500000 0.271209
O O9 0.286068 0.684993 0.253614
O O10 0.245918 0.601596 0.000000
O O11 0.745519 0.855734 0.227570
O O12 0.804496 0.000000 0.277623
O O13 0.808214 0.901457 0.000000
O O14 0.390529 0.102300 0.500000
O O15 0.350030 0.168960 0.771191
O O16 0.392406 0.000000 0.773087
O O17 0.938269 0.500000 0.740409
O O18 0.000000 0.636931 0.734857
O O19 0.945637 0.610264 0.000000
O O20 0.298352 0.801901 0.500000
#
# Coordination Sequence:
#
# PCOD9382542 Si02
#       7
#     4   8   8   8   8   8   8
#     4   9  17  27  41  63  86 109 140 175 205 234
#     4   8  13  22  36  53  75 105 138 168 201 246
#     4   9  17  29  44  61  83 112 142 170 205 251
#     4   9  17  28  41  57  79 109 142 173 207 249
#     4   9  17  29  43  59  84 116 142 165 200 246
#     4   8  12  17  28  49  75 101 130 166 208 252
#     4  10  19  29  43  64  87 111 140 173 209 247
#
# _framework density 16.972556999999998
#
# number of rings (size 3 to 8) (size 9 to 14) (size 15 to 20)
#    0.000    3.154    0.000    3.000    0.000    5.231 
#    0.000    1.538    0.000    0.462    0.000    3.769 
#    0.000   14.154    0.000   39.385    0.000   36.923 
#
# Total GULP energy -289633.507415 kJ/mol
# GULP energy per Si atom -5569.875143 kJ/mol
# Density = 1.693393 g / cm^3
# Si number density = 16.972557 Si / 1000 Ang^3
#
#
#
# Elastic Constant Matrix: (Units=GPa)
#
#
# Indices 1 2 3 4 5 6 
#
# 1 166.7068 86.6109 1.1813 0.0000 0.0000 0.0000
# 2 86.6109 123.1341 4.0452 0.0000 0.0000 0.0000
# 3 1.1813 4.0452 22.9317 0.0000 0.0000 0.0000
# 4 0.0000 0.0000 0.0000 7.8359 0.0000 0.0000
# 5 0.0000 0.0000 0.0000 0.0000 24.0628 0.0000
# 6 0.0000 0.0000 0.0000 0.0000 0.0000 22.8742
#
#
#
# Elastic Compliance Matrix: (Units=1/GPa)
#
#
# Indices 1 2 3 4 5 6 
#
# 1 0.009464 -0.006679 0.000691 0.000000 0.000000 0.000000
# 2 -0.006679 0.012883 -0.001928 0.000000 0.000000 0.000000
# 3 0.000691 -0.001928 0.043912 0.000000 0.000000 0.000000
# 4 0.000000 0.000000 0.000000 0.127618 0.000000 0.000000
# 5 0.000000 0.000000 0.000000 0.000000 0.041558 0.000000
# 6 0.000000 0.000000 0.000000 0.000000 0.000000 0.043717
#
#
# Mechanical properties :
#
#
# Convention : Reuss Voigt Hill
#
# Bulk Modulus (GPa) = 19.83151 55.16082 37.49617
# Shear Modulus (GPa) = 16.03619 25.68360 20.85989
#
# Velocity S-wave (km/s) = 3.07714 3.89426 3.50956
# Velocity P-wave (km/s) = 4.93304 7.26574 6.20991
#
# Compressibility (1/GPa) = 0.05042479
#
# Stress axis : x y z
#
# Youngs Moduli (GPa) = 105.66440 77.62262 22.77258
#
# Poissons Ratio (x) = 0.51848 -0.01573
# Poissons Ratio (y) = 0.70578 0.04392
# Poissons Ratio (z) = -0.07299 0.14969
#
# Static dielectric constant tensor:
#      x y z
#    x 1.579300 0.000000 0.000000 
#    y 0.000000 1.521330 0.000000 
#    z 0.000000 0.000000 1.627280 
# 
# From -- ./inp_files/12497.got.cif
#   From: 2010.05.17/outbox.cif.g08.bks.cpg/sg47_7_cif.got.tgz:12497.got - 2010.06.03 20:15:42.
