data_PCOD9382059
_publ_section_title
;
Structure prediction by ZEFSAII (Michael W. Deem and Ramdas Pophale) SiO2 
 PCOD9382059
Probable space group: P M M M
;
_chemical_formula_sum "Si O2"
_cell_formula_units_Z 64
_cell_length_a 22.437170
_cell_length_b 8.403512
_cell_length_c 17.322847
_cell_angle_alpha 90.000000
_cell_angle_beta 90.000000
_cell_angle_gamma 90.000000
_cell_volume 3266.240598
_symmetry_space_group_name_H-M "P M M M"
_symmetry_group_IT_number 47
_symmetry_cell_setting 'orthorhombic'
loop_
_space_group_symop_operation_xyz
x,y,z
-x,-y,z
x,-y,-z
-x,y,-z
-x,-y,-z
x,y,-z
-x,y,z
x,-y,z
loop_
_atom_site_type_symbol
_atom_site_label
_atom_site_fract_x
_atom_site_fract_y
_atom_site_fract_z
Si Si1 0.571313 0.322854 0.086101
Si Si2 0.872645 0.808940 0.248878
Si Si3 0.741224 0.683683 0.735905
Si Si4 0.929585 0.192877 0.913852
Si Si5 0.614568 0.178212 0.768350
Si Si6 0.070772 0.807204 0.412949
Si Si7 0.566913 0.686180 0.380273
Si Si8 0.304958 0.184050 0.585807
O O1 0.500000 0.326093 0.083445
O O2 0.591450 0.500000 0.111099
O O3 0.590785 0.194192 0.146453
O O4 0.593647 0.294451 0.000000
O O5 0.803241 0.765836 0.245821
O O6 0.901409 0.750229 0.167588
O O7 0.898582 0.750732 0.332469
O O8 0.880810 0.000000 0.249777
O O9 0.741926 0.500000 0.758628
O O10 0.683298 0.771160 0.769471
O O11 0.728027 0.702052 0.644803
O O12 0.000000 0.227754 0.910818
O O13 0.923071 0.000000 0.914082
O O14 0.907805 0.247240 0.000000
O O15 0.577450 0.292073 0.711470
O O16 0.607599 0.000000 0.738418
O O17 0.090684 0.752877 0.500000
O O18 0.000000 0.773207 0.407408
O O19 0.077486 0.000000 0.413669
O O20 0.500000 0.741081 0.400674
O O21 0.571363 0.500000 0.400571
O O22 0.624263 0.777568 0.413043
O O23 0.282221 0.204657 0.500000
O O24 0.295733 0.000000 0.608761
#
# Coordination Sequence:
#
# PCOD9382059 Si02
#       8
#     8   8   8   8   8   8   8   8
#     4   9  18  33  53  77 105 135 164 196 243 308
#     4  10  18  30  51  77 104 135 173 219 264 304
#     4  11  23  38  54  71  97 135 176 214 254 308
#     4   8  14  26  48  80 112 138 168 210 260 310
#     4  11  21  34  53  74  98 129 168 216 262 302
#     4   8  14  25  44  74 108 137 167 205 251 305
#     4  10  20  33  51  75 102 133 167 202 248 311
#     4  10  21  37  56  76  99 128 165 213 263 306
#
# _framework density 19.594393
#
# number of rings (size 3 to 8) (size 9 to 14) (size 15 to 20)
#    0.000    2.375    0.000    6.375    0.000    6.250 
#    0.000    3.750    0.000    4.125    0.000    1.750 
#    0.000    0.000    0.000    0.000    0.000    0.000 
#
# Total GULP energy -356566.173742 kJ/mol
# GULP energy per Si atom -5571.346465 kJ/mol
# Density = 1.954980 g / cm^3
# Si number density = 19.594393 Si / 1000 Ang^3
#
#
#
# Elastic Constant Matrix: (Units=GPa)
#
#
# Indices 1 2 3 4 5 6 
#
# 1 55.1467 -5.4104 35.1540 0.0000 0.0000 0.0000
# 2 -5.4104 20.8139 16.8459 0.0000 0.0000 0.0000
# 3 35.1540 16.8459 117.9912 0.0000 0.0000 0.0000
# 4 0.0000 0.0000 0.0000 19.5906 0.0000 0.0000
# 5 0.0000 0.0000 0.0000 0.0000 45.8072 0.0000
# 6 0.0000 0.0000 0.0000 0.0000 0.0000 35.4257
#
#
#
# Elastic Compliance Matrix: (Units=1/GPa)
#
#
# Indices 1 2 3 4 5 6 
#
# 1 0.025797 0.014615 -0.009773 0.000000 0.000000 0.000000
# 2 0.014615 0.062602 -0.013292 0.000000 0.000000 0.000000
# 3 -0.009773 -0.013292 0.013285 0.000000 0.000000 0.000000
# 4 0.000000 0.000000 0.000000 0.051045 0.000000 0.000000
# 5 0.000000 0.000000 0.000000 0.000000 0.021831 0.000000
# 6 0.000000 0.000000 0.000000 0.000000 0.000000 0.028228
#
#
# Mechanical properties :
#
#
# Convention : Reuss Voigt Hill
#
# Bulk Modulus (GPa) = 11.79460 31.90343 21.84901
# Shear Modulus (GPa) = 20.16550 29.98886 25.07718
#
# Velocity S-wave (km/s) = 3.21151 3.91638 3.58133
# Velocity P-wave (km/s) = 4.44794 6.06366 5.31753
#
# Compressibility (1/GPa) = 0.08478459
#
# Stress axis : x y z
#
# Youngs Moduli (GPa) = 38.76426 15.97385 75.27518
#
# Poissons Ratio (x) = -0.23346 0.73563
# Poissons Ratio (y) = -0.56655 1.00058
# Poissons Ratio (z) = 0.37883 0.21233
#
# Static dielectric constant tensor:
#      x y z
#    x 1.659720 0.000000 0.000000 
#    y 0.000000 1.691880 0.000000 
#    z 0.000000 0.000000 1.743470 
# 
# From -- ./inp_files/28829.got.cif
#   From: 2010.05.17/outbox.cif.g08.bks.cpg/sg47_15_cif.got.tgz:28829.got - 2010.06.03 20:15:42.
