data_PCOD9382431
_publ_section_title
;
Structure prediction by ZEFSAII (Michael W. Deem and Ramdas Pophale) SiO2 
 PCOD9382431
Probable space group: P M M M
;
_chemical_formula_sum "Si O2"
_cell_formula_units_Z 60
_cell_length_a 8.652748
_cell_length_b 24.767414
_cell_length_c 19.268394
_cell_angle_alpha 90.000000
_cell_angle_beta 90.000000
_cell_angle_gamma 90.000000
_cell_volume 4129.336143
_symmetry_space_group_name_H-M "P M M M"
_symmetry_group_IT_number 47
_symmetry_cell_setting 'orthorhombic'
loop_
_space_group_symop_operation_xyz
x,y,z
-x,-y,z
x,-y,-z
-x,y,-z
-x,-y,-z
x,y,-z
-x,y,z
x,-y,z
loop_
_atom_site_type_symbol
_atom_site_label
_atom_site_fract_x
_atom_site_fract_y
_atom_site_fract_z
Si Si1 0.313585 0.617088 0.079806
Si Si2 0.681988 0.940900 0.916082
Si Si3 0.677003 0.500000 0.415627
Si Si4 0.687153 0.381322 0.419666
Si Si5 0.184157 0.826923 0.080864
Si Si6 0.813914 0.559171 0.792587
Si Si7 0.185116 0.333972 0.288684
Si Si8 0.315347 0.274337 0.162155
O O1 0.500000 0.613143 0.082733
O O2 0.241372 0.572210 0.129682
O O3 0.269506 0.675300 0.112279
O O4 0.265162 0.613029 0.000000
O O5 0.500000 0.936306 0.899658
O O6 0.768311 0.886766 0.894126
O O7 0.737513 0.000000 0.891195
O O8 0.694617 0.941998 0.000000
O O9 0.500000 0.500000 0.389719
O O10 0.668996 0.500000 0.500000
O O11 0.747491 0.441647 0.398548
O O12 0.729651 0.371831 0.500000
O O13 0.500000 0.383135 0.416536
O O14 0.750494 0.337567 0.366254
O O15 0.257009 0.780482 0.127725
O O16 0.000000 0.822018 0.081828
O O17 0.236157 0.820857 0.000000
O O18 0.759146 0.500000 0.769615
O O19 0.759423 0.609701 0.746939
O O20 0.000000 0.559433 0.790671
O O21 0.246434 0.287581 0.237767
O O22 0.000000 0.332891 0.289405
O O23 0.500000 0.273862 0.166587
#
# Coordination Sequence:
#
# PCOD9382431 Si02
#       8
#     8   8   4   8   8   8   8   8
#     4   9  18  31  45  60  75  92 121 165 209 244
#     4   8  14  25  40  58  82 113 148 182 214 249
#     4   7  12  24  41  61  83 103 124 153 186 225
#     4   9  17  30  47  66  86 107 132 160 193 239
#     4  10  19  28  41  63  88 113 143 181 223 260
#     4   9  19  33  44  56  76 101 126 152 192 248
#     4  10  20  32  46  62  83 106 130 165 206 249
#     4  10  19  32  47  60  78 105 140 175 210 252
#
# _framework density 14.530181000000001
#
# number of rings (size 3 to 8) (size 9 to 14) (size 15 to 20)
#    0.000    2.867    0.000    2.800    0.933    3.733 
#    0.000    2.667    0.000    1.200    0.000    0.000 
#    0.000    0.000    0.000    0.000    0.000    0.667 
#
# Total GULP energy -334257.835250 kJ/mol
# GULP energy per Si atom -5570.963921 kJ/mol
# Density = 1.449711 g / cm^3
# Si number density = 14.530181 Si / 1000 Ang^3
#
#
#
# Elastic Constant Matrix: (Units=GPa)
#
#
# Indices 1 2 3 4 5 6 
#
# 1 18.7274 21.9512 16.9127 0.0000 0.0000 0.0000
# 2 21.9512 82.5563 31.6267 0.0000 0.0000 0.0000
# 3 16.9127 31.6267 72.9184 0.0000 0.0000 0.0000
# 4 0.0000 0.0000 0.0000 12.6818 0.0000 0.0000
# 5 0.0000 0.0000 0.0000 0.0000 16.6838 0.0000
# 6 0.0000 0.0000 0.0000 0.0000 0.0000 18.1737
#
#
#
# Elastic Compliance Matrix: (Units=1/GPa)
#
#
# Indices 1 2 3 4 5 6 
#
# 1 0.085459 -0.018144 -0.011952 0.000000 0.000000 0.000000
# 2 -0.018144 0.018379 -0.003763 0.000000 0.000000 0.000000
# 3 -0.011952 -0.003763 0.018118 0.000000 0.000000 0.000000
# 4 0.000000 0.000000 0.000000 0.078853 0.000000 0.000000
# 5 0.000000 0.000000 0.000000 0.000000 0.059938 0.000000
# 6 0.000000 0.000000 0.000000 0.000000 0.000000 0.055025
#
#
# Mechanical properties :
#
#
# Convention : Reuss Voigt Hill
#
# Bulk Modulus (GPa) = 18.43731 35.02038 26.72884
# Shear Modulus (GPa) = 12.45114 16.42196 14.43655
#
# Velocity S-wave (km/s) = 2.93049 3.36549 3.15549
# Velocity P-wave (km/s) = 4.91598 6.26547 5.63130
#
# Compressibility (1/GPa) = 0.05423786
#
# Stress axis : x y z
#
# Youngs Moduli (GPa) = 11.70153 54.40986 55.19325
#
# Poissons Ratio (x) = 0.98723 0.65965
# Poissons Ratio (y) = 0.21232 0.20770
# Poissons Ratio (z) = 0.13985 0.20475
#
# Static dielectric constant tensor:
#      x y z
#    x 1.491890 0.000000 0.000000 
#    y 0.000000 1.486950 0.000000 
#    z 0.000000 0.000000 1.481250 
# 
# From -- ./inp_files/27113.got.cif
#   From: 2010.05.17/outbox.cif.g08.bks.cpg/sg47_14_cif.got.tgz:27113.got - 2010.06.03 20:15:42.
