data_PCOD9382404
_publ_section_title
;
Structure prediction by ZEFSAII (Michael W. Deem and Ramdas Pophale) SiO2 
 PCOD9382404
Probable space group: P M M M
;
_chemical_formula_sum "Si O2"
_cell_formula_units_Z 56
_cell_length_a 29.709969
_cell_length_b 9.209874
_cell_length_c 13.971424
_cell_angle_alpha 90.000000
_cell_angle_beta 90.000000
_cell_angle_gamma 90.000000
_cell_volume 3822.931884
_symmetry_space_group_name_H-M "P M M M"
_symmetry_group_IT_number 47
_symmetry_cell_setting 'orthorhombic'
loop_
_space_group_symop_operation_xyz
x,y,z
-x,-y,z
x,-y,-z
-x,y,-z
-x,-y,-z
x,y,-z
-x,y,z
x,-y,z
loop_
_atom_site_type_symbol
_atom_site_label
_atom_site_fract_x
_atom_site_fract_y
_atom_site_fract_z
Si Si1 0.140856 0.172526 0.385656
Si Si2 0.949908 0.331246 0.616074
Si Si3 0.448200 0.326340 0.887153
Si Si4 0.635693 0.172740 0.202655
Si Si5 0.688999 0.827734 0.391080
Si Si6 0.279721 0.673055 0.891048
Si Si7 0.226643 0.326748 0.701896
O O1 0.146155 0.201921 0.500000
O O2 0.092248 0.234204 0.354677
O O3 0.180668 0.251492 0.329439
O O4 0.143063 0.000000 0.372483
O O5 0.950695 0.327324 0.500000
O O6 0.943161 0.500000 0.643240
O O7 0.000000 0.285288 0.648405
O O8 0.500000 0.288865 0.863965
O O9 0.443111 0.500000 0.875590
O O10 0.411377 0.243459 0.825678
O O11 0.441078 0.294420 0.000000
O O12 0.651082 0.202965 0.311819
O O13 0.675198 0.241829 0.137920
O O14 0.634283 0.000000 0.188920
O O15 0.675363 0.797923 0.500000
O O16 0.733051 0.736974 0.362915
O O17 0.699924 0.000000 0.383569
O O18 0.289060 0.500000 0.884817
O O19 0.242152 0.705550 0.810962
O O20 0.266538 0.706361 0.000000
O O21 0.223419 0.500000 0.690433
#
# Coordination Sequence:
#
# PCOD9382404 Si02
#       7
#     8   8   8   8   8   8   8
#     4  10  19  28  39  57  84 117 146 173 209 251
#     4   8  14  25  40  57  78 106 141 179 214 246
#     4   9  18  32  48  65  87 115 141 165 202 253
#     4  10  19  29  45  69  90 109 138 174 208 243
#     4   9  18  32  46  60  84 116 144 171 206 247
#     4   9  18  32  47  62  84 114 142 168 205 254
#     4  10  19  29  43  63  84 108 142 180 211 242
#
# _framework density 14.648443
#
# number of rings (size 3 to 8) (size 9 to 14) (size 15 to 20)
#    0.000    2.714    0.000    3.000    0.000    6.857 
#    0.000    2.143    0.000    0.429    0.000    3.000 
#    0.000    0.571    0.000    6.571    0.000    2.143 
#
# Total GULP energy -312060.528262 kJ/mol
# GULP energy per Si atom -5572.509433 kJ/mol
# Density = 1.461510 g / cm^3
# Si number density = 14.648443 Si / 1000 Ang^3
#
#
#
# Elastic Constant Matrix: (Units=GPa)
#
#
# Indices 1 2 3 4 5 6 
#
# 1 141.4041 69.9424 63.0797 0.0000 0.0000 0.0000
# 2 69.9424 53.9622 46.6832 0.0000 0.0000 0.0000
# 3 63.0797 46.6832 84.4238 0.0000 0.0000 0.0000
# 4 0.0000 0.0000 0.0000 19.1220 0.0000 0.0000
# 5 0.0000 0.0000 0.0000 0.0000 17.8356 0.0000
# 6 0.0000 0.0000 0.0000 0.0000 0.0000 14.3549
#
#
#
# Elastic Compliance Matrix: (Units=1/GPa)
#
#
# Indices 1 2 3 4 5 6 
#
# 1 0.019763 -0.024617 -0.001154 0.000000 0.000000 0.000000
# 2 -0.024617 0.066190 -0.018207 0.000000 0.000000 0.000000
# 3 -0.001154 -0.018207 0.022775 0.000000 0.000000 0.000000
# 4 0.000000 0.000000 0.000000 0.052296 0.000000 0.000000
# 5 0.000000 0.000000 0.000000 0.000000 0.056067 0.000000
# 6 0.000000 0.000000 0.000000 0.000000 0.000000 0.069662
#
#
# Mechanical properties :
#
#
# Convention : Reuss Voigt Hill
#
# Bulk Modulus (GPa) = 48.14339 71.02230 59.58284
# Shear Modulus (GPa) = 13.10151 16.93484 15.01818
#
# Velocity S-wave (km/s) = 2.99389 3.40381 3.20541
# Velocity P-wave (km/s) = 6.69988 8.00236 7.37991
#
# Compressibility (1/GPa) = 0.02077128
#
# Stress axis : x y z
#
# Youngs Moduli (GPa) = 50.59903 15.10801 43.90732
#
# Poissons Ratio (x) = 0.37192 0.05068
# Poissons Ratio (y) = 1.24561 0.79942
# Poissons Ratio (z) = 0.05840 0.27507
#
# Static dielectric constant tensor:
#      x y z
#    x 1.470090 0.000000 0.000000 
#    y 0.000000 1.485650 0.000000 
#    z 0.000000 0.000000 1.478060 
# 
# From -- ./inp_files/25799.got.cif
#   From: 2010.05.17/outbox.cif.g08.bks.cpg/sg47_13_cif.got.tgz:25799.got - 2010.06.03 20:15:42.
