data_PCOD9382336
_publ_section_title
;
Structure prediction by ZEFSAII (Michael W. Deem and Ramdas Pophale) SiO2 
 PCOD9382336
Probable space group: P M M M
;
_chemical_formula_sum "Si O2"
_cell_formula_units_Z 52
_cell_length_a 14.863220
_cell_length_b 9.406351
_cell_length_c 20.411028
_cell_angle_alpha 90.000000
_cell_angle_beta 90.000000
_cell_angle_gamma 90.000000
_cell_volume 2853.638562
_symmetry_space_group_name_H-M "P M M M"
_symmetry_group_IT_number 47
_symmetry_cell_setting 'orthorhombic'
loop_
_space_group_symop_operation_xyz
x,y,z
-x,-y,z
x,-y,-z
-x,y,-z
-x,-y,-z
x,y,-z
-x,y,z
x,-y,z
loop_
_atom_site_type_symbol
_atom_site_label
_atom_site_fract_x
_atom_site_fract_y
_atom_site_fract_z
Si Si1 0.894585 0.835188 0.421687
Si Si2 0.607215 0.837238 0.282070
Si Si3 0.348078 0.156543 0.129684
Si Si4 0.775364 0.329739 0.679206
Si Si5 0.897984 0.830693 0.783927
Si Si6 0.500000 0.666728 0.071984
Si Si7 0.147886 0.166775 0.926532
O O1 0.882631 0.826444 0.500000
O O2 0.829362 0.730522 0.383229
O O3 0.000000 0.805255 0.408048
O O4 0.877590 0.000000 0.401620
O O5 0.500000 0.801643 0.280164
O O6 0.647290 0.839799 0.208194
O O7 0.673661 0.731522 0.319842
O O8 0.614472 0.000000 0.307007
O O9 0.412414 0.279689 0.107493
O O10 0.252605 0.172696 0.094421
O O11 0.383403 0.000000 0.110719
O O12 0.776103 0.500000 0.682736
O O13 0.830284 0.260150 0.740193
O O14 0.897872 0.779885 0.859815
O O15 0.000000 0.820743 0.758542
O O16 0.872406 0.000000 0.783299
O O17 0.500000 0.500000 0.068432
O O18 0.500000 0.731216 0.000000
O O19 0.122632 0.000000 0.930731
O O20 0.132919 0.226884 0.000000
#
# Coordination Sequence:
#
# PCOD9382336 Si02
#       7
#     8   8   8   8   8   4   8
#     4   9  19  38  65  95 125 158 195 232 271 320
#     4  10  20  37  60  82 106 142 190 240 286 335
#     4  10  18  33  54  72  94 129 178 234 285 339
#     4  12  24  36  56  86 122 157 186 228 281 337
#     4  10  20  35  55  77 106 146 192 241 286 335
#     4  11  23  33  43  67 103 135 166 215 284 359
#     4   9  17  30  50  75 100 129 174 235 294 341
#
# _framework density 18.222349000000001
#
# number of rings (size 3 to 8) (size 9 to 14) (size 15 to 20)
#    0.000    1.923    2.308    3.000    0.000    5.231 
#    0.000    2.308    0.000    0.923    0.000    4.308 
#    0.000    0.000    0.000    0.000    0.000    0.000 
#
# Total GULP energy -289846.833546 kJ/mol
# GULP energy per Si atom -5573.977568 kJ/mol
# Density = 1.818087 g / cm^3
# Si number density = 18.222349 Si / 1000 Ang^3
#
#
#
# Elastic Constant Matrix: (Units=GPa)
#
#
# Indices 1 2 3 4 5 6 
#
# 1 89.0474 56.3729 35.2944 0.0000 0.0000 0.0000
# 2 56.3729 95.1803 37.4385 0.0000 0.0000 0.0000
# 3 35.2944 37.4385 72.5052 0.0000 0.0000 0.0000
# 4 0.0000 0.0000 0.0000 3.0703 0.0000 0.0000
# 5 0.0000 0.0000 0.0000 0.0000 24.9811 0.0000
# 6 0.0000 0.0000 0.0000 0.0000 0.0000 9.2763
#
#
#
# Elastic Compliance Matrix: (Units=1/GPa)
#
#
# Indices 1 2 3 4 5 6 
#
# 1 0.018983 -0.009547 -0.004311 0.000000 0.000000 0.000000
# 2 -0.009547 0.017986 -0.004640 0.000000 0.000000 0.000000
# 3 -0.004311 -0.004640 0.018286 0.000000 0.000000 0.000000
# 4 0.000000 0.000000 0.000000 0.325702 0.000000 0.000000
# 5 0.000000 0.000000 0.000000 0.000000 0.040030 0.000000
# 6 0.000000 0.000000 0.000000 0.000000 0.000000 0.107802
#
#
# Mechanical properties :
#
#
# Convention : Reuss Voigt Hill
#
# Bulk Modulus (GPa) = 54.76599 57.21606 55.99102
# Shear Modulus (GPa) = 8.74323 15.97401 12.35862
#
# Velocity S-wave (km/s) = 2.19283 2.96398 2.60708
# Velocity P-wave (km/s) = 6.04408 6.57119 6.31314
#
# Compressibility (1/GPa) = 0.01825951
#
# Stress axis : x y z
#
# Youngs Moduli (GPa) = 52.67964 55.59866 54.68614
#
# Poissons Ratio (x) = 0.53082 0.23573
# Poissons Ratio (y) = 0.50295 0.25373
# Poissons Ratio (z) = 0.22708 0.25796
#
# Static dielectric constant tensor:
#      x y z
#    x 1.651830 0.000000 0.000000 
#    y 0.000000 1.601790 0.000000 
#    z 0.000000 0.000000 1.655380 
# 
# From -- ./inp_files/30908.got.cif
#   From: 2010.05.17/outbox.cif.g08.bks.cpg/sg47_16_cif.got.tgz:30908.got - 2010.06.03 20:15:42.
