data_PCOD9382327
_publ_section_title
;
Structure prediction by ZEFSAII (Michael W. Deem and Ramdas Pophale) SiO2 
 PCOD9382327
Probable space group: P M M M
;
_chemical_formula_sum "Si O2"
_cell_formula_units_Z 44
_cell_length_a 13.935365
_cell_length_b 8.882195
_cell_length_c 19.258308
_cell_angle_alpha 90.000000
_cell_angle_beta 90.000000
_cell_angle_gamma 90.000000
_cell_volume 2383.728451
_symmetry_space_group_name_H-M "P M M M"
_symmetry_group_IT_number 47
_symmetry_cell_setting 'orthorhombic'
loop_
_space_group_symop_operation_xyz
x,y,z
-x,-y,z
x,-y,-z
-x,y,-z
-x,-y,-z
x,y,-z
-x,y,z
x,-y,z
loop_
_atom_site_type_symbol
_atom_site_label
_atom_site_fract_x
_atom_site_fract_y
_atom_site_fract_z
Si Si1 0.110560 0.678088 0.194930
Si Si2 0.804484 0.681484 0.342270
Si Si3 0.771016 0.820458 0.919930
Si Si4 0.607580 0.819835 0.673318
Si Si5 0.609412 0.324596 0.826089
Si Si6 0.000000 0.683126 0.419395
O O1 0.123814 0.500000 0.181888
O O2 0.174115 0.719675 0.261589
O O3 0.140029 0.768732 0.127111
O O4 0.000000 0.701568 0.213883
O O5 0.798571 0.500000 0.347498
O O6 0.702000 0.750901 0.362829
O O7 0.899950 0.731779 0.383753
O O8 0.680898 0.744433 0.881851
O O9 0.761187 0.000000 0.917438
O O10 0.779519 0.773626 0.000000
O O11 0.500000 0.776060 0.647562
O O12 0.612567 0.762146 0.752928
O O13 0.613635 0.000000 0.671754
O O14 0.500000 0.316290 0.851581
O O15 0.633120 0.500000 0.813083
O O16 0.000000 0.500000 0.414082
O O17 0.000000 0.724661 0.500000
#
# Coordination Sequence:
#
# PCOD9382327 Si02
#       6
#     8   8   8   8   8   4
#     4  10  20  35  55  78 103 135 180 229 274 327
#     4  10  18  32  57  86 114 147 186 225 269 325
#     4  11  24  38  51  71 102 140 182 229 280 333
#     4  10  20  33  52  81 114 146 184 231 281 330
#     4  10  20  34  53  76 102 134 176 227 279 332
#     4   9  18  34  59  93 128 155 180 220 274 324
#
# _framework density 18.458477999999999
#
# number of rings (size 3 to 8) (size 9 to 14) (size 15 to 20)
#    0.000    1.909    2.727    1.636    0.000    4.727 
#    0.000    4.091    0.000    1.636    0.000    3.818 
#    0.000    0.000    0.000    0.000    0.000    0.000 
#
# Total GULP energy -245463.151835 kJ/mol
# GULP energy per Si atom -5578.707996 kJ/mol
# Density = 1.841647 g / cm^3
# Si number density = 18.458478 Si / 1000 Ang^3
#
#
#
# Elastic Constant Matrix: (Units=GPa)
#
#
# Indices 1 2 3 4 5 6 
#
# 1 154.1010 33.3116 32.9536 0.0000 0.0000 0.0000
# 2 33.3116 31.2066 14.0909 0.0000 0.0000 0.0000
# 3 32.9536 14.0909 51.1485 0.0000 0.0000 0.0000
# 4 0.0000 0.0000 0.0000 0.0335 0.0000 0.0000
# 5 0.0000 0.0000 0.0000 0.0000 17.2652 0.0000
# 6 0.0000 0.0000 0.0000 0.0000 0.0000 17.5625
#
#
#
# Elastic Compliance Matrix: (Units=1/GPa)
#
#
# Indices 1 2 3 4 5 6 
#
# 1 0.008978 -0.007963 -0.003591 0.000000 0.000000 0.000000
# 2 -0.007963 0.043659 -0.006897 0.000000 0.000000 0.000000
# 3 -0.003591 -0.006897 0.023765 0.000000 0.000000 0.000000
# 4 0.000000 0.000000 0.000000 29.809431 0.000000 0.000000
# 5 0.000000 0.000000 0.000000 0.000000 0.057920 0.000000
# 6 0.000000 0.000000 0.000000 0.000000 0.000000 0.056939
#
#
# Mechanical properties :
#
#
# Convention : Reuss Voigt Hill
#
# Bulk Modulus (GPa) = 25.31662 44.12983 34.72323
# Shear Modulus (GPa) = 0.16639 17.37892 8.77265
#
# Velocity S-wave (km/s) = 0.30056 3.07174 2.18242
# Velocity P-wave (km/s) = 3.72366 6.04486 5.02026
#
# Compressibility (1/GPa) = 0.03949974
#
# Stress axis : x y z
#
# Youngs Moduli (GPa) = 111.37834 22.90496 42.07926
#
# Poissons Ratio (x) = 0.18238 0.15110
# Poissons Ratio (y) = 0.88686 0.29024
# Poissons Ratio (z) = 0.39995 0.15799
#
# Static dielectric constant tensor:
#      x y z
#    x 1.680830 0.000000 0.000000 
#    y 0.000000 1.621010 0.000000 
#    z 0.000000 0.000000 1.601870 
# 
# From -- ./inp_files/8969.got.cif
#   From: 2010.05.17/outbox.cif.g08.bks.cpg/sg47_5_cif.got.tgz:8969.got - 2010.06.03 20:15:42.
