data_PCOD9382114
_publ_section_title
;
Structure prediction by ZEFSAII (Michael W. Deem and Ramdas Pophale) SiO2 
 PCOD9382114
Probable space group: P M M M
;
_chemical_formula_sum "Si O2"
_cell_formula_units_Z 52
_cell_length_a 18.172743
_cell_length_b 9.152298
_cell_length_c 18.146596
_cell_angle_alpha 90.000000
_cell_angle_beta 90.000000
_cell_angle_gamma 90.000000
_cell_volume 3018.184662
_symmetry_space_group_name_H-M "P M M M"
_symmetry_group_IT_number 47
_symmetry_cell_setting 'orthorhombic'
loop_
_space_group_symop_operation_xyz
x,y,z
-x,-y,z
x,-y,-z
-x,y,-z
-x,-y,-z
x,y,-z
-x,y,z
x,-y,z
loop_
_atom_site_type_symbol
_atom_site_label
_atom_site_fract_x
_atom_site_fract_y
_atom_site_fract_z
Si Si1 0.278104 0.165387 0.884583
Si Si2 0.883821 0.823362 0.919082
Si Si3 0.629035 0.326099 0.323770
Si Si4 0.418257 0.673322 0.153130
Si Si5 0.226137 0.831949 0.286288
Si Si6 0.082772 0.326159 0.234365
Si Si7 0.500000 0.828006 0.412041
O O1 0.202715 0.216730 0.920956
O O2 0.351640 0.257292 0.891967
O O3 0.255929 0.164217 0.798019
O O4 0.292214 0.000000 0.908121
O O5 0.915133 0.741352 0.848259
O O6 0.888683 0.000000 0.907365
O O7 0.915252 0.791291 0.000000
O O8 0.631727 0.500000 0.335990
O O9 0.598818 0.302939 0.240143
O O10 0.710250 0.255914 0.328704
O O11 0.571591 0.248901 0.377628
O O12 0.500000 0.730486 0.136492
O O13 0.417990 0.500000 0.141638
O O14 0.147469 0.752046 0.280313
O O15 0.219157 0.000000 0.311059
O O16 0.096824 0.500000 0.230576
O O17 0.000000 0.302865 0.263631
O O18 0.500000 0.814043 0.500000
O O19 0.500000 0.000000 0.392805
#
# Coordination Sequence:
#
# PCOD9382114 Si02
#       7
#     8   8   8   8   8   8   4
#     4   8  15  26  40  60  80 102 138 184 230 276
#     4   9  18  32  47  61  81 113 152 191 234 290
#     4  10  18  31  49  69  95 128 166 203 240 282
#     4   9  16  26  40  61  85 108 139 182 231 279
#     4   9  17  30  48  69  92 121 156 195 239 287
#     4  10  20  32  46  68  97 124 152 192 241 291
#     4  11  23  35  47  69 105 145 180 211 238 267
#
# _framework density 17.228899999999999
#
# number of rings (size 3 to 8) (size 9 to 14) (size 15 to 20)
#    0.000    2.692    0.769    2.538    0.000    7.077 
#    0.000    1.538    0.000    0.462    0.000    3.231 
#    0.000    0.615    0.000    6.462    0.000    2.769 
#
# Total GULP energy -289769.368358 kJ/mol
# GULP energy per Si atom -5572.487853 kJ/mol
# Density = 1.718969 g / cm^3
# Si number density = 17.228900 Si / 1000 Ang^3
#
#
#
# Elastic Constant Matrix: (Units=GPa)
#
#
# Indices 1 2 3 4 5 6 
#
# 1 164.0794 73.8789 26.3314 0.0000 0.0000 0.0000
# 2 73.8789 83.0248 28.2056 0.0000 0.0000 0.0000
# 3 26.3314 28.2056 30.8496 0.0000 0.0000 0.0000
# 4 0.0000 0.0000 0.0000 11.3605 0.0000 0.0000
# 5 0.0000 0.0000 0.0000 0.0000 -9.5835 0.0000
# 6 0.0000 0.0000 0.0000 0.0000 0.0000 -1.0237
#
#
#
# Elastic Compliance Matrix: (Units=1/GPa)
#
#
# Indices 1 2 3 4 5 6 
#
# 1 0.010176 -0.008855 -0.000590 0.000000 0.000000 0.000000
# 2 -0.008855 0.025176 -0.015461 0.000000 0.000000 0.000000
# 3 -0.000590 -0.015461 0.047054 0.000000 0.000000 0.000000
# 4 0.000000 0.000000 0.000000 0.088024 0.000000 0.000000
# 5 0.000000 0.000000 0.000000 0.000000 -0.104346 0.000000
# 6 0.000000 0.000000 0.000000 0.000000 0.000000 -0.976861
#
#
# Mechanical properties :
#
#
# Convention : Reuss Voigt Hill
#
# Bulk Modulus (GPa) = 30.67836 59.42063 45.04949
# Shear Modulus (GPa) = -5.88167 10.11984 2.11909
#
# Velocity S-wave (km/s) = -1.84966 2.42621 1.11024
# Velocity P-wave (km/s) = 3.64463 6.51249 5.27711
#
# Compressibility (1/GPa) = 0.03259627
#
# Stress axis : x y z
#
# Youngs Moduli (GPa) = 98.26736 39.71976 21.25199
#
# Poissons Ratio (x) = 0.35171 0.01254
# Poissons Ratio (y) = 0.87015 0.32857
# Poissons Ratio (z) = 0.05797 0.61409
#
# Static dielectric constant tensor:
#      x y z
#    x 1.609480 0.000000 0.000000 
#    y 0.000000 1.581430 0.000000 
#    z 0.000000 0.000000 1.567200 
# 
# From -- ./inp_files/28494.got.cif
#   From: 2010.05.17/outbox.cif.g08.bks.cpg/sg47_15_cif.got.tgz:28494.got - 2010.06.03 20:15:42.
