data_PCOD9382116
_publ_section_title
;
Structure prediction by ZEFSAII (Michael W. Deem and Ramdas Pophale) SiO2 
 PCOD9382116
Probable space group: P M M M
;
_chemical_formula_sum "Si O2"
_cell_formula_units_Z 64
_cell_length_a 10.062739
_cell_length_b 27.459729
_cell_length_c 13.658630
_cell_angle_alpha 90.000000
_cell_angle_beta 90.000000
_cell_angle_gamma 90.000000
_cell_volume 3774.153815
_symmetry_space_group_name_H-M "P M M M"
_symmetry_group_IT_number 47
_symmetry_cell_setting 'orthorhombic'
loop_
_space_group_symop_operation_xyz
x,y,z
-x,-y,z
x,-y,-z
-x,y,-z
-x,-y,-z
x,y,-z
-x,y,z
x,-y,z
loop_
_atom_site_type_symbol
_atom_site_label
_atom_site_fract_x
_atom_site_fract_y
_atom_site_fract_z
Si Si1 0.144851 0.711514 0.388753
Si Si2 0.851081 0.118415 0.114650
Si Si3 0.660403 0.636686 0.706332
Si Si4 0.342592 0.861442 0.608564
Si Si5 0.774362 0.211118 0.237221
Si Si6 0.341041 0.298419 0.889205
Si Si7 0.845343 0.558113 0.615477
Si Si8 0.659319 0.942837 0.755189
O O1 0.158729 0.729298 0.500000
O O2 0.268190 0.676854 0.362793
O O3 0.143629 0.754506 0.309960
O O4 0.000000 0.685969 0.382378
O O5 0.842732 0.169203 0.173521
O O6 0.741322 0.082070 0.157654
O O7 0.000000 0.098226 0.127645
O O8 0.828925 0.127325 0.000000
O O9 0.500000 0.634000 0.693544
O O10 0.690379 0.657012 0.815623
O O11 0.738716 0.587666 0.678950
O O12 0.284916 0.853514 0.500000
O O13 0.500000 0.864803 0.598615
O O14 0.315987 0.818815 0.686292
O O15 0.299162 0.911931 0.659256
O O16 0.705090 0.248725 0.163028
O O17 0.500000 0.296696 0.894279
O O18 0.288418 0.303130 0.000000
O O19 0.828425 0.570798 0.500000
O O20 0.826514 0.500000 0.624361
O O21 0.000000 0.568369 0.641253
O O22 0.500000 0.936519 0.769216
O O23 0.685911 0.000000 0.746467
#
# Coordination Sequence:
#
# PCOD9382116 Si02
#       8
#     8   8   8   8   8   8   8   8
#     4  10  20  32  47  68  97 134 168 196 234 287
#     4  10  21  35  51  72  97 124 154 194 246 295
#     4  10  20  32  49  74 101 130 167 210 251 288
#     4   9  17  29  47  73 103 129 153 190 241 290
#     4  10  18  31  49  71  95 126 165 204 235 279
#     4   9  18  32  49  70  99 134 169 206 248 291
#     4   9  18  33  53  76 103 136 169 200 242 298
#     4   9  19  35  53  73  95 121 157 196 233 281
#
# _framework density 16.957443000000001
#
# number of rings (size 3 to 8) (size 9 to 14) (size 15 to 20)
#    0.000    2.500    0.000    2.625    0.000    4.250 
#    0.000    3.125    0.000   11.250    0.000    6.125 
#    0.000    0.000    0.000    0.000    0.000    0.000 
#
# Total GULP energy -356296.839246 kJ/mol
# GULP energy per Si atom -5567.138113 kJ/mol
# Density = 1.691885 g / cm^3
# Si number density = 16.957443 Si / 1000 Ang^3
#
#
#
# Elastic Constant Matrix: (Units=GPa)
#
#
# Indices 1 2 3 4 5 6 
#
# 1 66.2764 46.6201 49.0424 0.0000 0.0000 0.0000
# 2 46.6201 96.7763 50.1422 0.0000 0.0000 0.0000
# 3 49.0424 50.1422 131.6384 0.0000 0.0000 0.0000
# 4 0.0000 0.0000 0.0000 13.0517 0.0000 0.0000
# 5 0.0000 0.0000 0.0000 0.0000 16.7579 0.0000
# 6 0.0000 0.0000 0.0000 0.0000 0.0000 19.6769
#
#
#
# Elastic Compliance Matrix: (Units=1/GPa)
#
#
# Indices 1 2 3 4 5 6 
#
# 1 0.026346 -0.009476 -0.006206 0.000000 0.000000 0.000000
# 2 -0.009476 0.016282 -0.002672 0.000000 0.000000 0.000000
# 3 -0.006206 -0.002672 0.010926 0.000000 0.000000 0.000000
# 4 0.000000 0.000000 0.000000 0.076618 0.000000 0.000000
# 5 0.000000 0.000000 0.000000 0.000000 0.059673 0.000000
# 6 0.000000 0.000000 0.000000 0.000000 0.000000 0.050821
#
#
# Mechanical properties :
#
#
# Convention : Reuss Voigt Hill
#
# Bulk Modulus (GPa) = 59.35684 65.14448 62.25066
# Shear Modulus (GPa) = 17.66839 19.82305 18.74572
#
# Velocity S-wave (km/s) = 3.23139 3.42276 3.32845
# Velocity P-wave (km/s) = 7.00014 7.35664 7.18060
#
# Compressibility (1/GPa) = 0.01684726
#
# Stress axis : x y z
#
# Youngs Moduli (GPa) = 37.95594 61.41578 91.52316
#
# Poissons Ratio (x) = 0.58200 0.56797
# Poissons Ratio (y) = 0.35969 0.24452
# Poissons Ratio (z) = 0.23555 0.16408
#
# Static dielectric constant tensor:
#      x y z
#    x 1.576340 0.000000 0.000000 
#    y 0.000000 1.576570 0.000000 
#    z 0.000000 0.000000 1.586200 
# 
# From -- ./inp_files/22162.got.cif
#   From: 2010.05.17/outbox.cif.g08.bks.cpg/sg47_12_cif.got.tgz:22162.got - 2010.06.03 20:15:42.
