data_PCOD9382288
_publ_section_title
;
Structure prediction by ZEFSAII (Michael W. Deem and Ramdas Pophale) SiO2 
 PCOD9382288
Probable space group: P M M M
;
_chemical_formula_sum "Si O2"
_cell_formula_units_Z 40
_cell_length_a 21.023309
_cell_length_b 12.255163
_cell_length_c 7.540613
_cell_angle_alpha 90.000000
_cell_angle_beta 90.000000
_cell_angle_gamma 90.000000
_cell_volume 1942.794288
_symmetry_space_group_name_H-M "P M M M"
_symmetry_group_IT_number 47
_symmetry_cell_setting 'orthorhombic'
loop_
_space_group_symop_operation_xyz
x,y,z
-x,-y,z
x,-y,-z
-x,y,-z
-x,-y,-z
x,y,-z
-x,y,z
x,-y,z
loop_
_atom_site_type_symbol
_atom_site_label
_atom_site_fract_x
_atom_site_fract_y
_atom_site_fract_z
Si Si1 0.429735 0.762195 0.214353
Si Si2 0.927772 0.624789 0.783232
Si Si3 0.695243 0.375894 0.291329
Si Si4 0.614864 0.000000 0.216169
Si Si5 0.185900 0.228030 0.205708
Si Si6 0.237372 0.000000 0.782012
O O1 0.500000 0.726975 0.273664
O O2 0.372175 0.683899 0.267270
O O3 0.416549 0.886621 0.274366
O O4 0.429658 0.764083 0.000000
O O5 0.914462 0.500000 0.728508
O O6 0.873719 0.706441 0.717362
O O7 0.000000 0.652713 0.731197
O O8 0.926237 0.624591 0.000000
O O9 0.708581 0.380235 0.500000
O O10 0.694037 0.500000 0.222265
O O11 0.751506 0.303587 0.210685
O O12 0.688666 0.000000 0.269367
O O13 0.612216 0.000000 0.000000
O O14 0.203949 0.110355 0.281372
O O15 0.169951 0.208118 0.000000
O O16 0.237756 0.000000 0.000000
#
# Coordination Sequence:
#
# PCOD9382288 Si02
#       6
#     8   8   8   4   8   4
#     4  10  20  35  57  80 100 128 168 208 248 301
#     4   8  14  25  44  73 105 134 167 209 252 289
#     4  11  24  38  51  71 102 136 168 208 258 304
#     4   9  15  30  53  79 106 127 155 206 257 295
#     4  10  18  32  54  77 101 133 172 210 248 298
#     4   9  16  27  49  78 104 128 161 209 257 295
#
# _framework density 20.588902999999998
#
# number of rings (size 3 to 8) (size 9 to 14) (size 15 to 20)
#    0.000    2.400    2.000    2.100    0.000    4.400 
#    0.000    4.500    0.000    4.800    0.000    2.800 
#    0.000    1.600    0.000    0.000    0.000    0.000 
#
# Total GULP energy -223350.924040 kJ/mol
# GULP energy per Si atom -5583.773101 kJ/mol
# Density = 2.054204 g / cm^3
# Si number density = 20.588903 Si / 1000 Ang^3
#
#
#
# Elastic Constant Matrix: (Units=GPa)
#
#
# Indices 1 2 3 4 5 6 
#
# 1 141.8983 75.1475 -9.6043 0.0000 0.0000 0.0000
# 2 75.1475 148.3373 -6.3774 0.0000 0.0000 0.0000
# 3 -9.6043 -6.3774 50.3909 0.0000 0.0000 0.0000
# 4 0.0000 0.0000 0.0000 11.2415 0.0000 0.0000
# 5 0.0000 0.0000 0.0000 0.0000 -25.9844 0.0000
# 6 0.0000 0.0000 0.0000 0.0000 0.0000 26.3196
#
#
#
# Elastic Compliance Matrix: (Units=1/GPa)
#
#
# Indices 1 2 3 4 5 6 
#
# 1 0.009707 -0.004864 0.001234 0.000000 0.000000 0.000000
# 2 -0.004864 0.009216 0.000239 0.000000 0.000000 0.000000
# 3 0.001234 0.000239 0.020110 0.000000 0.000000 0.000000
# 4 0.000000 0.000000 0.000000 0.088956 0.000000 0.000000
# 5 0.000000 0.000000 0.000000 0.000000 -0.038485 0.000000
# 6 0.000000 0.000000 0.000000 0.000000 0.000000 0.037995
#
#
# Mechanical properties :
#
#
# Convention : Reuss Voigt Hill
#
# Bulk Modulus (GPa) = 31.00598 50.99536 41.00067
# Shear Modulus (GPa) = 34.47520 21.07938 27.77729
#
# Velocity S-wave (km/s) = 4.09645 3.20319 3.67705
# Velocity P-wave (km/s) = 6.12101 6.20506 6.16318
#
# Compressibility (1/GPa) = 0.03225185
#
# Stress axis : x y z
#
# Youngs Moduli (GPa) = 103.01816 108.50663 49.72548
#
# Poissons Ratio (x) = 0.52783 -0.06138
# Poissons Ratio (y) = 0.50113 -0.01190
# Poissons Ratio (z) = -0.12717 -0.02596
#
# Static dielectric constant tensor:
#      x y z
#    x 1.703440 0.000000 0.000000 
#    y 0.000000 1.719790 0.000000 
#    z 0.000000 0.000000 1.790370 
# 
# From -- ./inp_files/10721.got.cif
#   From: 2010.05.17/outbox.cif.g08.bks.cpg/sg47_6_cif.got.tgz:10721.got - 2010.06.03 20:15:42.
