data_PCOD9382582
_publ_section_title
;
Structure prediction by ZEFSAII (Michael W. Deem and Ramdas Pophale) SiO2 
 PCOD9382582
Probable space group: P M M M
;
_chemical_formula_sum "Si O2"
_cell_formula_units_Z 64
_cell_length_a 19.836516
_cell_length_b 8.371617
_cell_length_c 24.491888
_cell_angle_alpha 90.000000
_cell_angle_beta 90.000000
_cell_angle_gamma 90.000000
_cell_volume 4067.213898
_symmetry_space_group_name_H-M "P M M M"
_symmetry_group_IT_number 47
_symmetry_cell_setting 'orthorhombic'
loop_
_space_group_symop_operation_xyz
x,y,z
-x,-y,z
x,-y,-z
-x,y,-z
-x,-y,-z
x,y,-z
-x,y,z
x,-y,z
loop_
_atom_site_type_symbol
_atom_site_label
_atom_site_fract_x
_atom_site_fract_y
_atom_site_fract_z
Si Si1 0.423336 0.191225 0.773929
Si Si2 0.074393 0.693291 0.759683
Si Si3 0.924296 0.808394 0.115538
Si Si4 0.346164 0.691153 0.666697
Si Si5 0.783424 0.305675 0.272778
Si Si6 0.297261 0.692733 0.163718
Si Si7 0.422536 0.192685 0.438276
Si Si8 0.211387 0.692895 0.938686
O O1 0.500000 0.248029 0.781765
O O2 0.394060 0.250655 0.715982
O O3 0.371232 0.247521 0.820278
O O4 0.423517 0.000000 0.772804
O O5 0.074411 0.500000 0.758811
O O6 0.083475 0.745679 0.822522
O O7 0.139422 0.749792 0.725920
O O8 0.000000 0.748498 0.741732
O O9 0.863496 0.742386 0.079632
O O10 0.000000 0.761462 0.097073
O O11 0.920957 0.000000 0.116100
O O12 0.346266 0.500000 0.667926
O O13 0.270499 0.747741 0.682067
O O14 0.373996 0.747712 0.608983
O O15 0.784497 0.500000 0.274291
O O16 0.751359 0.260091 0.214187
O O17 0.298981 0.500000 0.163110
O O18 0.264243 0.749510 0.107317
O O19 0.404844 0.244305 0.500000
O O20 0.500000 0.243850 0.427375
O O21 0.422221 0.000000 0.437655
O O22 0.213999 0.500000 0.938539
O O23 0.225782 0.749553 0.000000
#
# Coordination Sequence:
#
# PCOD9382582 Si02
#       8
#     8   8   8   8   8   8   8   8
#     4  10  20  32  47  68  92 117 146 180 218 265
#     4   9  15  26  46  65  84 116 153 182 214 263
#     4  10  20  31  43  63  91 118 145 181 221 260
#     4  10  19  29  44  67  96 124 151 187 224 259
#     4   8  14  26  42  63  89 113 140 180 224 259
#     4   9  17  31  48  66  88 110 138 180 227 271
#     4   9  18  32  47  63  89 125 160 193 225 258
#     4  10  20  34  51  67  84 110 146 185 222 267
#
# _framework density 15.735587000000001
#
# number of rings (size 3 to 8) (size 9 to 14) (size 15 to 20)
#    0.000    2.625    1.250    2.625    0.000    4.750 
#    0.000    2.500    0.000    0.375    0.000    2.625 
#    0.000    0.500    0.000    6.250    0.000    1.000 
#
# Total GULP energy -356633.266341 kJ/mol
# GULP energy per Si atom -5572.394787 kJ/mol
# Density = 1.569977 g / cm^3
# Si number density = 15.735587 Si / 1000 Ang^3
#
#
#
# Elastic Constant Matrix: (Units=GPa)
#
#
# Indices 1 2 3 4 5 6 
#
# 1 149.5597 16.8265 82.4847 0.0000 0.0000 0.0000
# 2 16.8265 9.8683 15.0965 0.0000 0.0000 0.0000
# 3 82.4847 15.0965 110.4088 0.0000 0.0000 0.0000
# 4 0.0000 0.0000 0.0000 2.1693 0.0000 0.0000
# 5 0.0000 0.0000 0.0000 0.0000 26.7909 0.0000
# 6 0.0000 0.0000 0.0000 0.0000 0.0000 1.4966
#
#
#
# Elastic Compliance Matrix: (Units=1/GPa)
#
#
# Indices 1 2 3 4 5 6 
#
# 1 0.011906 -0.008464 -0.007737 0.000000 0.000000 0.000000
# 2 -0.008464 0.134155 -0.012020 0.000000 0.000000 0.000000
# 3 -0.007737 -0.012020 0.016481 0.000000 0.000000 0.000000
# 4 0.000000 0.000000 0.000000 0.460986 0.000000 0.000000
# 5 0.000000 0.000000 0.000000 0.000000 0.037326 0.000000
# 6 0.000000 0.000000 0.000000 0.000000 0.000000 0.668172
#
#
# Mechanical properties :
#
#
# Convention : Reuss Voigt Hill
#
# Bulk Modulus (GPa) = 9.42513 55.40580 32.41546
# Shear Modulus (GPa) = 3.51906 16.45329 9.98617
#
# Velocity S-wave (km/s) = 1.49707 3.23710 2.52191
# Velocity P-wave (km/s) = 2.99850 7.01845 5.39674
#
# Compressibility (1/GPa) = 0.10609932
#
# Stress axis : x y z
#
# Youngs Moduli (GPa) = 83.99239 7.45405 60.67517
#
# Poissons Ratio (x) = 0.06309 0.46946
# Poissons Ratio (y) = 0.71093 0.72931
# Poissons Ratio (z) = 0.64988 0.08960
#
# Static dielectric constant tensor:
#      x y z
#    x 1.552520 0.000000 0.000000 
#    y 0.000000 1.540320 0.000000 
#    z 0.000000 0.000000 1.507160 
# 
# From -- ./inp_files/32885.got.cif
#   From: 2010.05.17/outbox.cif.g08.bks.cpg/sg47_17_cif.got.tgz:32885.got - 2010.06.03 20:15:42.
