data_PCOD9382916
_publ_section_title
;
Structure prediction by ZEFSAII (Michael W. Deem and Ramdas Pophale) SiO2 
 PCOD9382916
Probable space group: P M M M
;
_chemical_formula_sum "Si O2"
_cell_formula_units_Z 64
_cell_length_a 27.011156
_cell_length_b 15.059070
_cell_length_c 7.623203
_cell_angle_alpha 90.000000
_cell_angle_beta 90.000000
_cell_angle_gamma 90.000000
_cell_volume 3100.836076
_symmetry_space_group_name_H-M "P M M M"
_symmetry_group_IT_number 47
_symmetry_cell_setting 'orthorhombic'
loop_
_space_group_symop_operation_xyz
x,y,z
-x,-y,z
x,-y,-z
-x,y,-z
-x,-y,-z
x,y,-z
-x,y,z
x,-y,z
loop_
_atom_site_type_symbol
_atom_site_label
_atom_site_fract_x
_atom_site_fract_y
_atom_site_fract_z
Si Si1 0.743247 0.396301 0.213944
Si Si2 0.894815 0.101636 0.284885
Si Si3 0.147271 0.601549 0.210279
Si Si4 0.444590 0.601121 0.288594
Si Si5 0.946078 0.275585 0.289666
Si Si6 0.786795 0.892483 0.699848
Si Si7 0.677619 0.099000 0.797666
Si Si8 0.349863 0.282697 0.790530
O O1 0.737479 0.500000 0.263186
O O2 0.798286 0.366128 0.271422
O O3 0.697305 0.338081 0.278246
O O4 0.742334 0.393871 0.000000
O O5 0.893046 0.099943 0.500000
O O6 0.933595 0.175634 0.228680
O O7 0.840074 0.134103 0.226366
O O8 0.903935 0.000000 0.229001
O O9 0.140570 0.500000 0.274008
O O10 0.100273 0.661490 0.251747
O O11 0.150447 0.597650 0.000000
O O12 0.445522 0.599188 0.500000
O O13 0.500000 0.626818 0.229121
O O14 0.434971 0.500000 0.227996
O O15 0.400505 0.665116 0.236083
O O16 0.948827 0.271409 0.500000
O O17 0.000000 0.305462 0.223516
O O18 0.782083 0.860569 0.500000
O O19 0.735694 0.873463 0.795105
O O20 0.790412 0.000000 0.695110
O O21 0.649551 0.182600 0.717194
O O22 0.673546 0.000000 0.717781
O O23 0.662381 0.090594 0.000000
O O24 0.342383 0.274798 0.000000
#
# Coordination Sequence:
#
# PCOD9382916 Si02
#       8
#     8   8   8   8   8   8   8   8
#     4   8  15  29  48  71  98 124 153 195 245 293
#     4   8  15  29  48  69  94 124 157 194 239 295
#     4   9  19  36  55  71  92 127 164 197 242 302
#     4   9  19  36  55  76 106 139 167 203 253 300
#     4  10  21  34  49  72  97 121 156 205 254 294
#     4   8  14  26  44  64  87 120 162 201 236 282
#     4   9  18  30  43  67 105 139 166 201 245 289
#     4  10  19  30  50  78 104 135 172 207 243 287
#
# _framework density 20.639593999999999
#
# number of rings (size 3 to 8) (size 9 to 14) (size 15 to 20)
#    0.000    3.125    0.000    2.250    1.750    2.500 
#    0.000    3.750    0.000    1.500    0.000    3.500 
#    0.000    0.000    0.000    0.000    0.000    0.000 
#
# Total GULP energy -356821.328751 kJ/mol
# GULP energy per Si atom -5575.333262 kJ/mol
# Density = 2.059262 g / cm^3
# Si number density = 20.639594 Si / 1000 Ang^3
#
#
#
# Elastic Constant Matrix: (Units=GPa)
#
#
# Indices 1 2 3 4 5 6 
#
# 1 156.9255 105.5369 3.4982 0.0000 0.0000 0.0000
# 2 105.5369 118.7791 8.8116 0.0000 0.0000 0.0000
# 3 3.4982 8.8116 39.1169 0.0000 0.0000 0.0000
# 4 0.0000 0.0000 0.0000 3.6120 0.0000 0.0000
# 5 0.0000 0.0000 0.0000 0.0000 19.5435 0.0000
# 6 0.0000 0.0000 0.0000 0.0000 0.0000 29.6222
#
#
#
# Elastic Compliance Matrix: (Units=1/GPa)
#
#
# Indices 1 2 3 4 5 6 
#
# 1 0.015957 -0.014312 0.001797 0.000000 0.000000 0.000000
# 2 -0.014312 0.021398 -0.003540 0.000000 0.000000 0.000000
# 3 0.001797 -0.003540 0.026201 0.000000 0.000000 0.000000
# 4 0.000000 0.000000 0.000000 0.276852 0.000000 0.000000
# 5 0.000000 0.000000 0.000000 0.000000 0.051168 0.000000
# 6 0.000000 0.000000 0.000000 0.000000 0.000000 0.033758
#
#
# Mechanical properties :
#
#
# Convention : Reuss Voigt Hill
#
# Bulk Modulus (GPa) = 31.80037 61.16832 46.48434
# Shear Modulus (GPa) = 10.68543 23.68720 17.18632
#
# Velocity S-wave (km/s) = 2.27780 3.39139 2.88876
# Velocity P-wave (km/s) = 4.72851 6.71089 5.80495
#
# Compressibility (1/GPa) = 0.03144617
#
# Stress axis : x y z
#
# Youngs Moduli (GPa) = 62.66671 46.73379 38.16623
#
# Poissons Ratio (x) = 0.66884 -0.06858
# Poissons Ratio (y) = 0.89687 0.13512
# Poissons Ratio (z) = -0.11260 0.16545
#
# Static dielectric constant tensor:
#      x y z
#    x 1.734550 0.000000 0.000000 
#    y 0.000000 1.764470 0.000000 
#    z 0.000000 0.000000 1.513480 
# 
# From -- ./inp_files/12763.got.cif
#   From: 2010.05.17/outbox.cif.g08.bks.cpg/sg47_7_cif.got.tgz:12763.got - 2010.06.03 20:15:42.
