data_PCOD9382850
_publ_section_title
;
Structure prediction by ZEFSAII (Michael W. Deem and Ramdas Pophale) SiO2 
 PCOD9382850
Probable space group: P M M M
;
_chemical_formula_sum "Si O2"
_cell_formula_units_Z 64
_cell_length_a 29.167231
_cell_length_b 14.777522
_cell_length_c 8.824386
_cell_angle_alpha 90.000000
_cell_angle_beta 90.000000
_cell_angle_gamma 90.000000
_cell_volume 3803.481540
_symmetry_space_group_name_H-M "P M M M"
_symmetry_group_IT_number 47
_symmetry_cell_setting 'orthorhombic'
loop_
_space_group_symop_operation_xyz
x,y,z
-x,-y,z
x,-y,-z
-x,y,-z
-x,-y,-z
x,y,-z
-x,y,z
x,-y,z
loop_
_atom_site_type_symbol
_atom_site_label
_atom_site_fract_x
_atom_site_fract_y
_atom_site_fract_z
Si Si1 0.281206 0.607393 0.679492
Si Si2 0.223690 0.107207 0.820937
Si Si3 0.447854 0.396566 0.184487
Si Si4 0.363015 0.724057 0.181648
Si Si5 0.818151 0.396547 0.182540
Si Si6 0.866374 0.218696 0.182407
Si Si7 0.321714 0.895486 0.319250
Si Si8 0.947305 0.896498 0.317384
O O1 0.282305 0.625020 0.500000
O O2 0.289198 0.500000 0.704392
O O3 0.320090 0.664904 0.761334
O O4 0.230788 0.627580 0.744678
O O5 0.179043 0.162284 0.772206
O O6 0.270162 0.129782 0.732944
O O7 0.215079 0.000000 0.802298
O O8 0.231413 0.124887 0.000000
O O9 0.500000 0.375784 0.232409
O O10 0.436908 0.500000 0.231109
O O11 0.409344 0.326182 0.234372
O O12 0.447667 0.396263 0.000000
O O13 0.356164 0.824373 0.245743
O O14 0.362734 0.726683 0.000000
O O15 0.829374 0.500000 0.224933
O O16 0.855867 0.322325 0.225408
O O17 0.812840 0.392899 0.000000
O O18 0.911011 0.173433 0.252271
O O19 0.869796 0.213251 0.000000
O O20 0.324416 0.890543 0.500000
O O21 0.329274 0.000000 0.272028
O O22 0.945682 0.894302 0.500000
O O23 0.000000 0.878129 0.271828
O O24 0.936038 0.000000 0.270028
#
# Coordination Sequence:
#
# PCOD9382850 Si02
#       8
#     8   8   8   8   8   8   8   8
#     4  10  20  32  47  71 103 134 164 199 237 281
#     4   9  17  29  45  68  98 126 155 195 239 283
#     4   8  15  29  49  74 101 124 150 190 239 289
#     4  11  20  30  50  75  97 126 163 200 242 291
#     4   9  18  32  48  68  98 133 166 200 237 277
#     4  10  19  30  48  73  96 122 158 196 234 277
#     4  10  21  35  49  67  95 131 168 204 241 282
#     4   9  19  35  52  71  96 123 150 185 234 290
#
# _framework density 16.826688999999998
#
# number of rings (size 3 to 8) (size 9 to 14) (size 15 to 20)
#    0.000    2.500    0.000    3.375    0.000    5.000 
#    0.000    1.875    0.000    2.250    0.000    9.625 
#    0.000    0.000    0.000    0.000    0.000    0.000 
#
# Total GULP energy -357073.901447 kJ/mol
# GULP energy per Si atom -5579.279710 kJ/mol
# Density = 1.678839 g / cm^3
# Si number density = 16.826689 Si / 1000 Ang^3
#
#
#
# Elastic Constant Matrix: (Units=GPa)
#
#
# Indices 1 2 3 4 5 6 
#
# 1 118.0287 97.3838 30.9152 0.0000 0.0000 0.0000
# 2 97.3838 111.2075 36.8290 0.0000 0.0000 0.0000
# 3 30.9152 36.8290 23.5154 0.0000 0.0000 0.0000
# 4 0.0000 0.0000 0.0000 23.0883 0.0000 0.0000
# 5 0.0000 0.0000 0.0000 0.0000 481.2713 0.0000
# 6 0.0000 0.0000 0.0000 0.0000 0.0000 33.2987
#
#
#
# Elastic Compliance Matrix: (Units=1/GPa)
#
#
# Indices 1 2 3 4 5 6 
#
# 1 0.030682 -0.028067 0.003621 0.000000 0.000000 0.000000
# 2 -0.028067 0.044357 -0.032571 0.000000 0.000000 0.000000
# 3 0.003621 -0.032571 0.088777 0.000000 0.000000 0.000000
# 4 0.000000 0.000000 0.000000 0.043312 0.000000 0.000000
# 5 0.000000 0.000000 0.000000 0.000000 0.002078 0.000000
# 6 0.000000 0.000000 0.000000 0.000000 0.000000 0.030031
#
#
# Mechanical properties :
#
#
# Convention : Reuss Voigt Hill
#
# Bulk Modulus (GPa) = 20.08800 64.77863 42.43331
# Shear Modulus (GPa) = 13.51843 113.37324 63.44583
#
# Velocity S-wave (km/s) = 2.83749 8.21726 6.14714
# Velocity P-wave (km/s) = 4.76437 11.34073 8.69803
#
# Compressibility (1/GPa) = 0.04978097
#
# Stress axis : x y z
#
# Youngs Moduli (GPa) = 32.59273 22.54440 11.26414
#
# Poissons Ratio (x) = 0.63275 -0.04078
# Poissons Ratio (y) = 0.91478 0.36689
# Poissons Ratio (z) = -0.11801 0.73430
#
# Static dielectric constant tensor:
#      x y z
#    x 1.540120 0.000000 0.000000 
#    y 0.000000 1.588220 0.000000 
#    z 0.000000 0.000000 1.566650 
# 
# From -- ./inp_files/14331.got.cif
#   From: 2010.05.17/outbox.cif.g08.bks.cpg/sg47_8_cif.got.tgz:14331.got - 2010.06.03 20:15:42.
