data_PCOD9382214
_publ_section_title
;
Structure prediction by ZEFSAII (Michael W. Deem and Ramdas Pophale) SiO2 
 PCOD9382214
Probable space group: P M M M
;
_chemical_formula_sum "Si O2"
_cell_formula_units_Z 44
_cell_length_a 13.646810
_cell_length_b 18.312999
_cell_length_c 10.343174
_cell_angle_alpha 90.000000
_cell_angle_beta 90.000000
_cell_angle_gamma 90.000000
_cell_volume 2584.904172
_symmetry_space_group_name_H-M "P M M M"
_symmetry_group_IT_number 47
_symmetry_cell_setting 'orthorhombic'
loop_
_space_group_symop_operation_xyz
x,y,z
-x,-y,z
x,-y,-z
-x,y,-z
-x,-y,-z
x,y,-z
-x,y,z
x,-y,z
loop_
_atom_site_type_symbol
_atom_site_label
_atom_site_fract_x
_atom_site_fract_y
_atom_site_fract_z
Si Si1 0.611493 0.286553 0.764415
Si Si2 0.186745 0.681491 0.843402
Si Si3 0.114938 0.837370 0.746650
Si Si4 0.000000 0.416788 0.156736
Si Si5 0.809738 0.913883 0.000000
Si Si6 0.786028 0.912112 0.500000
Si Si7 0.608302 0.171729 0.000000
Si Si8 0.387235 0.198056 0.500000
O O1 0.500000 0.317020 0.766173
O O2 0.703035 0.338413 0.799134
O O3 0.614652 0.224008 0.874974
O O4 0.628276 0.247610 0.626928
O O5 0.163020 0.758731 0.775703
O O6 0.099294 0.626290 0.807484
O O7 0.185150 0.690869 0.000000
O O8 0.159753 0.880168 0.625855
O O9 0.000000 0.826397 0.727195
O O10 0.135559 0.884174 0.874276
O O11 0.000000 0.500000 0.203887
O O12 0.000000 0.418538 0.000000
O O13 0.699479 0.882091 0.000000
O O14 0.807100 0.000000 0.000000
O O15 0.680908 0.872567 0.500000
O O16 0.782706 0.000000 0.500000
O O17 0.500000 0.136823 0.000000
O O18 0.500000 0.174873 0.500000
#
# Coordination Sequence:
#
# PCOD9382214 Si02
#       8
#     8   8   8   4   4   4   4   4
#     4  10  18  31  53  80 104 137 183 230 268 317
#     4  11  18  32  59  84 109 146 180 222 264 325
#     4  12  23  37  54  75  99 141 191 225 274 333
#     4   9  20  34  56  93 126 147 171 213 273 327
#     4  12  23  35  52  73 101 136 183 235 282 329
#     4  12  25  39  52  71 109 146 185 237 290 335
#     4  10  18  32  51  72 102 132 175 229 282 328
#     4  10  20  34  53  76 104 134 185 239 278 328
#
# _framework density 17.021906999999999
#
# number of rings (size 3 to 8) (size 9 to 14) (size 15 to 20)
#    0.000    1.182    6.364    1.091    0.000    2.545 
#    0.000    0.000    0.000    6.000    0.000    7.636 
#    0.000    2.182    0.000    0.000    0.000    0.000 
#
# Total GULP energy -245495.668719 kJ/mol
# GULP energy per Si atom -5579.447016 kJ/mol
# Density = 1.698316 g / cm^3
# Si number density = 17.021907 Si / 1000 Ang^3
#
#
#
# Elastic Constant Matrix: (Units=GPa)
#
#
# Indices 1 2 3 4 5 6 
#
# 1 157.5942 47.3626 28.4917 0.0000 0.0000 0.0000
# 2 47.3626 64.4020 24.5075 0.0000 0.0000 0.0000
# 3 28.4917 24.5075 112.3481 0.0000 0.0000 0.0000
# 4 0.0000 0.0000 0.0000 13.6713 0.0000 0.0000
# 5 0.0000 0.0000 0.0000 0.0000 26.6299 0.0000
# 6 0.0000 0.0000 0.0000 0.0000 0.0000 16.5077
#
#
#
# Elastic Compliance Matrix: (Units=1/GPa)
#
#
# Indices 1 2 3 4 5 6 
#
# 1 0.008217 -0.005725 -0.000835 0.000000 0.000000 0.000000
# 2 -0.005725 0.020922 -0.003112 0.000000 0.000000 0.000000
# 3 -0.000835 -0.003112 0.009791 0.000000 0.000000 0.000000
# 4 0.000000 0.000000 0.000000 0.073146 0.000000 0.000000
# 5 0.000000 0.000000 0.000000 0.000000 0.037552 0.000000
# 6 0.000000 0.000000 0.000000 0.000000 0.000000 0.060578
#
#
# Mechanical properties :
#
#
# Convention : Reuss Voigt Hill
#
# Bulk Modulus (GPa) = 51.05612 59.45199 55.25406
# Shear Modulus (GPa) = 21.17934 26.96063 24.06998
#
# Velocity S-wave (km/s) = 3.53121 3.98411 3.76448
# Velocity P-wave (km/s) = 6.83267 7.49445 7.17120
#
# Compressibility (1/GPa) = 0.01958629
#
# Stress axis : x y z
#
# Youngs Moduli (GPa) = 121.69908 47.79626 102.12940
#
# Poissons Ratio (x) = 0.27364 0.08527
# Poissons Ratio (y) = 0.69675 0.31783
# Poissons Ratio (z) = 0.10161 0.14874
#
# Static dielectric constant tensor:
#      x y z
#    x 1.625990 0.000000 0.000000 
#    y 0.000000 1.533600 0.000000 
#    z 0.000000 0.000000 1.569690 
# 
# From -- ./inp_files/6317.got.cif
#   From: 2010.05.17/outbox.cif.g08.bks.cpg/sg47_4_cif.got.tgz:6317.got - 2010.06.03 20:15:42.
