data_PCOD9382998
_publ_section_title
;
Structure prediction by ZEFSAII (Michael W. Deem and Ramdas Pophale) SiO2 
 PCOD9382998
Probable space group: P M M M
;
_chemical_formula_sum "Si O2"
_cell_formula_units_Z 64
_cell_length_a 19.295800
_cell_length_b 22.454104
_cell_length_c 7.938917
_cell_angle_alpha 90.000000
_cell_angle_beta 90.000000
_cell_angle_gamma 90.000000
_cell_volume 3439.693774
_symmetry_space_group_name_H-M "P M M M"
_symmetry_group_IT_number 47
_symmetry_cell_setting 'orthorhombic'
loop_
_space_group_symop_operation_xyz
x,y,z
-x,-y,z
x,-y,-z
-x,y,-z
-x,-y,-z
x,y,-z
-x,y,z
x,-y,z
loop_
_atom_site_type_symbol
_atom_site_label
_atom_site_fract_x
_atom_site_fract_y
_atom_site_fract_z
Si Si1 0.077416 0.567789 0.298089
Si Si2 0.828235 0.326034 0.198198
Si Si3 0.775483 0.107652 0.704806
Si Si4 0.575818 0.808276 0.204033
Si Si5 0.374815 0.064270 0.201993
Si Si6 0.922386 0.777790 0.197174
Si Si7 0.276593 0.237471 0.698801
Si Si8 0.075845 0.088754 0.305244
O O1 0.073739 0.565600 0.500000
O O2 0.088469 0.500000 0.236895
O O3 0.140178 0.611971 0.257138
O O4 0.000000 0.587468 0.237949
O O5 0.874117 0.272360 0.273233
O O6 0.752196 0.299814 0.231164
O O7 0.840146 0.325340 0.000000
O O8 0.778369 0.108382 0.500000
O O9 0.706471 0.073637 0.759335
O O10 0.763025 0.176849 0.763041
O O11 0.847143 0.076969 0.765948
O O12 0.500000 0.786839 0.257988
O O13 0.587112 0.876475 0.264195
O O14 0.642749 0.772380 0.262814
O O15 0.577397 0.808719 0.000000
O O16 0.397815 0.000000 0.268191
O O17 0.383649 0.063616 0.000000
O O18 0.922640 0.839405 0.295952
O O19 0.000000 0.753496 0.198358
O O20 0.905505 0.791196 0.000000
O O21 0.266486 0.238115 0.500000
O O22 0.075041 0.069499 0.500000
O O23 0.000000 0.071201 0.231052
#
# Coordination Sequence:
#
# PCOD9382998 Si02
#       8
#     8   8   8   8   8   8   8   8
#     4   9  19  35  51  67  93 134 181 222 258 295
#     4  11  20  29  45  68  96 127 163 207 249 290
#     4   9  17  29  44  63  88 117 150 190 238 285
#     4   9  18  33  52  73  99 128 153 184 233 288
#     4   9  18  31  48  70  92 118 154 191 229 278
#     4   9  17  26  36  56  86 116 146 183 229 277
#     4  10  19  31  47  69  96 125 159 194 235 288
#     4   9  16  26  40  58  81 109 144 185 228 275
#
# _framework density 18.606307999999999
#
# number of rings (size 3 to 8) (size 9 to 14) (size 15 to 20)
#    0.000    2.625    1.250    1.500    0.000    3.250 
#    0.000    3.125    0.000    0.375    0.000    6.125 
#    0.000    0.500    0.000    5.250    0.000    2.250 
#
# Total GULP energy -356522.661839 kJ/mol
# GULP energy per Si atom -5570.666591 kJ/mol
# Density = 1.856396 g / cm^3
# Si number density = 18.606308 Si / 1000 Ang^3
#
#
#
# Elastic Constant Matrix: (Units=GPa)
#
#
# Indices 1 2 3 4 5 6 
#
# 1 95.6268 34.8648 3.2184 0.0000 0.0000 0.0000
# 2 34.8648 94.3430 10.7476 0.0000 0.0000 0.0000
# 3 3.2184 10.7476 23.9424 0.0000 0.0000 0.0000
# 4 0.0000 0.0000 0.0000 6.0822 0.0000 0.0000
# 5 0.0000 0.0000 0.0000 0.0000 18.5644 0.0000
# 6 0.0000 0.0000 0.0000 0.0000 0.0000 -98.7861
#
#
#
# Elastic Compliance Matrix: (Units=1/GPa)
#
#
# Indices 1 2 3 4 5 6 
#
# 1 0.012089 -0.004513 0.000401 0.000000 0.000000 0.000000
# 2 -0.004513 0.012856 -0.005164 0.000000 0.000000 0.000000
# 3 0.000401 -0.005164 0.044031 0.000000 0.000000 0.000000
# 4 0.000000 0.000000 0.000000 0.164415 0.000000 0.000000
# 5 0.000000 0.000000 0.000000 0.000000 0.053866 0.000000
# 6 0.000000 0.000000 0.000000 0.000000 0.000000 -0.010123
#
#
# Mechanical properties :
#
#
# Convention : Reuss Voigt Hill
#
# Bulk Modulus (GPa) = 19.83214 34.61931 27.22572
# Shear Modulus (GPa) = 16.00019 -3.82246 6.08886
#
# Velocity S-wave (km/s) = 2.93564 -1.43487 1.81096
# Velocity P-wave (km/s) = 4.70878 3.98767 4.36315
#
# Compressibility (1/GPa) = 0.05042321
#
# Stress axis : x y z
#
# Youngs Moduli (GPa) = 82.71747 77.78560 22.71112
#
# Poissons Ratio (x) = 0.35107 -0.00911
# Poissons Ratio (y) = 0.37333 0.11729
# Poissons Ratio (z) = -0.03316 0.40170
#
# Static dielectric constant tensor:
#      x y z
#    x 1.704890 0.000000 0.000000 
#    y 0.000000 1.661830 0.000000 
#    z 0.000000 0.000000 1.668500 
# 
# From -- ./inp_files/10069.got.cif
#   From: 2010.05.17/outbox.cif.g08.bks.cpg/sg47_6_cif.got.tgz:10069.got - 2010.06.03 20:15:42.
