data_PCOD9382629
_publ_section_title
;
Structure prediction by ZEFSAII (Michael W. Deem and Ramdas Pophale) SiO2 
 PCOD9382629
Probable space group: P M M M
;
_chemical_formula_sum "Si O2"
_cell_formula_units_Z 40
_cell_length_a 17.151282
_cell_length_b 7.629864
_cell_length_c 13.959905
_cell_angle_alpha 90.000000
_cell_angle_beta 90.000000
_cell_angle_gamma 90.000000
_cell_volume 1826.820377
_symmetry_space_group_name_H-M "P M M M"
_symmetry_group_IT_number 47
_symmetry_cell_setting 'orthorhombic'
loop_
_space_group_symop_operation_xyz
x,y,z
-x,-y,z
x,-y,-z
-x,y,-z
-x,-y,-z
x,y,-z
-x,y,z
x,-y,z
loop_
_atom_site_type_symbol
_atom_site_label
_atom_site_fract_x
_atom_site_fract_y
_atom_site_fract_z
Si Si1 0.500000 0.785092 0.610876
Si Si2 0.906111 0.792986 0.396884
Si Si3 0.088419 0.702622 0.816546
Si Si4 0.365921 0.800486 0.749461
Si Si5 0.752149 0.204759 0.104753
Si Si6 0.500000 0.289369 0.111631
O O1 0.500000 0.738151 0.500000
O O2 0.420948 0.724501 0.665182
O O3 0.500000 0.000000 0.619044
O O4 0.875793 0.725619 0.500000
O O5 0.885282 0.713781 0.294885
O O6 0.000000 0.774757 0.400921
O O7 0.888202 0.000000 0.392373
O O8 0.084904 0.500000 0.843983
O O9 0.155416 0.787652 0.879272
O O10 0.000000 0.775601 0.823502
O O11 0.290361 0.718118 0.800787
O O12 0.425889 0.795039 0.837971
O O13 0.346339 0.000000 0.719293
O O14 0.729627 0.000000 0.102975
O O15 0.731838 0.281102 0.000000
O O16 0.500000 0.500000 0.128645
O O17 0.500000 0.258259 0.000000
#
# Coordination Sequence:
#
# PCOD9382629 Si02
#       6
#     4   8   8   8   8   4
#     4   8  14  28  54  85 112 137 165 198 240 296
#     4   8  14  27  49  74  97 123 159 205 255 307
#     4  10  21  35  51  73 102 137 177 224 279 336
#     4   9  18  33  53  76 103 136 173 212 252 300
#     4  10  21  36  53  73  99 134 178 228 278 324
#     4  10  19  29  46  75 106 133 163 202 250 304
#
# _framework density 21.895969000000001
#
# number of rings (size 3 to 8) (size 9 to 14) (size 15 to 20)
#    0.000    2.800    0.000    2.700    0.000    4.800 
#    0.000    5.000    0.000    8.400    0.000    0.000 
#    0.000    0.000    0.000    0.000    0.000    0.000 
#
# Total GULP energy -222760.324272 kJ/mol
# GULP energy per Si atom -5569.008107 kJ/mol
# Density = 2.184613 g / cm^3
# Si number density = 21.895969 Si / 1000 Ang^3
#
#
#
# Elastic Constant Matrix: (Units=GPa)
#
#
# Indices 1 2 3 4 5 6 
#
# 1 98.7607 -3.7851 50.5884 0.0000 0.0000 0.0000
# 2 -3.7851 40.8325 10.9681 0.0000 0.0000 0.0000
# 3 50.5884 10.9681 123.0579 0.0000 0.0000 0.0000
# 4 0.0000 0.0000 0.0000 94.2807 0.0000 0.0000
# 5 0.0000 0.0000 0.0000 0.0000 13.0866 0.0000
# 6 0.0000 0.0000 0.0000 0.0000 0.0000 -61.8150
#
#
#
# Elastic Compliance Matrix: (Units=1/GPa)
#
#
# Indices 1 2 3 4 5 6 
#
# 1 0.013117 0.002730 -0.005636 0.000000 0.000000 0.000000
# 2 0.002730 0.025659 -0.003409 0.000000 0.000000 0.000000
# 3 -0.005636 -0.003409 0.010747 0.000000 0.000000 0.000000
# 4 0.000000 0.000000 0.000000 0.010607 0.000000 0.000000
# 5 0.000000 0.000000 0.000000 0.000000 0.076414 0.000000
# 6 0.000000 0.000000 0.000000 0.000000 0.000000 -0.016177
#
#
# Mechanical properties :
#
#
# Convention : Reuss Voigt Hill
#
# Bulk Modulus (GPa) = 27.10561 42.02154 34.56358
# Shear Modulus (GPa) = 34.41310 22.76912 28.59111
#
# Velocity S-wave (km/s) = 3.96872 3.22821 3.61746
# Velocity P-wave (km/s) = 5.77989 5.75571 5.76782
#
# Compressibility (1/GPa) = 0.03689273
#
# Stress axis : x y z
#
# Youngs Moduli (GPa) = 76.23806 38.97256 93.05055
#
# Poissons Ratio (x) = -0.10638 0.52439
# Poissons Ratio (y) = -0.20810 0.31722
# Poissons Ratio (z) = 0.42964 0.13286
#
# Static dielectric constant tensor:
#      x y z
#    x 1.770100 0.000000 0.000000 
#    y 0.000000 1.820520 0.000000 
#    z 0.000000 0.000000 1.825200 
# 
# From -- ./inp_files/20681.got.cif
#   From: 2010.05.17/outbox.cif.g08.bks.cpg/sg47_11_cif.got.tgz:20681.got - 2010.06.03 20:15:42.
