data_PCOD9382348
_publ_section_title
;
Structure prediction by ZEFSAII (Michael W. Deem and Ramdas Pophale) SiO2 
 PCOD9382348
Probable space group: P M M M
;
_chemical_formula_sum "Si O2"
_cell_formula_units_Z 52
_cell_length_a 7.604854
_cell_length_b 19.925838
_cell_length_c 16.165812
_cell_angle_alpha 90.000000
_cell_angle_beta 90.000000
_cell_angle_gamma 90.000000
_cell_volume 2449.655426
_symmetry_space_group_name_H-M "P M M M"
_symmetry_group_IT_number 47
_symmetry_cell_setting 'orthorhombic'
loop_
_space_group_symop_operation_xyz
x,y,z
-x,-y,z
x,-y,-z
-x,y,-z
-x,-y,-z
x,y,-z
-x,y,z
x,-y,z
loop_
_atom_site_type_symbol
_atom_site_label
_atom_site_fract_x
_atom_site_fract_y
_atom_site_fract_z
Si Si1 0.284830 0.422495 0.500000
Si Si2 0.288099 0.573657 0.097277
Si Si3 0.801410 0.705233 0.809222
Si Si4 0.293334 0.163170 0.093414
Si Si5 0.284501 0.922540 0.752057
Si Si6 0.296247 0.691283 0.622492
Si Si7 0.715205 0.159698 0.590255
O O1 0.223049 0.500000 0.500000
O O2 0.500000 0.427063 0.500000
O O3 0.227798 0.376108 0.421673
O O4 0.500000 0.578728 0.105582
O O5 0.234838 0.500000 0.128234
O O6 0.204267 0.635418 0.143068
O O7 0.248107 0.576910 0.000000
O O8 0.720810 0.762888 0.866666
O O9 0.712480 0.692829 0.721270
O O10 0.000000 0.726361 0.791978
O O11 0.500000 0.147730 0.086264
O O12 0.222059 0.112813 0.163366
O O13 0.219050 0.160680 0.000000
O O14 0.500000 0.920173 0.752525
O O15 0.227251 0.881520 0.670703
O O16 0.232579 0.000000 0.747915
O O17 0.500000 0.693280 0.597793
O O18 0.221350 0.763205 0.595175
O O19 0.763786 0.131628 0.500000
O O20 0.500000 0.160760 0.593716
#
# Coordination Sequence:
#
# PCOD9382348 Si02
#       7
#     4   8   8   8   8   8   8
#     4   9  18  32  55  87 112 136 181 234 275 320
#     4   9  19  37  59  80 103 135 176 221 270 323
#     4  12  24  35  52  80 112 144 182 227 274 326
#     4  10  20  35  56  79 106 145 189 232 280 333
#     4   9  17  29  48  79 115 143 174 223 278 333
#     4  10  18  33  56  77 104 143 183 225 271 322
#     4   9  15  26  49  78 106 139 175 217 274 331
#
# _framework density 21.227475999999999
#
# number of rings (size 3 to 8) (size 9 to 14) (size 15 to 20)
#    0.000    2.231    2.308    2.308    0.000    4.000 
#    0.000    5.769    0.000    0.923    0.000    1.077 
#    0.000    1.231    0.000    0.000    0.000    0.000 
#
# Total GULP energy -290163.504869 kJ/mol
# GULP energy per Si atom -5580.067401 kJ/mol
# Density = 2.117916 g / cm^3
# Si number density = 21.227476 Si / 1000 Ang^3
#
#
#
# Elastic Constant Matrix: (Units=GPa)
#
#
# Indices 1 2 3 4 5 6 
#
# 1 41.2901 1.3553 10.0107 0.0000 0.0000 0.0000
# 2 1.3553 173.7842 108.1491 0.0000 0.0000 0.0000
# 3 10.0107 108.1491 188.8595 0.0000 0.0000 0.0000
# 4 0.0000 0.0000 0.0000 47.4598 0.0000 0.0000
# 5 0.0000 0.0000 0.0000 0.0000 -33.7647 0.0000
# 6 0.0000 0.0000 0.0000 0.0000 0.0000 -27.1171
#
#
#
# Elastic Compliance Matrix: (Units=1/GPa)
#
#
# Indices 1 2 3 4 5 6 
#
# 1 0.024638 0.000964 -0.001858 0.000000 0.000000 0.000000
# 2 0.000964 0.008978 -0.005192 0.000000 0.000000 0.000000
# 3 -0.001858 -0.005192 0.008367 0.000000 0.000000 0.000000
# 4 0.000000 0.000000 0.000000 0.021070 0.000000 0.000000
# 5 0.000000 0.000000 0.000000 0.000000 -0.029617 0.000000
# 6 0.000000 0.000000 0.000000 0.000000 0.000000 -0.036877
#
#
# Mechanical properties :
#
#
# Convention : Reuss Voigt Hill
#
# Bulk Modulus (GPa) = 33.54570 71.44046 52.49308
# Shear Modulus (GPa) = 267.83377 16.27683 142.05530
#
# Velocity S-wave (km/s) = 11.24487 2.77209 8.18937
# Velocity P-wave (km/s) = 13.58062 6.63127 10.68661
#
# Compressibility (1/GPa) = 0.02981008
#
# Stress axis : x y z
#
# Youngs Moduli (GPa) = 40.58818 111.38329 119.52051
#
# Poissons Ratio (x) = -0.10739 0.22208
# Poissons Ratio (y) = -0.03913 0.62059
# Poissons Ratio (z) = 0.07542 0.57834
#
# Static dielectric constant tensor:
#      x y z
#    x 1.799280 0.000000 0.000000 
#    y 0.000000 1.738620 0.000000 
#    z 0.000000 0.000000 1.781020 
# 
# From -- ./inp_files/21452.got.cif
#   From: 2010.05.17/outbox.cif.g08.bks.cpg/sg47_11_cif.got.tgz:21452.got - 2010.06.03 20:15:42.
