data_PCOD9382111
_publ_section_title
;
Structure prediction by ZEFSAII (Michael W. Deem and Ramdas Pophale) SiO2 
 PCOD9382111
Probable space group: P M M M
;
_chemical_formula_sum "Si O2"
_cell_formula_units_Z 52
_cell_length_a 12.074287
_cell_length_b 8.645266
_cell_length_c 29.091478
_cell_angle_alpha 90.000000
_cell_angle_beta 90.000000
_cell_angle_gamma 90.000000
_cell_volume 3036.726233
_symmetry_space_group_name_H-M "P M M M"
_symmetry_group_IT_number 47
_symmetry_cell_setting 'orthorhombic'
loop_
_space_group_symop_operation_xyz
x,y,z
-x,-y,z
x,-y,-z
-x,y,-z
-x,-y,-z
x,y,-z
-x,y,z
x,-y,z
loop_
_atom_site_type_symbol
_atom_site_label
_atom_site_fract_x
_atom_site_fract_y
_atom_site_fract_z
Si Si1 0.000000 0.182301 0.709726
Si Si2 0.000000 0.181515 0.400221
Si Si3 0.628884 0.185459 0.500000
Si Si4 0.373354 0.311290 0.322617
Si Si5 0.133033 0.815833 0.049966
Si Si6 0.870731 0.686200 0.146789
Si Si7 0.239119 0.685453 0.586729
Si Si8 0.217879 0.686568 0.242646
O O1 0.107744 0.261672 0.730851
O O2 0.000000 0.200363 0.654975
O O3 0.000000 0.000000 0.720554
O O4 0.113443 0.256740 0.417470
O O5 0.000000 0.000000 0.411228
O O6 0.500000 0.230537 0.500000
O O7 0.688530 0.250801 0.545020
O O8 0.636237 0.000000 0.500000
O O9 0.500000 0.259846 0.328670
O O10 0.373901 0.500000 0.322874
O O11 0.294924 0.262683 0.364966
O O12 0.320358 0.260771 0.274089
O O13 0.172250 0.740946 0.097270
O O14 0.000000 0.790227 0.049577
O O15 0.150607 0.000000 0.052061
O O16 0.175125 0.759756 0.000000
O O17 0.872690 0.500000 0.146977
O O18 0.798100 0.740356 0.190139
O O19 0.000000 0.737610 0.152817
O O20 0.240116 0.500000 0.586127
O O21 0.221368 0.500000 0.241523
#
# Coordination Sequence:
#
# PCOD9382111 Si02
#       8
#     4   4   4   8   8   8   8   8
#     4  11  21  31  48  74 104 134 169 204 241 297
#     4  11  23  38  56  83 117 142 171 210 261 322
#     4  11  25  44  63  84 115 149 175 211 266 311
#     4   9  18  32  53  79 102 129 167 209 248 290
#     4   8  14  24  36  51  77 115 155 194 237 286
#     4   9  16  24  37  59  87 120 157 195 237 289
#     4  11  22  38  63  87 109 138 178 221 256 299
#     4  10  18  31  49  69 100 133 165 203 247 295
#
# _framework density 17.123704
#
# number of rings (size 3 to 8) (size 9 to 14) (size 15 to 20)
#    0.000    2.231    2.308    2.077    0.000    3.077 
#    0.000    3.077    0.000    1.385    0.000    0.000 
#    0.000    0.615    0.000    7.692    0.000    1.538 
#
# Total GULP energy -289906.983366 kJ/mol
# GULP energy per Si atom -5575.134295 kJ/mol
# Density = 1.708473 g / cm^3
# Si number density = 17.123704 Si / 1000 Ang^3
#
#
#
# Elastic Constant Matrix: (Units=GPa)
#
#
# Indices 1 2 3 4 5 6 
#
# 1 111.5573 21.2197 61.3770 0.0000 0.0000 0.0000
# 2 21.2197 14.5078 34.2078 0.0000 0.0000 0.0000
# 3 61.3770 34.2078 143.5291 0.0000 0.0000 0.0000
# 4 0.0000 0.0000 0.0000 20.3003 0.0000 0.0000
# 5 0.0000 0.0000 0.0000 0.0000 -0.4114 0.0000
# 6 0.0000 0.0000 0.0000 0.0000 0.0000 11.9084
#
#
#
# Elastic Compliance Matrix: (Units=1/GPa)
#
#
# Indices 1 2 3 4 5 6 
#
# 1 0.012743 -0.013218 -0.002299 0.000000 0.000000 0.000000
# 2 -0.013218 0.171068 -0.035119 0.000000 0.000000 0.000000
# 3 -0.002299 -0.035119 0.016320 0.000000 0.000000 0.000000
# 4 0.000000 0.000000 0.000000 0.049260 0.000000 0.000000
# 5 0.000000 0.000000 0.000000 0.000000 -2.430771 0.000000
# 6 0.000000 0.000000 0.000000 0.000000 0.000000 0.083974
#
#
# Mechanical properties :
#
#
# Convention : Reuss Voigt Hill
#
# Bulk Modulus (GPa) = 10.11529 55.91147 33.01338
# Shear Modulus (GPa) = -2.54689 16.54544 6.99927
#
# Velocity S-wave (km/s) = -1.22089 3.11180 2.02394
# Velocity P-wave (km/s) = 1.98307 6.75525 4.97825
#
# Compressibility (1/GPa) = 0.09886024
#
# Stress axis : x y z
#
# Youngs Moduli (GPa) = 78.47383 5.84562 61.27277
#
# Poissons Ratio (x) = 0.07726 0.14087
# Poissons Ratio (y) = 1.03723 2.15185
# Poissons Ratio (z) = 0.18042 0.20529
#
# Static dielectric constant tensor:
#      x y z
#    x 1.605120 0.000000 0.000000 
#    y 0.000000 1.578160 0.000000 
#    z 0.000000 0.000000 1.582660 
# 
# From -- ./inp_files/33607.got.cif
#   From: 2010.05.17/outbox.cif.g08.bks.cpg/sg47_17_cif.got.tgz:33607.got - 2010.06.03 20:15:42.
