data_PCOD9382047
_publ_section_title
;
Structure prediction by ZEFSAII (Michael W. Deem and Ramdas Pophale) SiO2 
 PCOD9382047
Probable space group: P M M M
;
_chemical_formula_sum "Si O2"
_cell_formula_units_Z 52
_cell_length_a 27.637562
_cell_length_b 13.071681
_cell_length_c 9.314183
_cell_angle_alpha 90.000000
_cell_angle_beta 90.000000
_cell_angle_gamma 90.000000
_cell_volume 3364.929249
_symmetry_space_group_name_H-M "P M M M"
_symmetry_group_IT_number 47
_symmetry_cell_setting 'orthorhombic'
loop_
_space_group_symop_operation_xyz
x,y,z
-x,-y,z
x,-y,-z
-x,y,-z
-x,-y,-z
x,y,-z
-x,y,z
x,-y,z
loop_
_atom_site_type_symbol
_atom_site_label
_atom_site_fract_x
_atom_site_fract_y
_atom_site_fract_z
Si Si1 0.613644 0.294311 0.329707
Si Si2 0.618276 0.500000 0.828150
Si Si3 0.729165 0.274388 0.667380
Si Si4 0.557948 0.118322 0.168053
Si Si5 0.000000 0.124830 0.664777
Si Si6 0.202987 0.881379 0.826686
Si Si7 0.279996 0.500000 0.669645
Si Si8 0.905153 0.875611 0.165180
O O1 0.606340 0.308624 0.500000
O O2 0.598252 0.396107 0.242991
O O3 0.671270 0.276331 0.306849
O O4 0.585099 0.197582 0.268780
O O5 0.674155 0.500000 0.775078
O O6 0.614082 0.500000 0.000000
O O7 0.736682 0.249504 0.500000
O O8 0.757247 0.193570 0.762923
O O9 0.746146 0.391963 0.691322
O O10 0.500000 0.128228 0.183347
O O11 0.570564 0.000000 0.199412
O O12 0.569676 0.137792 0.000000
O O13 0.049050 0.158798 0.743158
O O14 0.000000 0.156052 0.500000
O O15 0.000000 0.000000 0.669405
O O16 0.148603 0.848257 0.781838
O O17 0.210686 0.000000 0.783369
O O18 0.203746 0.878969 0.000000
O O19 0.296700 0.500000 0.500000
O O20 0.905485 0.000000 0.164296
O O21 0.910718 0.842645 0.000000
#
# Coordination Sequence:
#
# PCOD9382047 Si02
#       8
#     8   4   8   8   4   8   4   8
#     4  10  20  34  51  72  98 125 154 188 228 277
#     4  10  18  30  51  75  96 120 151 188 232 275
#     4   9  18  31  47  66  90 120 150 183 223 266
#     4   9  19  36  55  74  97 124 155 193 233 269
#     4   9  15  21  33  55  77 100 139 186 221 253
#     4   9  18  30  42  60  89 122 153 185 221 262
#     4   8  16  32  48  65  91 119 149 188 232 272
#     4   8  14  25  38  51  74 111 147 177 215 261
#
# _framework density 15.453519
#
# number of rings (size 3 to 8) (size 9 to 14) (size 15 to 20)
#    0.000    3.000    0.000    3.692    0.000    6.154 
#    0.000    5.769    0.000    2.308    0.000    0.000 
#    0.000    0.615    0.000    6.923    0.000    5.231 
#
# Total GULP energy -289506.549436 kJ/mol
# GULP energy per Si atom -5567.433643 kJ/mol
# Density = 1.541835 g / cm^3
# Si number density = 15.453519 Si / 1000 Ang^3
#
#
#
# Elastic Constant Matrix: (Units=GPa)
#
#
# Indices 1 2 3 4 5 6 
#
# 1 42.4431 45.3878 41.5950 0.0000 0.0000 0.0000
# 2 45.3878 90.2486 56.5626 0.0000 0.0000 0.0000
# 3 41.5950 56.5626 77.2760 0.0000 0.0000 0.0000
# 4 0.0000 0.0000 0.0000 26.0671 0.0000 0.0000
# 5 0.0000 0.0000 0.0000 0.0000 13.1764 0.0000
# 6 0.0000 0.0000 0.0000 0.0000 0.0000 -4.2341
#
#
#
# Elastic Compliance Matrix: (Units=1/GPa)
#
#
# Indices 1 2 3 4 5 6 
#
# 1 0.064586 -0.019757 -0.020303 0.000000 0.000000 0.000000
# 2 -0.019757 0.026515 -0.008774 0.000000 0.000000 0.000000
# 3 -0.020303 -0.008774 0.030291 0.000000 0.000000 0.000000
# 4 0.000000 0.000000 0.000000 0.038363 0.000000 0.000000
# 5 0.000000 0.000000 0.000000 0.000000 0.075893 0.000000
# 6 0.000000 0.000000 0.000000 0.000000 0.000000 -0.236180
#
#
# Mechanical properties :
#
#
# Convention : Reuss Voigt Hill
#
# Bulk Modulus (GPa) = 42.14960 55.22872 48.68916
# Shear Modulus (GPa) = 47.59904 11.43005 29.51455
#
# Velocity S-wave (km/s) = 5.55592 2.72258 4.37497
# Velocity P-wave (km/s) = 8.27599 6.76014 7.55617
#
# Compressibility (1/GPa) = 0.02372502
#
# Stress axis : x y z
#
# Youngs Moduli (GPa) = 15.48324 37.71402 33.01278
#
# Poissons Ratio (x) = 0.74510 0.67027
# Poissons Ratio (y) = 0.30589 0.28965
# Poissons Ratio (z) = 0.31436 0.33090
#
# Static dielectric constant tensor:
#      x y z
#    x 1.512210 0.000000 0.000000 
#    y 0.000000 1.511860 0.000000 
#    z 0.000000 0.000000 1.515480 
# 
# From -- ./inp_files/14153.got.cif
#   From: 2010.05.17/outbox.cif.g08.bks.cpg/sg47_8_cif.got.tgz:14153.got - 2010.06.03 20:15:42.
