data_PCOD9382444
_publ_section_title
;
Structure prediction by ZEFSAII (Michael W. Deem and Ramdas Pophale) SiO2 
 PCOD9382444
Probable space group: P M M M
;
_chemical_formula_sum "Si O2"
_cell_formula_units_Z 48
_cell_length_a 9.157626
_cell_length_b 13.930924
_cell_length_c 24.539995
_cell_angle_alpha 90.000000
_cell_angle_beta 90.000000
_cell_angle_gamma 90.000000
_cell_volume 3130.670030
_symmetry_space_group_name_H-M "P M M M"
_symmetry_group_IT_number 47
_symmetry_cell_setting 'orthorhombic'
loop_
_space_group_symop_operation_xyz
x,y,z
-x,-y,z
x,-y,-z
-x,y,-z
-x,-y,-z
x,y,-z
-x,y,z
x,-y,z
loop_
_atom_site_type_symbol
_atom_site_label
_atom_site_fract_x
_atom_site_fract_y
_atom_site_fract_z
Si Si1 0.172768 0.885024 0.829282
Si Si2 0.670169 0.116444 0.060544
Si Si3 0.325297 0.109784 0.612317
Si Si4 0.175368 0.289543 0.439441
Si Si5 0.824222 0.610304 0.327640
Si Si6 0.674106 0.788534 0.273346
O O1 0.234568 0.852949 0.888038
O O2 0.254952 0.832262 0.780488
O O3 0.000000 0.868486 0.826020
O O4 0.198239 0.000000 0.824506
O O5 0.500000 0.142817 0.068088
O O6 0.675462 0.000000 0.059764
O O7 0.717421 0.148834 0.000000
O O8 0.500000 0.115999 0.604075
O O9 0.245978 0.186975 0.574501
O O10 0.296050 0.142132 0.674698
O O11 0.279607 0.000000 0.603367
O O12 0.218811 0.321768 0.500000
O O13 0.214598 0.360440 0.389925
O O14 0.000000 0.280088 0.438504
O O15 0.785940 0.500000 0.316987
O O16 0.744116 0.686525 0.289282
O O17 0.000000 0.620688 0.322072
O O18 0.500000 0.780747 0.267461
#
# Coordination Sequence:
#
# PCOD9382444 Si02
#       6
#     8   8   8   8   8   8
#     4  10  19  28  41  64  93 124 156 189 224 261
#     4   8  14  25  40  58  84 121 161 194 222 254
#     4   9  18  31  45  61  83 114 148 179 214 255
#     4   9  18  31  46  66  89 111 139 174 212 259
#     4   9  18  33  51  68  87 111 138 174 223 273
#     4  10  19  31  47  65  87 114 147 186 223 265
#
# _framework density 15.332181
#
# number of rings (size 3 to 8) (size 9 to 14) (size 15 to 20)
#    0.000    2.833    0.000    2.000    0.000    4.333 
#    0.000    5.000    0.000    0.000    0.000    4.667 
#    0.000    0.667    0.000    7.000    0.000    3.333 
#
# Total GULP energy -267462.399364 kJ/mol
# GULP energy per Si atom -5572.133320 kJ/mol
# Density = 1.529728 g / cm^3
# Si number density = 15.332181 Si / 1000 Ang^3
#
#
#
# Elastic Constant Matrix: (Units=GPa)
#
#
# Indices 1 2 3 4 5 6 
#
# 1 40.0228 27.7913 47.2577 0.0000 0.0000 0.0000
# 2 27.7913 52.3628 18.6121 0.0000 0.0000 0.0000
# 3 47.2577 18.6121 103.0597 0.0000 0.0000 0.0000
# 4 0.0000 0.0000 0.0000 11.2868 0.0000 0.0000
# 5 0.0000 0.0000 0.0000 0.0000 25.4310 0.0000
# 6 0.0000 0.0000 0.0000 0.0000 0.0000 18.6375
#
#
#
# Elastic Compliance Matrix: (Units=1/GPa)
#
#
# Indices 1 2 3 4 5 6 
#
# 1 0.092719 -0.036437 -0.035936 0.000000 0.000000 0.000000
# 2 -0.036437 0.034727 0.010437 0.000000 0.000000 0.000000
# 3 -0.035936 0.010437 0.024297 0.000000 0.000000 0.000000
# 4 0.000000 0.000000 0.000000 0.088599 0.000000 0.000000
# 5 0.000000 0.000000 0.000000 0.000000 0.039322 0.000000
# 6 0.000000 0.000000 0.000000 0.000000 0.000000 0.053655
#
#
# Mechanical properties :
#
#
# Convention : Reuss Voigt Hill
#
# Bulk Modulus (GPa) = 35.88088 42.52974 39.20531
# Shear Modulus (GPa) = 10.71855 17.85667 14.28761
#
# Velocity S-wave (km/s) = 2.64690 3.41640 3.05597
# Velocity P-wave (km/s) = 5.72665 6.58495 6.17074
#
# Compressibility (1/GPa) = 0.02787000
#
# Stress axis : x y z
#
# Youngs Moduli (GPa) = 10.78527 28.79629 41.15813
#
# Poissons Ratio (x) = 1.04925 1.47905
# Poissons Ratio (y) = 0.39298 -0.42955
# Poissons Ratio (z) = 0.38758 -0.30054
#
# Static dielectric constant tensor:
#      x y z
#    x 1.507670 0.000000 0.000000 
#    y 0.000000 1.480750 0.000000 
#    z 0.000000 0.000000 1.515740 
# 
# From -- ./inp_files/4290.got.cif
#   From: 2010.05.17/outbox.cif.g08.bks.cpg/sg47_3_cif.got.tgz:4290.got - 2010.06.03 20:15:42.
