data_PCOD9382578
_publ_section_title
;
Structure prediction by ZEFSAII (Michael W. Deem and Ramdas Pophale) SiO2 
 PCOD9382578
Probable space group: P M M M
;
_chemical_formula_sum "Si O2"
_cell_formula_units_Z 56
_cell_length_a 8.735699
_cell_length_b 19.173936
_cell_length_c 19.741250
_cell_angle_alpha 90.000000
_cell_angle_beta 90.000000
_cell_angle_gamma 90.000000
_cell_volume 3306.614632
_symmetry_space_group_name_H-M "P M M M"
_symmetry_group_IT_number 47
_symmetry_cell_setting 'orthorhombic'
loop_
_space_group_symop_operation_xyz
x,y,z
-x,-y,z
x,-y,-z
-x,y,-z
-x,-y,-z
x,y,-z
-x,y,z
x,-y,z
loop_
_atom_site_type_symbol
_atom_site_label
_atom_site_fract_x
_atom_site_fract_y
_atom_site_fract_z
Si Si1 0.313159 0.716337 0.576406
Si Si2 0.682888 0.847809 0.076758
Si Si3 0.686607 0.422294 0.653368
Si Si4 0.684282 0.796015 0.708690
Si Si5 0.183126 0.920588 0.207338
Si Si6 0.683727 0.345811 0.788291
Si Si7 0.182678 0.691856 0.075753
O O1 0.261301 0.729576 0.500000
O O2 0.500000 0.716124 0.576288
O O3 0.264980 0.639924 0.603455
O O4 0.267328 0.772291 0.633412
O O5 0.500000 0.846075 0.085107
O O6 0.754566 0.895083 0.134768
O O7 0.745315 0.769027 0.083151
O O8 0.718152 0.871622 0.000000
O O9 0.500000 0.422355 0.651832
O O10 0.739185 0.500000 0.636144
O O11 0.729866 0.400125 0.729818
O O12 0.500000 0.802417 0.709601
O O13 0.756388 0.865906 0.737450
O O14 0.722844 0.730654 0.757720
O O15 0.000000 0.918045 0.206052
O O16 0.232274 0.000000 0.220679
O O17 0.500000 0.348570 0.794864
O O18 0.757824 0.353196 0.861549
O O19 0.000000 0.698089 0.079485
O O20 0.223712 0.666456 0.000000
#
# Coordination Sequence:
#
# PCOD9382578 Si02
#       7
#     8   8   8   8   8   8   8
#     4   8  14  25  44  72 102 129 158 194 235 278
#     4  10  20  33  49  69  94 124 157 193 237 290
#     4   8  14  24  40  67 102 134 161 191 230 277
#     4   9  17  30  48  69  93 123 160 199 237 280
#     4  11  23  35  48  68  94 125 161 202 244 283
#     4   9  16  27  45  67  91 123 162 200 236 276
#     4  10  19  29  44  67  92 119 156 203 248 284
#
# _framework density 16.935751
#
# number of rings (size 3 to 8) (size 9 to 14) (size 15 to 20)
#    0.000    2.714    1.429    3.000    0.000    3.429 
#    0.000    2.857    0.000    1.714    0.000    6.000 
#    0.000    0.000    0.000    6.286    0.000    6.286 
#
# Total GULP energy -312112.922770 kJ/mol
# GULP energy per Si atom -5573.445049 kJ/mol
# Density = 1.689720 g / cm^3
# Si number density = 16.935751 Si / 1000 Ang^3
#
#
#
# Elastic Constant Matrix: (Units=GPa)
#
#
# Indices 1 2 3 4 5 6 
#
# 1 11.9673 11.4152 24.3026 0.0000 0.0000 0.0000
# 2 11.4152 50.9893 41.2845 0.0000 0.0000 0.0000
# 3 24.3026 41.2845 143.8860 0.0000 0.0000 0.0000
# 4 0.0000 0.0000 0.0000 16.0666 0.0000 0.0000
# 5 0.0000 0.0000 0.0000 0.0000 4.1577 0.0000
# 6 0.0000 0.0000 0.0000 0.0000 0.0000 -48.4305
#
#
#
# Elastic Compliance Matrix: (Units=1/GPa)
#
#
# Indices 1 2 3 4 5 6 
#
# 1 0.135899 -0.015422 -0.018529 0.000000 0.000000 0.000000
# 2 -0.015422 0.027297 -0.005227 0.000000 0.000000 0.000000
# 3 -0.018529 -0.005227 0.011579 0.000000 0.000000 0.000000
# 4 0.000000 0.000000 0.000000 0.062241 0.000000 0.000000
# 5 0.000000 0.000000 0.000000 0.000000 0.240515 0.000000
# 6 0.000000 0.000000 0.000000 0.000000 0.000000 -0.020648
#
#
# Mechanical properties :
#
#
# Convention : Reuss Voigt Hill
#
# Bulk Modulus (GPa) = 10.37139 40.09412 25.23276
# Shear Modulus (GPa) = 8.81245 3.01477 5.91361
#
# Velocity S-wave (km/s) = 2.28358 1.33566 1.87066
# Velocity P-wave (km/s) = 3.61805 5.10924 4.42688
#
# Compressibility (1/GPa) = 0.09641905
#
# Stress axis : x y z
#
# Youngs Moduli (GPa) = 7.35841 36.63402 86.36080
#
# Poissons Ratio (x) = 0.56498 1.60014
# Poissons Ratio (y) = 0.11348 0.45144
# Poissons Ratio (z) = 0.13634 0.19150
#
# Static dielectric constant tensor:
#      x y z
#    x 1.566690 0.000000 0.000000 
#    y 0.000000 1.556850 0.000000 
#    z 0.000000 0.000000 1.588260 
# 
# From -- ./inp_files/9857.got.cif
#   From: 2010.05.17/outbox.cif.g08.bks.cpg/sg47_5_cif.got.tgz:9857.got - 2010.06.03 20:15:42.
