data_PCOD9382645
_publ_section_title
;
Structure prediction by ZEFSAII (Michael W. Deem and Ramdas Pophale) SiO2 
 PCOD9382645
Probable space group: P M M M
;
_chemical_formula_sum "Si O2"
_cell_formula_units_Z 52
_cell_length_a 15.765580
_cell_length_b 28.053652
_cell_length_c 9.036670
_cell_angle_alpha 90.000000
_cell_angle_beta 90.000000
_cell_angle_gamma 90.000000
_cell_volume 3996.757339
_symmetry_space_group_name_H-M "P M M M"
_symmetry_group_IT_number 47
_symmetry_cell_setting 'orthorhombic'
loop_
_space_group_symop_operation_xyz
x,y,z
-x,-y,z
x,-y,-z
-x,y,-z
-x,-y,-z
x,y,-z
-x,y,z
x,-y,z
loop_
_atom_site_type_symbol
_atom_site_label
_atom_site_fract_x
_atom_site_fract_y
_atom_site_fract_z
Si Si1 0.500000 0.945773 0.179514
Si Si2 0.667889 0.112592 0.821576
Si Si3 0.396600 0.597412 0.670936
Si Si4 0.603079 0.694357 0.829917
Si Si5 0.000000 0.942244 0.829785
Si Si6 0.176648 0.943230 0.676879
Si Si7 0.603343 0.500000 0.829156
Si Si8 0.398843 0.793204 0.676419
O O1 0.584668 0.917934 0.223186
O O2 0.500000 0.000000 0.233998
O O3 0.500000 0.947101 0.000000
O O4 0.749415 0.086872 0.753343
O O5 0.652123 0.165172 0.757767
O O6 0.673025 0.113570 0.000000
O O7 0.370893 0.598746 0.500000
O O8 0.500000 0.597474 0.673871
O O9 0.368437 0.644940 0.756066
O O10 0.369197 0.548372 0.748156
O O11 0.500000 0.692982 0.830189
O O12 0.626261 0.741287 0.737738
O O13 0.630777 0.698014 0.000000
O O14 0.914299 0.928736 0.744451
O O15 0.000000 0.000000 0.832717
O O16 0.000000 0.925618 0.000000
O O17 0.177153 0.936875 0.500000
O O18 0.189065 0.000000 0.706789
O O19 0.500000 0.500000 0.826341
O O20 0.629263 0.500000 0.000000
O O21 0.387689 0.795610 0.500000
O O22 0.500000 0.799593 0.707755
#
# Coordination Sequence:
#
# PCOD9382645 Si02
#       8
#     4   8   8   8   4   8   4   8
#     4   9  18  30  43  59  79 103 131 162 193 226
#     4  11  20  31  46  62  82 106 135 165 195 232
#     4   9  15  22  31  44  61  81 106 138 180 225
#     4   9  16  25  37  50  64  84 115 150 185 225
#     4   9  17  31  51  71  87 105 129 155 185 226
#     4  10  20  33  48  67  89 109 128 155 193 235
#     4   9  15  21  29  41  59  81 105 135 175 222
#     4  10  19  30  42  55  74  98 126 160 198 234
#
# _framework density 13.010548
#
# number of rings (size 3 to 8) (size 9 to 14) (size 15 to 20)
#    0.000    2.385    0.769    3.231    0.000    7.692 
#    0.000    0.000    0.000    1.846    0.000    0.000 
#    0.000    0.000    0.000    0.000    0.000    0.000 
#
# Total GULP energy -289837.349764 kJ/mol
# GULP energy per Si atom -5573.795188 kJ/mol
# Density = 1.298094 g / cm^3
# Si number density = 13.010548 Si / 1000 Ang^3
#
#
#
# Elastic Constant Matrix: (Units=GPa)
#
#
# Indices 1 2 3 4 5 6 
#
# 1 64.6728 40.3505 37.7258 0.0000 0.0000 0.0000
# 2 40.3505 114.7235 58.5832 0.0000 0.0000 0.0000
# 3 37.7258 58.5832 94.9709 0.0000 0.0000 0.0000
# 4 0.0000 0.0000 0.0000 25.3035 0.0000 0.0000
# 5 0.0000 0.0000 0.0000 0.0000 14.6347 0.0000
# 6 0.0000 0.0000 0.0000 0.0000 0.0000 2.6702
#
#
#
# Elastic Compliance Matrix: (Units=1/GPa)
#
#
# Indices 1 2 3 4 5 6 
#
# 1 0.021751 -0.004727 -0.005724 0.000000 0.000000 0.000000
# 2 -0.004727 0.013752 -0.006605 0.000000 0.000000 0.000000
# 3 -0.005724 -0.006605 0.016878 0.000000 0.000000 0.000000
# 4 0.000000 0.000000 0.000000 0.039520 0.000000 0.000000
# 5 0.000000 0.000000 0.000000 0.000000 0.068331 0.000000
# 6 0.000000 0.000000 0.000000 0.000000 0.000000 0.374504
#
#
# Mechanical properties :
#
#
# Convention : Reuss Voigt Hill
#
# Bulk Modulus (GPa) = 54.74170 60.85403 57.79787
# Shear Modulus (GPa) = 8.69658 17.70220 13.19939
#
# Velocity S-wave (km/s) = 2.58820 3.69264 3.18860
# Velocity P-wave (km/s) = 7.14828 8.06568 7.62080
#
# Compressibility (1/GPa) = 0.01826761
#
# Stress axis : x y z
#
# Youngs Moduli (GPa) = 45.97497 72.71552 59.24886
#
# Poissons Ratio (x) = 0.34374 0.33916
# Poissons Ratio (y) = 0.21733 0.39136
# Poissons Ratio (z) = 0.26317 0.48031
#
# Static dielectric constant tensor:
#      x y z
#    x 1.390300 0.000000 0.000000 
#    y 0.000000 1.421960 0.000000 
#    z 0.000000 0.000000 1.433780 
# 
# From -- ./inp_files/8081.got.cif
#   From: 2010.05.17/outbox.cif.g08.bks.cpg/sg47_5_cif.got.tgz:8081.got - 2010.06.03 20:15:42.
