data_PCOD9382006
_publ_section_title
;
Structure prediction by ZEFSAII (Michael W. Deem and Ramdas Pophale) SiO2 
 PCOD9382006
Probable space group: P M M M
;
_chemical_formula_sum "Si O2"
_cell_formula_units_Z 56
_cell_length_a 16.233676
_cell_length_b 7.637293
_cell_length_c 20.889161
_cell_angle_alpha 90.000000
_cell_angle_beta 90.000000
_cell_angle_gamma 90.000000
_cell_volume 2589.866174
_symmetry_space_group_name_H-M "P M M M"
_symmetry_group_IT_number 47
_symmetry_cell_setting 'orthorhombic'
loop_
_space_group_symop_operation_xyz
x,y,z
-x,-y,z
x,-y,-z
-x,y,-z
-x,-y,-z
x,y,-z
-x,y,z
x,-y,z
loop_
_atom_site_type_symbol
_atom_site_label
_atom_site_fract_x
_atom_site_fract_y
_atom_site_fract_z
Si Si1 0.266837 0.789263 0.928716
Si Si2 0.272903 0.704757 0.569076
Si Si3 0.590530 0.289854 0.827589
Si Si4 0.088788 0.204308 0.398821
Si Si5 0.911339 0.795132 0.113350
Si Si6 0.685447 0.286783 0.292536
Si Si7 0.129532 0.289701 0.255936
O O1 0.336633 0.746652 0.877316
O O2 0.175292 0.720243 0.911596
O O3 0.260930 0.000000 0.929121
O O4 0.289819 0.729784 0.000000
O O5 0.294589 0.783048 0.500000
O O6 0.295430 0.500000 0.567481
O O7 0.173568 0.712730 0.577129
O O8 0.311572 0.779325 0.634433
O O9 0.500000 0.224144 0.846588
O O10 0.586203 0.500000 0.823355
O O11 0.616684 0.225532 0.756922
O O12 0.091465 0.221559 0.321778
O O13 0.000000 0.275201 0.420701
O O14 0.092464 0.000000 0.416098
O O15 0.906118 0.782067 0.190329
O O16 0.000000 0.719380 0.092789
O O17 0.912324 0.000000 0.095154
O O18 0.682035 0.500000 0.295899
O O19 0.773749 0.244587 0.260994
O O20 0.120895 0.500000 0.255464
#
# Coordination Sequence:
#
# PCOD9382006 Si02
#       7
#     8   8   8   8   8   8   8
#     4  10  22  39  57  79 111 148 182 222 271 321
#     4   9  18  32  50  71  97 134 177 219 265 318
#     4  10  20  36  60  86 110 139 178 224 274 328
#     4  10  20  31  43  64  98 136 175 223 273 318
#     4  10  20  33  51  76 106 141 182 225 269 318
#     4   8  15  30  51  75 102 132 168 213 262 311
#     4  10  18  30  50  73 100 136 177 222 270 317
#
# _framework density 21.622738999999999
#
# number of rings (size 3 to 8) (size 9 to 14) (size 15 to 20)
#    0.000    2.429    1.429    2.143    0.000    4.857 
#    0.000    4.286    0.000    0.429    0.000    5.000 
#    0.000    0.000    0.000    5.000    0.000    6.286 
#
# Total GULP energy -312490.151163 kJ/mol
# GULP energy per Si atom -5580.181271 kJ/mol
# Density = 2.157352 g / cm^3
# Si number density = 21.622739 Si / 1000 Ang^3
#
#
#
# Elastic Constant Matrix: (Units=GPa)
#
#
# Indices 1 2 3 4 5 6 
#
# 1 134.7705 8.8781 70.8082 0.0000 0.0000 0.0000
# 2 8.8781 47.1214 -3.1751 0.0000 0.0000 0.0000
# 3 70.8082 -3.1751 138.7428 0.0000 0.0000 0.0000
# 4 0.0000 0.0000 0.0000 14.9871 0.0000 0.0000
# 5 0.0000 0.0000 0.0000 0.0000 -5.5679 0.0000
# 6 0.0000 0.0000 0.0000 0.0000 0.0000 10.3994
#
#
#
# Elastic Compliance Matrix: (Units=1/GPa)
#
#
# Indices 1 2 3 4 5 6 
#
# 1 0.010385 -0.002317 -0.005353 0.000000 0.000000 0.000000
# 2 -0.002317 0.021772 0.001681 0.000000 0.000000 0.000000
# 3 -0.005353 0.001681 0.009978 0.000000 0.000000 0.000000
# 4 0.000000 0.000000 0.000000 0.066724 0.000000 0.000000
# 5 0.000000 0.000000 0.000000 0.000000 -0.179600 0.000000
# 6 0.000000 0.000000 0.000000 0.000000 0.000000 0.096159
#
#
# Mechanical properties :
#
#
# Convention : Reuss Voigt Hill
#
# Bulk Modulus (GPa) = 33.16126 52.62857 42.89491
# Shear Modulus (GPa) = 105.37482 20.23862 62.80672
#
# Velocity S-wave (km/s) = 6.98850 3.06271 5.39534
# Velocity P-wave (km/s) = 8.97153 6.07447 7.66119
#
# Compressibility (1/GPa) = 0.03015567
#
# Stress axis : x y z
#
# Youngs Moduli (GPa) = 96.29042 45.93130 100.21955
#
# Poissons Ratio (x) = 0.10644 0.53650
# Poissons Ratio (y) = 0.22314 -0.16846
# Poissons Ratio (z) = 0.51546 -0.07721
#
# Static dielectric constant tensor:
#      x y z
#    x 1.786400 0.000000 0.000000 
#    y 0.000000 1.817780 0.000000 
#    z 0.000000 0.000000 1.798020 
# 
# From -- ./inp_files/7279.got.cif
#   From: 2010.05.17/outbox.cif.g08.bks.cpg/sg47_4_cif.got.tgz:7279.got - 2010.06.03 20:15:42.
