data_PCOD9382425
_publ_section_title
;
Structure prediction by ZEFSAII (Michael W. Deem and Ramdas Pophale) SiO2 
 PCOD9382425
Probable space group: P M M M
;
_chemical_formula_sum "Si O2"
_cell_formula_units_Z 48
_cell_length_a 24.894961
_cell_length_b 14.123994
_cell_length_c 8.691797
_cell_angle_alpha 90.000000
_cell_angle_beta 90.000000
_cell_angle_gamma 90.000000
_cell_volume 3056.177326
_symmetry_space_group_name_H-M "P M M M"
_symmetry_group_IT_number 47
_symmetry_cell_setting 'orthorhombic'
loop_
_space_group_symop_operation_xyz
x,y,z
-x,-y,z
x,-y,-z
-x,y,-z
-x,-y,-z
x,y,-z
-x,y,z
x,-y,z
loop_
_atom_site_type_symbol
_atom_site_label
_atom_site_fract_x
_atom_site_fract_y
_atom_site_fract_z
Si Si1 0.558887 0.885501 0.318612
Si Si2 0.060156 0.711600 0.314129
Si Si3 0.328299 0.111232 0.816831
Si Si4 0.167015 0.394299 0.687163
Si Si5 0.222776 0.797232 0.315514
Si Si6 0.882554 0.107702 0.815482
O O1 0.563606 0.863809 0.500000
O O2 0.500000 0.851577 0.264183
O O3 0.612437 0.854284 0.232125
O O4 0.557911 0.000000 0.305008
O O5 0.061049 0.714153 0.500000
O O6 0.107317 0.639777 0.265576
O O7 0.077266 0.814657 0.253508
O O8 0.000000 0.686256 0.264389
O O9 0.280829 0.169501 0.738707
O O10 0.323420 0.000000 0.770998
O O11 0.322860 0.116026 0.000000
O O12 0.167367 0.396620 0.500000
O O13 0.179221 0.500000 0.742462
O O14 0.207346 0.310092 0.732345
O O15 0.218816 0.803012 0.500000
O O16 0.176674 0.863696 0.243566
O O17 0.895157 0.000000 0.769881
O O18 0.883438 0.113643 0.000000
#
# Coordination Sequence:
#
# PCOD9382425 Si02
#       6
#     8   8   8   8   8   8
#     4   8  14  25  40  58  83 117 155 190 219 246
#     4   9  18  31  47  68  89 109 137 171 207 251
#     4  10  19  28  40  61  90 123 154 182 213 249
#     4   8  15  29  48  68  87 106 132 171 218 262
#     4  10  19  30  46  66  86 110 142 179 217 257
#     4  10  20  32  45  61  84 115 146 175 210 250
#
# _framework density 15.705895
#
# number of rings (size 3 to 8) (size 9 to 14) (size 15 to 20)
#    0.000    2.833    0.000    3.500    0.000    5.667 
#    0.000    5.000    0.000   12.500    0.000    4.667 
#    0.000    0.667    0.000    7.667    0.000    2.500 
#
# Total GULP energy -267405.830091 kJ/mol
# GULP energy per Si atom -5570.954794 kJ/mol
# Density = 1.567015 g / cm^3
# Si number density = 15.705895 Si / 1000 Ang^3
#
#
#
# Elastic Constant Matrix: (Units=GPa)
#
#
# Indices 1 2 3 4 5 6 
#
# 1 98.9550 25.1420 14.8119 0.0000 0.0000 0.0000
# 2 25.1420 67.7427 7.8408 0.0000 0.0000 0.0000
# 3 14.8119 7.8408 10.9632 0.0000 0.0000 0.0000
# 4 0.0000 0.0000 0.0000 -3.9675 0.0000 0.0000
# 5 0.0000 0.0000 0.0000 0.0000 10.0640 0.0000
# 6 0.0000 0.0000 0.0000 0.0000 0.0000 9.3211
#
#
#
# Elastic Compliance Matrix: (Units=1/GPa)
#
#
# Indices 1 2 3 4 5 6 
#
# 1 0.013239 -0.003100 -0.015669 0.000000 0.000000 0.000000
# 2 -0.003100 0.016820 -0.007842 0.000000 0.000000 0.000000
# 3 -0.015669 -0.007842 0.117993 0.000000 0.000000 0.000000
# 4 0.000000 0.000000 0.000000 -0.252045 0.000000 0.000000
# 5 0.000000 0.000000 0.000000 0.000000 0.099365 0.000000
# 6 0.000000 0.000000 0.000000 0.000000 0.000000 0.107284
#
#
# Mechanical properties :
#
#
# Convention : Reuss Voigt Hill
#
# Bulk Modulus (GPa) = 10.54515 30.36116 20.45316
# Shear Modulus (GPa) = 26.66866 11.74123 19.20495
#
# Velocity S-wave (km/s) = 4.12515 2.73714 3.50063
# Velocity P-wave (km/s) = 5.42383 5.41869 5.42126
#
# Compressibility (1/GPa) = 0.09483033
#
# Stress axis : x y z
#
# Youngs Moduli (GPa) = 75.53671 59.45376 8.47507
#
# Poissons Ratio (x) = 0.18429 0.13280
# Poissons Ratio (y) = 0.23414 0.06646
# Poissons Ratio (z) = 1.18360 0.46621
#
# Static dielectric constant tensor:
#      x y z
#    x 1.532940 0.000000 0.000000 
#    y 0.000000 1.512930 0.000000 
#    z 0.000000 0.000000 1.528270 
# 
# From -- ./inp_files/7527.got.cif
#   From: 2010.05.17/outbox.cif.g08.bks.cpg/sg47_4_cif.got.tgz:7527.got - 2010.06.03 20:15:42.
