data_PCOD9382562
_publ_section_title
;
Structure prediction by ZEFSAII (Michael W. Deem and Ramdas Pophale) SiO2 
 PCOD9382562
Probable space group: P M M M
;
_chemical_formula_sum "Si O2"
_cell_formula_units_Z 60
_cell_length_a 17.048424
_cell_length_b 9.252112
_cell_length_c 23.867733
_cell_angle_alpha 90.000000
_cell_angle_beta 90.000000
_cell_angle_gamma 90.000000
_cell_volume 3764.751285
_symmetry_space_group_name_H-M "P M M M"
_symmetry_group_IT_number 47
_symmetry_cell_setting 'orthorhombic'
loop_
_space_group_symop_operation_xyz
x,y,z
-x,-y,z
x,-y,-z
-x,y,-z
-x,-y,-z
x,y,-z
-x,y,z
x,-y,z
loop_
_atom_site_type_symbol
_atom_site_label
_atom_site_fract_x
_atom_site_fract_y
_atom_site_fract_z
Si Si1 0.159071 0.827836 0.564469
Si Si2 0.671393 0.666540 0.234464
Si Si3 0.000000 0.336864 0.432071
Si Si4 0.172523 0.664656 0.155994
Si Si5 0.261558 0.826273 0.064116
Si Si6 0.089455 0.326859 0.264888
Si Si7 0.234440 0.172214 0.323965
Si Si8 0.588600 0.826801 0.137791
O O1 0.177597 0.788852 0.500000
O O2 0.226443 0.798080 0.609788
O O3 0.079682 0.745920 0.582196
O O4 0.143475 0.000000 0.565999
O O5 0.650500 0.500000 0.244579
O O6 0.750579 0.668141 0.196327
O O7 0.695867 0.748736 0.290987
O O8 0.608657 0.748548 0.196111
O O9 0.000000 0.500000 0.409639
O O10 0.000000 0.343393 0.500000
O O11 0.161255 0.500000 0.137081
O O12 0.193585 0.763928 0.103746
O O13 0.103299 0.704598 0.198763
O O14 0.344894 0.784865 0.092643
O O15 0.257880 0.000000 0.064636
O O16 0.256889 0.776536 0.000000
O O17 0.104691 0.500000 0.272069
O O18 0.153542 0.234742 0.298004
O O19 0.000000 0.297417 0.281349
O O20 0.238818 0.000000 0.314887
O O21 0.500000 0.793370 0.119622
O O22 0.594746 0.000000 0.145656
#
# Coordination Sequence:
#
# PCOD9382562 Si02
#       8
#     8   8   4   8   8   8   8   8
#     4   9  18  31  43  56  81 116 148 180 220 263
#     4   9  17  30  46  63  86 115 145 178 218 257
#     4   9  17  27  39  55  75 105 145 183 216 253
#     4   8  15  28  44  60  79 107 142 177 217 261
#     4   9  17  28  43  64  89 117 147 176 208 247
#     4   9  18  31  45  62  84 109 138 181 233 273
#     4  10  19  29  44  64  85 111 147 185 218 260
#     4   9  17  29  46  68  94 121 146 174 207 245
#
# _framework density 15.937308
#
# number of rings (size 3 to 8) (size 9 to 14) (size 15 to 20)
#    0.000    3.000    0.000    1.800    0.933    6.133 
#    0.000    1.333    0.000    0.400    0.000    6.533 
#    0.000    0.533    0.000    6.133    0.000    1.733 
#
# Total GULP energy -334107.907686 kJ/mol
# GULP energy per Si atom -5568.465128 kJ/mol
# Density = 1.590103 g / cm^3
# Si number density = 15.937308 Si / 1000 Ang^3
#
#
#
# Elastic Constant Matrix: (Units=GPa)
#
#
# Indices 1 2 3 4 5 6 
#
# 1 10.4383 3.7113 8.4467 0.0000 0.0000 0.0000
# 2 3.7113 32.5720 33.9890 0.0000 0.0000 0.0000
# 3 8.4467 33.9890 95.5678 0.0000 0.0000 0.0000
# 4 0.0000 0.0000 0.0000 14.7520 0.0000 0.0000
# 5 0.0000 0.0000 0.0000 0.0000 17.9382 0.0000
# 6 0.0000 0.0000 0.0000 0.0000 0.0000 15.7313
#
#
#
# Elastic Compliance Matrix: (Units=1/GPa)
#
#
# Indices 1 2 3 4 5 6 
#
# 1 0.103441 -0.003571 -0.007872 0.000000 0.000000 0.000000
# 2 -0.003571 0.048943 -0.017091 0.000000 0.000000 0.000000
# 3 -0.007872 -0.017091 0.017238 0.000000 0.000000 0.000000
# 4 0.000000 0.000000 0.000000 0.067788 0.000000 0.000000
# 5 0.000000 0.000000 0.000000 0.000000 0.055747 0.000000
# 6 0.000000 0.000000 0.000000 0.000000 0.000000 0.063568
#
#
# Mechanical properties :
#
#
# Convention : Reuss Voigt Hill
#
# Bulk Modulus (GPa) = 8.88475 25.65245 17.26860
# Shear Modulus (GPa) = 11.07885 15.84638 13.46261
#
# Velocity S-wave (km/s) = 2.63943 3.15666 2.90957
# Velocity P-wave (km/s) = 3.85691 5.42373 4.70598
#
# Compressibility (1/GPa) = 0.11255242
#
# Stress axis : x y z
#
# Youngs Moduli (GPa) = 9.66733 20.43213 58.01138
#
# Poissons Ratio (x) = 0.07297 0.45669
# Poissons Ratio (y) = 0.03453 0.99147
# Poissons Ratio (z) = 0.07610 0.34920
#
# Static dielectric constant tensor:
#      x y z
#    x 1.517870 0.000000 0.000000 
#    y 0.000000 1.537670 0.000000 
#    z 0.000000 0.000000 1.560770 
# 
# From -- ./inp_files/32939.got.cif
#   From: 2010.05.17/outbox.cif.g08.bks.cpg/sg47_17_cif.got.tgz:32939.got - 2010.06.03 20:15:42.
