data_PCOD9382417
_publ_section_title
;
Structure prediction by ZEFSAII (Michael W. Deem and Ramdas Pophale) SiO2 
 PCOD9382417
Probable space group: P M M M
;
_chemical_formula_sum "Si O2"
_cell_formula_units_Z 56
_cell_length_a 19.534758
_cell_length_b 19.874659
_cell_length_c 7.459469
_cell_angle_alpha 90.000000
_cell_angle_beta 90.000000
_cell_angle_gamma 90.000000
_cell_volume 2896.113879
_symmetry_space_group_name_H-M "P M M M"
_symmetry_group_IT_number 47
_symmetry_cell_setting 'orthorhombic'
loop_
_space_group_symop_operation_xyz
x,y,z
-x,-y,z
x,-y,-z
-x,y,-z
-x,-y,-z
x,y,-z
-x,y,z
x,-y,z
loop_
_atom_site_type_symbol
_atom_site_label
_atom_site_fract_x
_atom_site_fract_y
_atom_site_fract_z
Si Si1 0.792325 0.795956 0.281338
Si Si2 0.576495 0.158189 0.281111
Si Si3 0.922872 0.285198 0.280361
Si Si4 0.135914 0.574574 0.707656
Si Si5 0.710098 0.923791 0.718700
Si Si6 0.341124 0.715265 0.714102
Si Si7 0.293550 0.425924 0.788249
O O1 0.792541 0.795436 0.500000
O O2 0.865151 0.767706 0.222201
O O3 0.767941 0.870167 0.225903
O O4 0.731738 0.745343 0.222851
O O5 0.575657 0.157179 0.500000
O O6 0.500000 0.142242 0.220276
O O7 0.636580 0.107091 0.226745
O O8 0.600723 0.232959 0.223805
O O9 0.921034 0.286236 0.500000
O O10 0.901206 0.359913 0.217125
O O11 0.000000 0.269173 0.226263
O O12 0.114679 0.570850 0.500000
O O13 0.123967 0.500000 0.786891
O O14 0.217826 0.586750 0.709949
O O15 0.710119 0.924330 0.500000
O O16 0.719677 0.000000 0.779626
O O17 0.340519 0.720879 0.500000
O O18 0.343068 0.636612 0.754531
O O19 0.316700 0.500000 0.725648
O O20 0.283239 0.429091 0.000000
#
# Coordination Sequence:
#
# PCOD9382417 Si02
#       7
#     8   8   8   8   8   8   8
#     4   8  13  22  35  53  76 101 136 173 201 235
#     4   8  14  23  37  60  85 106 132 167 202 238
#     4   9  15  22  35  55  77 102 135 176 212 237
#     4   9  16  26  40  57  78 104 135 170 210 255
#     4   8  13  20  32  52  81 116 141 159 194 242
#     4   9  15  26  44  60  78 107 139 169 204 243
#     4  10  19  28  40  60  83 105 134 174 213 244
#
# _framework density 19.336255999999999
#
# number of rings (size 3 to 8) (size 9 to 14) (size 15 to 20)
#    0.000    3.286    1.429    2.143    0.000    1.429 
#    0.000    2.857    0.000    1.714    0.000    8.000 
#    0.000    9.143    0.000    5.143    0.000   11.429 
#
# Total GULP energy -312067.746361 kJ/mol
# GULP energy per Si atom -5572.638328 kJ/mol
# Density = 1.929225 g / cm^3
# Si number density = 19.336256 Si / 1000 Ang^3
#
#
#
# Elastic Constant Matrix: (Units=GPa)
#
#
# Indices 1 2 3 4 5 6 
#
# 1 94.7010 72.9096 5.8265 0.0000 0.0000 0.0000
# 2 72.9096 168.1542 3.0315 0.0000 0.0000 0.0000
# 3 5.8265 3.0315 54.9500 0.0000 0.0000 0.0000
# 4 0.0000 0.0000 0.0000 -46.6041 0.0000 0.0000
# 5 0.0000 0.0000 0.0000 0.0000 -39.2117 0.0000
# 6 0.0000 0.0000 0.0000 0.0000 0.0000 19.0826
#
#
#
# Elastic Compliance Matrix: (Units=1/GPa)
#
#
# Indices 1 2 3 4 5 6 
#
# 1 0.015945 -0.006890 -0.001311 0.000000 0.000000 0.000000
# 2 -0.006890 0.008930 0.000238 0.000000 0.000000 0.000000
# 3 -0.001311 0.000238 0.018324 0.000000 0.000000 0.000000
# 4 0.000000 0.000000 0.000000 -0.021457 0.000000 0.000000
# 5 0.000000 0.000000 0.000000 0.000000 -0.025503 0.000000
# 6 0.000000 0.000000 0.000000 0.000000 0.000000 0.052404
#
#
# Mechanical properties :
#
#
# Convention : Reuss Voigt Hill
#
# Bulk Modulus (GPa) = 36.66510 53.48227 45.07369
# Shear Modulus (GPa) = 67.88084 2.38920 35.13502
#
# Velocity S-wave (km/s) = 5.93141 1.11278 4.26732
# Velocity P-wave (km/s) = 8.11862 5.41942 6.90225
#
# Compressibility (1/GPa) = 0.02727389
#
# Stress axis : x y z
#
# Youngs Moduli (GPa) = 62.71739 111.98283 54.57262
#
# Poissons Ratio (x) = 0.77153 0.07152
# Poissons Ratio (y) = 0.43211 -0.01298
# Poissons Ratio (z) = 0.08219 -0.02664
#
# Static dielectric constant tensor:
#      x y z
#    x 1.643300 0.000000 0.000000 
#    y 0.000000 1.701880 0.000000 
#    z 0.000000 0.000000 1.718510 
# 
# From -- ./inp_files/9840.got.cif
#   From: 2010.05.17/outbox.cif.g08.bks.cpg/sg47_5_cif.got.tgz:9840.got - 2010.06.03 20:15:42.
