data_PCOD9382715
_publ_section_title
;
Structure prediction by ZEFSAII (Michael W. Deem and Ramdas Pophale) SiO2 
 PCOD9382715
Probable space group: P M M M
;
_chemical_formula_sum "Si O2"
_cell_formula_units_Z 52
_cell_length_a 14.202155
_cell_length_b 8.547593
_cell_length_c 27.428476
_cell_angle_alpha 90.000000
_cell_angle_beta 90.000000
_cell_angle_gamma 90.000000
_cell_volume 3329.659017
_symmetry_space_group_name_H-M "P M M M"
_symmetry_group_IT_number 47
_symmetry_cell_setting 'orthorhombic'
loop_
_space_group_symop_operation_xyz
x,y,z
-x,-y,z
x,-y,-z
-x,y,-z
-x,-y,-z
x,y,-z
-x,y,z
x,-y,z
loop_
_atom_site_type_symbol
_atom_site_label
_atom_site_fract_x
_atom_site_fract_y
_atom_site_fract_z
Si Si1 0.609240 0.313156 0.604133
Si Si2 0.107593 0.312397 0.751840
Si Si3 0.284868 0.812668 0.302429
Si Si4 0.791202 0.810302 0.847838
Si Si5 0.614086 0.180512 0.500000
Si Si6 0.394171 0.809600 0.794958
Si Si7 0.109320 0.809417 0.054453
O O1 0.500000 0.259117 0.610556
O O2 0.609289 0.500000 0.606399
O O3 0.673516 0.246308 0.646921
O O4 0.642745 0.260674 0.550524
O O5 0.111291 0.500000 0.752848
O O6 0.182521 0.251233 0.712361
O O7 0.142324 0.248580 0.804191
O O8 0.000000 0.263274 0.742567
O O9 0.354754 0.763579 0.258222
O O10 0.281225 0.000000 0.302470
O O11 0.685183 0.761039 0.833755
O O12 0.827861 0.755956 0.900321
O O13 0.793933 0.000000 0.847054
O O14 0.500000 0.187489 0.500000
O O15 0.642848 0.000000 0.500000
O O16 0.500000 0.752792 0.803307
O O17 0.396556 0.000000 0.795585
O O18 0.000000 0.764893 0.061977
O O19 0.111658 0.000000 0.054445
O O20 0.138078 0.758373 0.000000
#
# Coordination Sequence:
#
# PCOD9382715 Si02
#       7
#     8   8   8   8   4   8   8
#     4  10  19  30  45  67  97 128 155 187 228 270
#     4  10  20  32  45  63  89 116 140 174 224 275
#     4  10  19  30  46  66  87 116 153 187 218 259
#     4   9  16  26  43  63  81 108 145 179 211 257
#     4   9  17  29  45  65  90 123 162 197 227 263
#     4   8  14  24  38  58  83 109 138 173 212 251
#     4   8  13  21  35  57  82 105 134 177 223 262
#
# _framework density 15.617215
#
# number of rings (size 3 to 8) (size 9 to 14) (size 15 to 20)
#    0.000    2.846    0.000    3.923    0.000    4.308 
#    0.000    0.000    0.000    5.077    0.000    5.923 
#    0.000    4.308    0.000    5.538    0.000    6.769 
#
# Total GULP energy -289716.966042 kJ/mol
# GULP energy per Si atom -5571.480116 kJ/mol
# Density = 1.558167 g / cm^3
# Si number density = 15.617215 Si / 1000 Ang^3
#
#
#
# Elastic Constant Matrix: (Units=GPa)
#
#
# Indices 1 2 3 4 5 6 
#
# 1 128.3910 25.7337 87.6803 0.0000 0.0000 0.0000
# 2 25.7337 24.7903 25.7792 0.0000 0.0000 0.0000
# 3 87.6803 25.7792 151.3547 0.0000 0.0000 0.0000
# 4 0.0000 0.0000 0.0000 5.3011 0.0000 0.0000
# 5 0.0000 0.0000 0.0000 0.0000 24.5167 0.0000
# 6 0.0000 0.0000 0.0000 0.0000 0.0000 14.8170
#
#
#
# Elastic Compliance Matrix: (Units=1/GPa)
#
#
# Indices 1 2 3 4 5 6 
#
# 1 0.013912 -0.007365 -0.006805 0.000000 0.000000 0.000000
# 2 -0.007365 0.052920 -0.004747 0.000000 0.000000 0.000000
# 3 -0.006805 -0.004747 0.011358 0.000000 0.000000 0.000000
# 4 0.000000 0.000000 0.000000 0.188641 0.000000 0.000000
# 5 0.000000 0.000000 0.000000 0.000000 0.040789 0.000000
# 6 0.000000 0.000000 0.000000 0.000000 0.000000 0.067490
#
#
# Mechanical properties :
#
#
# Convention : Reuss Voigt Hill
#
# Bulk Modulus (GPa) = 24.77950 64.76916 44.77433
# Shear Modulus (GPa) = 11.72621 19.94981 15.83801
#
# Velocity S-wave (km/s) = 2.74314 3.57798 3.18801
# Velocity P-wave (km/s) = 5.09257 7.65717 6.50256
#
# Compressibility (1/GPa) = 0.04035594
#
# Stress axis : x y z
#
# Youngs Moduli (GPa) = 71.88001 18.89644 88.04704
#
# Poissons Ratio (x) = 0.13918 0.59915
# Poissons Ratio (y) = 0.52941 0.41794
# Poissons Ratio (z) = 0.48913 0.08970
#
# Static dielectric constant tensor:
#      x y z
#    x 1.516700 0.000000 0.000000 
#    y 0.000000 1.526910 0.000000 
#    z 0.000000 0.000000 1.511950 
# 
# From -- ./inp_files/33790.got.cif
#   From: 2010.05.17/outbox.cif.g08.bks.cpg/sg47_17_cif.got.tgz:33790.got - 2010.06.03 20:15:42.
