data_PCOD9382733
_publ_section_title
;
Structure prediction by ZEFSAII (Michael W. Deem and Ramdas Pophale) SiO2 
 PCOD9382733
Probable space group: P M M M
;
_chemical_formula_sum "Si O2"
_cell_formula_units_Z 48
_cell_length_a 7.402772
_cell_length_b 14.355897
_cell_length_c 20.433459
_cell_angle_alpha 90.000000
_cell_angle_beta 90.000000
_cell_angle_gamma 90.000000
_cell_volume 2171.533823
_symmetry_space_group_name_H-M "P M M M"
_symmetry_group_IT_number 47
_symmetry_cell_setting 'orthorhombic'
loop_
_space_group_symop_operation_xyz
x,y,z
-x,-y,z
x,-y,-z
-x,y,-z
-x,-y,-z
x,y,-z
-x,y,z
x,-y,z
loop_
_atom_site_type_symbol
_atom_site_label
_atom_site_fract_x
_atom_site_fract_y
_atom_site_fract_z
Si Si1 0.720151 0.396021 0.076490
Si Si2 0.715584 0.893709 0.282476
Si Si3 0.703533 0.749195 0.821400
Si Si4 0.789105 0.386885 0.430601
Si Si5 0.219490 0.608506 0.710695
Si Si6 0.216344 0.891883 0.428695
O O1 0.500000 0.395314 0.080983
O O2 0.777918 0.500000 0.099838
O O3 0.786590 0.307056 0.117601
O O4 0.766848 0.388922 0.000000
O O5 0.500000 0.896402 0.274200
O O6 0.787206 0.832974 0.221538
O O7 0.743172 0.853986 0.356125
O O8 0.784689 0.000000 0.281641
O O9 0.500000 0.777905 0.840885
O O10 0.697051 0.668393 0.767208
O O11 0.708293 0.358594 0.500000
O O12 0.788910 0.500000 0.429587
O O13 0.714363 0.359604 0.360811
O O14 0.000000 0.358005 0.431371
O O15 0.261364 0.500000 0.718692
O O16 0.000000 0.617512 0.712256
O O17 0.278781 0.853960 0.500000
O O18 0.000000 0.891471 0.431770
O O19 0.278339 0.000000 0.426812
#
# Coordination Sequence:
#
# PCOD9382733 Si02
#       6
#     8   8   8   8   8   8
#     4   8  14  26  46  71  94 115 143 179 218 265
#     4   9  18  31  45  63  90 124 158 191 232 280
#     4  10  19  30  46  67  90 117 149 185 223 265
#     4   7  10  19  36  55  75 104 142 176 203 239
#     4   9  17  28  43  65  91 116 143 179 223 269
#     4   8  14  26  45  67  88 112 149 199 246 280
#
# _framework density 22.104194
#
# number of rings (size 3 to 8) (size 9 to 14) (size 15 to 20)
#    0.000    3.500    0.000    3.000    0.000    2.000 
#    0.000    2.500    0.000    4.500    0.000    8.167 
#    0.000    0.000    0.000    5.667    0.000    6.167 
#
# Total GULP energy -267416.475175 kJ/mol
# GULP energy per Si atom -5571.176566 kJ/mol
# Density = 2.205388 g / cm^3
# Si number density = 22.104194 Si / 1000 Ang^3
#
#
#
# Elastic Constant Matrix: (Units=GPa)
#
#
# Indices 1 2 3 4 5 6 
#
# 1 74.7517 2.9189 0.6171 0.0000 0.0000 0.0000
# 2 2.9189 112.8128 49.4150 0.0000 0.0000 0.0000
# 3 0.6171 49.4150 124.4897 0.0000 0.0000 0.0000
# 4 0.0000 0.0000 0.0000 72.4984 0.0000 0.0000
# 5 0.0000 0.0000 0.0000 0.0000 25.3504 0.0000
# 6 0.0000 0.0000 0.0000 0.0000 0.0000 12.3195
#
#
#
# Elastic Compliance Matrix: (Units=1/GPa)
#
#
# Indices 1 2 3 4 5 6 
#
# 1 0.013392 -0.000384 0.000086 0.000000 0.000000 0.000000
# 2 -0.000384 0.010741 -0.004262 0.000000 0.000000 0.000000
# 3 0.000086 -0.004262 0.009724 0.000000 0.000000 0.000000
# 4 0.000000 0.000000 0.000000 0.013793 0.000000 0.000000
# 5 0.000000 0.000000 0.000000 0.000000 0.039447 0.000000
# 6 0.000000 0.000000 0.000000 0.000000 0.000000 0.081172
#
#
# Mechanical properties :
#
#
# Convention : Reuss Voigt Hill
#
# Bulk Modulus (GPa) = 40.42465 46.43959 43.43212
# Shear Modulus (GPa) = 26.93467 39.30720 33.12094
#
# Velocity S-wave (km/s) = 3.49454 4.22153 3.87512
# Velocity P-wave (km/s) = 5.88305 6.69453 6.30187
#
# Compressibility (1/GPa) = 0.02473738
#
# Stress axis : x y z
#
# Youngs Moduli (GPa) = 74.67192 93.10228 102.83876
#
# Poissons Ratio (x) = 0.03577 -0.00886
# Poissons Ratio (y) = 0.02869 0.43826
# Poissons Ratio (z) = -0.00643 0.39676
#
# Static dielectric constant tensor:
#      x y z
#    x 1.848320 0.000000 0.000000 
#    y 0.000000 1.877740 0.000000 
#    z 0.000000 0.000000 1.837210 
# 
# From -- ./inp_files/6826.got.cif
#   From: 2010.05.17/outbox.cif.g08.bks.cpg/sg47_4_cif.got.tgz:6826.got - 2010.06.03 20:15:42.
