data_PCOD9382724
_publ_section_title
;
Structure prediction by ZEFSAII (Michael W. Deem and Ramdas Pophale) SiO2 
 PCOD9382724
Probable space group: P M M M
;
_chemical_formula_sum "Si O2"
_cell_formula_units_Z 60
_cell_length_a 22.540998
_cell_length_b 19.254392
_cell_length_c 8.369354
_cell_angle_alpha 90.000000
_cell_angle_beta 90.000000
_cell_angle_gamma 90.000000
_cell_volume 3632.410208
_symmetry_space_group_name_H-M "P M M M"
_symmetry_group_IT_number 47
_symmetry_cell_setting 'orthorhombic'
loop_
_space_group_symop_operation_xyz
x,y,z
-x,-y,z
x,-y,-z
-x,y,-z
-x,-y,-z
x,y,-z
-x,y,z
x,-y,z
loop_
_atom_site_type_symbol
_atom_site_label
_atom_site_fract_x
_atom_site_fract_y
_atom_site_fract_z
Si Si1 0.721800 0.079188 0.807091
Si Si2 0.140968 0.076912 0.194381
Si Si3 0.567362 0.500000 0.809460
Si Si4 0.177232 0.705941 0.309172
Si Si5 0.303300 0.227266 0.692771
Si Si6 0.763558 0.420809 0.185061
Si Si7 0.067300 0.207700 0.806377
Si Si8 0.642136 0.630812 0.314728
O O1 0.790769 0.088692 0.754660
O O2 0.687423 0.147947 0.748665
O O3 0.703866 0.000000 0.757444
O O4 0.720619 0.079684 0.000000
O O5 0.094344 0.133917 0.247067
O O6 0.123616 0.000000 0.245097
O O7 0.142330 0.078349 0.000000
O O8 0.500000 0.500000 0.746931
O O9 0.600099 0.428314 0.759770
O O10 0.566368 0.500000 0.000000
O O11 0.179822 0.700953 0.500000
O O12 0.236318 0.749365 0.257031
O O13 0.184905 0.631508 0.228964
O O14 0.116111 0.739141 0.255467
O O15 0.304778 0.228150 0.500000
O O16 0.348025 0.289491 0.747891
O O17 0.780187 0.500000 0.208869
O O18 0.707868 0.400969 0.294406
O O19 0.745066 0.411674 0.000000
O O20 0.000000 0.218670 0.752144
O O21 0.067320 0.209012 0.000000
O O22 0.625842 0.636381 0.500000
#
# Coordination Sequence:
#
# PCOD9382724 Si02
#       8
#     8   8   4   8   8   8   8   8
#     4   9  16  26  43  66  91 123 160 198 245 298
#     4   8  14  25  40  60  85 111 146 191 236 286
#     4  11  23  37  53  77 111 149 186 213 236 271
#     4  10  20  32  46  65  90 120 152 188 238 293
#     4   9  18  30  45  68  94 124 161 202 245 290
#     4  10  19  31  51  76  99 120 149 192 238 284
#     4  10  19  30  46  65  84 111 150 194 240 292
#     4  10  20  33  50  74 105 137 173 208 241 283
#
# _framework density 16.517959000000001
#
# number of rings (size 3 to 8) (size 9 to 14) (size 15 to 20)
#    0.000    2.467    2.000    3.000    0.000    4.800 
#    0.000    1.333    0.000    0.800    0.000    3.733 
#    0.000    0.533    0.000    5.867    0.000    4.267 
#
# Total GULP energy -334031.400094 kJ/mol
# GULP energy per Si atom -5567.190002 kJ/mol
# Density = 1.648036 g / cm^3
# Si number density = 16.517959 Si / 1000 Ang^3
#
#
#
# Elastic Constant Matrix: (Units=GPa)
#
#
# Indices 1 2 3 4 5 6 
#
# 1 61.8325 49.4973 6.6550 0.0000 0.0000 0.0000
# 2 49.4973 139.0714 20.5040 0.0000 0.0000 0.0000
# 3 6.6550 20.5040 11.0091 0.0000 0.0000 0.0000
# 4 0.0000 0.0000 0.0000 16.1365 0.0000 0.0000
# 5 0.0000 0.0000 0.0000 0.0000 -11.0053 0.0000
# 6 0.0000 0.0000 0.0000 0.0000 0.0000 15.8826
#
#
#
# Elastic Compliance Matrix: (Units=1/GPa)
#
#
# Indices 1 2 3 4 5 6 
#
# 1 0.022643 -0.008327 0.001822 0.000000 0.000000 0.000000
# 2 -0.008327 0.012975 -0.019132 0.000000 0.000000 0.000000
# 3 0.001822 -0.019132 0.125365 0.000000 0.000000 0.000000
# 4 0.000000 0.000000 0.000000 0.061971 0.000000 0.000000
# 5 0.000000 0.000000 0.000000 0.000000 -0.090865 0.000000
# 6 0.000000 0.000000 0.000000 0.000000 0.000000 0.062962
#
#
# Mechanical properties :
#
#
# Convention : Reuss Voigt Hill
#
# Bulk Modulus (GPa) = 9.11506 40.58059 24.84783
# Shear Modulus (GPa) = 17.67442 13.21987 15.44714
#
# Velocity S-wave (km/s) = 3.27465 2.83208 3.06138
# Velocity P-wave (km/s) = 4.45287 5.94266 5.25087
#
# Compressibility (1/GPa) = 0.10970852
#
# Stress axis : x y z
#
# Youngs Moduli (GPa) = 44.16409 77.07084 7.97672
#
# Poissons Ratio (x) = 0.64181 -0.01453
# Poissons Ratio (y) = 0.36778 0.15261
# Poissons Ratio (z) = -0.08047 1.47449
#
# Static dielectric constant tensor:
#      x y z
#    x 1.528590 0.000000 0.000000 
#    y 0.000000 1.610690 0.000000 
#    z 0.000000 0.000000 1.583190 
# 
# From -- ./inp_files/11648.got.cif
#   From: 2010.05.17/outbox.cif.g08.bks.cpg/sg47_6_cif.got.tgz:11648.got - 2010.06.03 20:15:42.
