data_PCOD9382446
_publ_section_title
;
Structure prediction by ZEFSAII (Michael W. Deem and Ramdas Pophale) SiO2 
 PCOD9382446
Probable space group: P M M M
;
_chemical_formula_sum "Si O2"
_cell_formula_units_Z 64
_cell_length_a 30.751338
_cell_length_b 13.908252
_cell_length_c 8.402791
_cell_angle_alpha 90.000000
_cell_angle_beta 90.000000
_cell_angle_gamma 90.000000
_cell_volume 3593.851513
_symmetry_space_group_name_H-M "P M M M"
_symmetry_group_IT_number 47
_symmetry_cell_setting 'orthorhombic'
loop_
_space_group_symop_operation_xyz
x,y,z
-x,-y,z
x,-y,-z
-x,y,-z
-x,-y,-z
x,y,-z
-x,y,z
x,-y,z
loop_
_atom_site_type_symbol
_atom_site_label
_atom_site_fract_x
_atom_site_fract_y
_atom_site_fract_z
Si Si1 0.947904 0.894478 0.319088
Si Si2 0.182357 0.108898 0.692367
Si Si3 0.048272 0.310625 0.814381
Si Si4 0.231748 0.392071 0.807578
Si Si5 0.140487 0.697475 0.807301
Si Si6 0.273215 0.798228 0.689382
Si Si7 0.361313 0.110040 0.810593
Si Si8 0.452885 0.113515 0.308769
O O1 0.931645 0.874388 0.500000
O O2 0.943743 0.804183 0.203838
O O3 0.000000 0.903091 0.332693
O O4 0.931331 0.000000 0.269654
O O5 0.181361 0.110100 0.500000
O O6 0.150682 0.193415 0.751622
O O7 0.231252 0.139296 0.744432
O O8 0.172743 0.000000 0.744888
O O9 0.094520 0.346158 0.747816
O O10 0.000000 0.331933 0.744560
O O11 0.045963 0.337043 0.000000
O O12 0.242252 0.500000 0.757195
O O13 0.182542 0.363827 0.758971
O O14 0.262772 0.310438 0.739234
O O15 0.233283 0.387635 0.000000
O O16 0.138638 0.698037 0.000000
O O17 0.274616 0.806033 0.500000
O O18 0.318578 0.834619 0.756658
O O19 0.407465 0.153241 0.754968
O O20 0.358303 0.000000 0.747516
O O21 0.361988 0.106159 0.000000
O O22 0.451960 0.118583 0.500000
O O23 0.500000 0.153108 0.254984
O O24 0.452911 0.000000 0.264494
#
# Coordination Sequence:
#
# PCOD9382446 Si02
#       8
#     8   8   8   8   8   8   8   8
#     4   8  14  24  36  50  70  98 132 166 196 227
#     4   9  18  31  45  62  86 116 147 179 216 258
#     4   9  17  28  41  57  79 106 133 164 202 244
#     4   9  18  34  54  71  88 111 139 177 227 280
#     4   9  18  31  46  65  86 110 142 174 209 258
#     4  10  19  31  48  69  93 119 150 189 232 281
#     4  10  19  28  41  65  98 135 171 205 240 278
#     4   8  14  25  40  58  85 127 177 220 252 280
#
# _framework density 17.808191999999998
#
# number of rings (size 3 to 8) (size 9 to 14) (size 15 to 20)
#    0.000    3.000    0.000    1.875    0.000    3.750 
#    0.000    5.000    0.000    0.375    0.000    2.625 
#    0.000    0.500    0.000   14.625    0.000   12.250 
#
# Total GULP energy -356330.440674 kJ/mol
# GULP energy per Si atom -5567.663136 kJ/mol
# Density = 1.776766 g / cm^3
# Si number density = 17.808192 Si / 1000 Ang^3
#
#
#
# Elastic Constant Matrix: (Units=GPa)
#
#
# Indices 1 2 3 4 5 6 
#
# 1 176.8769 30.4467 20.1497 0.0000 0.0000 0.0000
# 2 30.4467 36.2273 3.2894 0.0000 0.0000 0.0000
# 3 20.1497 3.2894 9.5473 0.0000 0.0000 0.0000
# 4 0.0000 0.0000 0.0000 12.2729 0.0000 0.0000
# 5 0.0000 0.0000 0.0000 0.0000 17.5499 0.0000
# 6 0.0000 0.0000 0.0000 0.0000 0.0000 3.1202
#
#
#
# Elastic Compliance Matrix: (Units=1/GPa)
#
#
# Indices 1 2 3 4 5 6 
#
# 1 0.008431 -0.005647 -0.015848 0.000000 0.000000 0.000000
# 2 -0.005647 0.032277 0.000797 0.000000 0.000000 0.000000
# 3 -0.015848 0.000797 0.137915 0.000000 0.000000 0.000000
# 4 0.000000 0.000000 0.000000 0.081480 0.000000 0.000000
# 5 0.000000 0.000000 0.000000 0.000000 0.056980 0.000000
# 6 0.000000 0.000000 0.000000 0.000000 0.000000 0.320489
#
#
# Mechanical properties :
#
#
# Convention : Reuss Voigt Hill
#
# Bulk Modulus (GPa) = 7.28721 36.71367 22.00044
# Shear Modulus (GPa) = 6.89931 17.83967 12.36949
#
# Velocity S-wave (km/s) = 1.97044 3.16850 2.63838
# Velocity P-wave (km/s) = 3.04595 5.83497 4.65428
#
# Compressibility (1/GPa) = 0.13722669
#
# Stress axis : x y z
#
# Youngs Moduli (GPa) = 118.60853 30.98195 7.25086
#
# Poissons Ratio (x) = 0.17495 0.11491
# Poissons Ratio (y) = 0.66976 -0.00578
# Poissons Ratio (z) = 1.87975 -0.02470
#
# Static dielectric constant tensor:
#      x y z
#    x 1.663800 0.000000 0.000000 
#    y 0.000000 1.621100 0.000000 
#    z 0.000000 0.000000 1.618360 
# 
# From -- ./inp_files/14261.got.cif
#   From: 2010.05.17/outbox.cif.g08.bks.cpg/sg47_8_cif.got.tgz:14261.got - 2010.06.03 20:15:42.
