data_PCOD9382996
_publ_section_title
;
Structure prediction by ZEFSAII (Michael W. Deem and Ramdas Pophale) SiO2 
 PCOD9382996
Probable space group: P M M M
;
_chemical_formula_sum "Si O2"
_cell_formula_units_Z 52
_cell_length_a 18.442379
_cell_length_b 17.959683
_cell_length_c 8.936582
_cell_angle_alpha 90.000000
_cell_angle_beta 90.000000
_cell_angle_gamma 90.000000
_cell_volume 2959.968261
_symmetry_space_group_name_H-M "P M M M"
_symmetry_group_IT_number 47
_symmetry_cell_setting 'orthorhombic'
loop_
_space_group_symop_operation_xyz
x,y,z
-x,-y,z
x,-y,-z
-x,y,-z
-x,-y,-z
x,y,-z
-x,y,z
x,-y,z
loop_
_atom_site_type_symbol
_atom_site_label
_atom_site_fract_x
_atom_site_fract_y
_atom_site_fract_z
Si Si1 0.724121 0.800881 0.321722
Si Si2 0.779641 0.347977 0.175273
Si Si3 0.581339 0.745070 0.819316
Si Si4 0.849227 0.087076 0.680044
Si Si5 0.000000 0.090518 0.174180
Si Si6 0.918389 0.589634 0.673159
Si Si7 0.628514 0.418802 0.179412
O O1 0.716210 0.804665 0.500000
O O2 0.762117 0.724184 0.272744
O O3 0.644884 0.795505 0.247763
O O4 0.778642 0.866387 0.272998
O O5 0.856917 0.379435 0.220387
O O6 0.714593 0.406648 0.202901
O O7 0.775890 0.328493 0.000000
O O8 0.500000 0.768579 0.780234
O O9 0.592929 0.658689 0.768074
O O10 0.588414 0.744942 0.000000
O O11 0.855366 0.092092 0.500000
O O12 0.924947 0.115483 0.749594
O O13 0.840911 0.000000 0.719789
O O14 0.000000 0.000000 0.187119
O O15 0.000000 0.110165 0.000000
O O16 0.904002 0.611059 0.500000
O O17 0.917198 0.500000 0.678817
O O18 0.000000 0.614083 0.711863
O O19 0.605627 0.500000 0.239109
O O20 0.615818 0.420639 0.000000
#
# Coordination Sequence:
#
# PCOD9382996 Si02
#       7
#     8   8   8   8   4   8   8
#     4  10  20  34  53  75  98 129 167 205 250 302
#     4  10  19  31  47  68  96 127 163 205 249 299
#     4   9  18  32  50  73 102 134 165 203 252 303
#     4   9  18  34  55  77 102 133 169 207 248 298
#     4   9  17  29  49  79 109 133 158 191 236 291
#     4   9  18  32  48  66  91 125 165 210 257 300
#     4   8  14  25  43  68  94 120 154 197 242 287
#
# _framework density 17.567754999999998
#
# number of rings (size 3 to 8) (size 9 to 14) (size 15 to 20)
#    0.000    2.846    0.000    3.000    0.000    4.000 
#    1.385    2.308    0.000    4.615    0.000    7.538 
#    0.000    0.000    0.000    0.000    0.000    0.000 
#
# Total GULP energy -289719.743463 kJ/mol
# GULP energy per Si atom -5571.533528 kJ/mol
# Density = 1.752777 g / cm^3
# Si number density = 17.567755 Si / 1000 Ang^3
#
#
#
# Elastic Constant Matrix: (Units=GPa)
#
#
# Indices 1 2 3 4 5 6 
#
# 1 145.6283 45.7331 40.8050 0.0000 0.0000 0.0000
# 2 45.7331 51.0545 17.7860 0.0000 0.0000 0.0000
# 3 40.8050 17.7860 21.4892 0.0000 0.0000 0.0000
# 4 0.0000 0.0000 0.0000 16.8013 0.0000 0.0000
# 5 0.0000 0.0000 0.0000 0.0000 28.5444 0.0000
# 6 0.0000 0.0000 0.0000 0.0000 0.0000 -26.8051
#
#
#
# Elastic Compliance Matrix: (Units=1/GPa)
#
#
# Indices 1 2 3 4 5 6 
#
# 1 0.015574 -0.005127 -0.025330 0.000000 0.000000 0.000000
# 2 -0.005127 0.029210 -0.014442 0.000000 0.000000 0.000000
# 3 -0.025330 -0.014442 0.106587 0.000000 0.000000 0.000000
# 4 0.000000 0.000000 0.000000 0.059519 0.000000 0.000000
# 5 0.000000 0.000000 0.000000 0.000000 0.035033 0.000000
# 6 0.000000 0.000000 0.000000 0.000000 0.000000 -0.037306
#
#
# Mechanical properties :
#
#
# Convention : Reuss Voigt Hill
#
# Bulk Modulus (GPa) = 16.24061 47.42446 31.83254
# Shear Modulus (GPa) = 15.67691 11.29798 13.48745
#
# Velocity S-wave (km/s) = 2.99049 2.53871 2.77382
# Velocity P-wave (km/s) = 4.60312 5.97053 5.33085
#
# Compressibility (1/GPa) = 0.06157403
#
# Stress axis : x y z
#
# Youngs Moduli (GPa) = 64.20831 34.23443 9.38199
#
# Poissons Ratio (x) = 0.17551 0.23765
# Poissons Ratio (y) = 0.32917 0.13549
# Poissons Ratio (z) = 1.62642 0.49441
#
# Static dielectric constant tensor:
#      x y z
#    x 1.606870 0.000000 0.000000 
#    y 0.000000 1.600930 0.000000 
#    z 0.000000 0.000000 1.595350 
# 
# From -- ./inp_files/9553.got.cif
#   From: 2010.05.17/outbox.cif.g08.bks.cpg/sg47_5_cif.got.tgz:9553.got - 2010.06.03 20:15:42.
