data_PCOD9382352
_publ_section_title
;
Structure prediction by ZEFSAII (Michael W. Deem and Ramdas Pophale) SiO2 
 PCOD9382352
Probable space group: P M M M
;
_chemical_formula_sum "Si O2"
_cell_formula_units_Z 46
_cell_length_a 12.679077
_cell_length_b 24.878805
_cell_length_c 7.423118
_cell_angle_alpha 90.000000
_cell_angle_beta 90.000000
_cell_angle_gamma 90.000000
_cell_volume 2341.550452
_symmetry_space_group_name_H-M "P M M M"
_symmetry_group_IT_number 47
_symmetry_cell_setting 'orthorhombic'
loop_
_space_group_symop_operation_xyz
x,y,z
-x,-y,z
x,-y,-z
-x,y,-z
-x,-y,-z
x,y,-z
-x,y,z
x,-y,z
loop_
_atom_site_type_symbol
_atom_site_label
_atom_site_fract_x
_atom_site_fract_y
_atom_site_fract_z
Si Si1 0.876582 0.559889 0.718169
Si Si2 0.379123 0.252353 0.780699
Si Si3 0.879630 0.940277 0.283601
Si Si4 0.000000 0.303665 0.500000
Si Si5 0.500000 0.061131 0.779194
Si Si6 0.689344 0.135269 0.787217
Si Si7 0.184814 0.324176 0.207561
O O1 0.875218 0.561988 0.500000
O O2 0.842621 0.500000 0.773090
O O3 0.813855 0.610947 0.786970
O O4 0.000000 0.566349 0.770212
O O5 0.500000 0.258608 0.719294
O O6 0.331657 0.195050 0.717543
O O7 0.295827 0.298446 0.733925
O O8 0.383074 0.251542 0.000000
O O9 0.882306 0.942204 0.500000
O O10 0.802683 0.891903 0.235953
O O11 0.000000 0.932662 0.220995
O O12 0.843116 0.000000 0.221317
O O13 0.907490 0.306565 0.657735
O O14 0.602560 0.093501 0.717368
O O15 0.500000 0.000000 0.718533
O O16 0.500000 0.060118 0.000000
O O17 0.670556 0.139133 0.000000
O O18 0.163876 0.307401 0.000000
#
# Coordination Sequence:
#
# PCOD9382352 Si02
#       7
#     8   8   8   2   4   8   8
#     4   9  16  30  53  83 122 159 192 240 297 351
#     4   9  19  38  60  81 109 148 195 244 290 344
#     4   9  19  36  52  69 102 144 178 212 265 332
#     4  12  22  40  55  88 132 152 193 252 294 346
#     4   9  16  26  49  83 109 131 164 213 276 332
#     4  10  18  33  56  80 105 133 172 224 276 323
#     4  11  21  36  61  87 118 162 199 237 299 356
#
# _framework density 19.645104
#
# number of rings (size 3 to 8) (size 9 to 14) (size 15 to 20)
#    0.000    2.348    2.609    1.826    0.000    1.739 
#    3.130    2.609    0.000    2.087    0.000    3.652 
#    0.000    0.000    0.000    0.000    0.000    0.000 
#
# Total GULP energy -256121.535984 kJ/mol
# GULP energy per Si atom -5567.859478 kJ/mol
# Density = 1.960039 g / cm^3
# Si number density = 19.645104 Si / 1000 Ang^3
#
#
#
# Elastic Constant Matrix: (Units=GPa)
#
#
# Indices 1 2 3 4 5 6 
#
# 1 144.0078 99.3072 18.1485 0.0000 0.0000 0.0000
# 2 99.3072 154.6597 10.1703 0.0000 0.0000 0.0000
# 3 18.1485 10.1703 84.5991 0.0000 0.0000 0.0000
# 4 0.0000 0.0000 0.0000 10.5321 0.0000 0.0000
# 5 0.0000 0.0000 0.0000 0.0000 -12.7586 0.0000
# 6 0.0000 0.0000 0.0000 0.0000 0.0000 0.9523
#
#
#
# Elastic Compliance Matrix: (Units=1/GPa)
#
#
# Indices 1 2 3 4 5 6 
#
# 1 0.012717 -0.008050 -0.001760 0.000000 0.000000 0.000000
# 2 -0.008050 0.011613 0.000331 0.000000 0.000000 0.000000
# 3 -0.001760 0.000331 0.012158 0.000000 0.000000 0.000000
# 4 0.000000 0.000000 0.000000 0.094948 0.000000 0.000000
# 5 0.000000 0.000000 0.000000 0.000000 -0.078378 0.000000
# 6 0.000000 0.000000 0.000000 0.000000 0.000000 1.050083
#
#
# Mechanical properties :
#
#
# Convention : Reuss Voigt Hill
#
# Bulk Modulus (GPa) = 57.04700 70.94651 63.99675
# Shear Modulus (GPa) = 4.43285 16.78787 10.61036
#
# Velocity S-wave (km/s) = 1.50378 2.92645 2.32653
# Velocity P-wave (km/s) = 5.66718 6.90010 6.31381
#
# Compressibility (1/GPa) = 0.01752941
#
# Stress axis : x y z
#
# Youngs Moduli (GPa) = 78.63435 86.11116 82.24815
#
# Poissons Ratio (x) = 0.69319 0.14479
# Poissons Ratio (y) = 0.63300 -0.02721
# Poissons Ratio (z) = 0.13843 -0.02849
#
# Static dielectric constant tensor:
#      x y z
#    x 1.664690 0.000000 0.000000 
#    y 0.000000 1.703630 0.000000 
#    z 0.000000 0.000000 1.766930 
# 
# From -- ./inp_files/4358.got.cif
#   From: 2010.05.17/outbox.cif.g08.bks.cpg/sg47_3_cif.got.tgz:4358.got - 2010.06.03 20:15:42.
