data_PCOD9382175
_publ_section_title
;
Structure prediction by ZEFSAII (Michael W. Deem and Ramdas Pophale) SiO2 
 PCOD9382175
Probable space group: P M M M
;
_chemical_formula_sum "Si O2"
_cell_formula_units_Z 52
_cell_length_a 8.181865
_cell_length_b 11.207856
_cell_length_c 32.542632
_cell_angle_alpha 90.000000
_cell_angle_beta 90.000000
_cell_angle_gamma 90.000000
_cell_volume 2984.197258
_symmetry_space_group_name_H-M "P M M M"
_symmetry_group_IT_number 47
_symmetry_cell_setting 'orthorhombic'
loop_
_space_group_symop_operation_xyz
x,y,z
-x,-y,z
x,-y,-z
-x,y,-z
-x,-y,-z
x,y,-z
-x,y,z
x,-y,z
loop_
_atom_site_type_symbol
_atom_site_label
_atom_site_fract_x
_atom_site_fract_y
_atom_site_fract_z
Si Si1 0.319440 0.143127 0.096707
Si Si2 0.191947 0.636893 0.332647
Si Si3 0.000000 0.854351 0.047858
Si Si4 0.302029 0.000000 0.547034
Si Si5 0.685664 0.359644 0.500000
Si Si6 0.308357 0.361755 0.758100
Si Si7 0.302248 0.750805 0.583889
Si Si8 0.194250 0.862828 0.811683
O O1 0.500000 0.190467 0.086033
O O2 0.164814 0.187988 0.070642
O O3 0.283822 0.159041 0.145010
O O4 0.323849 0.000000 0.090092
O O5 0.229965 0.500000 0.343828
O O6 0.284896 0.662945 0.290431
O O7 0.234203 0.712697 0.372466
O O8 0.000000 0.646506 0.323390
O O9 0.000000 0.000000 0.050377
O O10 0.000000 0.822424 0.000000
O O11 0.255505 0.115860 0.572042
O O12 0.500000 0.000000 0.544389
O O13 0.241400 0.000000 0.500000
O O14 0.674050 0.500000 0.500000
O O15 0.500000 0.305957 0.500000
O O16 0.757990 0.321648 0.543687
O O17 0.500000 0.363162 0.768036
O O18 0.246040 0.500000 0.765319
O O19 0.231365 0.249614 0.782258
O O20 0.500000 0.738196 0.586321
O O21 0.000000 0.864990 0.819388
O O22 0.238177 0.000000 0.797586
#
# Coordination Sequence:
#
# PCOD9382175 Si02
#       8
#     8   8   4   4   4   8   8   8
#     4   9  16  27  44  67  99 141 186 232 283 335
#     4  10  21  37  54  72  98 131 163 199 251 308
#     4   9  16  26  40  64 101 143 189 237 285 340
#     4   9  16  30  51  75  99 125 157 195 239 283
#     4   9  16  25  44  74  97 115 150 197 236 280
#     4  10  21  37  57  81 107 136 175 223 271 321
#     4  10  18  31  52  74  97 125 159 196 237 289
#     4  10  19  33  54  79 109 144 182 224 272 329
#
# _framework density 17.42512
#
# number of rings (size 3 to 8) (size 9 to 14) (size 15 to 20)
#    0.000    2.385    1.538    1.846    0.000    3.692 
#    1.385    2.308    0.000    1.846    0.000    0.000 
#    0.000    1.231    0.000    3.231    0.000    3.077 
#
# Total GULP energy -289585.035593 kJ/mol
# GULP energy per Si atom -5568.942992 kJ/mol
# Density = 1.738546 g / cm^3
# Si number density = 17.425120 Si / 1000 Ang^3
#
#
#
# Elastic Constant Matrix: (Units=GPa)
#
#
# Indices 1 2 3 4 5 6 
#
# 1 68.1558 27.0237 37.8289 0.0000 0.0000 0.0000
# 2 27.0237 76.5299 45.7412 0.0000 0.0000 0.0000
# 3 37.8289 45.7412 80.8914 0.0000 0.0000 0.0000
# 4 0.0000 0.0000 0.0000 39.0243 0.0000 0.0000
# 5 0.0000 0.0000 0.0000 0.0000 20.8427 0.0000
# 6 0.0000 0.0000 0.0000 0.0000 0.0000 -42.1603
#
#
#
# Elastic Compliance Matrix: (Units=1/GPa)
#
#
# Indices 1 2 3 4 5 6 
#
# 1 0.020065 -0.002231 -0.008122 0.000000 0.000000 0.000000
# 2 -0.002231 0.019986 -0.010258 0.000000 0.000000 0.000000
# 3 -0.008122 -0.010258 0.021961 0.000000 0.000000 0.000000
# 4 0.000000 0.000000 0.000000 0.025625 0.000000 0.000000
# 5 0.000000 0.000000 0.000000 0.000000 0.047978 0.000000
# 6 0.000000 0.000000 0.000000 0.000000 0.000000 -0.023719
#
#
# Mechanical properties :
#
#
# Convention : Reuss Voigt Hill
#
# Bulk Modulus (GPa) = 48.09972 49.64052 48.87012
# Shear Modulus (GPa) = 31.24090 11.20689 21.22390
#
# Velocity S-wave (km/s) = 4.23882 2.53878 3.49378
# Velocity P-wave (km/s) = 7.18473 6.09456 6.66198
#
# Compressibility (1/GPa) = 0.02079014
#
# Stress axis : x y z
#
# Youngs Moduli (GPa) = 49.83892 50.03614 45.53545
#
# Poissons Ratio (x) = 0.11162 0.36983
# Poissons Ratio (y) = 0.11118 0.46710
# Poissons Ratio (z) = 0.40478 0.51327
#
# Static dielectric constant tensor:
#      x y z
#    x 1.640620 0.000000 0.000000 
#    y 0.000000 1.579210 0.000000 
#    z 0.000000 0.000000 1.577090 
# 
# From -- ./inp_files/33338.got.cif
#   From: 2010.05.17/outbox.cif.g08.bks.cpg/sg47_17_cif.got.tgz:33338.got - 2010.06.03 20:15:42.
