data_PCOD9382961
_publ_section_title
;
Structure prediction by ZEFSAII (Michael W. Deem and Ramdas Pophale) SiO2 
 PCOD9382961
Probable space group: P M M M
;
_chemical_formula_sum "Si O2"
_cell_formula_units_Z 48
_cell_length_a 23.961381
_cell_length_b 17.278980
_cell_length_c 9.016193
_cell_angle_alpha 90.000000
_cell_angle_beta 90.000000
_cell_angle_gamma 90.000000
_cell_volume 3732.958367
_symmetry_space_group_name_H-M "P M M M"
_symmetry_group_IT_number 47
_symmetry_cell_setting 'orthorhombic'
loop_
_space_group_symop_operation_xyz
x,y,z
-x,-y,z
x,-y,-z
-x,y,-z
-x,-y,-z
x,y,-z
-x,y,z
x,-y,z
loop_
_atom_site_type_symbol
_atom_site_label
_atom_site_fract_x
_atom_site_fract_y
_atom_site_fract_z
Si Si1 0.061765 0.594012 0.326326
Si Si2 0.500000 0.411901 0.179989
Si Si3 0.432287 0.000000 0.170919
Si Si4 0.289715 0.408364 0.323195
Si Si5 0.566636 0.838998 0.322924
Si Si6 0.609571 0.315346 0.821346
Si Si7 0.174239 0.594018 0.169454
O O1 0.067673 0.613862 0.500000
O O2 0.061846 0.500000 0.318920
O O3 0.115326 0.621597 0.235686
O O4 0.000000 0.619303 0.274853
O O5 0.500000 0.500000 0.234469
O O6 0.444422 0.366391 0.224029
O O7 0.500000 0.414129 0.000000
O O8 0.415987 0.078349 0.255312
O O9 0.500000 0.000000 0.170017
O O10 0.413579 0.000000 0.000000
O O11 0.293838 0.399506 0.500000
O O12 0.297869 0.500000 0.288141
O O13 0.336032 0.357638 0.241448
O O14 0.227960 0.385861 0.267370
O O15 0.573888 0.838356 0.500000
O O16 0.500000 0.828672 0.292441
O O17 0.599521 0.769176 0.246583
O O18 0.611499 0.311536 0.000000
O O19 0.171899 0.500000 0.169623
O O20 0.181718 0.619238 0.000000
#
# Coordination Sequence:
#
# PCOD9382961 Si02
#       7
#     8   4   4   8   8   8   8
#     4   8  13  21  33  49  69  92 116 145 186 232
#     4   9  18  30  43  58  75  96 123 159 202 241
#     4   9  17  29  47  67  85 103 125 147 178 225
#     4  10  20  32  43  55  73  99 131 166 204 242
#     4  10  19  31  46  64  86 105 123 149 188 233
#     4  11  20  31  46  61  79 100 128 162 198 238
#     4   9  16  25  37  52  69  91 121 157 194 231
#
# _framework density 12.858434000000001
#
# number of rings (size 3 to 8) (size 9 to 14) (size 15 to 20)
#    0.000    2.500    0.833    3.250    0.000    5.667 
#    0.000    1.667    0.000    2.000    0.000    0.000 
#    0.000    0.000    0.000    0.000    0.000    0.000 
#
# Total GULP energy -267460.631286 kJ/mol
# GULP energy per Si atom -5572.096485 kJ/mol
# Density = 1.282917 g / cm^3
# Si number density = 12.858434 Si / 1000 Ang^3
#
#
#
# Elastic Constant Matrix: (Units=GPa)
#
#
# Indices 1 2 3 4 5 6 
#
# 1 92.1651 39.4431 43.9975 0.0000 0.0000 0.0000
# 2 39.4431 74.5125 38.3562 0.0000 0.0000 0.0000
# 3 43.9975 38.3562 68.6760 0.0000 0.0000 0.0000
# 4 0.0000 0.0000 0.0000 17.0184 0.0000 0.0000
# 5 0.0000 0.0000 0.0000 0.0000 22.3794 0.0000
# 6 0.0000 0.0000 0.0000 0.0000 0.0000 0.9529
#
#
#
# Elastic Compliance Matrix: (Units=1/GPa)
#
#
# Indices 1 2 3 4 5 6 
#
# 1 0.016719 -0.004683 -0.008096 0.000000 0.000000 0.000000
# 2 -0.004683 0.020147 -0.008253 0.000000 0.000000 0.000000
# 3 -0.008096 -0.008253 0.024357 0.000000 0.000000 0.000000
# 4 0.000000 0.000000 0.000000 0.058760 0.000000 0.000000
# 5 0.000000 0.000000 0.000000 0.000000 0.044684 0.000000
# 6 0.000000 0.000000 0.000000 0.000000 0.000000 1.049449
#
#
# Mechanical properties :
#
#
# Convention : Reuss Voigt Hill
#
# Bulk Modulus (GPa) = 52.18877 53.21638 52.70257
# Shear Modulus (GPa) = 3.96019 15.64058 9.80039
#
# Velocity S-wave (km/s) = 1.75685 3.49143 2.76375
# Velocity P-wave (km/s) = 6.69258 7.59800 7.15962
#
# Compressibility (1/GPa) = 0.01916121
#
# Stress axis : x y z
#
# Youngs Moduli (GPa) = 59.81294 49.63400 41.05647
#
# Poissons Ratio (x) = 0.23242 0.33238
# Poissons Ratio (y) = 0.28009 0.33882
# Poissons Ratio (z) = 0.48422 0.40961
#
# Static dielectric constant tensor:
#      x y z
#    x 1.416700 0.000000 0.000000 
#    y 0.000000 1.393080 0.000000 
#    z 0.000000 0.000000 1.428910 
# 
# From -- ./inp_files/11403.got.cif
#   From: 2010.05.17/outbox.cif.g08.bks.cpg/sg47_6_cif.got.tgz:11403.got - 2010.06.03 20:15:42.
