data_PCOD9382528
_publ_section_title
;
Structure prediction by ZEFSAII (Michael W. Deem and Ramdas Pophale) SiO2 
 PCOD9382528
Probable space group: P M M M
;
_chemical_formula_sum "Si O2"
_cell_formula_units_Z 44
_cell_length_a 11.030695
_cell_length_b 18.030140
_cell_length_c 16.083441
_cell_angle_alpha 90.000000
_cell_angle_beta 90.000000
_cell_angle_gamma 90.000000
_cell_volume 3198.754764
_symmetry_space_group_name_H-M "P M M M"
_symmetry_group_IT_number 47
_symmetry_cell_setting 'orthorhombic'
loop_
_space_group_symop_operation_xyz
x,y,z
-x,-y,z
x,-y,-z
-x,y,-z
-x,-y,-z
x,y,-z
-x,y,z
x,-y,z
loop_
_atom_site_type_symbol
_atom_site_label
_atom_site_fract_x
_atom_site_fract_y
_atom_site_fract_z
Si Si1 0.500000 0.588580 0.599879
Si Si2 0.500000 0.914935 0.399223
Si Si3 0.853052 0.587248 0.182739
Si Si4 0.000000 0.085524 0.600770
Si Si5 0.250499 0.169224 0.601140
Si Si6 0.142251 0.417759 0.500000
Si Si7 0.746351 0.662450 0.656566
Si Si8 0.139791 0.589978 0.000000
O O1 0.500000 0.500000 0.612092
O O2 0.500000 0.602608 0.500000
O O3 0.615433 0.626982 0.640817
O O4 0.500000 0.916186 0.500000
O O5 0.374205 0.874384 0.375970
O O6 0.500000 0.000000 0.370117
O O7 0.823038 0.500000 0.196311
O O8 0.798828 0.636355 0.255702
O O9 0.808724 0.610391 0.090233
O O10 0.000000 0.591753 0.183552
O O11 0.874472 0.126755 0.624112
O O12 0.000000 0.084169 0.500000
O O13 0.000000 0.000000 0.629371
O O14 0.250529 0.177926 0.500000
O O15 0.253581 0.249795 0.642631
O O16 0.201428 0.500000 0.500000
O O17 0.176669 0.373687 0.582087
O O18 0.000000 0.426482 0.500000
O O19 0.136992 0.500000 0.000000
O O20 0.000000 0.615401 0.000000
#
# Coordination Sequence:
#
# PCOD9382528 Si02
#       8
#     4   4   8   4   8   4   8   4
#     4  11  21  33  43  52  79 124 168 193 212 249
#     4   9  17  31  49  63  77 107 154 195 222 258
#     4   9  17  29  46  66  87 113 151 191 232 271
#     4   9  18  30  44  60  80 111 144 173 219 280
#     4  10  19  29  43  61  87 113 145 187 229 263
#     4  11  22  31  41  57  84 120 157 189 219 253
#     4  12  21  30  44  61  88 118 154 190 226 263
#     4   7  12  26  46  65  83 107 142 190 235 275
#
# _framework density 13.755352999999999
#
# number of rings (size 3 to 8) (size 9 to 14) (size 15 to 20)
#    0.000    2.091    1.818    4.364    2.545    4.364 
#    0.000    0.000    0.000    0.545    0.000    2.545 
#    0.000    0.000    0.000    4.909    0.000    0.000 
#
# Total GULP energy -245141.951883 kJ/mol
# GULP energy per Si atom -5571.407997 kJ/mol
# Density = 1.372404 g / cm^3
# Si number density = 13.755353 Si / 1000 Ang^3
#
#
#
# Elastic Constant Matrix: (Units=GPa)
#
#
# Indices 1 2 3 4 5 6 
#
# 1 98.3301 59.9806 33.9314 0.0000 0.0000 0.0000
# 2 59.9806 125.3742 49.1862 0.0000 0.0000 0.0000
# 3 33.9314 49.1862 92.8652 0.0000 0.0000 0.0000
# 4 0.0000 0.0000 0.0000 12.7056 0.0000 0.0000
# 5 0.0000 0.0000 0.0000 0.0000 19.0077 0.0000
# 6 0.0000 0.0000 0.0000 0.0000 0.0000 -13.0868
#
#
#
# Elastic Compliance Matrix: (Units=1/GPa)
#
#
# Indices 1 2 3 4 5 6 
#
# 1 0.014670 -0.006205 -0.002074 0.000000 0.000000 0.000000
# 2 -0.006205 0.012693 -0.004455 0.000000 0.000000 0.000000
# 3 -0.002074 -0.004455 0.013886 0.000000 0.000000 0.000000
# 4 0.000000 0.000000 0.000000 0.078706 0.000000 0.000000
# 5 0.000000 0.000000 0.000000 0.000000 0.052610 0.000000
# 6 0.000000 0.000000 0.000000 0.000000 0.000000 -0.076413
#
#
# Mechanical properties :
#
#
# Convention : Reuss Voigt Hill
#
# Bulk Modulus (GPa) = 63.36984 66.97398 65.17191
# Shear Modulus (GPa) = 39.40720 15.29006 27.34863
#
# Velocity S-wave (km/s) = 5.35825 3.33764 4.46378
# Velocity P-wave (km/s) = 9.18969 7.97798 8.60519
#
# Compressibility (1/GPa) = 0.01578038
#
# Stress axis : x y z
#
# Youngs Moduli (GPa) = 68.16439 78.78625 72.01547
#
# Poissons Ratio (x) = 0.48886 0.14935
# Poissons Ratio (y) = 0.42295 0.32086
# Poissons Ratio (z) = 0.14137 0.35103
#
# Static dielectric constant tensor:
#      x y z
#    x 1.423510 0.000000 0.000000 
#    y 0.000000 1.444220 0.000000 
#    z 0.000000 0.000000 1.481890 
# 
# From -- ./inp_files/22673.got.cif
#   From: 2010.05.17/outbox.cif.g08.bks.cpg/sg47_12_cif.got.tgz:22673.got - 2010.06.03 20:15:42.
