data_PCOD9382667
_publ_section_title
;
Structure prediction by ZEFSAII (Michael W. Deem and Ramdas Pophale) SiO2 
 PCOD9382667
Probable space group: P M M M
;
_chemical_formula_sum "Si O2"
_cell_formula_units_Z 40
_cell_length_a 15.777409
_cell_length_b 8.966891
_cell_length_c 19.816785
_cell_angle_alpha 90.000000
_cell_angle_beta 90.000000
_cell_angle_gamma 90.000000
_cell_volume 2803.565920
_symmetry_space_group_name_H-M "P M M M"
_symmetry_group_IT_number 47
_symmetry_cell_setting 'orthorhombic'
loop_
_space_group_symop_operation_xyz
x,y,z
-x,-y,z
x,-y,-z
-x,y,-z
-x,-y,-z
x,y,-z
-x,y,z
x,-y,z
loop_
_atom_site_type_symbol
_atom_site_label
_atom_site_fract_x
_atom_site_fract_y
_atom_site_fract_z
Si Si1 0.838286 0.678042 0.348366
Si Si2 0.101808 0.175994 0.786546
Si Si3 0.323101 0.177506 0.419279
Si Si4 0.000000 0.825564 0.580855
Si Si5 0.897223 0.326000 0.074816
Si Si6 0.500000 0.328206 0.418130
O O1 0.839672 0.500000 0.352198
O O2 0.851889 0.733044 0.271892
O O3 0.752430 0.742593 0.379989
O O4 0.917024 0.746690 0.389815
O O5 0.129009 0.229851 0.860912
O O6 0.000000 0.202650 0.780066
O O7 0.115914 0.000000 0.778152
O O8 0.312783 0.203243 0.500000
O O9 0.414143 0.243699 0.398317
O O10 0.320486 0.000000 0.408330
O O11 0.000000 0.818327 0.500000
O O12 0.000000 0.000000 0.601308
O O13 0.874116 0.500000 0.083881
O O14 0.000000 0.320511 0.073726
O O15 0.868395 0.277088 0.000000
O O16 0.500000 0.500000 0.395415
O O17 0.500000 0.329099 0.500000
#
# Coordination Sequence:
#
# PCOD9382667 Si02
#       6
#     8   8   8   4   8   4
#     4  12  23  33  47  65  87 117 152 190 228 268
#     4  10  19  30  44  60  84 116 150 187 224 265
#     4  10  20  34  51  69  90 116 146 183 229 277
#     4  11  23  37  49  61  82 113 150 191 231 269
#     4   8  14  25  41  60  82 108 141 181 221 260
#     4   9  17  31  51  73  93 111 138 179 224 273
#
# _framework density 14.267543999999999
#
# number of rings (size 3 to 8) (size 9 to 14) (size 15 to 20)
#    0.000    2.000    1.000    4.800    0.000    6.800 
#    0.000    2.000    0.000    0.000    0.000    0.000 
#    0.000    0.000    0.000    0.900    0.000   16.600 
#
# Total GULP energy -223155.818162 kJ/mol
# GULP energy per Si atom -5578.895454 kJ/mol
# Density = 1.423507 g / cm^3
# Si number density = 14.267544 Si / 1000 Ang^3
#
#
#
# Elastic Constant Matrix: (Units=GPa)
#
#
# Indices 1 2 3 4 5 6 
#
# 1 99.7640 63.4999 48.3147 0.0000 0.0000 0.0000
# 2 63.4999 122.0755 66.5034 0.0000 0.0000 0.0000
# 3 48.3147 66.5034 87.4325 0.0000 0.0000 0.0000
# 4 0.0000 0.0000 0.0000 24.6265 0.0000 0.0000
# 5 0.0000 0.0000 0.0000 0.0000 -1.4782 0.0000
# 6 0.0000 0.0000 0.0000 0.0000 0.0000 22.5257
#
#
#
# Elastic Compliance Matrix: (Units=1/GPa)
#
#
# Indices 1 2 3 4 5 6 
#
# 1 0.015859 -0.005934 -0.004250 0.000000 0.000000 0.000000
# 2 -0.005934 0.016208 -0.009049 0.000000 0.000000 0.000000
# 3 -0.004250 -0.009049 0.020669 0.000000 0.000000 0.000000
# 4 0.000000 0.000000 0.000000 0.040607 0.000000 0.000000
# 5 0.000000 0.000000 0.000000 0.000000 -0.676498 0.000000
# 6 0.000000 0.000000 0.000000 0.000000 0.000000 0.044394
#
#
# Mechanical properties :
#
#
# Convention : Reuss Voigt Hill
#
# Bulk Modulus (GPa) = 70.07912 73.98977 72.03445
# Shear Modulus (GPa) = -10.09003 17.86507 3.88752
#
# Velocity S-wave (km/s) = -2.66221 3.54241 1.65247
# Velocity P-wave (km/s) = 6.30672 8.28872 7.36470
#
# Compressibility (1/GPa) = 0.01426958
#
# Stress axis : x y z
#
# Youngs Moduli (GPa) = 63.05612 61.69752 48.38182
#
# Poissons Ratio (x) = 0.36612 0.20562
# Poissons Ratio (y) = 0.37418 0.43782
# Poissons Ratio (z) = 0.26798 0.55831
#
# Static dielectric constant tensor:
#      x y z
#    x 1.440430 0.000000 0.000000 
#    y 0.000000 1.473360 0.000000 
#    z 0.000000 0.000000 1.476390 
# 
# From -- ./inp_files/30714.got.cif
#   From: 2010.05.17/outbox.cif.g08.bks.cpg/sg47_16_cif.got.tgz:30714.got - 2010.06.03 20:15:42.
