data_PCOD9382802
_publ_section_title
;
Structure prediction by ZEFSAII (Michael W. Deem and Ramdas Pophale) SiO2 
 PCOD9382802
Probable space group: P M M M
;
_chemical_formula_sum "Si O2"
_cell_formula_units_Z 64
_cell_length_a 14.437024
_cell_length_b 7.672131
_cell_length_c 30.267833
_cell_angle_alpha 90.000000
_cell_angle_beta 90.000000
_cell_angle_gamma 90.000000
_cell_volume 3352.548098
_symmetry_space_group_name_H-M "P M M M"
_symmetry_group_IT_number 47
_symmetry_cell_setting 'orthorhombic'
loop_
_space_group_symop_operation_xyz
x,y,z
-x,-y,z
x,-y,-z
-x,y,-z
-x,-y,-z
x,y,-z
-x,y,z
x,-y,z
loop_
_atom_site_type_symbol
_atom_site_label
_atom_site_fract_x
_atom_site_fract_y
_atom_site_fract_z
Si Si1 0.110833 0.204718 0.637401
Si Si2 0.802819 0.201026 0.549945
Si Si3 0.205092 0.706614 0.176327
Si Si4 0.396957 0.293726 0.861839
Si Si5 0.704519 0.788407 0.950411
Si Si6 0.599252 0.703936 0.446715
Si Si7 0.897066 0.795807 0.089293
Si Si8 0.106660 0.210817 0.266392
O O1 0.144909 0.284446 0.591346
O O2 0.139931 0.275487 0.685363
O O3 0.000000 0.209632 0.637893
O O4 0.139302 0.000000 0.636524
O O5 0.811679 0.276558 0.500000
O O6 0.694902 0.204172 0.563690
O O7 0.833819 0.000000 0.546239
O O8 0.206099 0.500000 0.168077
O O9 0.308512 0.775988 0.165690
O O10 0.133430 0.782922 0.140539
O O11 0.170235 0.738801 0.225549
O O12 0.500000 0.220510 0.854041
O O13 0.401817 0.500000 0.852562
O O14 0.366211 0.270840 0.912748
O O15 0.808150 0.724978 0.937233
O O16 0.705814 0.000000 0.948993
O O17 0.681050 0.733997 0.000000
O O18 0.594764 0.711333 0.500000
O O19 0.500000 0.771694 0.429998
O O20 0.606642 0.500000 0.434584
O O21 0.000000 0.720555 0.082363
O O22 0.902494 0.000000 0.077673
O O23 0.000000 0.269244 0.259108
O O24 0.104150 0.000000 0.268637
#
# Coordination Sequence:
#
# PCOD9382802 Si02
#       8
#     8   8   8   8   8   8   8   8
#     4   8  15  28  44  63  89 120 150 177 209 255
#     4   9  16  25  41  66  90 113 146 187 224 253
#     4  10  19  30  47  70  91 110 139 184 230 265
#     4   9  19  35  51  66  87 117 150 182 221 270
#     4   9  18  31  46  67  94 121 152 190 224 252
#     4   8  14  25  40  57  79 109 142 174 212 258
#     4   9  17  29  45  65  91 123 153 178 212 264
#     4   9  17  30  48  67  89 119 148 172 208 263
#
# _framework density 19.089957999999999
#
# number of rings (size 3 to 8) (size 9 to 14) (size 15 to 20)
#    0.000    3.125    0.000    1.875    0.000    4.000 
#    0.000    5.625    0.000    1.875    0.000    8.750 
#    0.000    0.000    0.000    0.000    0.000    0.000 
#
# Total GULP energy -356291.346171 kJ/mol
# GULP energy per Si atom -5567.052284 kJ/mol
# Density = 1.904651 g / cm^3
# Si number density = 19.089958 Si / 1000 Ang^3
#
#
#
# Elastic Constant Matrix: (Units=GPa)
#
#
# Indices 1 2 3 4 5 6 
#
# 1 70.5824 -1.7697 32.4736 0.0000 0.0000 0.0000
# 2 -1.7697 32.6705 -8.8587 0.0000 0.0000 0.0000
# 3 32.4736 -8.8587 106.2611 0.0000 0.0000 0.0000
# 4 0.0000 0.0000 0.0000 -19.2429 0.0000 0.0000
# 5 0.0000 0.0000 0.0000 0.0000 13.5459 0.0000
# 6 0.0000 0.0000 0.0000 0.0000 0.0000 19.7238
#
#
#
# Elastic Compliance Matrix: (Units=1/GPa)
#
#
# Indices 1 2 3 4 5 6 
#
# 1 0.016493 -0.000484 -0.005081 0.000000 0.000000 0.000000
# 2 -0.000484 0.031331 0.002760 0.000000 0.000000 0.000000
# 3 -0.005081 0.002760 0.011194 0.000000 0.000000 0.000000
# 4 0.000000 0.000000 0.000000 -0.051967 0.000000 0.000000
# 5 0.000000 0.000000 0.000000 0.000000 0.073823 0.000000
# 6 0.000000 0.000000 0.000000 0.000000 0.000000 0.050700
#
#
# Mechanical properties :
#
#
# Convention : Reuss Voigt Hill
#
# Bulk Modulus (GPa) = 18.72394 28.13382 23.42888
# Shear Modulus (GPa) = 32.26093 15.31662 23.78878
#
# Velocity S-wave (km/s) = 4.11535 2.83563 3.53390
# Velocity P-wave (km/s) = 5.69307 5.04882 5.38060
#
# Compressibility (1/GPa) = 0.05340755
#
# Stress axis : x y z
#
# Youngs Moduli (GPa) = 60.63092 31.91747 89.33714
#
# Poissons Ratio (x) = 0.01546 0.45390
# Poissons Ratio (y) = 0.02936 -0.24657
# Poissons Ratio (z) = 0.30805 -0.08809
#
# Static dielectric constant tensor:
#      x y z
#    x 1.655550 0.000000 0.000000 
#    y 0.000000 1.721890 0.000000 
#    z 0.000000 0.000000 1.673040 
# 
# From -- ./inp_files/34661.got.cif
#   From: 2010.05.17/outbox.cif.g08.bks.cpg/sg47_18_cif.got.tgz:34661.got - 2010.06.03 20:15:42.
