data_PCOD9382613
_publ_section_title
;
Structure prediction by ZEFSAII (Michael W. Deem and Ramdas Pophale) SiO2 
 PCOD9382613
Probable space group: P M M M
;
_chemical_formula_sum "Si O2"
_cell_formula_units_Z 64
_cell_length_a 14.205669
_cell_length_b 16.899115
_cell_length_c 13.833615
_cell_angle_alpha 90.000000
_cell_angle_beta 90.000000
_cell_angle_gamma 90.000000
_cell_volume 3320.942356
_symmetry_space_group_name_H-M "P M M M"
_symmetry_group_IT_number 47
_symmetry_cell_setting 'orthorhombic'
loop_
_space_group_symop_operation_xyz
x,y,z
-x,-y,z
x,-y,-z
-x,y,-z
-x,-y,-z
x,y,-z
-x,y,z
x,-y,z
loop_
_atom_site_type_symbol
_atom_site_label
_atom_site_fract_x
_atom_site_fract_y
_atom_site_fract_z
Si Si1 0.604065 0.739792 0.385385
Si Si2 0.796382 0.175787 0.386753
Si Si3 0.306202 0.408063 0.293955
Si Si4 0.865024 0.751180 0.893128
Si Si5 0.804504 0.911044 0.194666
Si Si6 0.652839 0.686379 0.107337
Si Si7 0.104145 0.328419 0.307510
Si Si8 0.603009 0.862130 0.116727
O O1 0.600258 0.749341 0.500000
O O2 0.500000 0.757965 0.346601
O O3 0.692183 0.793598 0.354741
O O4 0.634987 0.650511 0.362080
O O5 0.796624 0.153820 0.500000
O O6 0.820152 0.109611 0.307806
O O7 0.863899 0.251757 0.369805
O O8 0.320916 0.500000 0.310764
O O9 0.342614 0.381084 0.187702
O O10 0.194886 0.386406 0.307442
O O11 0.858946 0.843305 0.864832
O O12 0.758891 0.718925 0.898194
O O13 0.903967 0.703725 0.802190
O O14 0.903998 0.739827 0.000000
O O15 0.693903 0.899851 0.167056
O O16 0.833016 0.000000 0.172349
O O17 0.601380 0.767471 0.136557
O O18 0.622260 0.661176 0.000000
O O19 0.000000 0.357970 0.336862
O O20 0.500000 0.895140 0.142448
O O21 0.615152 0.869745 0.000000
#
# Coordination Sequence:
#
# PCOD9382613 Si02
#       8
#     8   8   8   8   8   8   8   8
#     4   9  18  34  55  73  90 120 163 207 245 281
#     4   9  19  35  53  73  95 123 165 209 243 283
#     4  10  20  31  46  73 105 131 155 190 241 297
#     4   8  15  29  48  69  93 123 161 200 232 270
#     4  10  19  29  45  71 101 131 160 194 244 301
#     4   8  15  29  46  62  86 126 170 202 228 264
#     4   9  18  33  53  75  97 124 161 201 239 286
#     4   9  17  29  46  68  95 130 171 210 244 282
#
# _framework density 19.271639
#
# number of rings (size 3 to 8) (size 9 to 14) (size 15 to 20)
#    0.000    3.000    0.000    3.375    0.000    5.000 
#    0.000    1.250    0.000    6.000    0.000   19.250 
#    0.000    0.000    0.000    0.000    0.000    0.000 
#
# Total GULP energy -356427.653856 kJ/mol
# GULP energy per Si atom -5569.182091 kJ/mol
# Density = 1.922778 g / cm^3
# Si number density = 19.271639 Si / 1000 Ang^3
#
#
#
# Elastic Constant Matrix: (Units=GPa)
#
#
# Indices 1 2 3 4 5 6 
#
# 1 44.1788 -22.7809 2.0544 0.0000 0.0000 0.0000
# 2 -22.7809 20.9782 -18.5705 0.0000 0.0000 0.0000
# 3 2.0544 -18.5705 53.0789 0.0000 0.0000 0.0000
# 4 0.0000 0.0000 0.0000 7.1368 0.0000 0.0000
# 5 0.0000 0.0000 0.0000 0.0000 -137.5699 0.0000
# 6 0.0000 0.0000 0.0000 0.0000 0.0000 1.8491
#
#
#
# Elastic Compliance Matrix: (Units=1/GPa)
#
#
# Indices 1 2 3 4 5 6 
#
# 1 0.095356 0.145277 0.047137 0.000000 0.000000 0.000000
# 2 0.145277 0.290388 0.095974 0.000000 0.000000 0.000000
# 3 0.047137 0.095974 0.050594 0.000000 0.000000 0.000000
# 4 0.000000 0.000000 0.000000 0.140118 0.000000 0.000000
# 5 0.000000 0.000000 0.000000 0.000000 -0.007269 0.000000
# 6 0.000000 0.000000 0.000000 0.000000 0.000000 0.540792
#
#
# Mechanical properties :
#
#
# Convention : Reuss Voigt Hill
#
# Bulk Modulus (GPa) = 0.98706 4.40464 2.69585
# Shear Modulus (GPa) = 5.74114 -15.21459 -4.73673
#
# Velocity S-wave (km/s) = 1.72787 -2.81282 -1.56946
# Velocity P-wave (km/s) = 2.11990 2.87380 1.37200
#
# Compressibility (1/GPa) = 1.01311266
#
# Stress axis : x y z
#
# Youngs Moduli (GPa) = 10.48706 3.44366 19.76534
#
# Poissons Ratio (x) = -0.50028 -0.93167
# Poissons Ratio (y) = -1.52352 -1.89696
# Poissons Ratio (z) = -0.49433 -0.33050
#
# Static dielectric constant tensor:
#      x y z
#    x 1.769620 0.000000 0.000000 
#    y 0.000000 1.633510 0.000000 
#    z 0.000000 0.000000 1.709810 
# 
# From -- ./inp_files/24110.got.cif
#   From: 2010.05.17/outbox.cif.g08.bks.cpg/sg47_13_cif.got.tgz:24110.got - 2010.06.03 20:15:42.
