data_PCOD9382711
_publ_section_title
;
Structure prediction by ZEFSAII (Michael W. Deem and Ramdas Pophale) SiO2 
 PCOD9382711
Probable space group: P M M M
;
_chemical_formula_sum "Si O2"
_cell_formula_units_Z 37
_cell_length_a 20.190740
_cell_length_b 14.039221
_cell_length_c 7.598970
_cell_angle_alpha 90.000000
_cell_angle_beta 90.000000
_cell_angle_gamma 90.000000
_cell_volume 2154.021218
_symmetry_space_group_name_H-M "P M M M"
_symmetry_group_IT_number 47
_symmetry_cell_setting 'orthorhombic'
loop_
_space_group_symop_operation_xyz
x,y,z
-x,-y,z
x,-y,-z
-x,y,-z
-x,-y,-z
x,y,-z
-x,y,z
x,-y,z
loop_
_atom_site_type_symbol
_atom_site_label
_atom_site_fract_x
_atom_site_fract_y
_atom_site_fract_z
Si Si1 0.707370 0.392671 0.714985
Si Si2 0.352014 0.107788 0.210960
Si Si3 0.573018 0.295532 0.290077
Si Si4 0.000000 0.000000 0.000000
Si Si5 0.136977 0.894661 0.000000
Si Si6 0.784544 0.207860 0.702364
O O1 0.706118 0.391136 0.500000
O O2 0.721447 0.500000 0.771459
O O3 0.634822 0.357797 0.776757
O O4 0.760388 0.312242 0.764895
O O5 0.406924 0.185700 0.260074
O O6 0.282508 0.144707 0.288297
O O7 0.366710 0.000000 0.266972
O O8 0.345061 0.109140 0.000000
O O9 0.570873 0.311122 0.500000
O O10 0.500000 0.316587 0.218636
O O11 0.940509 0.081362 0.000000
O O12 0.162001 0.838433 0.170230
O O13 0.170669 0.000000 0.000000
O O14 0.806587 0.212457 0.500000
#
# Coordination Sequence:
#
# PCOD9382711 Si02
#       6
#     8   8   8   1   4   8
#     4   8  15  29  49  75 103 131 176 233 279 321
#     4  10  19  30  45  67  92 127 177 226 271 320
#     4   9  18  30  43  62  92 133 178 225 280 335
#     4   8  24  40  58  84 126 154 174 200 238 288
#     4  10  20  38  55  81 116 148 171 203 243 295
#     4  10  19  32  55  81 106 141 179 218 263 309
#
# _framework density 17.177174000000001
#
# number of rings (size 3 to 8) (size 9 to 14) (size 15 to 20)
#    0.324    2.378    1.081    2.595    0.000    4.324 
#    0.000    5.946    0.000    0.000    0.000    4.541 
#    0.000    3.459    0.000    0.000    0.000    0.000 
#
# Total GULP energy -205989.779520 kJ/mol
# GULP energy per Si atom -5567.291338 kJ/mol
# Density = 1.713808 g / cm^3
# Si number density = 17.177174 Si / 1000 Ang^3
#
#
#
# Elastic Constant Matrix: (Units=GPa)
#
#
# Indices 1 2 3 4 5 6 
#
# 1 106.0026 52.0754 36.6313 0.0000 0.0000 0.0000
# 2 52.0754 127.2447 24.2569 0.0000 0.0000 0.0000
# 3 36.6313 24.2569 66.2264 0.0000 0.0000 0.0000
# 4 0.0000 0.0000 0.0000 29.0815 0.0000 0.0000
# 5 0.0000 0.0000 0.0000 0.0000 7.1616 0.0000
# 6 0.0000 0.0000 0.0000 0.0000 0.0000 8.9023
#
#
#
# Elastic Compliance Matrix: (Units=1/GPa)
#
#
# Indices 1 2 3 4 5 6 
#
# 1 0.013677 -0.004467 -0.005929 0.000000 0.000000 0.000000
# 2 -0.004467 0.009908 -0.001158 0.000000 0.000000 0.000000
# 3 -0.005929 -0.001158 0.018803 0.000000 0.000000 0.000000
# 4 0.000000 0.000000 0.000000 0.034386 0.000000 0.000000
# 5 0.000000 0.000000 0.000000 0.000000 0.139633 0.000000
# 6 0.000000 0.000000 0.000000 0.000000 0.000000 0.112330
#
#
# Mechanical properties :
#
#
# Convention : Reuss Voigt Hill
#
# Bulk Modulus (GPa) = 51.86739 58.37788 55.12264
# Shear Modulus (GPa) = 13.95582 21.46309 17.70945
#
# Velocity S-wave (km/s) = 2.85347 3.53868 3.21438
# Velocity P-wave (km/s) = 6.41229 7.12431 6.77766
#
# Compressibility (1/GPa) = 0.01927994
#
# Stress axis : x y z
#
# Youngs Moduli (GPa) = 73.11460 100.93010 53.18211
#
# Poissons Ratio (x) = 0.45087 0.31531
# Poissons Ratio (y) = 0.32662 0.06159
# Poissons Ratio (z) = 0.43349 0.11688
#
# Static dielectric constant tensor:
#      x y z
#    x 1.543850 0.000000 0.000000 
#    y 0.000000 1.598730 0.000000 
#    z 0.000000 0.000000 1.631330 
# 
# From -- ./inp_files/8871.got.cif
#   From: 2010.05.17/outbox.cif.g08.bks.cpg/sg47_5_cif.got.tgz:8871.got - 2010.06.03 20:15:42.
