data_PCOD9382807
_publ_section_title
;
Structure prediction by ZEFSAII (Michael W. Deem and Ramdas Pophale) SiO2 
 PCOD9382807
Probable space group: P M M M
;
_chemical_formula_sum "Si O2"
_cell_formula_units_Z 64
_cell_length_a 9.638042
_cell_length_b 21.167697
_cell_length_c 17.087070
_cell_angle_alpha 90.000000
_cell_angle_beta 90.000000
_cell_angle_gamma 90.000000
_cell_volume 3486.021196
_symmetry_space_group_name_H-M "P M M M"
_symmetry_group_IT_number 47
_symmetry_cell_setting 'orthorhombic'
loop_
_space_group_symop_operation_xyz
x,y,z
-x,-y,z
x,-y,-z
-x,y,-z
-x,-y,-z
x,y,-z
-x,y,z
x,-y,z
loop_
_atom_site_type_symbol
_atom_site_label
_atom_site_fract_x
_atom_site_fract_y
_atom_site_fract_z
Si Si1 0.338811 0.189533 0.373517
Si Si2 0.335738 0.330403 0.410568
Si Si3 0.840414 0.071410 0.813430
Si Si4 0.163024 0.571136 0.687573
Si Si5 0.338299 0.190799 0.184194
Si Si6 0.835377 0.568687 0.124573
Si Si7 0.160487 0.929794 0.377078
Si Si8 0.835379 0.291663 0.089369
O O1 0.500000 0.181415 0.395319
O O2 0.289992 0.257477 0.403814
O O3 0.330979 0.193267 0.278803
O O4 0.251552 0.129595 0.401771
O O5 0.317834 0.351544 0.500000
O O6 0.500000 0.331387 0.391683
O O7 0.253052 0.375731 0.353256
O O8 0.735744 0.125384 0.840251
O O9 0.837123 0.070628 0.718273
O O10 0.000000 0.085788 0.835792
O O11 0.806690 0.000000 0.839242
O O12 0.201856 0.500000 0.661845
O O13 0.178065 0.572796 0.781462
O O14 0.000000 0.580416 0.670505
O O15 0.500000 0.192802 0.162095
O O16 0.252823 0.248066 0.146672
O O17 0.777656 0.500000 0.099582
O O18 0.785022 0.635452 0.092309
O O19 0.000000 0.566950 0.106027
O O20 0.000000 0.922727 0.400592
O O21 0.208508 0.000000 0.401475
O O22 0.000000 0.290714 0.110851
O O23 0.823575 0.269009 0.000000
#
# Coordination Sequence:
#
# PCOD9382807 Si02
#       8
#     8   8   8   8   8   8   8   8
#     4   9  18  31  47  69  94 122 160 200 236 278
#     4  10  21  35  49  67  95 129 162 198 238 279
#     4   8  14  26  45  69  96 123 152 191 238 284
#     4   9  18  33  53  75  97 122 154 193 236 283
#     4  10  19  30  47  70  96 126 158 195 237 280
#     4   8  15  30  52  76  99 122 152 193 238 279
#     4   8  14  25  43  69  97 122 151 190 237 285
#     4  10  20  32  48  71  97 126 160 195 230 274
#
# _framework density 18.35904
#
# number of rings (size 3 to 8) (size 9 to 14) (size 15 to 20)
#    0.000    3.000    0.000    2.625    0.000    2.750 
#    0.000    5.000    0.000    1.875    0.000    6.125 
#    0.000    0.000    0.000    0.000    0.000    0.000 
#
# Total GULP energy -356720.399764 kJ/mol
# GULP energy per Si atom -5573.756246 kJ/mol
# Density = 1.831725 g / cm^3
# Si number density = 18.359040 Si / 1000 Ang^3
#
#
#
# Elastic Constant Matrix: (Units=GPa)
#
#
# Indices 1 2 3 4 5 6 
#
# 1 54.1117 54.3948 27.7627 0.0000 0.0000 0.0000
# 2 54.3948 121.7054 37.3968 0.0000 0.0000 0.0000
# 3 27.7627 37.3968 29.1187 0.0000 0.0000 0.0000
# 4 0.0000 0.0000 0.0000 -29.7455 0.0000 0.0000
# 5 0.0000 0.0000 0.0000 0.0000 6.0178 0.0000
# 6 0.0000 0.0000 0.0000 0.0000 0.0000 23.6959
#
#
#
# Elastic Compliance Matrix: (Units=1/GPa)
#
#
# Indices 1 2 3 4 5 6 
#
# 1 0.043715 -0.011119 -0.027400 0.000000 0.000000 0.000000
# 2 -0.011119 0.016401 -0.010462 0.000000 0.000000 0.000000
# 3 -0.027400 -0.010462 0.073903 0.000000 0.000000 0.000000
# 4 0.000000 0.000000 0.000000 -0.033619 0.000000 0.000000
# 5 0.000000 0.000000 0.000000 0.000000 0.166173 0.000000
# 6 0.000000 0.000000 0.000000 0.000000 0.000000 0.042201
#
#
# Mechanical properties :
#
#
# Convention : Reuss Voigt Hill
#
# Bulk Modulus (GPa) = 27.73394 49.33829 38.53611
# Shear Modulus (GPa) = 11.94016 5.68574 8.81295
#
# Velocity S-wave (km/s) = 2.55300 1.76173 2.19334
# Velocity P-wave (km/s) = 4.88156 5.57411 5.23929
#
# Compressibility (1/GPa) = 0.03605691
#
# Stress axis : x y z
#
# Youngs Moduli (GPa) = 22.87548 60.97285 13.53131
#
# Poissons Ratio (x) = 0.67794 0.37075
# Poissons Ratio (y) = 0.25435 0.14157
# Poissons Ratio (z) = 0.62678 0.63792
#
# Static dielectric constant tensor:
#      x y z
#    x 1.604380 0.000000 0.000000 
#    y 0.000000 1.642770 0.000000 
#    z 0.000000 0.000000 1.629560 
# 
# From -- ./inp_files/9914.got.cif
#   From: 2010.05.17/outbox.cif.g08.bks.cpg/sg47_5_cif.got.tgz:9914.got - 2010.06.03 20:15:42.
