data_PCOD9382601
_publ_section_title
;
Structure prediction by ZEFSAII (Michael W. Deem and Ramdas Pophale) SiO2 
 PCOD9382601
Probable space group: P M M M
;
_chemical_formula_sum "Si O2"
_cell_formula_units_Z 52
_cell_length_a 22.469381
_cell_length_b 7.534424
_cell_length_c 15.321773
_cell_angle_alpha 90.000000
_cell_angle_beta 90.000000
_cell_angle_gamma 90.000000
_cell_volume 2593.881840
_symmetry_space_group_name_H-M "P M M M"
_symmetry_group_IT_number 47
_symmetry_cell_setting 'orthorhombic'
loop_
_space_group_symop_operation_xyz
x,y,z
-x,-y,z
x,-y,-z
-x,y,-z
-x,-y,-z
x,y,-z
-x,y,z
x,-y,z
loop_
_atom_site_type_symbol
_atom_site_label
_atom_site_fract_x
_atom_site_fract_y
_atom_site_fract_z
Si Si1 0.200352 0.788090 0.596688
Si Si2 0.191213 0.284634 0.093037
Si Si3 0.723413 0.798622 0.757600
Si Si4 0.063408 0.715810 0.857717
Si Si5 0.934405 0.286622 0.346518
Si Si6 0.500000 0.298125 0.894854
Si Si7 0.367069 0.206857 0.100344
O O1 0.213619 0.718848 0.500000
O O2 0.245550 0.717649 0.671262
O O3 0.129493 0.763479 0.614053
O O4 0.208905 0.000000 0.597237
O O5 0.194350 0.500000 0.101837
O O6 0.222487 0.198541 0.174314
O O7 0.122726 0.229555 0.094878
O O8 0.218925 0.236940 0.000000
O O9 0.672469 0.714836 0.820479
O O10 0.703723 0.000000 0.735849
O O11 0.062815 0.500000 0.861218
O O12 0.067742 0.763996 0.755634
O O13 0.000000 0.778366 0.891875
O O14 0.936127 0.500000 0.351399
O O15 0.000000 0.224651 0.380670
O O16 0.500000 0.500000 0.863617
O O17 0.563595 0.215595 0.872625
O O18 0.500000 0.296814 0.000000
O O19 0.349942 0.000000 0.094312
O O20 0.361400 0.280414 0.000000
#
# Coordination Sequence:
#
# PCOD9382601 Si02
#       7
#     8   8   8   8   8   4   8
#     4  10  21  35  50  70  95 123 158 203 254 300
#     4  10  19  29  45  69  93 119 154 196 239 283
#     4  10  20  34  50  68  94 130 164 196 235 283
#     4   8  14  26  43  62  85 113 147 189 235 282
#     4   9  17  31  51  70  88 115 154 201 252 306
#     4   9  17  29  47  75 108 135 158 188 225 261
#     4   9  17  30  49  72  99 132 165 191 220 266
#
# _framework density 20.047173000000001
#
# number of rings (size 3 to 8) (size 9 to 14) (size 15 to 20)
#    0.000    2.692    1.538    1.615    0.000    3.692 
#    0.000    4.615    0.000    0.462    0.000    1.615 
#    0.000    4.308    0.000    0.000    0.000    0.000 
#
# Total GULP energy -289599.362460 kJ/mol
# GULP energy per Si atom -5569.218509 kJ/mol
# Density = 2.000154 g / cm^3
# Si number density = 20.047173 Si / 1000 Ang^3
#
#
#
# Elastic Constant Matrix: (Units=GPa)
#
#
# Indices 1 2 3 4 5 6 
#
# 1 139.3854 0.6792 64.4745 0.0000 0.0000 0.0000
# 2 0.6792 51.3395 7.7734 0.0000 0.0000 0.0000
# 3 64.4745 7.7734 127.6847 0.0000 0.0000 0.0000
# 4 0.0000 0.0000 0.0000 0.2351 0.0000 0.0000
# 5 0.0000 0.0000 0.0000 0.0000 13.3124 0.0000
# 6 0.0000 0.0000 0.0000 0.0000 0.0000 16.6796
#
#
#
# Elastic Compliance Matrix: (Units=1/GPa)
#
#
# Indices 1 2 3 4 5 6 
#
# 1 0.009379 0.000599 -0.004772 0.000000 0.000000 0.000000
# 2 0.000599 0.019698 -0.001501 0.000000 0.000000 0.000000
# 3 -0.004772 -0.001501 0.010333 0.000000 0.000000 0.000000
# 4 0.000000 0.000000 0.000000 4.254351 0.000000 0.000000
# 5 0.000000 0.000000 0.000000 0.000000 0.075118 0.000000
# 6 0.000000 0.000000 0.000000 0.000000 0.000000 0.059953
#
#
# Mechanical properties :
#
#
# Convention : Reuss Voigt Hill
#
# Bulk Modulus (GPa) = 35.63911 51.58489 43.61200
# Shear Modulus (GPa) = 1.12371 22.41092 11.76731
#
# Velocity S-wave (km/s) = 0.74950 3.34714 2.42540
# Velocity P-wave (km/s) = 4.30874 6.38165 5.44475
#
# Compressibility (1/GPa) = 0.02805906
#
# Stress axis : x y z
#
# Youngs Moduli (GPa) = 106.62180 50.76759 96.77733
#
# Poissons Ratio (x) = -0.03038 0.46185
# Poissons Ratio (y) = -0.06381 0.14530
# Poissons Ratio (z) = 0.50884 0.07622
#
# Static dielectric constant tensor:
#      x y z
#    x 1.741050 0.000000 0.000000 
#    y 0.000000 1.772550 0.000000 
#    z 0.000000 0.000000 1.722180 
# 
# From -- ./inp_files/25053.got.cif
#   From: 2010.05.17/outbox.cif.g08.bks.cpg/sg47_13_cif.got.tgz:25053.got - 2010.06.03 20:15:42.
