data_PCOD9382344
_publ_section_title
;
Structure prediction by ZEFSAII (Michael W. Deem and Ramdas Pophale) SiO2 
 PCOD9382344
Probable space group: P M M M
;
_chemical_formula_sum "Si O2"
_cell_formula_units_Z 56
_cell_length_a 8.691482
_cell_length_b 15.628434
_cell_length_c 22.762344
_cell_angle_alpha 90.000000
_cell_angle_beta 90.000000
_cell_angle_gamma 90.000000
_cell_volume 3091.905989
_symmetry_space_group_name_H-M "P M M M"
_symmetry_group_IT_number 47
_symmetry_cell_setting 'orthorhombic'
loop_
_space_group_symop_operation_xyz
x,y,z
-x,-y,z
x,-y,-z
-x,y,-z
-x,-y,-z
x,y,-z
-x,y,z
x,-y,z
loop_
_atom_site_type_symbol
_atom_site_label
_atom_site_fract_x
_atom_site_fract_y
_atom_site_fract_z
Si Si1 0.182786 0.831074 0.619835
Si Si2 0.316293 0.901975 0.500000
Si Si3 0.185251 0.096846 0.931274
Si Si4 0.686071 0.351142 0.344281
Si Si5 0.316142 0.224241 0.164063
Si Si6 0.815072 0.904929 0.742475
Si Si7 0.687276 0.595785 0.788412
Si Si8 0.312806 0.500000 0.567051
O O1 0.259229 0.856583 0.558891
O O2 0.239127 0.739081 0.641698
O O3 0.220478 0.894488 0.673654
O O4 0.000000 0.831160 0.612104
O O5 0.500000 0.902044 0.500000
O O6 0.259836 0.000000 0.500000
O O7 0.252046 0.171402 0.891047
O O8 0.000000 0.098416 0.926103
O O9 0.235196 0.000000 0.913966
O O10 0.224069 0.108187 0.000000
O O11 0.500000 0.343132 0.344961
O O12 0.728630 0.385383 0.279607
O O13 0.732199 0.417717 0.394902
O O14 0.500000 0.225730 0.160884
O O15 0.265200 0.168978 0.220543
O O16 0.261591 0.322362 0.173251
O O17 0.000000 0.896299 0.749604
O O18 0.770985 0.000000 0.762827
O O19 0.500000 0.594843 0.790532
O O20 0.739958 0.500000 0.805086
O O21 0.500000 0.500000 0.565238
O O22 0.257269 0.500000 0.500000
#
# Coordination Sequence:
#
# PCOD9382344 Si02
#       8
#     8   4   8   8   8   8   8   4
#     4  11  23  38  56  78 107 140 175 218 273 331
#     4  11  25  43  61  78  97 130 179 229 272 323
#     4   9  19  37  59  81 111 155 196 224 264 330
#     4  10  18  33  55  77 104 138 179 224 271 324
#     4  11  21  32  53  86 116 142 182 234 278 315
#     4  10  21  36  53  74 106 148 183 212 260 329
#     4   9  17  32  53  77 108 147 186 224 273 331
#     4   9  18  30  51  81 103 131 179 228 273 329
#
# _framework density 18.111806999999999
#
# number of rings (size 3 to 8) (size 9 to 14) (size 15 to 20)
#    0.000    2.000    2.143    2.357    1.000    4.286 
#    0.000    1.071    0.000    4.286    0.000    3.000 
#    0.000    0.000    0.000    0.000    0.000    0.000 
#
# Total GULP energy -312543.824020 kJ/mol
# GULP energy per Si atom -5581.139715 kJ/mol
# Density = 1.807058 g / cm^3
# Si number density = 18.111807 Si / 1000 Ang^3
#
#
#
# Elastic Constant Matrix: (Units=GPa)
#
#
# Indices 1 2 3 4 5 6 
#
# 1 17.5685 25.7222 27.1507 0.0000 0.0000 0.0000
# 2 25.7222 163.6966 69.9371 0.0000 0.0000 0.0000
# 3 27.1507 69.9371 108.0008 0.0000 0.0000 0.0000
# 4 0.0000 0.0000 0.0000 33.0997 0.0000 0.0000
# 5 0.0000 0.0000 0.0000 0.0000 -12.5631 0.0000
# 6 0.0000 0.0000 0.0000 0.0000 0.0000 7.6686
#
#
#
# Elastic Compliance Matrix: (Units=1/GPa)
#
#
# Indices 1 2 3 4 5 6 
#
# 1 0.098199 -0.006751 -0.020315 0.000000 0.000000 0.000000
# 2 -0.006751 0.008910 -0.004072 0.000000 0.000000 0.000000
# 3 -0.020315 -0.004072 0.017003 0.000000 0.000000 0.000000
# 4 0.000000 0.000000 0.000000 0.030212 0.000000 0.000000
# 5 0.000000 0.000000 0.000000 0.000000 -0.079598 0.000000
# 6 0.000000 0.000000 0.000000 0.000000 0.000000 0.130402
#
#
# Mechanical properties :
#
#
# Convention : Reuss Voigt Hill
#
# Bulk Modulus (GPa) = 16.17194 59.43179 37.80187
# Shear Modulus (GPa) = 17.36013 16.73809 17.04911
#
# Velocity S-wave (km/s) = 3.09932 3.04329 3.07143
# Velocity P-wave (km/s) = 4.66434 6.72561 5.78748
#
# Compressibility (1/GPa) = 0.06183548
#
# Stress axis : x y z
#
# Youngs Moduli (GPa) = 10.18336 112.23963 58.81219
#
# Poissons Ratio (x) = 0.75774 1.19477
# Poissons Ratio (y) = 0.06875 0.23950
# Poissons Ratio (z) = 0.20687 0.45707
#
# Static dielectric constant tensor:
#      x y z
#    x 1.609290 0.000000 0.000000 
#    y 0.000000 1.633160 0.000000 
#    z 0.000000 0.000000 1.612040 
# 
# From -- ./inp_files/29817.got.cif
#   From: 2010.05.17/outbox.cif.g08.bks.cpg/sg47_15_cif.got.tgz:29817.got - 2010.06.03 20:15:42.
