data_PCOD9382173
_publ_section_title
;
Structure prediction by ZEFSAII (Michael W. Deem and Ramdas Pophale) SiO2 
 PCOD9382173
Probable space group: P M M M
;
_chemical_formula_sum "Si O2"
_cell_formula_units_Z 52
_cell_length_a 29.472218
_cell_length_b 7.642046
_cell_length_c 12.053251
_cell_angle_alpha 90.000000
_cell_angle_beta 90.000000
_cell_angle_gamma 90.000000
_cell_volume 2714.730167
_symmetry_space_group_name_H-M "P M M M"
_symmetry_group_IT_number 47
_symmetry_cell_setting 'orthorhombic'
loop_
_space_group_symop_operation_xyz
x,y,z
-x,-y,z
x,-y,-z
-x,y,-z
-x,-y,-z
x,y,-z
-x,y,z
x,-y,z
loop_
_atom_site_type_symbol
_atom_site_label
_atom_site_fract_x
_atom_site_fract_y
_atom_site_fract_z
Si Si1 0.451179 0.706868 0.634420
Si Si2 0.910069 0.285720 0.759554
Si Si3 0.882030 0.709295 0.000000
Si Si4 0.647042 0.708371 0.626036
Si Si5 0.000000 0.714060 0.371373
Si Si6 0.733423 0.204011 0.229340
Si Si7 0.179239 0.288109 0.626606
Si Si8 0.225489 0.787584 0.000000
O O1 0.450651 0.717480 0.500000
O O2 0.500000 0.781731 0.671560
O O3 0.452161 0.500000 0.662986
O O4 0.401860 0.779364 0.667228
O O5 0.910456 0.500000 0.760465
O O6 0.955137 0.230197 0.695012
O O7 0.865208 0.230644 0.693106
O O8 0.904458 0.225074 0.886259
O O9 0.827872 0.741289 0.000000
O O10 0.887921 0.500000 0.000000
O O11 0.657000 0.774335 0.500000
O O12 0.640953 0.500000 0.615367
O O13 0.688165 0.732613 0.710196
O O14 0.000000 0.500000 0.372858
O O15 0.000000 0.770092 0.500000
O O16 0.775467 0.230104 0.312098
O O17 0.749551 0.279082 0.110943
O O18 0.726259 0.000000 0.210678
O O19 0.178009 0.227954 0.500000
O O20 0.179167 0.500000 0.626226
O O21 0.226644 0.000000 0.000000
#
# Coordination Sequence:
#
# PCOD9382173 Si02
#       8
#     8   8   4   8   4   8   8   4
#     4   7  10  19  38  64  93 125 158 188 221 268
#     4   9  17  28  45  70  97 126 156 188 230 277
#     4  10  18  31  52  74  94 117 155 204 241 273
#     4   9  17  29  46  71 102 130 156 190 233 281
#     4   9  16  27  43  67 103 135 152 178 231 292
#     4  11  22  34  48  66  90 122 159 200 242 284
#     4  10  19  31  48  70  96 124 155 189 228 281
#     4  10  22  38  51  65  88 123 164 203 241 284
#
# _framework density 19.154758000000001
#
# number of rings (size 3 to 8) (size 9 to 14) (size 15 to 20)
#    0.000    2.692    1.538    2.769    0.000    5.231 
#    0.000    1.538    0.000    0.462    0.000    5.385 
#    0.000    8.000    0.000    0.000    0.000    0.000 
#
# Total GULP energy -289895.010289 kJ/mol
# GULP energy per Si atom -5574.904044 kJ/mol
# Density = 1.911116 g / cm^3
# Si number density = 19.154758 Si / 1000 Ang^3
#
#
#
# Elastic Constant Matrix: (Units=GPa)
#
#
# Indices 1 2 3 4 5 6 
#
# 1 194.4195 -1.8127 87.7467 0.0000 0.0000 0.0000
# 2 -1.8127 32.3211 0.7295 0.0000 0.0000 0.0000
# 3 87.7467 0.7295 149.3179 0.0000 0.0000 0.0000
# 4 0.0000 0.0000 0.0000 11.0660 0.0000 0.0000
# 5 0.0000 0.0000 0.0000 0.0000 3.5015 0.0000
# 6 0.0000 0.0000 0.0000 0.0000 0.0000 -78.9195
#
#
#
# Elastic Compliance Matrix: (Units=1/GPa)
#
#
# Indices 1 2 3 4 5 6 
#
# 1 0.007008 0.000486 -0.004120 0.000000 0.000000 0.000000
# 2 0.000486 0.030977 -0.000437 0.000000 0.000000 0.000000
# 3 -0.004120 -0.000437 0.009121 0.000000 0.000000 0.000000
# 4 0.000000 0.000000 0.000000 0.090367 0.000000 0.000000
# 5 0.000000 0.000000 0.000000 0.000000 0.285595 0.000000
# 6 0.000000 0.000000 0.000000 0.000000 0.000000 -0.012671
#
#
# Mechanical properties :
#
#
# Convention : Reuss Voigt Hill
#
# Bulk Modulus (GPa) = 25.66591 61.04286 43.35439
# Shear Modulus (GPa) = 11.58681 6.42260 9.00471
#
# Velocity S-wave (km/s) = 2.46215 1.83311 2.17054
# Velocity P-wave (km/s) = 4.63802 6.03472 5.38187
#
# Compressibility (1/GPa) = 0.03896219
#
# Stress axis : x y z
#
# Youngs Moduli (GPa) = 142.69967 32.28242 109.64134
#
# Poissons Ratio (x) = -0.01569 0.45177
# Poissons Ratio (y) = -0.06936 0.04791
# Poissons Ratio (z) = 0.58799 0.01411
#
# Static dielectric constant tensor:
#      x y z
#    x 1.679960 0.000000 0.000000 
#    y 0.000000 1.714120 0.000000 
#    z 0.000000 0.000000 1.662290 
# 
# From -- ./inp_files/20079.got.cif
#   From: 2010.05.17/outbox.cif.g08.bks.cpg/sg47_11_cif.got.tgz:20079.got - 2010.06.03 20:15:42.
