data_PCOD9382870
_publ_section_title
;
Structure prediction by ZEFSAII (Michael W. Deem and Ramdas Pophale) SiO2 
 PCOD9382870
Probable space group: P M M M
;
_chemical_formula_sum "Si O2"
_cell_formula_units_Z 56
_cell_length_a 18.870597
_cell_length_b 8.994639
_cell_length_c 19.502535
_cell_angle_alpha 90.000000
_cell_angle_beta 90.000000
_cell_angle_gamma 90.000000
_cell_volume 3310.247327
_symmetry_space_group_name_H-M "P M M M"
_symmetry_group_IT_number 47
_symmetry_cell_setting 'orthorhombic'
loop_
_space_group_symop_operation_xyz
x,y,z
-x,-y,z
x,-y,-z
-x,y,-z
-x,-y,-z
x,y,-z
-x,y,z
x,-y,z
loop_
_atom_site_type_symbol
_atom_site_label
_atom_site_fract_x
_atom_site_fract_y
_atom_site_fract_z
Si Si1 0.689795 0.677469 0.422161
Si Si2 0.709885 0.821081 0.921487
Si Si3 0.580879 0.677524 0.156683
Si Si4 0.154727 0.175835 0.421706
Si Si5 0.202750 0.823847 0.209007
Si Si6 0.351550 0.176275 0.286880
Si Si7 0.081367 0.323027 0.705555
O O1 0.664880 0.708467 0.500000
O O2 0.692623 0.500000 0.412803
O O3 0.769074 0.744320 0.416786
O O4 0.645000 0.751967 0.361771
O O5 0.637685 0.746019 0.895546
O O6 0.770761 0.780332 0.866840
O O7 0.701253 0.000000 0.916163
O O8 0.725654 0.783058 0.000000
O O9 0.500000 0.711165 0.137240
O O10 0.589688 0.500000 0.159803
O O11 0.598378 0.747047 0.230947
O O12 0.129123 0.194748 0.500000
O O13 0.103379 0.244860 0.365492
O O14 0.164486 0.000000 0.408856
O O15 0.271417 0.800501 0.257764
O O16 0.136604 0.735128 0.238110
O O17 0.187061 0.000000 0.209917
O O18 0.364063 0.000000 0.289028
O O19 0.088499 0.500000 0.697832
O O20 0.000000 0.288200 0.722753
#
# Coordination Sequence:
#
# PCOD9382870 Si02
#       7
#     8   8   8   8   8   8   8
#     4  10  19  30  48  74 102 133 170 215 265 312
#     4   9  19  36  58  83 109 137 169 207 253 305
#     4  10  21  35  52  78 112 146 176 207 247 299
#     4  10  20  33  49  70  98 133 173 216 263 314
#     4   9  18  33  53  76 100 129 168 212 255 305
#     4  10  19  32  53  77 101 134 176 219 260 304
#     4  11  23  35  49  71 100 136 175 217 267 318
#
# _framework density 16.917166000000002
#
# number of rings (size 3 to 8) (size 9 to 14) (size 15 to 20)
#    0.000    2.143    1.429    3.000    0.000    7.143 
#    0.000    2.857    0.000    0.857    0.000    6.000 
#    0.000    0.000    0.000    0.000    0.000    0.000 
#
# Total GULP energy -312511.030919 kJ/mol
# GULP energy per Si atom -5580.554124 kJ/mol
# Density = 1.687866 g / cm^3
# Si number density = 16.917166 Si / 1000 Ang^3
#
#
#
# Elastic Constant Matrix: (Units=GPa)
#
#
# Indices 1 2 3 4 5 6 
#
# 1 46.4314 23.7247 36.6746 0.0000 0.0000 0.0000
# 2 23.7247 46.4025 46.4860 0.0000 0.0000 0.0000
# 3 36.6746 46.4860 131.9199 0.0000 0.0000 0.0000
# 4 0.0000 0.0000 0.0000 23.2674 0.0000 0.0000
# 5 0.0000 0.0000 0.0000 0.0000 14.2250 0.0000
# 6 0.0000 0.0000 0.0000 0.0000 0.0000 85.6627
#
#
#
# Elastic Compliance Matrix: (Units=1/GPa)
#
#
# Indices 1 2 3 4 5 6 
#
# 1 0.030912 -0.011122 -0.004675 0.000000 0.000000 0.000000
# 2 -0.011122 0.037311 -0.010056 0.000000 0.000000 0.000000
# 3 -0.004675 -0.010056 0.012423 0.000000 0.000000 0.000000
# 4 0.000000 0.000000 0.000000 0.042979 0.000000 0.000000
# 5 0.000000 0.000000 0.000000 0.000000 0.070299 0.000000
# 6 0.000000 0.000000 0.000000 0.000000 0.000000 0.011674
#
#
# Mechanical properties :
#
#
# Convention : Reuss Voigt Hill
#
# Bulk Modulus (GPa) = 34.55168 48.72492 41.63830
# Shear Modulus (GPa) = 18.73016 32.48891 25.60953
#
# Velocity S-wave (km/s) = 3.33102 4.38707 3.89500
# Velocity P-wave (km/s) = 5.93824 7.38420 6.70034
#
# Compressibility (1/GPa) = 0.02894215
#
# Stress axis : x y z
#
# Youngs Moduli (GPa) = 32.34946 26.80207 80.49346
#
# Poissons Ratio (x) = 0.29809 0.37629
# Poissons Ratio (y) = 0.35978 0.80941
# Poissons Ratio (z) = 0.15123 0.26951
#
# Static dielectric constant tensor:
#      x y z
#    x 1.546840 0.000000 0.000000 
#    y 0.000000 1.561570 0.000000 
#    z 0.000000 0.000000 1.582230 
# 
# From -- ./inp_files/26948.got.cif
#   From: 2010.05.17/outbox.cif.g08.bks.cpg/sg47_14_cif.got.tgz:26948.got - 2010.06.03 20:15:42.
