data_PCOD9382978
_publ_section_title
;
Structure prediction by ZEFSAII (Michael W. Deem and Ramdas Pophale) SiO2 
 PCOD9382978
Probable space group: P M M M
;
_chemical_formula_sum "Si O2"
_cell_formula_units_Z 64
_cell_length_a 24.905201
_cell_length_b 13.668544
_cell_length_c 7.822067
_cell_angle_alpha 90.000000
_cell_angle_beta 90.000000
_cell_angle_gamma 90.000000
_cell_volume 2662.771119
_symmetry_space_group_name_H-M "P M M M"
_symmetry_group_IT_number 47
_symmetry_cell_setting 'orthorhombic'
loop_
_space_group_symop_operation_xyz
x,y,z
-x,-y,z
x,-y,-z
-x,y,-z
-x,-y,-z
x,y,-z
-x,y,z
x,-y,z
loop_
_atom_site_type_symbol
_atom_site_label
_atom_site_fract_x
_atom_site_fract_y
_atom_site_fract_z
Si Si1 0.326967 0.105147 0.804846
Si Si2 0.826930 0.891729 0.206640
Si Si3 0.441501 0.132739 0.298560
Si Si4 0.790704 0.677631 0.700106
Si Si5 0.905730 0.393236 0.800217
Si Si6 0.674515 0.324756 0.798187
Si Si7 0.941671 0.816565 0.790686
Si Si8 0.558647 0.633491 0.301396
O O1 0.391341 0.098738 0.807019
O O2 0.321966 0.213187 0.721097
O O3 0.308984 0.000000 0.728906
O O4 0.305548 0.108225 0.000000
O O5 0.794782 0.794970 0.262761
O O6 0.888652 0.874476 0.262564
O O7 0.809671 0.000000 0.263303
O O8 0.825903 0.890817 0.000000
O O9 0.434181 0.109084 0.500000
O O10 0.500000 0.099906 0.243823
O O11 0.442444 0.249703 0.286310
O O12 0.797664 0.662883 0.500000
O O13 0.841987 0.628802 0.789565
O O14 0.733149 0.634746 0.754330
O O15 0.917481 0.500000 0.724323
O O16 0.933791 0.295712 0.730598
O O17 0.920692 0.397117 0.000000
O O18 0.620414 0.384905 0.754263
O O19 0.670886 0.310646 0.000000
O O20 0.000000 0.854048 0.737889
O O21 0.940659 0.816343 0.000000
O O22 0.556633 0.607346 0.500000
O O23 0.500000 0.602225 0.225659
#
# Coordination Sequence:
#
# PCOD9382978 Si02
#       8
#     8   8   8   8   8   8   8   8
#     4   9  18  29  38  51  72 100 137 182 232 284
#     4   9  18  33  52  74 104 144 188 233 278 319
#     4   8  14  24  36  49  67  95 132 174 221 273
#     4  11  22  35  52  74 102 135 176 225 274 326
#     4   9  18  34  56  81 110 143 177 215 263 318
#     4  10  19  31  47  65  88 120 160 207 260 316
#     4   8  14  26  48  82 118 146 178 222 269 316
#     4   8  14  26  43  62  86 116 151 194 247 308
#
# _framework density 24.035111000000001
#
# number of rings (size 3 to 8) (size 9 to 14) (size 15 to 20)
#    0.000    3.000    0.000    3.000    0.000    3.000 
#    0.000    7.500    0.000    6.000    0.000    7.000 
#    0.000    0.500    0.000    5.250    0.000    2.500 
#
# Total GULP energy -356622.933156 kJ/mol
# GULP energy per Si atom -5572.233331 kJ/mol
# Density = 2.398041 g / cm^3
# Si number density = 24.035111 Si / 1000 Ang^3
#
#
#
# Elastic Constant Matrix: (Units=GPa)
#
#
# Indices 1 2 3 4 5 6 
#
# 1 170.1722 -1.8562 2.8805 0.0000 0.0000 0.0000
# 2 -1.8562 103.7608 -1.7068 0.0000 0.0000 0.0000
# 3 2.8805 -1.7068 35.8913 0.0000 0.0000 0.0000
# 4 0.0000 0.0000 0.0000 1246.1642 0.0000 0.0000
# 5 0.0000 0.0000 0.0000 0.0000 32.3628 0.0000
# 6 0.0000 0.0000 0.0000 0.0000 0.0000 -34.8840
#
#
#
# Elastic Compliance Matrix: (Units=1/GPa)
#
#
# Indices 1 2 3 4 5 6 
#
# 1 0.005885 0.000098 -0.000468 0.000000 0.000000 0.000000
# 2 0.000098 0.009647 0.000451 0.000000 0.000000 0.000000
# 3 -0.000468 0.000451 0.027921 0.000000 0.000000 0.000000
# 4 0.000000 0.000000 0.000000 0.000802 0.000000 0.000000
# 5 0.000000 0.000000 0.000000 0.000000 0.030900 0.000000
# 6 0.000000 0.000000 0.000000 0.000000 0.000000 -0.028666
#
#
# Mechanical properties :
#
#
# Convention : Reuss Voigt Hill
#
# Bulk Modulus (GPa) = 22.92811 34.27324 28.60068
# Shear Modulus (GPa) = 82.14881 269.42908 175.78894
#
# Velocity S-wave (km/s) = 5.85259 10.59913 8.56138
# Velocity P-wave (km/s) = 7.43173 12.80934 10.47163
#
# Compressibility (1/GPa) = 0.04361458
#
# Stress axis : x y z
#
# Youngs Moduli (GPa) = 169.91249 103.66222 35.81553
#
# Poissons Ratio (x) = -0.01012 0.01675
# Poissons Ratio (y) = -0.01658 -0.01615
# Poissons Ratio (z) = 0.07947 -0.04674
#
# Static dielectric constant tensor:
#      x y z
#    x 1.946500 0.000000 0.000000 
#    y 0.000000 1.950440 0.000000 
#    z 0.000000 0.000000 1.889660 
# 
# From -- ./inp_files/12768.got.cif
#   From: 2010.05.17/outbox.cif.g08.bks.cpg/sg47_7_cif.got.tgz:12768.got - 2010.06.03 20:15:42.
