data_PCOD9382091
_publ_section_title
;
Structure prediction by ZEFSAII (Michael W. Deem and Ramdas Pophale) SiO2 
 PCOD9382091
Probable space group: P M M M
;
_chemical_formula_sum "Si O2"
_cell_formula_units_Z 48
_cell_length_a 21.320708
_cell_length_b 8.234409
_cell_length_c 14.793854
_cell_angle_alpha 90.000000
_cell_angle_beta 90.000000
_cell_angle_gamma 90.000000
_cell_volume 2597.259749
_symmetry_space_group_name_H-M "P M M M"
_symmetry_group_IT_number 47
_symmetry_cell_setting 'orthorhombic'
loop_
_space_group_symop_operation_xyz
x,y,z
-x,-y,z
x,-y,-z
-x,y,-z
-x,-y,-z
x,y,-z
-x,y,z
x,-y,z
loop_
_atom_site_type_symbol
_atom_site_label
_atom_site_fract_x
_atom_site_fract_y
_atom_site_fract_z
Si Si1 0.690619 0.694721 0.397301
Si Si2 0.611067 0.308301 0.101684
Si Si3 0.752619 0.192649 0.101752
Si Si4 0.568600 0.808184 0.291763
Si Si5 0.070919 0.698061 0.603932
Si Si6 0.189497 0.696808 0.281683
O O1 0.690041 0.757754 0.500000
O O2 0.696605 0.500000 0.401733
O O3 0.626616 0.732904 0.345202
O O4 0.750652 0.753959 0.340622
O O5 0.597796 0.500000 0.106229
O O6 0.685707 0.280783 0.114107
O O7 0.577673 0.223137 0.185050
O O8 0.595143 0.250336 0.000000
O O9 0.799463 0.244513 0.180145
O O10 0.740685 0.000000 0.107930
O O11 0.774899 0.229213 0.000000
O O12 0.500000 0.744402 0.319335
O O13 0.570157 0.000000 0.307940
O O14 0.084259 0.745927 0.500000
O O15 0.071177 0.500000 0.604902
O O16 0.125383 0.752549 0.671125
O O17 0.000000 0.749933 0.626855
O O18 0.189742 0.500000 0.281641
#
# Coordination Sequence:
#
# PCOD9382091 Si02
#       6
#     8   8   8   8   8   8
#     4  10  21  36  54  77 103 133 173 220 265 309
#     4  10  20  35  56  80 104 131 167 213 264 316
#     4  10  20  33  51  76 106 138 171 210 259 314
#     4  11  24  39  54  74 103 139 176 215 261 313
#     4   8  14  26  47  78 114 146 174 208 254 306
#     4  10  18  30  53  82 108 136 173 216 258 304
#
# _framework density 18.481017000000001
#
# number of rings (size 3 to 8) (size 9 to 14) (size 15 to 20)
#    0.000    2.167    1.667    2.500    0.000    6.333 
#    0.000    3.333    0.000    2.500    0.000    4.667 
#    0.000    0.000    0.000    0.000    0.000    0.000 
#
# Total GULP energy -267909.787464 kJ/mol
# GULP energy per Si atom -5581.453906 kJ/mol
# Density = 1.843895 g / cm^3
# Si number density = 18.481017 Si / 1000 Ang^3
#
#
#
# Elastic Constant Matrix: (Units=GPa)
#
#
# Indices 1 2 3 4 5 6 
#
# 1 114.1710 4.1169 64.8681 0.0000 0.0000 0.0000
# 2 4.1169 10.2788 5.6739 0.0000 0.0000 0.0000
# 3 64.8681 5.6739 112.2335 0.0000 0.0000 0.0000
# 4 0.0000 0.0000 0.0000 -5.6519 0.0000 0.0000
# 5 0.0000 0.0000 0.0000 0.0000 16.1548 0.0000
# 6 0.0000 0.0000 0.0000 0.0000 0.0000 133.5876
#
#
#
# Elastic Compliance Matrix: (Units=1/GPa)
#
#
# Indices 1 2 3 4 5 6 
#
# 1 0.013053 -0.001094 -0.007489 0.000000 0.000000 0.000000
# 2 -0.001094 0.100172 -0.004432 0.000000 0.000000 0.000000
# 3 -0.007489 -0.004432 0.013463 0.000000 0.000000 0.000000
# 4 0.000000 0.000000 0.000000 -0.176931 0.000000 0.000000
# 5 0.000000 0.000000 0.000000 0.000000 0.061901 0.000000
# 6 0.000000 0.000000 0.000000 0.000000 0.000000 0.007486
#
#
# Mechanical properties :
#
#
# Convention : Reuss Voigt Hill
#
# Bulk Modulus (GPa) = 9.93464 42.88902 26.41183
# Shear Modulus (GPa) = 63.51052 39.61971 51.56512
#
# Velocity S-wave (km/s) = 5.86855 4.63515 5.28793
# Velocity P-wave (km/s) = 7.16290 7.20441 7.18369
#
# Compressibility (1/GPa) = 0.10065794
#
# Stress axis : x y z
#
# Youngs Moduli (GPa) = 76.60861 9.98281 74.27981
#
# Poissons Ratio (x) = 0.01092 0.55630
# Poissons Ratio (y) = 0.08382 0.32919
# Poissons Ratio (z) = 0.57374 0.04424
#
# Static dielectric constant tensor:
#      x y z
#    x 1.629490 0.000000 0.000000 
#    y 0.000000 1.645520 0.000000 
#    z 0.000000 0.000000 1.636010 
# 
# From -- ./inp_files/6383.got.cif
#   From: 2010.05.17/outbox.cif.g08.bks.cpg/sg47_4_cif.got.tgz:6383.got - 2010.06.03 20:15:42.
