data_PCOD9382824
_publ_section_title
;
Structure prediction by ZEFSAII (Michael W. Deem and Ramdas Pophale) SiO2 
 PCOD9382824
Probable space group: P M M M
;
_chemical_formula_sum "Si O2"
_cell_formula_units_Z 64
_cell_length_a 29.690658
_cell_length_b 7.814359
_cell_length_c 14.588960
_cell_angle_alpha 90.000000
_cell_angle_beta 90.000000
_cell_angle_gamma 90.000000
_cell_volume 3384.835096
_symmetry_space_group_name_H-M "P M M M"
_symmetry_group_IT_number 47
_symmetry_cell_setting 'orthorhombic'
loop_
_space_group_symop_operation_xyz
x,y,z
-x,-y,z
x,-y,-z
-x,y,-z
-x,-y,-z
x,y,-z
-x,y,z
x,-y,z
loop_
_atom_site_type_symbol
_atom_site_label
_atom_site_fract_x
_atom_site_fract_y
_atom_site_fract_z
Si Si1 0.950080 0.293698 0.393992
Si Si2 0.776496 0.796328 0.767822
Si Si3 0.631056 0.200527 0.268653
Si Si4 0.306083 0.210125 0.106317
Si Si5 0.049258 0.791112 0.105578
Si Si6 0.122241 0.794859 0.245471
Si Si7 0.713843 0.294416 0.395969
Si Si8 0.448807 0.295016 0.397691
O O1 0.945935 0.241340 0.500000
O O2 0.950871 0.500000 0.391149
O O3 0.907014 0.236490 0.336432
O O4 0.000000 0.233301 0.361235
O O5 0.740596 0.732934 0.844130
O O6 0.827161 0.725998 0.763918
O O7 0.753832 0.766330 0.669363
O O8 0.779230 0.000000 0.783285
O O9 0.653254 0.269439 0.173861
O O10 0.668407 0.234874 0.346494
O O11 0.584447 0.258028 0.313922
O O12 0.626793 0.000000 0.253794
O O13 0.306085 0.000000 0.107235
O O14 0.309424 0.262811 0.000000
O O15 0.090003 0.726478 0.165681
O O16 0.000000 0.734545 0.138723
O O17 0.049499 0.000000 0.108950
O O18 0.053802 0.742607 0.000000
O O19 0.125660 0.000000 0.235877
O O20 0.717140 0.232344 0.500000
O O21 0.713620 0.500000 0.396937
O O22 0.433517 0.234048 0.500000
O O23 0.500000 0.231997 0.383471
O O24 0.450662 0.500000 0.403537
#
# Coordination Sequence:
#
# PCOD9382824 Si02
#       8
#     8   8   8   8   8   8   8   8
#     4   9  19  35  51  66  87 119 158 193 225 270
#     4   9  19  32  46  69  96 120 150 191 237 279
#     4  10  19  30  49  77 102 125 159 204 248 284
#     4   8  15  30  50  69  92 124 160 197 238 285
#     4   8  14  25  42  66  94 119 143 175 218 270
#     4  10  19  30  47  72  97 118 145 186 234 278
#     4  10  20  33  49  67  90 125 163 194 229 278
#     4   9  18  32  49  71 103 142 176 202 233 279
#
# _framework density 18.907864
#
# number of rings (size 3 to 8) (size 9 to 14) (size 15 to 20)
#    0.000    2.875    0.000    3.375    0.000    5.500 
#    0.000    6.250    0.000   10.125    0.000    7.875 
#    0.000    0.000    0.000    0.000    0.000    0.000 
#
# Total GULP energy -356573.098571 kJ/mol
# GULP energy per Si atom -5571.454665 kJ/mol
# Density = 1.886483 g / cm^3
# Si number density = 18.907864 Si / 1000 Ang^3
#
#
#
# Elastic Constant Matrix: (Units=GPa)
#
#
# Indices 1 2 3 4 5 6 
#
# 1 154.7556 9.8675 91.3093 0.0000 0.0000 0.0000
# 2 9.8675 21.5330 0.8366 0.0000 0.0000 0.0000
# 3 91.3093 0.8366 157.5121 0.0000 0.0000 0.0000
# 4 0.0000 0.0000 0.0000 42.9587 0.0000 0.0000
# 5 0.0000 0.0000 0.0000 0.0000 25.5365 0.0000
# 6 0.0000 0.0000 0.0000 0.0000 0.0000 31.0094
#
#
#
# Elastic Compliance Matrix: (Units=1/GPa)
#
#
# Indices 1 2 3 4 5 6 
#
# 1 0.010232 -0.004459 -0.005908 0.000000 0.000000 0.000000
# 2 -0.004459 0.048393 0.002328 0.000000 0.000000 0.000000
# 3 -0.005908 0.002328 0.009761 0.000000 0.000000 0.000000
# 4 0.000000 0.000000 0.000000 0.023278 0.000000 0.000000
# 5 0.000000 0.000000 0.000000 0.000000 0.039160 0.000000
# 6 0.000000 0.000000 0.000000 0.000000 0.000000 0.032248
#
#
# Mechanical properties :
#
#
# Convention : Reuss Voigt Hill
#
# Bulk Modulus (GPa) = 19.11745 59.75862 39.43804
# Shear Modulus (GPa) = 25.43416 35.35339 30.39377
#
# Velocity S-wave (km/s) = 3.67163 4.32878 4.01367
# Velocity P-wave (km/s) = 5.30163 7.52716 6.51020
#
# Compressibility (1/GPa) = 0.05230822
#
# Stress axis : x y z
#
# Youngs Moduli (GPa) = 97.73477 20.66405 102.44851
#
# Poissons Ratio (x) = 0.09214 0.60523
# Poissons Ratio (y) = 0.43582 -0.23849
# Poissons Ratio (z) = 0.57738 -0.04810
#
# Static dielectric constant tensor:
#      x y z
#    x 1.670660 0.000000 0.000000 
#    y 0.000000 1.699890 0.000000 
#    z 0.000000 0.000000 1.659530 
# 
# From -- ./inp_files/25856.got.cif
#   From: 2010.05.17/outbox.cif.g08.bks.cpg/sg47_13_cif.got.tgz:25856.got - 2010.06.03 20:15:42.
