data_PCOD9382544
_publ_section_title
;
Structure prediction by ZEFSAII (Michael W. Deem and Ramdas Pophale) SiO2 
 PCOD9382544
Probable space group: P M M M
;
_chemical_formula_sum "Si O2"
_cell_formula_units_Z 64
_cell_length_a 15.233983
_cell_length_b 29.509010
_cell_length_c 7.536639
_cell_angle_alpha 90.000000
_cell_angle_beta 90.000000
_cell_angle_gamma 90.000000
_cell_volume 3388.018862
_symmetry_space_group_name_H-M "P M M M"
_symmetry_group_IT_number 47
_symmetry_cell_setting 'orthorhombic'
loop_
_space_group_symop_operation_xyz
x,y,z
-x,-y,z
x,-y,-z
-x,y,-z
-x,-y,-z
x,y,-z
-x,y,z
x,-y,z
loop_
_atom_site_type_symbol
_atom_site_label
_atom_site_fract_x
_atom_site_fract_y
_atom_site_fract_z
Si Si1 0.403319 0.580568 0.707454
Si Si2 0.098934 0.265342 0.712893
Si Si3 0.399592 0.851619 0.210720
Si Si4 0.399810 0.314632 0.214270
Si Si5 0.218833 0.450527 0.282436
Si Si6 0.898971 0.367420 0.715839
Si Si7 0.283848 0.231442 0.787915
Si Si8 0.602056 0.048705 0.286660
O O1 0.408338 0.568365 0.500000
O O2 0.500000 0.572417 0.785993
O O3 0.385197 0.634520 0.718346
O O4 0.318861 0.555319 0.780303
O O5 0.093920 0.267564 0.500000
O O6 0.122084 0.316379 0.776886
O O7 0.180083 0.233089 0.755367
O O8 0.000000 0.253940 0.776194
O O9 0.500000 0.849487 0.282801
O O10 0.336239 0.812339 0.281082
O O11 0.362038 0.902328 0.235043
O O12 0.406956 0.844710 0.000000
O O13 0.500000 0.301237 0.261386
O O14 0.330951 0.277340 0.279265
O O15 0.395564 0.316894 0.000000
O O16 0.219173 0.448980 0.500000
O O17 0.184218 0.500000 0.231740
O O18 0.163118 0.407525 0.220965
O O19 0.894039 0.366931 0.500000
O O20 0.000000 0.376420 0.762862
O O21 0.295102 0.232016 0.000000
O O22 0.601978 0.047896 0.500000
O O23 0.500000 0.049385 0.227153
O O24 0.639776 0.000000 0.226120
#
# Coordination Sequence:
#
# PCOD9382544 Si02
#       8
#     8   8   8   8   8   8   8   8
#     4   9  17  28  41  57  77 102 134 169 200 234
#     4   9  18  32  48  64  83 110 142 174 211 256
#     4   9  17  28  41  60  89 122 153 183 216 256
#     4   9  17  29  44  61  83 112 143 172 205 248
#     4   9  16  24  36  56  79 101 125 156 198 245
#     4   8  14  25  40  57  77 100 126 158 197 243
#     4  10  19  29  43  64  89 115 142 176 217 255
#     4   8  14  25  40  58  83 117 156 194 225 250
#
# _framework density 18.890096
#
# number of rings (size 3 to 8) (size 9 to 14) (size 15 to 20)
#    0.000    3.125    0.000    2.250    0.000    4.500 
#    0.000    3.750    0.000    4.125    0.000    1.750 
#    0.000    0.500    0.000   16.250    0.000   13.000 
#
# Total GULP energy -356721.741009 kJ/mol
# GULP energy per Si atom -5573.777203 kJ/mol
# Density = 1.884710 g / cm^3
# Si number density = 18.890096 Si / 1000 Ang^3
#
#
#
# Elastic Constant Matrix: (Units=GPa)
#
#
# Indices 1 2 3 4 5 6 
#
# 1 84.5471 61.4257 1.2857 0.0000 0.0000 0.0000
# 2 61.4257 76.9623 -1.3029 0.0000 0.0000 0.0000
# 3 1.2857 -1.3029 45.8851 0.0000 0.0000 0.0000
# 4 0.0000 0.0000 0.0000 8.1367 0.0000 0.0000
# 5 0.0000 0.0000 0.0000 0.0000 8.2052 0.0000
# 6 0.0000 0.0000 0.0000 0.0000 0.0000 15.0826
#
#
#
# Elastic Compliance Matrix: (Units=1/GPa)
#
#
# Indices 1 2 3 4 5 6 
#
# 1 0.028246 -0.022568 -0.001432 0.000000 0.000000 0.000000
# 2 -0.022568 0.031031 0.001514 0.000000 0.000000 0.000000
# 3 -0.001432 0.001514 0.021877 0.000000 0.000000 0.000000
# 4 0.000000 0.000000 0.000000 0.122899 0.000000 0.000000
# 5 0.000000 0.000000 0.000000 0.000000 0.121874 0.000000
# 6 0.000000 0.000000 0.000000 0.000000 0.000000 0.066302
#
#
# Mechanical properties :
#
#
# Convention : Reuss Voigt Hill
#
# Bulk Modulus (GPa) = 27.63952 36.69017 32.16485
# Shear Modulus (GPa) = 11.12937 16.01730 13.57333
#
# Velocity S-wave (km/s) = 2.42990 2.91507 2.68347
# Velocity P-wave (km/s) = 4.74722 5.54935 5.16388
#
# Compressibility (1/GPa) = 0.03618007
#
# Stress axis : x y z
#
# Youngs Moduli (GPa) = 35.40360 32.22575 45.71075
#
# Poissons Ratio (x) = 0.72727 0.06547
# Poissons Ratio (y) = 0.79899 -0.06918
# Poissons Ratio (z) = 0.05071 -0.04877
#
# Static dielectric constant tensor:
#      x y z
#    x 1.659450 0.000000 0.000000 
#    y 0.000000 1.671690 0.000000 
#    z 0.000000 0.000000 1.725600 
# 
# From -- ./inp_files/8254.got.cif
#   From: 2010.05.17/outbox.cif.g08.bks.cpg/sg47_5_cif.got.tgz:8254.got - 2010.06.03 20:15:42.
