data_PCOD9382301
_publ_section_title
;
Structure prediction by ZEFSAII (Michael W. Deem and Ramdas Pophale) SiO2 
 PCOD9382301
Probable space group: P M M M
;
_chemical_formula_sum "Si O2"
_cell_formula_units_Z 52
_cell_length_a 19.092327
_cell_length_b 16.575245
_cell_length_c 7.432378
_cell_angle_alpha 90.000000
_cell_angle_beta 90.000000
_cell_angle_gamma 90.000000
_cell_volume 2352.050324
_symmetry_space_group_name_H-M "P M M M"
_symmetry_group_IT_number 47
_symmetry_cell_setting 'orthorhombic'
loop_
_space_group_symop_operation_xyz
x,y,z
-x,-y,z
x,-y,-z
-x,y,-z
-x,-y,-z
x,y,-z
-x,y,z
x,-y,z
loop_
_atom_site_type_symbol
_atom_site_label
_atom_site_fract_x
_atom_site_fract_y
_atom_site_fract_z
Si Si1 0.657294 0.164475 0.216197
Si Si2 0.828804 0.346510 0.283616
Si Si3 0.921913 0.189892 0.786411
Si Si4 0.331298 0.655132 0.713114
Si Si5 0.081155 0.500000 0.719890
Si Si6 0.201822 0.909802 0.780346
Si Si7 0.581091 0.000000 0.780568
Si Si8 0.418980 0.500000 0.279490
O O1 0.636150 0.255519 0.263070
O O2 0.737309 0.150701 0.278364
O O3 0.615626 0.084770 0.279300
O O4 0.655876 0.161004 0.000000
O O5 0.824802 0.351384 0.500000
O O6 0.873772 0.267918 0.239102
O O7 0.748775 0.345288 0.214806
O O8 0.874785 0.422327 0.221568
O O9 0.874323 0.116895 0.716775
O O10 0.000000 0.198207 0.711633
O O11 0.928686 0.178069 0.000000
O O12 0.325471 0.642228 0.500000
O O13 0.377974 0.580727 0.780673
O O14 0.079645 0.500000 0.500000
O O15 0.000000 0.500000 0.778393
O O16 0.220266 0.000000 0.725608
O O17 0.201776 0.908612 0.000000
O O18 0.500000 0.000000 0.731618
O O19 0.586494 0.000000 0.000000
O O20 0.500000 0.500000 0.223186
O O21 0.419198 0.500000 0.500000
#
# Coordination Sequence:
#
# PCOD9382301 Si02
#       8
#     8   8   8   8   4   8   4   4
#     4  10  18  32  55  78 104 140 175 210 258 312
#     4  10  19  32  51  73  98 129 167 212 256 301
#     4  10  20  32  48  73 103 132 167 214 260 301
#     4  10  20  34  55  81 104 133 177 220 258 309
#     4   9  17  29  46  67  90 122 164 203 242 295
#     4   9  16  29  50  72  96 131 173 209 245 298
#     4   9  18  32  53  83 112 138 173 214 257 312
#     4   9  19  37  58  79 108 143 174 210 260 317
#
# _framework density 22.108369
#
# number of rings (size 3 to 8) (size 9 to 14) (size 15 to 20)
#    0.000    2.385    2.308    0.923    0.000    3.692 
#    0.000    2.692    0.000    5.538    0.000    1.077 
#    0.000    0.000    0.000    0.000    0.000    0.000 
#
# Total GULP energy -290271.060580 kJ/mol
# GULP energy per Si atom -5582.135780 kJ/mol
# Density = 2.205805 g / cm^3
# Si number density = 22.108369 Si / 1000 Ang^3
#
#
#
# Elastic Constant Matrix: (Units=GPa)
#
#
# Indices 1 2 3 4 5 6 
#
# 1 160.2375 79.4621 5.0272 0.0000 0.0000 0.0000
# 2 79.4621 162.8750 -6.7596 0.0000 0.0000 0.0000
# 3 5.0272 -6.7596 69.3193 0.0000 0.0000 0.0000
# 4 0.0000 0.0000 0.0000 11.8583 0.0000 0.0000
# 5 0.0000 0.0000 0.0000 0.0000 4.2169 0.0000
# 6 0.0000 0.0000 0.0000 0.0000 0.0000 37.7051
#
#
#
# Elastic Compliance Matrix: (Units=1/GPa)
#
#
# Indices 1 2 3 4 5 6 
#
# 1 0.008301 -0.004091 -0.001001 0.000000 0.000000 0.000000
# 2 -0.004091 0.008181 0.001094 0.000000 0.000000 0.000000
# 3 -0.001001 0.001094 0.014605 0.000000 0.000000 0.000000
# 4 0.000000 0.000000 0.000000 0.084329 0.000000 0.000000
# 5 0.000000 0.000000 0.000000 0.000000 0.237141 0.000000
# 6 0.000000 0.000000 0.000000 0.000000 0.000000 0.026522
#
#
# Mechanical properties :
#
#
# Convention : Reuss Voigt Hill
#
# Bulk Modulus (GPa) = 43.30543 60.87681 52.09112
# Shear Modulus (GPa) = 12.66551 31.73618 22.20084
#
# Velocity S-wave (km/s) = 2.39609 3.79289 3.17232
# Velocity P-wave (km/s) = 5.22354 6.83935 6.08531
#
# Compressibility (1/GPa) = 0.02309179
#
# Stress axis : x y z
#
# Youngs Moduli (GPa) = 120.46623 122.23166 68.46820
#
# Poissons Ratio (x) = 0.50010 0.06854
# Poissons Ratio (y) = 0.49288 -0.07494
# Poissons Ratio (z) = 0.12058 -0.13378
#
# Static dielectric constant tensor:
#      x y z
#    x 1.789120 0.000000 0.000000 
#    y 0.000000 1.814520 0.000000 
#    z 0.000000 0.000000 1.871850 
# 
# From -- ./inp_files/18620.got.cif
#   From: 2010.05.17/outbox.cif.g08.bks.cpg/sg47_10_cif.got.tgz:18620.got - 2010.06.03 20:15:42.
