data_PCOD9382001
_publ_section_title
;
Structure prediction by ZEFSAII (Michael W. Deem and Ramdas Pophale) SiO2 
 PCOD9382001
Probable space group: P M M M
;
_chemical_formula_sum "Si O2"
_cell_formula_units_Z 48
_cell_length_a 20.713156
_cell_length_b 13.911992
_cell_length_c 7.408598
_cell_angle_alpha 90.000000
_cell_angle_beta 90.000000
_cell_angle_gamma 90.000000
_cell_volume 2134.870939
_symmetry_space_group_name_H-M "P M M M"
_symmetry_group_IT_number 47
_symmetry_cell_setting 'orthorhombic'
loop_
_space_group_symop_operation_xyz
x,y,z
-x,-y,z
x,-y,-z
-x,y,-z
-x,-y,-z
x,y,-z
-x,y,z
x,-y,z
loop_
_atom_site_type_symbol
_atom_site_label
_atom_site_fract_x
_atom_site_fract_y
_atom_site_fract_z
Si Si1 0.610707 0.394745 0.203463
Si Si2 0.780796 0.890880 0.716512
Si Si3 0.574157 0.000000 0.779573
Si Si4 0.874420 0.735053 0.720376
Si Si5 0.757135 0.607820 0.708560
Si Si6 0.000000 0.386231 0.279420
Si Si7 0.641146 0.806791 0.216087
O O1 0.593231 0.500000 0.284530
O O2 0.688932 0.394085 0.194307
O O3 0.604399 0.288743 0.288021
O O4 0.583918 0.394497 0.000000
O O5 0.783246 0.896218 0.500000
O O6 0.848409 0.840863 0.774555
O O7 0.717869 0.824463 0.755616
O O8 0.771722 0.000000 0.785719
O O9 0.608845 0.903951 0.716014
O O10 0.500000 0.000000 0.729068
O O11 0.577945 0.000000 0.000000
O O12 0.876969 0.734986 0.500000
O O13 0.813825 0.671702 0.780492
O O14 0.938300 0.678229 0.777779
O O15 0.743046 0.635289 0.500000
O O16 0.782799 0.500000 0.706006
O O17 0.000000 0.500000 0.223319
O O18 0.000000 0.389377 0.500000
O O19 0.632736 0.800795 0.000000
#
# Coordination Sequence:
#
# PCOD9382001 Si02
#       7
#     8   8   4   8   8   4   8
#     4   9  17  27  40  64  96 123 147 183 232 278
#     4  10  19  30  45  68  97 125 152 196 252 291
#     4   9  18  32  51  75  99 124 159 200 236 273
#     4   9  16  26  39  59  88 119 153 191 236 283
#     4   9  15  23  38  60  85 113 146 184 225 271
#     4   9  16  26  41  61  88 123 161 201 240 283
#     4  10  18  30  50  72  96 126 161 196 232 281
#
# _framework density 22.483796000000002
#
# number of rings (size 3 to 8) (size 9 to 14) (size 15 to 20)
#    0.000    2.667    2.500    0.500    0.000    2.000 
#    0.000    0.417    0.000    4.000    0.000    5.833 
#    0.000    6.667    0.000    5.667    0.000    6.000 
#
# Total GULP energy -267274.477612 kJ/mol
# GULP energy per Si atom -5568.218284 kJ/mol
# Density = 2.243262 g / cm^3
# Si number density = 22.483796 Si / 1000 Ang^3
#
#
#
# Elastic Constant Matrix: (Units=GPa)
#
#
# Indices 1 2 3 4 5 6 
#
# 1 76.5947 34.1993 -4.8016 0.0000 0.0000 0.0000
# 2 34.1993 185.7905 6.5490 0.0000 0.0000 0.0000
# 3 -4.8016 6.5490 78.6533 0.0000 0.0000 0.0000
# 4 0.0000 0.0000 0.0000 -2.0991 0.0000 0.0000
# 5 0.0000 0.0000 0.0000 0.0000 -2.2655 0.0000
# 6 0.0000 0.0000 0.0000 0.0000 0.0000 -48.8583
#
#
#
# Elastic Compliance Matrix: (Units=1/GPa)
#
#
# Indices 1 2 3 4 5 6 
#
# 1 0.014319 -0.002674 0.001097 0.000000 0.000000 0.000000
# 2 -0.002674 0.005898 -0.000654 0.000000 0.000000 0.000000
# 3 0.001097 -0.000654 0.012835 0.000000 0.000000 0.000000
# 4 0.000000 0.000000 0.000000 -0.476404 0.000000 0.000000
# 5 0.000000 0.000000 0.000000 0.000000 -0.441401 0.000000
# 6 0.000000 0.000000 0.000000 0.000000 0.000000 -0.020467
#
#
# Mechanical properties :
#
#
# Convention : Reuss Voigt Hill
#
# Bulk Modulus (GPa) = 34.97970 45.88133 40.43051
# Shear Modulus (GPa) = -5.61024 9.69489 2.04232
#
# Velocity S-wave (km/s) = -1.58135 2.07878 0.95411
# Velocity P-wave (km/s) = 3.50104 5.11981 4.38576
#
# Compressibility (1/GPa) = 0.02858801
#
# Stress axis : x y z
#
# Youngs Moduli (GPa) = 69.83937 169.55619 77.90917
#
# Poissons Ratio (x) = 0.45345 -0.08545
# Poissons Ratio (y) = 0.18677 0.05098
# Poissons Ratio (z) = -0.07660 0.11095
#
# Static dielectric constant tensor:
#      x y z
#    x 1.785290 0.000000 0.000000 
#    y 0.000000 1.942860 0.000000 
#    z 0.000000 0.000000 1.917880 
# 
# From -- ./inp_files/9255.got.cif
#   From: 2010.05.17/outbox.cif.g08.bks.cpg/sg47_5_cif.got.tgz:9255.got - 2010.06.03 20:15:42.
