data_PCOD9382980
_publ_section_title
;
Structure prediction by ZEFSAII (Michael W. Deem and Ramdas Pophale) SiO2 
 PCOD9382980
Probable space group: P M M M
;
_chemical_formula_sum "Si O2"
_cell_formula_units_Z 52
_cell_length_a 19.632283
_cell_length_b 8.115619
_cell_length_c 19.330410
_cell_angle_alpha 90.000000
_cell_angle_beta 90.000000
_cell_angle_gamma 90.000000
_cell_volume 3079.878057
_symmetry_space_group_name_H-M "P M M M"
_symmetry_group_IT_number 47
_symmetry_cell_setting 'orthorhombic'
loop_
_space_group_symop_operation_xyz
x,y,z
-x,-y,z
x,-y,-z
-x,y,-z
-x,-y,-z
x,y,-z
-x,y,z
x,-y,z
loop_
_atom_site_type_symbol
_atom_site_label
_atom_site_fract_x
_atom_site_fract_y
_atom_site_fract_z
Si Si1 0.712333 0.201595 0.289548
Si Si2 0.922214 0.301056 0.078749
Si Si3 0.841647 0.803463 0.210997
Si Si4 0.206101 0.196107 0.575900
Si Si5 0.417366 0.689223 0.500000
Si Si6 0.922618 0.695830 0.654214
Si Si7 0.576802 0.196837 0.348577
O O1 0.764324 0.251613 0.228961
O O2 0.748778 0.258798 0.360507
O O3 0.634364 0.258301 0.295589
O O4 0.710871 0.000000 0.289335
O O5 0.922117 0.500000 0.079527
O O6 0.869924 0.241173 0.136164
O O7 0.000000 0.247804 0.095317
O O8 0.906957 0.248038 0.000000
O O9 0.890833 0.730839 0.270220
O O10 0.843648 0.000000 0.219472
O O11 0.221085 0.265403 0.500000
O O12 0.128349 0.226490 0.598501
O O13 0.217372 0.000000 0.573416
O O14 0.395596 0.500000 0.500000
O O15 0.500000 0.695103 0.500000
O O16 0.398118 0.771374 0.427372
O O17 0.922813 0.500000 0.643585
O O18 0.000000 0.757216 0.650288
O O19 0.500000 0.265254 0.340701
O O20 0.572201 0.000000 0.340933
#
# Coordination Sequence:
#
# PCOD9382980 Si02
#       7
#     8   8   8   8   4   8   8
#     4   8  16  29  44  62  85 111 140 178 220 258
#     4   9  18  32  49  70  97 125 147 171 208 250
#     4  10  19  31  47  66  89 117 146 177 213 252
#     4   9  18  31  45  59  77 106 140 178 226 270
#     4   9  17  27  37  55  85 111 132 171 226 269
#     4  10  20  32  45  60  80 108 141 180 223 260
#     4   9  16  27  45  64  80 107 147 181 213 263
#
# _framework density 16.883785
#
# number of rings (size 3 to 8) (size 9 to 14) (size 15 to 20)
#    0.000    2.846    0.000    3.000    1.077    5.231 
#    0.000    6.154    0.000    0.000    0.000    0.000 
#    0.000    0.615    0.000    7.692    0.000    1.231 
#
# Total GULP energy -289739.979054 kJ/mol
# GULP energy per Si atom -5571.922674 kJ/mol
# Density = 1.684536 g / cm^3
# Si number density = 16.883785 Si / 1000 Ang^3
#
#
#
# Elastic Constant Matrix: (Units=GPa)
#
#
# Indices 1 2 3 4 5 6 
#
# 1 110.1194 -0.3617 44.3343 0.0000 0.0000 0.0000
# 2 -0.3617 8.4816 -0.8195 0.0000 0.0000 0.0000
# 3 44.3343 -0.8195 79.6023 0.0000 0.0000 0.0000
# 4 0.0000 0.0000 0.0000 9.7552 0.0000 0.0000
# 5 0.0000 0.0000 0.0000 0.0000 20.7623 0.0000
# 6 0.0000 0.0000 0.0000 0.0000 0.0000 -70.3745
#
#
#
# Elastic Compliance Matrix: (Units=1/GPa)
#
#
# Indices 1 2 3 4 5 6 
#
# 1 0.011706 -0.000131 -0.006521 0.000000 0.000000 0.000000
# 2 -0.000131 0.118021 0.001288 0.000000 0.000000 0.000000
# 3 -0.006521 0.001288 0.016208 0.000000 0.000000 0.000000
# 4 0.000000 0.000000 0.000000 0.102510 0.000000 0.000000
# 5 0.000000 0.000000 0.000000 0.000000 0.048164 0.000000
# 6 0.000000 0.000000 0.000000 0.000000 0.000000 -0.014210
#
#
# Mechanical properties :
#
#
# Convention : Reuss Voigt Hill
#
# Bulk Modulus (GPa) = 7.39611 31.61219 19.50415
# Shear Modulus (GPa) = 14.78438 2.36527 8.57482
#
# Velocity S-wave (km/s) = 2.96236 1.18488 2.25605
# Velocity P-wave (km/s) = 4.01134 4.54268 4.28526
#
# Compressibility (1/GPa) = 0.13520617
#
# Stress axis : x y z
#
# Youngs Moduli (GPa) = 85.42645 8.47310 61.69966
#
# Poissons Ratio (x) = 0.00111 0.40234
# Poissons Ratio (y) = 0.01119 -0.07947
# Poissons Ratio (z) = 0.55706 -0.01091
#
# Static dielectric constant tensor:
#      x y z
#    x 1.620550 0.000000 0.000000 
#    y 0.000000 1.598820 0.000000 
#    z 0.000000 0.000000 1.556260 
# 
# From -- ./inp_files/28740.got.cif
#   From: 2010.05.17/outbox.cif.g08.bks.cpg/sg47_15_cif.got.tgz:28740.got - 2010.06.03 20:15:42.
