data_PCOD9382267
_publ_section_title
;
Structure prediction by ZEFSAII (Michael W. Deem and Ramdas Pophale) SiO2 
 PCOD9382267
Probable space group: P M M M
;
_chemical_formula_sum "Si O2"
_cell_formula_units_Z 64
_cell_length_a 18.041455
_cell_length_b 15.457841
_cell_length_c 13.569574
_cell_angle_alpha 90.000000
_cell_angle_beta 90.000000
_cell_angle_gamma 90.000000
_cell_volume 3784.309160
_symmetry_space_group_name_H-M "P M M M"
_symmetry_group_IT_number 47
_symmetry_cell_setting 'orthorhombic'
loop_
_space_group_symop_operation_xyz
x,y,z
-x,-y,z
x,-y,-z
-x,y,-z
-x,-y,-z
x,y,-z
-x,y,z
x,-y,z
loop_
_atom_site_type_symbol
_atom_site_label
_atom_site_fract_x
_atom_site_fract_y
_atom_site_fract_z
Si Si1 0.807988 0.247768 0.112565
Si Si2 0.588231 0.101986 0.614228
Si Si3 0.297487 0.224566 0.705756
Si Si4 0.886301 0.631245 0.391411
Si Si5 0.087004 0.099137 0.811661
Si Si6 0.290209 0.404023 0.385932
Si Si7 0.144374 0.168821 0.389579
Si Si8 0.917325 0.402154 0.171452
O O1 0.740294 0.233541 0.187631
O O2 0.863583 0.167434 0.129666
O O3 0.855282 0.333183 0.141260
O O4 0.784557 0.253151 0.000000
O O5 0.606409 0.125222 0.500000
O O6 0.500000 0.113287 0.626350
O O7 0.635285 0.159668 0.688657
O O8 0.604650 0.000000 0.626321
O O9 0.319125 0.320816 0.671133
O O10 0.230160 0.188280 0.637167
O O11 0.912900 0.603591 0.500000
O O12 0.799251 0.606558 0.386152
O O13 0.891982 0.735490 0.387018
O O14 0.919628 0.597209 0.290692
O O15 0.108725 0.112913 0.696831
O O16 0.000000 0.116959 0.824407
O O17 0.101676 0.000000 0.839929
O O18 0.313662 0.399219 0.500000
O O19 0.308154 0.500000 0.347465
O O20 0.137472 0.133838 0.500000
O O21 0.900939 0.500000 0.138025
O O22 0.000000 0.377591 0.136071
#
# Coordination Sequence:
#
# PCOD9382267 Si02
#       8
#     8   8   8   8   8   8   8   8
#     4  11  24  40  55  70  94 127 171 230 282 316
#     4   9  18  33  56  88 122 150 169 188 228 294
#     4  10  18  32  53  76 101 134 176 210 247 299
#     4   9  16  28  46  69  99 134 168 204 253 315
#     4  10  21  36  52  69  90 122 165 210 262 321
#     4   9  15  24  44  73 103 135 167 199 240 294
#     4   9  17  29  47  74 103 132 166 203 248 303
#     4  11  22  35  52  74 101 136 179 227 281 334
#
# _framework density 16.911937999999999
#
# number of rings (size 3 to 8) (size 9 to 14) (size 15 to 20)
#    0.000    2.250    3.750    3.000    0.000    5.000 
#    0.000    3.750    0.000    0.750    0.000    2.625 
#    0.000    0.000    0.000    2.250    0.000    0.125 
#
# Total GULP energy -356931.200911 kJ/mol
# GULP energy per Si atom -5577.050014 kJ/mol
# Density = 1.687345 g / cm^3
# Si number density = 16.911938 Si / 1000 Ang^3
#
#
#
# Elastic Constant Matrix: (Units=GPa)
#
#
# Indices 1 2 3 4 5 6 
#
# 1 48.6397 43.8718 32.1146 0.0000 0.0000 0.0000
# 2 43.8718 94.4669 34.3649 0.0000 0.0000 0.0000
# 3 32.1146 34.3649 84.1237 0.0000 0.0000 0.0000
# 4 0.0000 0.0000 0.0000 -6.8123 0.0000 0.0000
# 5 0.0000 0.0000 0.0000 0.0000 -10.7848 0.0000
# 6 0.0000 0.0000 0.0000 0.0000 0.0000 19.8325
#
#
#
# Elastic Compliance Matrix: (Units=1/GPa)
#
#
# Indices 1 2 3 4 5 6 
#
# 1 0.040616 -0.015530 -0.009161 0.000000 0.000000 0.000000
# 2 -0.015530 0.018371 -0.001576 0.000000 0.000000 0.000000
# 3 -0.009161 -0.001576 0.016028 0.000000 0.000000 0.000000
# 4 0.000000 0.000000 0.000000 -0.146792 0.000000 0.000000
# 5 0.000000 0.000000 0.000000 0.000000 -0.092723 0.000000
# 6 0.000000 0.000000 0.000000 0.000000 0.000000 0.050422
#
#
# Mechanical properties :
#
#
# Convention : Reuss Voigt Hill
#
# Bulk Modulus (GPa) = 44.48202 49.77031 47.12616
# Shear Modulus (GPa) = -92.50871 8.23899 -42.13486
#
# Velocity S-wave (km/s) = -7.40399 2.20959 -4.99684
# Velocity P-wave (km/s) = 6.83614 6.00022 2.31625
#
# Compressibility (1/GPa) = 0.02248099
#
# Stress axis : x y z
#
# Youngs Moduli (GPa) = 24.62105 54.43242 62.38894
#
# Poissons Ratio (x) = 0.84533 0.57156
# Poissons Ratio (y) = 0.38236 0.09834
# Poissons Ratio (z) = 0.22556 0.08580
#
# Static dielectric constant tensor:
#      x y z
#    x 1.558010 0.000000 0.000000 
#    y 0.000000 1.599730 0.000000 
#    z 0.000000 0.000000 1.588140 
# 
# From -- ./inp_files/24796.got.cif
#   From: 2010.05.17/outbox.cif.g08.bks.cpg/sg47_13_cif.got.tgz:24796.got - 2010.06.03 20:15:42.
