data_PCOD9382158
_publ_section_title
;
Structure prediction by ZEFSAII (Michael W. Deem and Ramdas Pophale) SiO2 
 PCOD9382158
Probable space group: P M M M
;
_chemical_formula_sum "Si O2"
_cell_formula_units_Z 52
_cell_length_a 21.189770
_cell_length_b 16.819425
_cell_length_c 8.930072
_cell_angle_alpha 90.000000
_cell_angle_beta 90.000000
_cell_angle_gamma 90.000000
_cell_volume 3182.675404
_symmetry_space_group_name_H-M "P M M M"
_symmetry_group_IT_number 47
_symmetry_cell_setting 'orthorhombic'
loop_
_space_group_symop_operation_xyz
x,y,z
-x,-y,z
x,-y,-z
-x,y,-z
-x,-y,-z
x,y,-z
-x,y,z
x,-y,z
loop_
_atom_site_type_symbol
_atom_site_label
_atom_site_fract_x
_atom_site_fract_y
_atom_site_fract_z
Si Si1 0.818821 0.736732 0.321823
Si Si2 0.072587 0.163359 0.819378
Si Si3 0.500000 0.406448 0.679828
Si Si4 0.753189 0.591594 0.821021
Si Si5 0.621039 0.321812 0.821497
Si Si6 0.719116 0.000000 0.680715
Si Si7 0.858466 0.000000 0.180477
Si Si8 0.312140 0.824719 0.680081
O O1 0.824666 0.737392 0.500000
O O2 0.881492 0.770668 0.247625
O O3 0.800654 0.649945 0.262758
O O4 0.758391 0.792621 0.282049
O O5 0.000000 0.169810 0.770827
O O6 0.102459 0.078309 0.776498
O O7 0.073882 0.167926 0.000000
O O8 0.500000 0.500000 0.723543
O O9 0.500000 0.402519 0.500000
O O10 0.561247 0.361930 0.744030
O O11 0.759015 0.500000 0.777034
O O12 0.682666 0.623834 0.790493
O O13 0.762937 0.598044 0.000000
O O14 0.638985 0.234761 0.758482
O O15 0.611795 0.318247 0.000000
O O16 0.789512 0.000000 0.747090
O O17 0.685297 0.082585 0.723651
O O18 0.724466 0.000000 0.500000
O O19 0.851560 0.000000 0.000000
O O20 0.319437 0.818275 0.500000
#
# Coordination Sequence:
#
# PCOD9382158 Si02
#       8
#     8   8   4   8   8   4   4   8
#     4  10  19  31  49  72  99 130 166 209 254 303
#     4  10  20  33  48  68  98 135 171 208 254 307
#     4  11  23  37  55  80 111 144 173 203 246 303
#     4   9  18  33  53  76 102 131 164 204 250 301
#     4  10  20  34  54  79 108 138 171 209 249 295
#     4  10  18  31  51  74 105 138 171 212 256 300
#     4  10  19  30  48  72  99 131 171 214 253 297
#     4   9  18  32  50  73 103 138 173 210 253 300
#
# _framework density 16.338455
#
# number of rings (size 3 to 8) (size 9 to 14) (size 15 to 20)
#    0.000    2.231    1.538    1.846    0.000    4.615 
#    0.000    0.000    0.000    2.308    0.000    6.462 
#    0.000    0.000    0.000    0.000    0.000    0.000 
#
# Total GULP energy -290124.136248 kJ/mol
# GULP energy per Si atom -5579.310312 kJ/mol
# Density = 1.630127 g / cm^3
# Si number density = 16.338455 Si / 1000 Ang^3
#
#
#
# Elastic Constant Matrix: (Units=GPa)
#
#
# Indices 1 2 3 4 5 6 
#
# 1 111.5769 76.5929 44.7900 0.0000 0.0000 0.0000
# 2 76.5929 161.8325 48.3269 0.0000 0.0000 0.0000
# 3 44.7900 48.3269 29.3265 0.0000 0.0000 0.0000
# 4 0.0000 0.0000 0.0000 21.0363 0.0000 0.0000
# 5 0.0000 0.0000 0.0000 0.0000 25.4395 0.0000
# 6 0.0000 0.0000 0.0000 0.0000 0.0000 20.7403
#
#
#
# Elastic Compliance Matrix: (Units=1/GPa)
#
#
# Indices 1 2 3 4 5 6 
#
# 1 0.023215 -0.000786 -0.034160 0.000000 0.000000 0.000000
# 2 -0.000786 0.012193 -0.018892 0.000000 0.000000 0.000000
# 3 -0.034160 -0.018892 0.117402 0.000000 0.000000 0.000000
# 4 0.000000 0.000000 0.000000 0.047537 0.000000 0.000000
# 5 0.000000 0.000000 0.000000 0.000000 0.039309 0.000000
# 6 0.000000 0.000000 0.000000 0.000000 0.000000 0.048215
#
#
# Mechanical properties :
#
#
# Convention : Reuss Voigt Hill
#
# Bulk Modulus (GPa) = 22.15618 71.35060 46.75339
# Shear Modulus (GPa) = 12.17753 22.31162 17.24458
#
# Velocity S-wave (km/s) = 2.73303 3.69940 3.25231
# Velocity P-wave (km/s) = 4.85278 7.87480 6.54072
#
# Compressibility (1/GPa) = 0.04513413
#
# Stress axis : x y z
#
# Youngs Moduli (GPa) = 43.07554 82.01558 8.51772
#
# Poissons Ratio (x) = 0.06449 0.29097
# Poissons Ratio (y) = 0.03387 0.16091
# Poissons Ratio (z) = 1.47147 1.54940
#
# Static dielectric constant tensor:
#      x y z
#    x 1.517300 0.000000 0.000000 
#    y 0.000000 1.548850 0.000000 
#    z 0.000000 0.000000 1.540550 
# 
# From -- ./inp_files/9627.got.cif
#   From: 2010.05.17/outbox.cif.g08.bks.cpg/sg47_5_cif.got.tgz:9627.got - 2010.06.03 20:15:42.
