data_PCOD9382308
_publ_section_title
;
Structure prediction by ZEFSAII (Michael W. Deem and Ramdas Pophale) SiO2 
 PCOD9382308
Probable space group: P M M M
;
_chemical_formula_sum "Si O2"
_cell_formula_units_Z 29
_cell_length_a 7.348974
_cell_length_b 15.435299
_cell_length_c 12.402199
_cell_angle_alpha 90.000000
_cell_angle_beta 90.000000
_cell_angle_gamma 90.000000
_cell_volume 1406.826217
_symmetry_space_group_name_H-M "P M M M"
_symmetry_group_IT_number 47
_symmetry_cell_setting 'orthorhombic'
loop_
_space_group_symop_operation_xyz
x,y,z
-x,-y,z
x,-y,-z
-x,y,-z
-x,-y,-z
x,y,-z
-x,y,z
x,-y,z
loop_
_atom_site_type_symbol
_atom_site_label
_atom_site_fract_x
_atom_site_fract_y
_atom_site_fract_z
Si Si1 0.778418 0.599883 0.621659
Si Si2 0.000000 0.000000 0.000000
Si Si3 0.779878 0.249391 0.777034
Si Si4 0.296772 0.841133 0.000000
Si Si5 0.221524 0.095684 0.623607
O O1 0.724365 0.628626 0.500000
O O2 0.722655 0.500000 0.635460
O O3 0.718562 0.662604 0.718001
O O4 0.000000 0.601048 0.621593
O O5 0.156764 0.078492 0.000000
O O6 0.726184 0.221168 0.896202
O O7 0.717447 0.171537 0.699838
O O8 0.000000 0.251319 0.776226
O O9 0.500000 0.876708 0.000000
O O10 0.277892 0.107273 0.500000
O O11 0.000000 0.096766 0.623902
O O12 0.276697 0.000000 0.660797
#
# Coordination Sequence:
#
# PCOD9382308 Si02
#       5
#     8   1   8   4   8
#     4   8  14  26  50  88 127 163 208 257 307 368
#     4  12  26  52  68  86 116 160 214 256 308 368
#     4  10  18  32  55  80 118 160 203 254 308 363
#     4  12  27  43  64  91 120 158 208 260 308 360
#     4   8  14  23  41  72 105 140 185 235 295 365
#
# _framework density 20.613776000000001
#
# number of rings (size 3 to 8) (size 9 to 14) (size 15 to 20)
#    0.000    2.759    1.379    2.690    1.931    3.310 
#    0.000    0.690    0.000    8.276    0.000    3.862 
#    0.000    0.000    0.000    0.000    0.000    0.000 
#
# Total GULP energy -161569.837465 kJ/mol
# GULP energy per Si atom -5571.373706 kJ/mol
# Density = 2.056686 g / cm^3
# Si number density = 20.613776 Si / 1000 Ang^3
#
#
#
# Elastic Constant Matrix: (Units=GPa)
#
#
# Indices 1 2 3 4 5 6 
#
# 1 112.4358 23.8619 18.5584 0.0000 0.0000 0.0000
# 2 23.8619 143.1867 114.2775 0.0000 0.0000 0.0000
# 3 18.5584 114.2775 133.1806 0.0000 0.0000 0.0000
# 4 0.0000 0.0000 0.0000 109.5228 0.0000 0.0000
# 5 0.0000 0.0000 0.0000 0.0000 64.7489 0.0000
# 6 0.0000 0.0000 0.0000 0.0000 0.0000 -10.1958
#
#
#
# Elastic Compliance Matrix: (Units=1/GPa)
#
#
# Indices 1 2 3 4 5 6 
#
# 1 0.009221 -0.001622 0.000107 0.000000 0.000000 0.000000
# 2 -0.001622 0.022444 -0.019032 0.000000 0.000000 0.000000
# 3 0.000107 -0.019032 0.023825 0.000000 0.000000 0.000000
# 4 0.000000 0.000000 0.000000 0.009131 0.000000 0.000000
# 5 0.000000 0.000000 0.000000 0.000000 0.015444 0.000000
# 6 0.000000 0.000000 0.000000 0.000000 0.000000 -0.098080
#
#
# Mechanical properties :
#
#
# Convention : Reuss Voigt Hill
#
# Bulk Modulus (GPa) = 69.47154 78.02207 73.74681
# Shear Modulus (GPa) = 179.36260 48.28889 113.82575
#
# Velocity S-wave (km/s) = 9.33809 4.84525 7.43896
# Velocity P-wave (km/s) = 12.24913 8.32067 10.47079
#
# Compressibility (1/GPa) = 0.01439438
#
# Stress axis : x y z
#
# Youngs Moduli (GPa) = 108.45366 44.55573 41.97344
#
# Poissons Ratio (x) = 0.07226 -0.00448
# Poissons Ratio (y) = 0.17589 0.79885
# Poissons Ratio (z) = -0.01157 0.84799
#
# Static dielectric constant tensor:
#      x y z
#    x 1.797890 0.000000 0.000000 
#    y 0.000000 1.709970 0.000000 
#    z 0.000000 0.000000 1.769100 
# 
# From -- ./inp_files/14641.got.cif
#   From: 2010.05.17/outbox.cif.g08.bks.cpg/sg47_8_cif.got.tgz:14641.got - 2010.06.03 20:15:42.
