data_PCOD9382002
_publ_section_title
;
Structure prediction by ZEFSAII (Michael W. Deem and Ramdas Pophale) SiO2 
 PCOD9382002
Probable space group: P M M M
;
_chemical_formula_sum "Si O2"
_cell_formula_units_Z 45
_cell_length_a 7.858999
_cell_length_b 26.577798
_cell_length_c 11.815403
_cell_angle_alpha 90.000000
_cell_angle_beta 90.000000
_cell_angle_gamma 90.000000
_cell_volume 2467.940977
_symmetry_space_group_name_H-M "P M M M"
_symmetry_group_IT_number 47
_symmetry_cell_setting 'orthorhombic'
loop_
_space_group_symop_operation_xyz
x,y,z
-x,-y,z
x,-y,-z
-x,y,-z
-x,-y,-z
x,y,-z
-x,y,z
x,-y,z
loop_
_atom_site_type_symbol
_atom_site_label
_atom_site_fract_x
_atom_site_fract_y
_atom_site_fract_z
Si Si1 0.201248 0.692634 0.869698
Si Si2 0.208186 0.000000 0.128676
Si Si3 0.301597 0.583275 0.868056
Si Si4 0.205160 0.098821 0.738952
Si Si5 0.806937 0.500000 0.692721
Si Si6 0.791751 0.941167 0.500000
Si Si7 0.701936 0.800961 0.870844
Si Si8 0.500000 0.500000 0.500000
O O1 0.284703 0.641288 0.828179
O O2 0.236568 0.747670 0.820217
O O3 0.000000 0.684260 0.868784
O O4 0.261691 0.697479 0.000000
O O5 0.265281 0.050869 0.188933
O O6 0.000000 0.000000 0.132001
O O7 0.262732 0.000000 0.000000
O O8 0.500000 0.569423 0.870853
O O9 0.212605 0.547432 0.778120
O O10 0.238597 0.579998 0.000000
O O11 0.264266 0.088035 0.611813
O O12 0.254464 0.151101 0.795482
O O13 0.000000 0.097301 0.738064
O O14 0.653837 0.500000 0.600412
O O15 0.000000 0.500000 0.645208
O O16 0.000000 0.942322 0.500000
O O17 0.739202 0.000000 0.500000
O O18 0.500000 0.797734 0.878986
O O19 0.771840 0.807328 0.000000
#
# Coordination Sequence:
#
# PCOD9382002 Si02
#       8
#     8   4   8   8   4   4   8   1
#     4   9  17  30  51  81 114 146 182 221 270 339
#     4   9  16  25  42  70  97 121 154 197 250 314
#     4  10  19  34  58  92 130 161 190 238 304 363
#     4  10  18  30  50  72  96 126 165 212 258 311
#     4  12  24  40  64  89 121 166 212 258 305 357
#     4   9  16  30  51  74  95 121 163 212 261 307
#     4  10  20  33  48  71 105 142 173 208 261 324
#     4  12  26  48  58  82 120 164 222 270 300 352
#
# _framework density 18.233825
#
# number of rings (size 3 to 8) (size 9 to 14) (size 15 to 20)
#    0.000    2.133    1.778    2.533    0.000    6.044 
#    0.000    0.889    0.000    3.200    0.000    3.733 
#    0.000    0.000    0.000    0.000    0.000    0.000 
#
# Total GULP energy -250609.474121 kJ/mol
# GULP energy per Si atom -5569.099425 kJ/mol
# Density = 1.819232 g / cm^3
# Si number density = 18.233825 Si / 1000 Ang^3
#
#
#
# Elastic Constant Matrix: (Units=GPa)
#
#
# Indices 1 2 3 4 5 6 
#
# 1 66.7060 18.4801 25.0009 0.0000 0.0000 0.0000
# 2 18.4801 140.9845 57.8667 0.0000 0.0000 0.0000
# 3 25.0009 57.8667 106.8895 0.0000 0.0000 0.0000
# 4 0.0000 0.0000 0.0000 -12.4235 0.0000 0.0000
# 5 0.0000 0.0000 0.0000 0.0000 13.4871 0.0000
# 6 0.0000 0.0000 0.0000 0.0000 0.0000 70.0009
#
#
#
# Elastic Compliance Matrix: (Units=1/GPa)
#
#
# Indices 1 2 3 4 5 6 
#
# 1 0.016492 -0.000744 -0.003455 0.000000 0.000000 0.000000
# 2 -0.000744 0.009153 -0.004781 0.000000 0.000000 0.000000
# 3 -0.003455 -0.004781 0.012752 0.000000 0.000000 0.000000
# 4 0.000000 0.000000 0.000000 -0.080493 0.000000 0.000000
# 5 0.000000 0.000000 0.000000 0.000000 0.074145 0.000000
# 6 0.000000 0.000000 0.000000 0.000000 0.000000 0.014286
#
#
# Mechanical properties :
#
#
# Convention : Reuss Voigt Hill
#
# Bulk Modulus (GPa) = 48.92973 57.47505 53.20239
# Shear Modulus (GPa) = 70.31719 28.42838 49.37278
#
# Velocity S-wave (km/s) = 6.21674 3.95283 5.20926
# Velocity P-wave (km/s) = 8.85570 7.24035 8.08845
#
# Compressibility (1/GPa) = 0.02043747
#
# Stress axis : x y z
#
# Youngs Moduli (GPa) = 60.63541 109.25531 78.41996
#
# Poissons Ratio (x) = 0.08126 0.27092
# Poissons Ratio (y) = 0.04510 0.37494
# Poissons Ratio (z) = 0.20948 0.52236
#
# Static dielectric constant tensor:
#      x y z
#    x 1.661690 0.000000 0.000000 
#    y 0.000000 1.641880 0.000000 
#    z 0.000000 0.000000 1.622480 
# 
# From -- ./inp_files/15367.got.cif
#   From: 2010.05.17/outbox.cif.g08.bks.cpg/sg47_8_cif.got.tgz:15367.got - 2010.06.03 20:15:42.
