data_PCOD9382252
_publ_section_title
;
Structure prediction by ZEFSAII (Michael W. Deem and Ramdas Pophale) SiO2 
 PCOD9382252
Probable space group: P M M M
;
_chemical_formula_sum "Si O2"
_cell_formula_units_Z 52
_cell_length_a 29.900401
_cell_length_b 8.152966
_cell_length_c 12.169899
_cell_angle_alpha 90.000000
_cell_angle_beta 90.000000
_cell_angle_gamma 90.000000
_cell_volume 2966.740893
_symmetry_space_group_name_H-M "P M M M"
_symmetry_group_IT_number 47
_symmetry_cell_setting 'orthorhombic'
loop_
_space_group_symop_operation_xyz
x,y,z
-x,-y,z
x,-y,-z
-x,y,-z
-x,-y,-z
x,y,-z
-x,y,z
x,-y,z
loop_
_atom_site_type_symbol
_atom_site_label
_atom_site_fract_x
_atom_site_fract_y
_atom_site_fract_z
Si Si1 0.050797 0.500000 0.632712
Si Si2 0.209829 0.803799 0.274647
Si Si3 0.249509 0.188388 0.500000
Si Si4 0.368010 0.810698 0.275337
Si Si5 0.713852 0.305651 0.125457
Si Si6 0.656173 0.681633 0.500000
Si Si7 0.550573 0.698043 0.872017
Si Si8 0.113044 0.191696 0.368358
O O1 0.048606 0.500000 0.500000
O O2 0.077313 0.667546 0.660507
O O3 0.000000 0.500000 0.675123
O O4 0.232272 0.737267 0.386850
O O5 0.236799 0.727658 0.173822
O O6 0.157258 0.779923 0.295103
O O7 0.217470 0.000000 0.267593
O O8 0.302553 0.194110 0.500000
O O9 0.232841 0.000000 0.500000
O O10 0.323147 0.770932 0.206238
O O11 0.369895 0.707743 0.387324
O O12 0.410662 0.773592 0.200478
O O13 0.366924 0.000000 0.306215
O O14 0.705724 0.500000 0.125134
O O15 0.709472 0.244998 0.000000
O O16 0.676188 0.500000 0.500000
O O17 0.500000 0.745709 0.839661
O O18 0.553459 0.500000 0.865335
O O19 0.556741 0.742456 0.000000
O O20 0.123944 0.208602 0.500000
O O21 0.098970 0.000000 0.354119
#
# Coordination Sequence:
#
# PCOD9382252 Si02
#       8
#     4   8   4   8   8   4   8   8
#     4   9  18  30  44  70 103 141 187 225 263 319
#     4  10  19  32  52  76 106 138 178 224 267 319
#     4  10  18  32  52  77 105 135 172 221 265 307
#     4  12  24  38  57  81 111 142 176 221 267 316
#     4  11  24  38  52  75 108 145 183 220 263 319
#     4  12  24  38  55  79 106 140 183 220 263 317
#     4   9  19  38  63  87 110 138 175 220 268 319
#     4   9  17  30  47  71 103 139 177 222 273 323
#
# _framework density 17.527650999999999
#
# number of rings (size 3 to 8) (size 9 to 14) (size 15 to 20)
#    0.000    1.769    2.308    3.462    1.077    4.000 
#    0.000    2.692    0.000    2.308    0.000    0.000 
#    0.000    1.231    0.000    3.385    0.000    0.154 
#
# Total GULP energy -290079.526062 kJ/mol
# GULP energy per Si atom -5578.452424 kJ/mol
# Density = 1.748776 g / cm^3
# Si number density = 17.527651 Si / 1000 Ang^3
#
#
#
# Elastic Constant Matrix: (Units=GPa)
#
#
# Indices 1 2 3 4 5 6 
#
# 1 95.4593 34.1498 32.4136 0.0000 0.0000 0.0000
# 2 34.1498 55.3471 18.7500 0.0000 0.0000 0.0000
# 3 32.4136 18.7500 74.1039 0.0000 0.0000 0.0000
# 4 0.0000 0.0000 0.0000 15.9126 0.0000 0.0000
# 5 0.0000 0.0000 0.0000 0.0000 7.9774 0.0000
# 6 0.0000 0.0000 0.0000 0.0000 0.0000 41.8766
#
#
#
# Elastic Compliance Matrix: (Units=1/GPa)
#
#
# Indices 1 2 3 4 5 6 
#
# 1 0.014711 -0.007544 -0.004526 0.000000 0.000000 0.000000
# 2 -0.007544 0.023630 -0.002679 0.000000 0.000000 0.000000
# 3 -0.004526 -0.002679 0.016152 0.000000 0.000000 0.000000
# 4 0.000000 0.000000 0.000000 0.062843 0.000000 0.000000
# 5 0.000000 0.000000 0.000000 0.000000 0.125355 0.000000
# 6 0.000000 0.000000 0.000000 0.000000 0.000000 0.023880
#
#
# Mechanical properties :
#
#
# Convention : Reuss Voigt Hill
#
# Bulk Modulus (GPa) = 40.00740 43.94857 41.97799
# Shear Modulus (GPa) = 16.42570 22.45976 19.44273
#
# Velocity S-wave (km/s) = 3.06458 3.58353 3.33417
# Velocity P-wave (km/s) = 5.94954 6.50004 6.23088
#
# Compressibility (1/GPa) = 0.02499538
#
# Stress axis : x y z
#
# Youngs Moduli (GPa) = 67.97534 42.31907 61.91097
#
# Poissons Ratio (x) = 0.31924 0.28021
# Poissons Ratio (y) = 0.51279 0.16588
# Poissons Ratio (z) = 0.30766 0.11338
#
# Static dielectric constant tensor:
#      x y z
#    x 1.587520 0.000000 0.000000 
#    y 0.000000 1.618530 0.000000 
#    z 0.000000 0.000000 1.601350 
# 
# From -- ./inp_files/19919.got.cif
#   From: 2010.05.17/outbox.cif.g08.bks.cpg/sg47_10_cif.got.tgz:19919.got - 2010.06.03 20:15:42.
