data_PCOD9382455
_publ_section_title
;
Structure prediction by ZEFSAII (Michael W. Deem and Ramdas Pophale) SiO2 
 PCOD9382455
Probable space group: P M M M
;
_chemical_formula_sum "Si O2"
_cell_formula_units_Z 64
_cell_length_a 22.014457
_cell_length_b 14.930937
_cell_length_c 9.335566
_cell_angle_alpha 90.000000
_cell_angle_beta 90.000000
_cell_angle_gamma 90.000000
_cell_volume 3068.567595
_symmetry_space_group_name_H-M "P M M M"
_symmetry_group_IT_number 47
_symmetry_cell_setting 'orthorhombic'
loop_
_space_group_symop_operation_xyz
x,y,z
-x,-y,z
x,-y,-z
-x,y,-z
-x,-y,-z
x,y,-z
-x,y,z
x,-y,z
loop_
_atom_site_type_symbol
_atom_site_label
_atom_site_fract_x
_atom_site_fract_y
_atom_site_fract_z
Si Si1 0.303427 0.638439 0.335859
Si Si2 0.196412 0.142475 0.836954
Si Si3 0.686580 0.857800 0.334380
Si Si4 0.565889 0.345391 0.328595
Si Si5 0.188217 0.354819 0.840234
Si Si6 0.932677 0.391953 0.665052
Si Si7 0.567406 0.154187 0.171187
Si Si8 0.064784 0.107369 0.834292
O O1 0.291505 0.613760 0.500000
O O2 0.309108 0.747941 0.330956
O O3 0.370906 0.606334 0.293660
O O4 0.246853 0.607901 0.241874
O O5 0.252797 0.109304 0.744650
O O6 0.201592 0.249172 0.849289
O O7 0.129922 0.128371 0.768555
O O8 0.197212 0.105719 0.000000
O O9 0.684189 0.883920 0.500000
O O10 0.625706 0.886063 0.250851
O O11 0.570037 0.323009 0.500000
O O12 0.500000 0.390174 0.308497
O O13 0.564750 0.255122 0.234652
O O14 0.124882 0.364411 0.757648
O O15 0.182493 0.391210 0.000000
O O16 0.925535 0.361987 0.500000
O O17 0.933092 0.500000 0.663853
O O18 0.000000 0.363052 0.716533
O O19 0.500000 0.114769 0.198880
O O20 0.576862 0.155209 0.000000
O O21 0.000000 0.138277 0.771263
O O22 0.062376 0.000000 0.840231
O O23 0.066988 0.140654 0.000000
#
# Coordination Sequence:
#
# PCOD9382455 Si02
#       8
#     8   8   8   8   8   8   8   8
#     4   8  14  24  37  53  78 113 147 178 212 252
#     4   9  17  28  43  65  92 118 145 181 221 258
#     4   9  16  25  37  53  77 111 147 180 215 257
#     4   8  13  21  33  50  74 107 146 182 215 253
#     4  10  19  28  42  66  93 118 143 177 220 261
#     4   9  19  36  54  68  84 110 143 177 214 259
#     4   9  15  21  31  49  74 105 140 177 217 259
#     4   8  14  26  45  67  89 115 148 183 217 255
#
# _framework density 20.856636000000002
#
# number of rings (size 3 to 8) (size 9 to 14) (size 15 to 20)
#    0.000    3.250    0.000    2.625    0.000    5.250 
#    0.000    1.875    0.000    0.750    0.000    0.875 
#    0.000    1.000    0.000   11.500    0.000   11.500 
#
# Total GULP energy -356461.375246 kJ/mol
# GULP energy per Si atom -5569.708988 kJ/mol
# Density = 2.080917 g / cm^3
# Si number density = 20.856636 Si / 1000 Ang^3
#
#
#
# Elastic Constant Matrix: (Units=GPa)
#
#
# Indices 1 2 3 4 5 6 
#
# 1 270.5294 5.3831 112.9828 0.0000 0.0000 0.0000
# 2 5.3831 44.5765 4.5129 0.0000 0.0000 0.0000
# 3 112.9828 4.5129 99.1597 0.0000 0.0000 0.0000
# 4 0.0000 0.0000 0.0000 -7.9085 0.0000 0.0000
# 5 0.0000 0.0000 0.0000 0.0000 24.0606 0.0000
# 6 0.0000 0.0000 0.0000 0.0000 0.0000 92.7352
#
#
#
# Elastic Compliance Matrix: (Units=1/GPa)
#
#
# Indices 1 2 3 4 5 6 
#
# 1 0.007052 -0.000038 -0.008034 0.000000 0.000000 0.000000
# 2 -0.000038 0.022537 -0.000982 0.000000 0.000000 0.000000
# 3 -0.008034 -0.000982 0.019283 0.000000 0.000000 0.000000
# 4 0.000000 0.000000 0.000000 -0.126446 0.000000 0.000000
# 5 0.000000 0.000000 0.000000 0.000000 0.041562 0.000000
# 6 0.000000 0.000000 0.000000 0.000000 0.000000 0.010783
#
#
# Mechanical properties :
#
#
# Convention : Reuss Voigt Hill
#
# Bulk Modulus (GPa) = 32.50485 73.33592 52.92039
# Shear Modulus (GPa) = 1594.98238 41.20326 818.09282
#
# Velocity S-wave (km/s) = 27.68386 4.44953 19.82668
# Velocity P-wave (km/s) = 32.20994 7.85086 23.44266
#
# Compressibility (1/GPa) = 0.03076464
#
# Stress axis : x y z
#
# Youngs Moduli (GPa) = 141.79519 44.37075 51.85866
#
# Poissons Ratio (x) = 0.00170 0.41662
# Poissons Ratio (y) = 0.00543 0.05093
# Poissons Ratio (z) = 1.13916 0.04357
#
# Static dielectric constant tensor:
#      x y z
#    x 1.800520 0.000000 0.000000 
#    y 0.000000 1.790780 0.000000 
#    z 0.000000 0.000000 1.714790 
# 
# From -- ./inp_files/11883.got.cif
#   From: 2010.05.17/outbox.cif.g08.bks.cpg/sg47_6_cif.got.tgz:11883.got - 2010.06.03 20:15:42.
