data_PCOD9382520
_publ_section_title
;
Structure prediction by ZEFSAII (Michael W. Deem and Ramdas Pophale) SiO2 
 PCOD9382520
Probable space group: P M M M
;
_chemical_formula_sum "Si O2"
_cell_formula_units_Z 52
_cell_length_a 13.934235
_cell_length_b 27.146693
_cell_length_c 9.117148
_cell_angle_alpha 90.000000
_cell_angle_beta 90.000000
_cell_angle_gamma 90.000000
_cell_volume 3448.728984
_symmetry_space_group_name_H-M "P M M M"
_symmetry_group_IT_number 47
_symmetry_cell_setting 'orthorhombic'
loop_
_space_group_symop_operation_xyz
x,y,z
-x,-y,z
x,-y,-z
-x,y,-z
-x,-y,-z
x,y,-z
-x,y,z
x,-y,z
loop_
_atom_site_type_symbol
_atom_site_label
_atom_site_fract_x
_atom_site_fract_y
_atom_site_fract_z
Si Si1 0.117020 0.500000 0.330423
Si Si2 0.789029 0.205253 0.175001
Si Si3 0.116725 0.599810 0.169075
Si Si4 0.885113 0.298765 0.326044
Si Si5 0.109685 0.101752 0.824487
Si Si6 0.289998 0.945285 0.676222
Si Si7 0.610351 0.844153 0.676596
O O1 0.146483 0.500000 0.500000
O O2 0.148370 0.549674 0.248393
O O3 0.000000 0.500000 0.328503
O O4 0.831828 0.253613 0.249400
O O5 0.857971 0.158139 0.204875
O O6 0.686400 0.190505 0.242518
O O7 0.783013 0.211325 0.000000
O O8 0.144620 0.649127 0.255265
O O9 0.000000 0.598873 0.169497
O O10 0.147720 0.601339 0.000000
O O11 0.867754 0.299031 0.500000
O O12 0.000000 0.293315 0.302957
O O13 0.187051 0.067499 0.745524
O O14 0.000000 0.093625 0.778245
O O15 0.115674 0.094379 0.000000
O O16 0.281442 0.944634 0.500000
O O17 0.360663 0.900465 0.715925
O O18 0.321804 0.000000 0.720876
O O19 0.621222 0.839156 0.500000
O O20 0.500000 0.834456 0.714290
#
# Coordination Sequence:
#
# PCOD9382520 Si02
#       7
#     4   8   8   8   8   8   8
#     4   9  15  23  35  51  75 109 150 193 230 261
#     4  10  19  31  47  65  86 111 141 178 217 259
#     4   9  16  25  37  54  78 111 151 190 225 260
#     4  10  19  29  42  62  88 117 149 184 221 260
#     4   9  18  31  45  61  83 113 145 173 205 248
#     4   9  18  31  46  66  89 110 136 171 209 250
#     4   9  18  33  51  68  86 109 137 170 212 262
#
# _framework density 15.078018
#
# number of rings (size 3 to 8) (size 9 to 14) (size 15 to 20)
#    0.000    2.692    0.000    2.077    0.000    6.462 
#    0.000    3.077    0.000    0.000    0.000    4.308 
#    0.000    0.000    0.000    0.692    0.000   12.846 
#
# Total GULP energy -289846.392002 kJ/mol
# GULP energy per Si atom -5573.969077 kJ/mol
# Density = 1.504370 g / cm^3
# Si number density = 15.078018 Si / 1000 Ang^3
#
#
#
# Elastic Constant Matrix: (Units=GPa)
#
#
# Indices 1 2 3 4 5 6 
#
# 1 45.6877 18.3139 28.2563 0.0000 0.0000 0.0000
# 2 18.3139 115.1263 57.8771 0.0000 0.0000 0.0000
# 3 28.2563 57.8771 68.1708 0.0000 0.0000 0.0000
# 4 0.0000 0.0000 0.0000 26.8257 0.0000 0.0000
# 5 0.0000 0.0000 0.0000 0.0000 16.8360 0.0000
# 6 0.0000 0.0000 0.0000 0.0000 0.0000 9.9780
#
#
#
# Elastic Compliance Matrix: (Units=1/GPa)
#
#
# Indices 1 2 3 4 5 6 
#
# 1 0.029862 0.002568 -0.014558 0.000000 0.000000 0.000000
# 2 0.002568 0.015375 -0.014118 0.000000 0.000000 0.000000
# 3 -0.014558 -0.014118 0.032690 0.000000 0.000000 0.000000
# 4 0.000000 0.000000 0.000000 0.037278 0.000000 0.000000
# 5 0.000000 0.000000 0.000000 0.000000 0.059396 0.000000
# 6 0.000000 0.000000 0.000000 0.000000 0.000000 0.100220
#
#
# Mechanical properties :
#
#
# Convention : Reuss Voigt Hill
#
# Bulk Modulus (GPa) = 38.89390 48.65326 43.77358
# Shear Modulus (GPa) = 14.89839 19.03046 16.96442
#
# Velocity S-wave (km/s) = 3.14679 3.55650 3.35790
# Velocity P-wave (km/s) = 6.24934 7.01446 6.64292
#
# Compressibility (1/GPa) = 0.02571097
#
# Stress axis : x y z
#
# Youngs Moduli (GPa) = 33.48756 65.04031 30.59083
#
# Poissons Ratio (x) = -0.16705 0.44534
# Poissons Ratio (y) = -0.08601 0.43188
# Poissons Ratio (z) = 0.48752 0.91824
#
# Static dielectric constant tensor:
#      x y z
#    x 1.467500 0.000000 0.000000 
#    y 0.000000 1.496630 0.000000 
#    z 0.000000 0.000000 1.501200 
# 
# From -- ./inp_files/7586.got.cif
#   From: 2010.05.17/outbox.cif.g08.bks.cpg/sg47_4_cif.got.tgz:7586.got - 2010.06.03 20:15:42.
