data_PCOD9382716
_publ_section_title
;
Structure prediction by ZEFSAII (Michael W. Deem and Ramdas Pophale) SiO2 
 PCOD9382716
Probable space group: P M M M
;
_chemical_formula_sum "Si O2"
_cell_formula_units_Z 44
_cell_length_a 14.125955
_cell_length_b 8.675857
_cell_length_c 22.070365
_cell_angle_alpha 90.000000
_cell_angle_beta 90.000000
_cell_angle_gamma 90.000000
_cell_volume 2704.828409
_symmetry_space_group_name_H-M "P M M M"
_symmetry_group_IT_number 47
_symmetry_cell_setting 'orthorhombic'
loop_
_space_group_symop_operation_xyz
x,y,z
-x,-y,z
x,-y,-z
-x,y,-z
-x,-y,-z
x,y,-z
-x,y,z
x,-y,z
loop_
_atom_site_type_symbol
_atom_site_label
_atom_site_fract_x
_atom_site_fract_y
_atom_site_fract_z
Si Si1 0.605756 0.812475 0.188344
Si Si2 0.885165 0.178189 0.500000
Si Si3 0.796750 0.185106 0.252047
Si Si4 0.711881 0.813758 0.067865
Si Si5 0.888818 0.315796 0.371593
Si Si6 0.107760 0.684928 0.867056
O O1 0.500000 0.757232 0.201966
O O2 0.689626 0.767170 0.234065
O O3 0.640064 0.765088 0.121060
O O4 0.603573 0.000000 0.188697
O O5 0.855688 0.258976 0.437635
O O6 0.000000 0.184570 0.500000
O O7 0.856513 0.000000 0.500000
O O8 0.830084 0.243000 0.317038
O O9 0.863305 0.254139 0.199432
O O10 0.802230 0.000000 0.249173
O O11 0.814883 0.752814 0.087139
O O12 0.714562 0.000000 0.068936
O O13 0.686453 0.764149 0.000000
O O14 0.883603 0.500000 0.368780
O O15 0.000000 0.271458 0.364579
O O16 0.113760 0.500000 0.867299
O O17 0.000000 0.730047 0.881301
#
# Coordination Sequence:
#
# PCOD9382716 Si02
#       6
#     8   4   8   8   8   8
#     4   8  15  29  48  69  91 113 142 185 233 277
#     4   9  17  29  45  67  96 129 164 197 223 252
#     4  10  19  30  47  70  92 117 152 191 229 269
#     4   9  18  31  47  68  90 113 145 184 226 273
#     4  10  19  30  45  67  98 133 162 187 220 263
#     4  10  20  32  45  62  87 120 154 186 223 268
#
# _framework density 16.267205000000001
#
# number of rings (size 3 to 8) (size 9 to 14) (size 15 to 20)
#    0.000    2.636    0.000    3.545    0.000    6.909 
#    0.000    3.636    0.000   13.636    0.000    5.727 
#    0.000    5.091    0.000    0.000    0.000    0.000 
#
# Total GULP energy -245287.101552 kJ/mol
# GULP energy per Si atom -5574.706853 kJ/mol
# Density = 1.623018 g / cm^3
# Si number density = 16.267205 Si / 1000 Ang^3
#
#
#
# Elastic Constant Matrix: (Units=GPa)
#
#
# Indices 1 2 3 4 5 6 
#
# 1 78.2427 10.2785 29.9613 0.0000 0.0000 0.0000
# 2 10.2785 18.1847 16.2008 0.0000 0.0000 0.0000
# 3 29.9613 16.2008 107.5621 0.0000 0.0000 0.0000
# 4 0.0000 0.0000 0.0000 15.4290 0.0000 0.0000
# 5 0.0000 0.0000 0.0000 0.0000 9.3215 0.0000
# 6 0.0000 0.0000 0.0000 0.0000 0.0000 -5.0484
#
#
#
# Elastic Compliance Matrix: (Units=1/GPa)
#
#
# Indices 1 2 3 4 5 6 
#
# 1 0.014752 -0.005402 -0.003296 0.000000 0.000000 0.000000
# 2 -0.005402 0.065492 -0.008359 0.000000 0.000000 0.000000
# 3 -0.003296 -0.008359 0.011474 0.000000 0.000000 0.000000
# 4 0.000000 0.000000 0.000000 0.064813 0.000000 0.000000
# 5 0.000000 0.000000 0.000000 0.000000 0.107279 0.000000
# 6 0.000000 0.000000 0.000000 0.000000 0.000000 -0.198084
#
#
# Mechanical properties :
#
#
# Convention : Reuss Voigt Hill
#
# Bulk Modulus (GPa) = 17.35993 35.20784 26.28388
# Shear Modulus (GPa) = 42.00130 13.77702 27.88916
#
# Velocity S-wave (km/s) = 5.08681 2.91335 4.14507
# Velocity P-wave (km/s) = 6.72278 5.74519 6.25312
#
# Compressibility (1/GPa) = 0.05760392
#
# Stress axis : x y z
#
# Youngs Moduli (GPa) = 67.78561 15.26894 87.15344
#
# Poissons Ratio (x) = 0.08249 0.28722
# Poissons Ratio (y) = 0.36621 0.72856
# Poissons Ratio (z) = 0.22339 0.12764
#
# Static dielectric constant tensor:
#      x y z
#    x 1.539320 0.000000 0.000000 
#    y 0.000000 1.547840 0.000000 
#    z 0.000000 0.000000 1.536220 
# 
# From -- ./inp_files/29445.got.cif
#   From: 2010.05.17/outbox.cif.g08.bks.cpg/sg47_15_cif.got.tgz:29445.got - 2010.06.03 20:15:42.
