data_PCOD9382885
_publ_section_title
;
Structure prediction by ZEFSAII (Michael W. Deem and Ramdas Pophale) SiO2 
 PCOD9382885
Probable space group: P M M M
;
_chemical_formula_sum "Si O2"
_cell_formula_units_Z 44
_cell_length_a 15.877649
_cell_length_b 7.633662
_cell_length_c 17.200124
_cell_angle_alpha 90.000000
_cell_angle_beta 90.000000
_cell_angle_gamma 90.000000
_cell_volume 2084.734249
_symmetry_space_group_name_H-M "P M M M"
_symmetry_group_IT_number 47
_symmetry_cell_setting 'orthorhombic'
loop_
_space_group_symop_operation_xyz
x,y,z
-x,-y,z
x,-y,-z
-x,y,-z
-x,-y,-z
x,y,-z
-x,y,z
x,-y,z
loop_
_atom_site_type_symbol
_atom_site_label
_atom_site_fract_x
_atom_site_fract_y
_atom_site_fract_z
Si Si1 0.089488 0.704775 0.906729
Si Si2 0.270126 0.702796 0.869756
Si Si3 0.096563 0.786442 0.589514
Si Si4 0.595040 0.205068 0.000000
Si Si5 0.408515 0.786496 0.589479
Si Si6 0.253165 0.787239 0.692371
O O1 0.089557 0.500000 0.881173
O O2 0.178647 0.788357 0.885858
O O3 0.000000 0.781732 0.878790
O O4 0.087352 0.704509 0.000000
O O5 0.260508 0.500000 0.890944
O O6 0.347643 0.758864 0.923754
O O7 0.277848 0.723844 0.777821
O O8 0.118262 0.734914 0.500000
O O9 0.164661 0.729282 0.653752
O O10 0.000000 0.731650 0.605087
O O11 0.097466 0.000000 0.589812
O O12 0.500000 0.285229 0.000000
O O13 0.583509 0.000000 0.000000
O O14 0.403051 0.732407 0.500000
O O15 0.500000 0.731992 0.620864
O O16 0.328089 0.727965 0.636332
O O17 0.407333 0.000000 0.590190
O O18 0.251271 0.000000 0.694769
#
# Coordination Sequence:
#
# PCOD9382885 Si02
#       6
#     8   8   8   4   8   8
#     4   8  14  28  52  77  99 129 170 210 247 294
#     4  11  22  37  57  82 111 143 178 218 265 324
#     4   8  14  26  46  73 106 146 191 235 276 316
#     4  11  25  45  66  83 102 134 177 225 276 327
#     4   8  14  26  46  71  96 124 164 213 259 304
#     4  10  19  30  48  76 107 138 173 220 270 317
#
# _framework density 21.105808
#
# number of rings (size 3 to 8) (size 9 to 14) (size 15 to 20)
#    0.000    2.818    0.909    3.000    0.000    4.364 
#    0.000    1.818    0.000    4.364    0.000    2.545 
#    0.000    0.000    0.000    0.000    0.000    0.000 
#
# Total GULP energy -245138.548225 kJ/mol
# GULP energy per Si atom -5571.330641 kJ/mol
# Density = 2.105777 g / cm^3
# Si number density = 21.105808 Si / 1000 Ang^3
#
#
#
# Elastic Constant Matrix: (Units=GPa)
#
#
# Indices 1 2 3 4 5 6 
#
# 1 209.6541 14.3960 92.6994 0.0000 0.0000 0.0000
# 2 14.3960 45.3100 -3.0250 0.0000 0.0000 0.0000
# 3 92.6994 -3.0250 104.0279 0.0000 0.0000 0.0000
# 4 0.0000 0.0000 0.0000 20.2996 0.0000 0.0000
# 5 0.0000 0.0000 0.0000 0.0000 -5.3130 0.0000
# 6 0.0000 0.0000 0.0000 0.0000 0.0000 -12.4274
#
#
#
# Elastic Compliance Matrix: (Units=1/GPa)
#
#
# Indices 1 2 3 4 5 6 
#
# 1 0.008293 -0.003134 -0.007481 0.000000 0.000000 0.000000
# 2 -0.003134 0.023298 0.003470 0.000000 0.000000 0.000000
# 3 -0.007481 0.003470 0.016380 0.000000 0.000000 0.000000
# 4 0.000000 0.000000 0.000000 0.049262 0.000000 0.000000
# 5 0.000000 0.000000 0.000000 0.000000 -0.188218 0.000000
# 6 0.000000 0.000000 0.000000 0.000000 0.000000 -0.080467
#
#
# Mechanical properties :
#
#
# Convention : Reuss Voigt Hill
#
# Bulk Modulus (GPa) = 29.69031 63.01474 46.35253
# Shear Modulus (GPa) = -34.26130 17.50661 -8.37735
#
# Velocity S-wave (km/s) = -4.03341 2.88317 -1.99445
# Velocity P-wave (km/s) = 2.75558 6.40351 4.08728
#
# Compressibility (1/GPa) = 0.03368102
#
# Stress axis : x y z
#
# Youngs Moduli (GPa) = 120.58969 42.92271 61.05095
#
# Poissons Ratio (x) = 0.13453 0.45670
# Poissons Ratio (y) = 0.37795 -0.21187
# Poissons Ratio (z) = 0.90209 -0.14896
#
# Static dielectric constant tensor:
#      x y z
#    x 1.846360 0.000000 0.000000 
#    y 0.000000 1.805430 0.000000 
#    z 0.000000 0.000000 1.674310 
# 
# From -- ./inp_files/9015.got.cif
#   From: 2010.05.17/outbox.cif.g08.bks.cpg/sg47_5_cif.got.tgz:9015.got - 2010.06.03 20:15:42.
