data_PCOD9382174
_publ_section_title
;
Structure prediction by ZEFSAII (Michael W. Deem and Ramdas Pophale) SiO2 
 PCOD9382174
Probable space group: P M M M
;
_chemical_formula_sum "Si O2"
_cell_formula_units_Z 40
_cell_length_a 11.637971
_cell_length_b 7.593684
_cell_length_c 22.261735
_cell_angle_alpha 90.000000
_cell_angle_beta 90.000000
_cell_angle_gamma 90.000000
_cell_volume 1967.382482
_symmetry_space_group_name_H-M "P M M M"
_symmetry_group_IT_number 47
_symmetry_cell_setting 'orthorhombic'
loop_
_space_group_symop_operation_xyz
x,y,z
-x,-y,z
x,-y,-z
-x,y,-z
-x,-y,-z
x,y,-z
-x,y,z
x,-y,z
loop_
_atom_site_type_symbol
_atom_site_label
_atom_site_fract_x
_atom_site_fract_y
_atom_site_fract_z
Si Si1 0.500000 0.715406 0.569637
Si Si2 0.260649 0.712235 0.619199
Si Si3 0.872698 0.793240 0.737988
Si Si4 0.371618 0.713221 0.071196
Si Si5 0.131252 0.297361 0.126214
Si Si6 0.130597 0.715138 0.500000
O O1 0.500000 0.500000 0.567798
O O2 0.500000 0.771586 0.500000
O O3 0.388272 0.773046 0.604967
O O4 0.258875 0.500000 0.617596
O O5 0.213308 0.763296 0.683703
O O6 0.187828 0.774878 0.561854
O O7 0.851439 0.703772 0.801812
O O8 0.000000 0.737604 0.716740
O O9 0.874797 0.000000 0.751398
O O10 0.500000 0.773811 0.092748
O O11 0.371890 0.500000 0.079486
O O12 0.250281 0.779324 0.099029
O O13 0.367646 0.748257 0.000000
O O14 0.126044 0.500000 0.104983
O O15 0.000000 0.223816 0.115365
O O16 0.137443 0.500000 0.500000
O O17 0.000000 0.768377 0.500000
#
# Coordination Sequence:
#
# PCOD9382174 Si02
#       6
#     4   8   8   8   8   4
#     4   9  16  30  51  75  99 123 152 193 244 293
#     4  10  18  31  52  74  97 124 158 198 240 291
#     4  10  21  36  51  68  96 132 165 201 247 292
#     4   8  14  26  46  74 106 133 157 194 245 292
#     4   9  17  30  50  75 100 128 165 205 242 286
#     4   9  16  25  44  74  97 115 148 195 240 282
#
# _framework density 20.331582000000001
#
# number of rings (size 3 to 8) (size 9 to 14) (size 15 to 20)
#    0.000    2.800    1.000    1.800    0.000    2.400 
#    1.800    3.000    0.000    3.000    0.000    4.200 
#    0.000    0.000    0.000    0.000    0.000    0.000 
#
# Total GULP energy -222836.152899 kJ/mol
# GULP energy per Si atom -5570.903822 kJ/mol
# Density = 2.028531 g / cm^3
# Si number density = 20.331582 Si / 1000 Ang^3
#
#
#
# Elastic Constant Matrix: (Units=GPa)
#
#
# Indices 1 2 3 4 5 6 
#
# 1 219.1418 8.5383 81.1809 0.0000 0.0000 0.0000
# 2 8.5383 43.7384 -0.3813 0.0000 0.0000 0.0000
# 3 81.1809 -0.3813 64.0201 0.0000 0.0000 0.0000
# 4 0.0000 0.0000 0.0000 -86.4397 0.0000 0.0000
# 5 0.0000 0.0000 0.0000 0.0000 47.3328 0.0000
# 6 0.0000 0.0000 0.0000 0.0000 0.0000 -0.7309
#
#
#
# Elastic Compliance Matrix: (Units=1/GPa)
#
#
# Indices 1 2 3 4 5 6 
#
# 1 0.008746 -0.001804 -0.011101 0.000000 0.000000 0.000000
# 2 -0.001804 0.023237 0.002426 0.000000 0.000000 0.000000
# 3 -0.011101 0.002426 0.029711 0.000000 0.000000 0.000000
# 4 0.000000 0.000000 0.000000 -0.011569 0.000000 0.000000
# 5 0.000000 0.000000 0.000000 0.000000 0.021127 0.000000
# 6 0.000000 0.000000 0.000000 0.000000 0.000000 -1.368221
#
#
# Mechanical properties :
#
#
# Convention : Reuss Voigt Hill
#
# Bulk Modulus (GPa) = 24.54857 56.17512 40.36184
# Shear Modulus (GPa) = -3.96061 7.86994 1.95467
#
# Velocity S-wave (km/s) = -1.39722 1.96957 0.98157
# Velocity P-wave (km/s) = 3.08177 5.73252 4.60212
#
# Compressibility (1/GPa) = 0.04073557
#
# Stress axis : x y z
#
# Youngs Moduli (GPa) = 114.33921 43.03567 33.65732
#
# Poissons Ratio (x) = 0.07764 0.37363
# Poissons Ratio (y) = 0.20628 -0.08165
# Poissons Ratio (z) = 1.26928 -0.10441
#
# Static dielectric constant tensor:
#      x y z
#    x 1.754720 0.000000 0.000000 
#    y 0.000000 1.769000 0.000000 
#    z 0.000000 0.000000 1.668840 
# 
# From -- ./inp_files/10704.got.cif
#   From: 2010.05.17/outbox.cif.g08.bks.cpg/sg47_6_cif.got.tgz:10704.got - 2010.06.03 20:15:42.
