data_PCOD9382179
_publ_section_title
;
Structure prediction by ZEFSAII (Michael W. Deem and Ramdas Pophale) SiO2 
 PCOD9382179
Probable space group: P M M M
;
_chemical_formula_sum "Si O2"
_cell_formula_units_Z 64
_cell_length_a 7.526118
_cell_length_b 20.557818
_cell_length_c 20.967192
_cell_angle_alpha 90.000000
_cell_angle_beta 90.000000
_cell_angle_gamma 90.000000
_cell_volume 3244.055774
_symmetry_space_group_name_H-M "P M M M"
_symmetry_group_IT_number 47
_symmetry_cell_setting 'orthorhombic'
loop_
_space_group_symop_operation_xyz
x,y,z
-x,-y,z
x,-y,-z
-x,y,-z
-x,-y,-z
x,y,-z
-x,y,z
x,-y,z
loop_
_atom_site_type_symbol
_atom_site_label
_atom_site_fract_x
_atom_site_fract_y
_atom_site_fract_z
Si Si1 0.286182 0.574637 0.929210
Si Si2 0.213666 0.108013 0.747205
Si Si3 0.782586 0.786017 0.569349
Si Si4 0.704013 0.070685 0.888205
Si Si5 0.783648 0.069867 0.606213
Si Si6 0.784688 0.745491 0.706030
Si Si7 0.211328 0.685814 0.169836
Si Si8 0.207301 0.787699 0.930821
O O1 0.500000 0.573802 0.931162
O O2 0.226046 0.500000 0.920989
O O3 0.236364 0.620915 0.871033
O O4 0.224910 0.597453 0.000000
O O5 0.290350 0.079121 0.811618
O O6 0.264469 0.074250 0.681034
O O7 0.256193 0.184080 0.737174
O O8 0.000000 0.103035 0.753220
O O9 0.727049 0.761034 0.500000
O O10 0.727068 0.861890 0.575935
O O11 0.720994 0.748545 0.632916
O O12 0.000000 0.785992 0.570532
O O13 0.500000 0.070932 0.909227
O O14 0.786785 0.135855 0.916194
O O15 0.782054 0.000000 0.904680
O O16 0.000000 0.070403 0.602713
O O17 0.724067 0.000000 0.580195
O O18 0.720936 0.692727 0.757647
O O19 0.000000 0.741855 0.701025
O O20 0.285077 0.744304 0.125765
O O21 0.000000 0.695742 0.175987
O O22 0.000000 0.769642 0.934021
O O23 0.288175 0.774441 0.000000
#
# Coordination Sequence:
#
# PCOD9382179 Si02
#       8
#     8   8   8   8   8   8   8   8
#     4   9  19  35  52  73 105 139 162 181 215 268
#     4   9  15  28  46  60  78 109 147 186 231 283
#     4   8  13  20  31  51  84 122 150 177 225 285
#     4  11  23  34  44  61  85 111 143 191 248 293
#     4   8  13  19  31  53  76 103 143 186 227 274
#     4   8  14  25  42  63  88 116 150 192 231 266
#     4  10  18  31  52  75  97 122 156 197 231 262
#     4  10  21  36  52  68  85 111 150 191 232 281
#
# _framework density 19.728391999999999
#
# number of rings (size 3 to 8) (size 9 to 14) (size 15 to 20)
#    0.000    2.875    1.250    3.000    0.000    3.750 
#    0.000    3.125    0.000    0.000    0.000    0.000 
#    0.000   13.000    0.000   33.750    0.000   24.000 
#
# Total GULP energy -356866.799297 kJ/mol
# GULP energy per Si atom -5576.043739 kJ/mol
# Density = 1.968349 g / cm^3
# Si number density = 19.728392 Si / 1000 Ang^3
#
#
#
# Elastic Constant Matrix: (Units=GPa)
#
#
# Indices 1 2 3 4 5 6 
#
# 1 46.2196 -2.6982 5.5344 0.0000 0.0000 0.0000
# 2 -2.6982 68.0205 61.8427 0.0000 0.0000 0.0000
# 3 5.5344 61.8427 164.8035 0.0000 0.0000 0.0000
# 4 0.0000 0.0000 0.0000 41.2700 0.0000 0.0000
# 5 0.0000 0.0000 0.0000 0.0000 -46.8358 0.0000
# 6 0.0000 0.0000 0.0000 0.0000 0.0000 13.7337
#
#
#
# Elastic Compliance Matrix: (Units=1/GPa)
#
#
# Indices 1 2 3 4 5 6 
#
# 1 0.021966 0.002341 -0.001616 0.000000 0.000000 0.000000
# 2 0.002341 0.022564 -0.008546 0.000000 0.000000 0.000000
# 3 -0.001616 -0.008546 0.009329 0.000000 0.000000 0.000000
# 4 0.000000 0.000000 0.000000 0.024231 0.000000 0.000000
# 5 0.000000 0.000000 0.000000 0.000000 -0.021351 0.000000
# 6 0.000000 0.000000 0.000000 0.000000 0.000000 0.072813
#
#
# Mechanical properties :
#
#
# Convention : Reuss Voigt Hill
#
# Bulk Modulus (GPa) = 26.16674 45.37795 35.77234
# Shear Modulus (GPa) = 31.65904 15.92456 23.79180
#
# Velocity S-wave (km/s) = 4.01027 2.84419 3.47647
# Velocity P-wave (km/s) = 5.89367 5.81697 5.85545
#
# Compressibility (1/GPa) = 0.03821646
#
# Stress axis : x y z
#
# Youngs Moduli (GPa) = 45.52493 44.31863 107.19388
#
# Poissons Ratio (x) = -0.10373 0.17322
# Poissons Ratio (y) = -0.10655 0.91605
# Poissons Ratio (z) = 0.07357 0.37873
#
# Static dielectric constant tensor:
#      x y z
#    x 1.739520 0.000000 0.000000 
#    y 0.000000 1.678770 0.000000 
#    z 0.000000 0.000000 1.742310 
# 
# From -- ./inp_files/30149.got.cif
#   From: 2010.05.17/outbox.cif.g08.bks.cpg/sg47_16_cif.got.tgz:30149.got - 2010.06.03 20:15:42.
