data_PCOD9382449
_publ_section_title
;
Structure prediction by ZEFSAII (Michael W. Deem and Ramdas Pophale) SiO2 
 PCOD9382449
Probable space group: P M M M
;
_chemical_formula_sum "Si O2"
_cell_formula_units_Z 44
_cell_length_a 13.896942
_cell_length_b 13.536774
_cell_length_c 16.019841
_cell_angle_alpha 90.000000
_cell_angle_beta 90.000000
_cell_angle_gamma 90.000000
_cell_volume 3013.648695
_symmetry_space_group_name_H-M "P M M M"
_symmetry_group_IT_number 47
_symmetry_cell_setting 'orthorhombic'
loop_
_space_group_symop_operation_xyz
x,y,z
-x,-y,z
x,-y,-z
-x,y,-z
-x,-y,-z
x,y,-z
-x,y,z
x,-y,z
loop_
_atom_site_type_symbol
_atom_site_label
_atom_site_fract_x
_atom_site_fract_y
_atom_site_fract_z
Si Si1 0.885658 0.240391 0.335747
Si Si2 0.741307 0.387846 0.401573
Si Si3 0.389520 0.119948 0.906284
Si Si4 0.385177 0.802707 0.596525
Si Si5 0.884180 0.888366 0.500000
Si Si6 0.736305 0.116181 0.748553
O O1 0.831359 0.343322 0.351170
O O2 0.861368 0.174576 0.418153
O O3 0.832283 0.180227 0.263449
O O4 0.000000 0.248576 0.327525
O O5 0.766580 0.387569 0.500000
O O6 0.717235 0.500000 0.378067
O O7 0.655034 0.308985 0.392101
O O8 0.500000 0.151467 0.892096
O O9 0.321223 0.149616 0.830769
O O10 0.390098 0.000000 0.905865
O O11 0.360530 0.150898 0.000000
O O12 0.362495 0.832044 0.500000
O O13 0.500000 0.807530 0.606394
O O14 0.331579 0.865301 0.667620
O O15 0.000000 0.897009 0.500000
O O16 0.844520 0.000000 0.500000
O O17 0.758268 0.000000 0.753936
#
# Coordination Sequence:
#
# PCOD9382449 Si02
#       6
#     8   8   8   8   4   8
#     4  10  19  30  41  58  83 111 147 185 217 253
#     4   9  17  29  44  60  78 105 145 189 226 255
#     4   8  14  26  44  64  84 107 139 178 216 252
#     4   9  18  30  41  58  87 117 144 173 208 257
#     4   9  16  26  39  53  74 109 147 177 205 239
#     4  10  19  28  42  62  86 117 149 179 208 246
#
# _framework density 14.600243000000001
#
# number of rings (size 3 to 8) (size 9 to 14) (size 15 to 20)
#    0.000    2.818    0.909    1.636    1.273    3.273 
#    0.000    3.636    0.000    0.545    0.000    2.545 
#    0.000   11.636    0.000   46.545    0.000    3.273 
#
# Total GULP energy -245017.960090 kJ/mol
# GULP energy per Si atom -5568.590002 kJ/mol
# Density = 1.456701 g / cm^3
# Si number density = 14.600243 Si / 1000 Ang^3
#
#
#
# Elastic Constant Matrix: (Units=GPa)
#
#
# Indices 1 2 3 4 5 6 
#
# 1 51.7322 -18.1337 14.8574 0.0000 0.0000 0.0000
# 2 -18.1337 26.0487 -6.9495 0.0000 0.0000 0.0000
# 3 14.8574 -6.9495 52.5883 0.0000 0.0000 0.0000
# 4 0.0000 0.0000 0.0000 3.4222 0.0000 0.0000
# 5 0.0000 0.0000 0.0000 0.0000 19.6021 0.0000
# 6 0.0000 0.0000 0.0000 0.0000 0.0000 12.6415
#
#
#
# Elastic Compliance Matrix: (Units=1/GPa)
#
#
# Indices 1 2 3 4 5 6 
#
# 1 0.026933 0.017330 -0.005319 0.000000 0.000000 0.000000
# 2 0.017330 0.050944 0.001836 0.000000 0.000000 0.000000
# 3 -0.005319 0.001836 0.020761 0.000000 0.000000 0.000000
# 4 0.000000 0.000000 0.000000 0.292207 0.000000 0.000000
# 5 0.000000 0.000000 0.000000 0.000000 0.051015 0.000000
# 6 0.000000 0.000000 0.000000 0.000000 0.000000 0.079105
#
#
# Mechanical properties :
#
#
# Convention : Reuss Voigt Hill
#
# Bulk Modulus (GPa) = 7.91569 12.21308 10.06438
# Shear Modulus (GPa) = 9.33916 16.50616 12.92266
#
# Velocity S-wave (km/s) = 2.53189 3.36600 2.97829
# Velocity P-wave (km/s) = 3.73907 4.84662 4.32842
#
# Compressibility (1/GPa) = 0.12633136
#
# Stress axis : x y z
#
# Youngs Moduli (GPa) = 37.12980 19.62952 48.16729
#
# Poissons Ratio (x) = -0.34018 0.25620
# Poissons Ratio (y) = -0.64346 -0.08844
# Poissons Ratio (z) = 0.19749 -0.03604
#
# Static dielectric constant tensor:
#      x y z
#    x 1.492110 0.000000 0.000000 
#    y 0.000000 1.484820 0.000000 
#    z 0.000000 0.000000 1.484800 
# 
# From -- ./inp_files/17701.got.cif
#   From: 2010.05.17/outbox.cif.g08.bks.cpg/sg47_9_cif.got.tgz:17701.got - 2010.06.03 20:15:42.
