data_PCOD9382819
_publ_section_title
;
Structure prediction by ZEFSAII (Michael W. Deem and Ramdas Pophale) SiO2 
 PCOD9382819
Probable space group: P M M M
;
_chemical_formula_sum "Si O2"
_cell_formula_units_Z 64
_cell_length_a 8.776537
_cell_length_b 19.602125
_cell_length_c 24.147694
_cell_angle_alpha 90.000000
_cell_angle_beta 90.000000
_cell_angle_gamma 90.000000
_cell_volume 4154.339703
_symmetry_space_group_name_H-M "P M M M"
_symmetry_group_IT_number 47
_symmetry_cell_setting 'orthorhombic'
loop_
_space_group_symop_operation_xyz
x,y,z
-x,-y,z
x,-y,-z
-x,y,-z
-x,-y,-z
x,y,-z
-x,y,z
x,-y,z
loop_
_atom_site_type_symbol
_atom_site_label
_atom_site_fract_x
_atom_site_fract_y
_atom_site_fract_z
Si Si1 0.817176 0.077256 0.387438
Si Si2 0.682008 0.787271 0.436836
Si Si3 0.816983 0.290969 0.665338
Si Si4 0.683420 0.421308 0.935658
Si Si5 0.817279 0.922761 0.744055
Si Si6 0.182580 0.337917 0.836274
Si Si7 0.318769 0.784250 0.772486
Si Si8 0.184875 0.423141 0.272289
O O1 0.734923 0.136641 0.420481
O O2 0.783457 0.084038 0.321781
O O3 0.000000 0.084599 0.393573
O O4 0.776114 0.000000 0.404319
O O5 0.727259 0.772532 0.500000
O O6 0.500000 0.783108 0.432418
O O7 0.756343 0.736543 0.392516
O O8 0.750856 0.244934 0.715064
O O9 0.771833 0.368480 0.680756
O O10 0.000000 0.285546 0.667008
O O11 0.500000 0.416744 0.930688
O O12 0.726750 0.500000 0.922781
O O13 0.760711 0.369756 0.893378
O O14 0.722372 0.408524 0.000000
O O15 0.735257 0.862222 0.776157
O O16 0.000000 0.915808 0.749698
O O17 0.775126 0.000000 0.760437
O O18 0.254292 0.265332 0.820013
O O19 0.228816 0.389824 0.786555
O O20 0.000000 0.332250 0.835414
O O21 0.500000 0.779898 0.770514
O O22 0.242510 0.500000 0.278951
O O23 0.000000 0.425818 0.272406
#
# Coordination Sequence:
#
# PCOD9382819 Si02
#       8
#     8   8   8   8   8   8   8   8
#     4   9  18  32  50  69  89 116 149 185 226 274
#     4  11  23  35  47  65  89 117 150 189 229 274
#     4  10  19  32  50  69  90 116 148 185 230 284
#     4   9  18  32  48  68 100 140 175 208 248 289
#     4   9  17  30  48  69  94 123 154 189 231 281
#     4  10  19  30  47  71  99 131 168 205 236 275
#     4  11  20  30  47  70  97 126 156 193 239 285
#     4   8  15  28  47  71  94 114 141 186 237 276
#
# _framework density 15.405578
#
# number of rings (size 3 to 8) (size 9 to 14) (size 15 to 20)
#    0.000    2.375    1.250    4.500    0.000    2.750 
#    0.000    3.125    0.000    7.875    0.000    2.625 
#    0.000    0.500    0.000    5.250    0.000    2.250 
#
# Total GULP energy -356937.233573 kJ/mol
# GULP energy per Si atom -5577.144275 kJ/mol
# Density = 1.537051 g / cm^3
# Si number density = 15.405578 Si / 1000 Ang^3
#
#
#
# Elastic Constant Matrix: (Units=GPa)
#
#
# Indices 1 2 3 4 5 6 
#
# 1 50.7032 44.7651 39.5590 0.0000 0.0000 0.0000
# 2 44.7651 126.5080 62.3400 0.0000 0.0000 0.0000
# 3 39.5590 62.3400 86.5905 0.0000 0.0000 0.0000
# 4 0.0000 0.0000 0.0000 25.0272 0.0000 0.0000
# 5 0.0000 0.0000 0.0000 0.0000 22.1623 0.0000
# 6 0.0000 0.0000 0.0000 0.0000 0.0000 11.2968
#
#
#
# Elastic Compliance Matrix: (Units=1/GPa)
#
#
# Indices 1 2 3 4 5 6 
#
# 1 0.034035 -0.006790 -0.010660 0.000000 0.000000 0.000000
# 2 -0.006790 0.013606 -0.006693 0.000000 0.000000 0.000000
# 3 -0.010660 -0.006693 0.021237 0.000000 0.000000 0.000000
# 4 0.000000 0.000000 0.000000 0.039956 0.000000 0.000000
# 5 0.000000 0.000000 0.000000 0.000000 0.045122 0.000000
# 6 0.000000 0.000000 0.000000 0.000000 0.000000 0.088520
#
#
# Mechanical properties :
#
#
# Convention : Reuss Voigt Hill
#
# Bulk Modulus (GPa) = 48.56583 61.90332 55.23457
# Shear Modulus (GPa) = 16.79955 19.50645 18.15300
#
# Velocity S-wave (km/s) = 3.30583 3.56222 3.43642
# Velocity P-wave (km/s) = 6.79446 7.56233 7.18865
#
# Compressibility (1/GPa) = 0.02059061
#
# Stress axis : x y z
#
# Youngs Moduli (GPa) = 29.38169 73.49962 47.08668
#
# Poissons Ratio (x) = 0.49907 0.50196
# Poissons Ratio (y) = 0.19950 0.31515
# Poissons Ratio (z) = 0.31322 0.49194
#
# Static dielectric constant tensor:
#      x y z
#    x 1.513170 0.000000 0.000000 
#    y 0.000000 1.525220 0.000000 
#    z 0.000000 0.000000 1.490390 
# 
# From -- ./inp_files/11802.got.cif
#   From: 2010.05.17/outbox.cif.g08.bks.cpg/sg47_6_cif.got.tgz:11802.got - 2010.06.03 20:15:42.
