data_PCOD9382034
_publ_section_title
;
Structure prediction by ZEFSAII (Michael W. Deem and Ramdas Pophale) SiO2 
 PCOD9382034
Probable space group: P M M M
;
_chemical_formula_sum "Si O2"
_cell_formula_units_Z 56
_cell_length_a 19.737690
_cell_length_b 19.222808
_cell_length_c 7.929265
_cell_angle_alpha 90.000000
_cell_angle_beta 90.000000
_cell_angle_gamma 90.000000
_cell_volume 3008.472765
_symmetry_space_group_name_H-M "P M M M"
_symmetry_group_IT_number 47
_symmetry_cell_setting 'orthorhombic'
loop_
_space_group_symop_operation_xyz
x,y,z
-x,-y,z
x,-y,-z
-x,y,-z
-x,-y,-z
x,y,-z
-x,y,z
x,-y,z
loop_
_atom_site_type_symbol
_atom_site_label
_atom_site_fract_x
_atom_site_fract_y
_atom_site_fract_z
Si Si1 0.291610 0.710110 0.793458
Si Si2 0.780737 0.148155 0.800141
Si Si3 0.352018 0.076853 0.302006
Si Si4 0.924168 0.345989 0.296179
Si Si5 0.924544 0.815198 0.296631
Si Si6 0.788790 0.577659 0.798695
Si Si7 0.424551 0.783079 0.799959
O O1 0.243291 0.774578 0.743199
O O2 0.261665 0.637315 0.732352
O O3 0.366727 0.730815 0.734185
O O4 0.291630 0.709028 0.000000
O O5 0.727417 0.095108 0.720229
O O6 0.859880 0.141325 0.761594
O O7 0.770385 0.144237 0.000000
O O8 0.367527 0.077079 0.500000
O O9 0.394644 0.139471 0.222579
O O10 0.366298 0.000000 0.232822
O O11 0.921697 0.346331 0.500000
O O12 0.915239 0.265463 0.241024
O O13 0.864468 0.394093 0.230911
O O14 0.000000 0.367983 0.245186
O O15 0.924487 0.814987 0.500000
O O16 0.000000 0.837542 0.241075
O O17 0.779921 0.500000 0.729233
O O18 0.778342 0.574303 0.000000
O O19 0.500000 0.776776 0.727803
O O20 0.428791 0.770528 0.000000
#
# Coordination Sequence:
#
# PCOD9382034 Si02
#       7
#     8   8   8   8   8   8   8
#     4   8  15  29  46  67  93 121 157 198 242 287
#     4  10  18  30  51  73  95 127 166 207 245 284
#     4  10  21  35  51  74 105 136 161 190 232 284
#     4   9  18  31  45  63  91 126 162 203 249 295
#     4   9  17  29  46  69  96 126 162 206 254 298
#     4  10  19  30  45  65  92 127 166 209 252 292
#     4   9  18  33  54  77 100 128 161 199 240 283
#
# _framework density 18.614096
#
# number of rings (size 3 to 8) (size 9 to 14) (size 15 to 20)
#    0.000    2.714    1.429    2.571    0.000    2.857 
#    0.000    4.286    0.000    0.857    0.000    6.000 
#    0.000    0.000    0.000    5.000    0.000    6.286 
#
# Total GULP energy -312184.506211 kJ/mol
# GULP energy per Si atom -5574.723325 kJ/mol
# Density = 1.857173 g / cm^3
# Si number density = 18.614096 Si / 1000 Ang^3
#
#
#
# Elastic Constant Matrix: (Units=GPa)
#
#
# Indices 1 2 3 4 5 6 
#
# 1 138.1307 39.9892 -5.4954 0.0000 0.0000 0.0000
# 2 39.9892 58.7233 -3.7901 0.0000 0.0000 0.0000
# 3 -5.4954 -3.7901 15.1952 0.0000 0.0000 0.0000
# 4 0.0000 0.0000 0.0000 9.8719 0.0000 0.0000
# 5 0.0000 0.0000 0.0000 0.0000 -38.0796 0.0000
# 6 0.0000 0.0000 0.0000 0.0000 0.0000 12.9723
#
#
#
# Elastic Compliance Matrix: (Units=1/GPa)
#
#
# Indices 1 2 3 4 5 6 
#
# 1 0.009064 -0.006058 0.001767 0.000000 0.000000 0.000000
# 2 -0.006058 0.021357 0.003136 0.000000 0.000000 0.000000
# 3 0.001767 0.003136 0.067232 0.000000 0.000000 0.000000
# 4 0.000000 0.000000 0.000000 0.101297 0.000000 0.000000
# 5 0.000000 0.000000 0.000000 0.000000 -0.026261 0.000000
# 6 0.000000 0.000000 0.000000 0.000000 0.000000 0.077088
#
#
# Mechanical properties :
#
#
# Convention : Reuss Voigt Hill
#
# Bulk Modulus (GPa) = 10.48860 30.38407 20.43634
# Shear Modulus (GPa) = 17.61387 9.04261 13.32824
#
# Velocity S-wave (km/s) = 3.07948 2.20646 2.67878
# Velocity P-wave (km/s) = 4.27683 4.78016 4.53548
#
# Compressibility (1/GPa) = 0.09534161
#
# Stress axis : x y z
#
# Youngs Moduli (GPa) = 110.33080 46.82341 14.87396
#
# Poissons Ratio (x) = 0.28366 -0.02628
# Poissons Ratio (y) = 0.66840 -0.04664
# Poissons Ratio (z) = -0.19494 -0.14684
#
# Static dielectric constant tensor:
#      x y z
#    x 1.663260 0.000000 0.000000 
#    y 0.000000 1.639140 0.000000 
#    z 0.000000 0.000000 1.676720 
# 
# From -- ./inp_files/11527.got.cif
#   From: 2010.05.17/outbox.cif.g08.bks.cpg/sg47_6_cif.got.tgz:11527.got - 2010.06.03 20:15:42.
