data_PCOD9382090
_publ_section_title
;
Structure prediction by ZEFSAII (Michael W. Deem and Ramdas Pophale) SiO2 
 PCOD9382090
Probable space group: P M M M
;
_chemical_formula_sum "Si O2"
_cell_formula_units_Z 52
_cell_length_a 8.752160
_cell_length_b 21.064142
_cell_length_c 14.741805
_cell_angle_alpha 90.000000
_cell_angle_beta 90.000000
_cell_angle_gamma 90.000000
_cell_volume 2717.751127
_symmetry_space_group_name_H-M "P M M M"
_symmetry_group_IT_number 47
_symmetry_cell_setting 'orthorhombic'
loop_
_space_group_symop_operation_xyz
x,y,z
-x,-y,z
x,-y,-z
-x,y,-z
-x,-y,-z
x,y,-z
-x,y,z
x,-y,z
loop_
_atom_site_type_symbol
_atom_site_label
_atom_site_fract_x
_atom_site_fract_y
_atom_site_fract_z
Si Si1 0.317748 0.430232 0.713328
Si Si2 0.682403 0.826133 0.396013
Si Si3 0.822872 0.311380 0.391675
Si Si4 0.814543 0.760704 0.897628
Si Si5 0.184243 0.613968 0.895568
Si Si6 0.184744 0.877944 0.777713
Si Si7 0.186327 0.000000 0.104900
O O1 0.500000 0.425096 0.707762
O O2 0.271813 0.500000 0.677725
O O3 0.244025 0.371782 0.659861
O O4 0.264913 0.425266 0.817618
O O5 0.731751 0.838381 0.500000
O O6 0.500000 0.828105 0.392445
O O7 0.737886 0.754740 0.372503
O O8 0.751755 0.874498 0.323567
O O9 0.813203 0.321921 0.500000
O O10 0.000000 0.303262 0.365672
O O11 0.771991 0.687938 0.879620
O O12 0.762141 0.813535 0.827794
O O13 0.000000 0.761696 0.896911
O O14 0.766264 0.777138 0.000000
O O15 0.000000 0.608765 0.886855
O O16 0.222311 0.597845 0.000000
O O17 0.000000 0.877766 0.774276
O O18 0.232378 0.937711 0.838724
O O19 0.000000 0.000000 0.102011
O O20 0.237994 0.000000 0.000000
#
# Coordination Sequence:
#
# PCOD9382090 Si02
#       7
#     8   8   8   8   8   8   4
#     4  11  24  38  52  74 107 147 185 221 267 325
#     4  10  21  37  57  81 109 140 175 220 276 332
#     4  10  21  38  61  86 109 135 172 222 277 331
#     4   8  14  26  47  75 102 128 164 213 267 318
#     4   9  18  33  53  76 101 133 179 233 282 326
#     4  10  18  30  53  81 109 145 186 226 266 311
#     4   9  18  32  52  83 120 154 189 227 268 315
#
# _framework density 19.133465999999999
#
# number of rings (size 3 to 8) (size 9 to 14) (size 15 to 20)
#    0.000    2.385    0.000    3.692    0.000    7.077 
#    0.000    3.846    0.000    5.538    0.000    0.000 
#    0.000    0.000    0.000    0.000    0.000    0.000 
#
# Total GULP energy -290255.705981 kJ/mol
# GULP energy per Si atom -5581.840500 kJ/mol
# Density = 1.908992 g / cm^3
# Si number density = 19.133466 Si / 1000 Ang^3
#
#
#
# Elastic Constant Matrix: (Units=GPa)
#
#
# Indices 1 2 3 4 5 6 
#
# 1 23.3798 18.9257 26.2511 0.0000 0.0000 0.0000
# 2 18.9257 68.4802 68.8342 0.0000 0.0000 0.0000
# 3 26.2511 68.8342 106.2801 0.0000 0.0000 0.0000
# 4 0.0000 0.0000 0.0000 22.0329 0.0000 0.0000
# 5 0.0000 0.0000 0.0000 0.0000 14.3900 0.0000
# 6 0.0000 0.0000 0.0000 0.0000 0.0000 16.8991
#
#
#
# Elastic Compliance Matrix: (Units=1/GPa)
#
#
# Indices 1 2 3 4 5 6 
#
# 1 0.059734 -0.004808 -0.011640 0.000000 0.000000 0.000000
# 2 -0.004808 0.042231 -0.026164 0.000000 0.000000 0.000000
# 3 -0.011640 -0.026164 0.029230 0.000000 0.000000 0.000000
# 4 0.000000 0.000000 0.000000 0.045387 0.000000 0.000000
# 5 0.000000 0.000000 0.000000 0.000000 0.069493 0.000000
# 6 0.000000 0.000000 0.000000 0.000000 0.000000 0.059175
#
#
# Mechanical properties :
#
#
# Convention : Reuss Voigt Hill
#
# Bulk Modulus (GPa) = 21.75341 47.35134 34.55238
# Shear Modulus (GPa) = 12.32147 16.27300 14.29724
#
# Velocity S-wave (km/s) = 2.54042 2.91950 2.73653
# Velocity P-wave (km/s) = 4.47202 6.01384 5.29930
#
# Compressibility (1/GPa) = 0.04596980
#
# Stress axis : x y z
#
# Youngs Moduli (GPa) = 16.74100 23.67945 34.21185
#
# Poissons Ratio (x) = 0.11386 0.39823
# Poissons Ratio (y) = 0.08049 0.89511
# Poissons Ratio (z) = 0.19487 0.61955
#
# Static dielectric constant tensor:
#      x y z
#    x 1.645140 0.000000 0.000000 
#    y 0.000000 1.663980 0.000000 
#    z 0.000000 0.000000 1.677980 
# 
# From -- ./inp_files/21480.got.cif
#   From: 2010.05.17/outbox.cif.g08.bks.cpg/sg47_11_cif.got.tgz:21480.got - 2010.06.03 20:15:42.
