data_PCOD9382159
_publ_section_title
;
Structure prediction by ZEFSAII (Michael W. Deem and Ramdas Pophale) SiO2 
 PCOD9382159
Probable space group: P M M M
;
_chemical_formula_sum "Si O2"
_cell_formula_units_Z 56
_cell_length_a 26.604671
_cell_length_b 8.663391
_cell_length_c 14.614885
_cell_angle_alpha 90.000000
_cell_angle_beta 90.000000
_cell_angle_gamma 90.000000
_cell_volume 3368.536137
_symmetry_space_group_name_H-M "P M M M"
_symmetry_group_IT_number 47
_symmetry_cell_setting 'orthorhombic'
loop_
_space_group_symop_operation_xyz
x,y,z
-x,-y,z
x,-y,-z
-x,y,-z
-x,-y,-z
x,y,-z
-x,y,z
x,-y,z
loop_
_atom_site_type_symbol
_atom_site_label
_atom_site_fract_x
_atom_site_fract_y
_atom_site_fract_z
Si Si1 0.799143 0.815185 0.284867
Si Si2 0.244755 0.686026 0.104374
Si Si3 0.638244 0.686034 0.896295
Si Si4 0.300178 0.188176 0.394737
Si Si5 0.893302 0.684542 0.606433
Si Si6 0.000000 0.822261 0.389074
Si Si7 0.599891 0.813569 0.287115
Si Si8 0.500000 0.811436 0.605781
O O1 0.789649 0.759134 0.181834
O O2 0.750314 0.762267 0.343076
O O3 0.849024 0.750270 0.331499
O O4 0.800708 0.000000 0.287352
O O5 0.242615 0.500000 0.110834
O O6 0.303273 0.731845 0.119483
O O7 0.231639 0.728960 0.000000
O O8 0.636452 0.500000 0.892675
O O9 0.604613 0.754690 0.816216
O O10 0.624723 0.733084 0.000000
O O11 0.300562 0.238812 0.500000
O O12 0.350168 0.238450 0.341503
O O13 0.300464 0.000000 0.394732
O O14 0.886196 0.735150 0.500000
O O15 0.892195 0.500000 0.607815
O O16 0.948153 0.741312 0.638431
O O17 0.000000 0.817567 0.500000
O O18 0.000000 0.000000 0.360058
O O19 0.550023 0.762520 0.340448
O O20 0.600000 0.000000 0.286183
O O21 0.500000 0.761258 0.500000
O O22 0.500000 0.000000 0.604572
#
# Coordination Sequence:
#
# PCOD9382159 Si02
#       8
#     8   8   8   8   8   4   8   4
#     4  11  20  30  47  74 104 132 164 207 255 301
#     4   9  18  33  51  70  96 130 165 203 250 305
#     4   9  18  33  52  72  96 127 159 196 248 305
#     4   9  17  28  43  66  97 128 158 195 243 296
#     4  10  20  33  49  71 103 142 179 213 250 297
#     4   9  17  31  51  73  98 133 178 223 261 295
#     4  10  18  31  51  74  95 123 164 207 247 291
#     4   9  18  32  52  75  98 126 163 205 248 297
#
# _framework density 16.624431999999999
#
# number of rings (size 3 to 8) (size 9 to 14) (size 15 to 20)
#    0.000    2.429    1.429    2.786    0.000    4.571 
#    0.000    2.143    0.000    5.143    0.000    0.500 
#    0.000    4.000    0.000    0.000    0.000    0.000 
#
# Total GULP energy -312348.979846 kJ/mol
# GULP energy per Si atom -5577.660354 kJ/mol
# Density = 1.658659 g / cm^3
# Si number density = 16.624432 Si / 1000 Ang^3
#
#
#
# Elastic Constant Matrix: (Units=GPa)
#
#
# Indices 1 2 3 4 5 6 
#
# 1 148.2137 33.4576 89.3528 0.0000 0.0000 0.0000
# 2 33.4576 23.7065 30.2626 0.0000 0.0000 0.0000
# 3 89.3528 30.2626 142.7371 0.0000 0.0000 0.0000
# 4 0.0000 0.0000 0.0000 22.3220 0.0000 0.0000
# 5 0.0000 0.0000 0.0000 0.0000 20.9844 0.0000
# 6 0.0000 0.0000 0.0000 0.0000 0.0000 17.0430
#
#
#
# Elastic Compliance Matrix: (Units=1/GPa)
#
#
# Indices 1 2 3 4 5 6 
#
# 1 0.012485 -0.010480 -0.005594 0.000000 0.000000 0.000000
# 2 -0.010480 0.066632 -0.007567 0.000000 0.000000 0.000000
# 3 -0.005594 -0.007567 0.012112 0.000000 0.000000 0.000000
# 4 0.000000 0.000000 0.000000 0.044799 0.000000 0.000000
# 5 0.000000 0.000000 0.000000 0.000000 0.047654 0.000000
# 6 0.000000 0.000000 0.000000 0.000000 0.000000 0.058675
#
#
# Mechanical properties :
#
#
# Convention : Reuss Voigt Hill
#
# Bulk Modulus (GPa) = 22.75386 68.97814 45.86600
# Shear Modulus (GPa) = 16.43183 22.84216 19.63700
#
# Velocity S-wave (km/s) = 3.14732 3.71079 3.44061
# Velocity P-wave (km/s) = 5.18885 7.74222 6.59038
#
# Compressibility (1/GPa) = 0.04394859
#
# Stress axis : x y z
#
# Youngs Moduli (GPa) = 80.09684 15.00772 82.56433
#
# Poissons Ratio (x) = 0.15728 0.46183
# Poissons Ratio (y) = 0.83939 0.62476
# Poissons Ratio (z) = 0.44803 0.11356
#
# Static dielectric constant tensor:
#      x y z
#    x 1.543330 0.000000 0.000000 
#    y 0.000000 1.562150 0.000000 
#    z 0.000000 0.000000 1.551210 
# 
# From -- ./inp_files/25181.got.cif
#   From: 2010.05.17/outbox.cif.g08.bks.cpg/sg47_13_cif.got.tgz:25181.got - 2010.06.03 20:15:42.
