data_PCOD9382525
_publ_section_title
;
Structure prediction by ZEFSAII (Michael W. Deem and Ramdas Pophale) SiO2 
 PCOD9382525
Probable space group: P M M M
;
_chemical_formula_sum "Si O2"
_cell_formula_units_Z 52
_cell_length_a 8.995506
_cell_length_b 27.176682
_cell_length_c 13.889583
_cell_angle_alpha 90.000000
_cell_angle_beta 90.000000
_cell_angle_gamma 90.000000
_cell_volume 3395.558660
_symmetry_space_group_name_H-M "P M M M"
_symmetry_group_IT_number 47
_symmetry_cell_setting 'orthorhombic'
loop_
_space_group_symop_operation_xyz
x,y,z
-x,-y,z
x,-y,-z
-x,y,-z
-x,-y,-z
x,y,-z
-x,y,z
x,-y,z
loop_
_atom_site_type_symbol
_atom_site_label
_atom_site_fract_x
_atom_site_fract_y
_atom_site_fract_z
Si Si1 0.323399 0.702735 0.385203
Si Si2 0.820134 0.100908 0.606769
Si Si3 0.328169 0.500000 0.382619
Si Si4 0.171259 0.399341 0.382897
Si Si5 0.322727 0.847844 0.110287
Si Si6 0.820453 0.944166 0.807581
Si Si7 0.821622 0.202344 0.708949
O O1 0.295050 0.708007 0.500000
O O2 0.500000 0.704017 0.370360
O O3 0.258590 0.649839 0.354510
O O4 0.245135 0.747375 0.330724
O O5 0.763272 0.089009 0.500000
O O6 0.776910 0.066352 0.696026
O O7 0.781896 0.156646 0.638155
O O8 0.000000 0.098489 0.602860
O O9 0.500000 0.500000 0.353769
O O10 0.324616 0.500000 0.500000
O O11 0.247305 0.450067 0.350756
O O12 0.173242 0.400298 0.500000
O O13 0.000000 0.397002 0.352472
O O14 0.500000 0.847650 0.125730
O O15 0.258794 0.902394 0.130446
O O16 0.244215 0.812749 0.187781
O O17 0.292418 0.833924 0.000000
O O18 0.000000 0.937803 0.814415
O O19 0.784601 0.000000 0.834680
O O20 0.000000 0.204853 0.713544
#
# Coordination Sequence:
#
# PCOD9382525 Si02
#       7
#     8   8   4   8   8   8   8
#     4  10  19  29  42  63  92 123 153 186 224 263
#     4   8  14  25  42  64  88 113 141 172 206 246
#     4   9  15  23  35  51  75 109 150 195 238 273
#     4   9  16  25  37  54  78 112 155 196 229 263
#     4  10  21  36  52  68  86 110 141 177 221 273
#     4   9  18  31  47  69  93 115 142 176 213 255
#     4  10  19  31  48  68  89 113 144 182 222 266
#
# _framework density 15.314123
#
# number of rings (size 3 to 8) (size 9 to 14) (size 15 to 20)
#    0.000    2.692    0.000    3.462    0.000    6.462 
#    0.000    3.077    0.000    4.154    0.000    4.308 
#    0.000    0.000    0.000    0.692    0.000   12.846 
#
# Total GULP energy -289817.153519 kJ/mol
# GULP energy per Si atom -5573.406798 kJ/mol
# Density = 1.527927 g / cm^3
# Si number density = 15.314123 Si / 1000 Ang^3
#
#
#
# Elastic Constant Matrix: (Units=GPa)
#
#
# Indices 1 2 3 4 5 6 
#
# 1 72.6801 54.0804 30.8310 0.0000 0.0000 0.0000
# 2 54.0804 107.0801 15.1979 0.0000 0.0000 0.0000
# 3 30.8310 15.1979 42.9751 0.0000 0.0000 0.0000
# 4 0.0000 0.0000 0.0000 8.9400 0.0000 0.0000
# 5 0.0000 0.0000 0.0000 0.0000 17.1410 0.0000
# 6 0.0000 0.0000 0.0000 0.0000 0.0000 22.3588
#
#
#
# Elastic Compliance Matrix: (Units=1/GPa)
#
#
# Indices 1 2 3 4 5 6 
#
# 1 0.031026 -0.013171 -0.017600 0.000000 0.000000 0.000000
# 2 -0.013171 0.015424 0.003995 0.000000 0.000000 0.000000
# 3 -0.017600 0.003995 0.034483 0.000000 0.000000 0.000000
# 4 0.000000 0.000000 0.000000 0.111856 0.000000 0.000000
# 5 0.000000 0.000000 0.000000 0.000000 0.058339 0.000000
# 6 0.000000 0.000000 0.000000 0.000000 0.000000 0.044725
#
#
# Mechanical properties :
#
#
# Convention : Reuss Voigt Hill
#
# Bulk Modulus (GPa) = 36.52422 46.99486 41.75954
# Shear Modulus (GPa) = 13.94567 17.86305 15.90436
#
# Velocity S-wave (km/s) = 3.02096 3.41903 3.22614
# Velocity P-wave (km/s) = 6.00583 6.80737 6.41912
#
# Compressibility (1/GPa) = 0.02737910
#
# Stress axis : x y z
#
# Youngs Moduli (GPa) = 32.23144 64.83419 28.99953
#
# Poissons Ratio (x) = 0.85395 0.51040
# Poissons Ratio (y) = 0.42453 -0.11585
# Poissons Ratio (z) = 0.56728 -0.25900
#
# Static dielectric constant tensor:
#      x y z
#    x 1.512410 0.000000 0.000000 
#    y 0.000000 1.498590 0.000000 
#    z 0.000000 0.000000 1.498230 
# 
# From -- ./inp_files/21797.got.cif
#   From: 2010.05.17/outbox.cif.g08.bks.cpg/sg47_11_cif.got.tgz:21797.got - 2010.06.03 20:15:42.
