data_PCOD9382125
_publ_section_title
;
Structure prediction by ZEFSAII (Michael W. Deem and Ramdas Pophale) SiO2 
 PCOD9382125
Probable space group: P M M M
;
_chemical_formula_sum "Si O2"
_cell_formula_units_Z 64
_cell_length_a 20.484215
_cell_length_b 9.501352
_cell_length_c 20.085497
_cell_angle_alpha 90.000000
_cell_angle_beta 90.000000
_cell_angle_gamma 90.000000
_cell_volume 3909.194831
_symmetry_space_group_name_H-M "P M M M"
_symmetry_group_IT_number 47
_symmetry_cell_setting 'orthorhombic'
loop_
_space_group_symop_operation_xyz
x,y,z
-x,-y,z
x,-y,-z
-x,y,-z
-x,-y,-z
x,y,-z
-x,y,z
x,-y,z
loop_
_atom_site_type_symbol
_atom_site_label
_atom_site_fract_x
_atom_site_fract_y
_atom_site_fract_z
Si Si1 0.761517 0.835547 0.701427
Si Si2 0.603525 0.165022 0.295831
Si Si3 0.678306 0.834936 0.920706
Si Si4 0.600462 0.337132 0.424928
Si Si5 0.813189 0.168625 0.154537
Si Si6 0.076110 0.331784 0.922181
Si Si7 0.240860 0.336828 0.426775
Si Si8 0.425993 0.665065 0.163679
O O1 0.682762 0.823754 0.708173
O O2 0.794726 0.788999 0.770134
O O3 0.782254 0.749853 0.636518
O O4 0.775732 0.000000 0.691792
O O5 0.580975 0.234819 0.365215
O O6 0.577603 0.253339 0.233734
O O7 0.586664 0.000000 0.292127
O O8 0.749416 0.802947 0.890584
O O9 0.624975 0.738206 0.885474
O O10 0.664571 0.000000 0.905242
O O11 0.678297 0.817562 0.000000
O O12 0.579097 0.298910 0.500000
O O13 0.581546 0.500000 0.412345
O O14 0.679807 0.333702 0.425772
O O15 0.874714 0.248651 0.124607
O O16 0.823784 0.000000 0.153626
O O17 0.084529 0.500000 0.914680
O O18 0.000000 0.299405 0.908834
O O19 0.088990 0.297546 0.000000
O O20 0.220729 0.283608 0.500000
O O21 0.221888 0.500000 0.421218
O O22 0.500000 0.676144 0.137769
O O23 0.410808 0.500000 0.173398
#
# Coordination Sequence:
#
# PCOD9382125 Si02
#       8
#     8   8   8   8   8   8   8   8
#     4   9  17  28  44  68  98 128 160 201 245 289
#     4  10  18  31  50  70  95 126 162 204 249 299
#     4  10  21  38  58  78 101 128 159 201 253 304
#     4   8  14  25  42  66  96 127 158 195 241 293
#     4  10  19  33  52  77 107 134 166 206 246 292
#     4   9  19  35  52  73 104 139 174 210 246 288
#     4   8  14  24  38  60  92 128 164 199 236 283
#     4  11  24  39  54  72  95 125 163 208 256 307
#
# _framework density 16.371658
#
# number of rings (size 3 to 8) (size 9 to 14) (size 15 to 20)
#    0.000    2.625    1.250    2.250    0.000    4.500 
#    0.000    4.375    0.000    0.375    0.000    2.625 
#    0.000    0.500    0.000    5.500    0.000    4.250 
#
# Total GULP energy -356931.474263 kJ/mol
# GULP energy per Si atom -5577.054285 kJ/mol
# Density = 1.633440 g / cm^3
# Si number density = 16.371658 Si / 1000 Ang^3
#
#
#
# Elastic Constant Matrix: (Units=GPa)
#
#
# Indices 1 2 3 4 5 6 
#
# 1 68.4523 50.2176 63.1599 0.0000 0.0000 0.0000
# 2 50.2176 77.1963 75.1458 0.0000 0.0000 0.0000
# 3 63.1599 75.1458 131.7641 0.0000 0.0000 0.0000
# 4 0.0000 0.0000 0.0000 34.3353 0.0000 0.0000
# 5 0.0000 0.0000 0.0000 0.0000 50.0664 0.0000
# 6 0.0000 0.0000 0.0000 0.0000 0.0000 19.1986
#
#
#
# Elastic Compliance Matrix: (Units=1/GPa)
#
#
# Indices 1 2 3 4 5 6 
#
# 1 0.030952 -0.012797 -0.007539 0.000000 0.000000 0.000000
# 2 -0.012797 0.034411 -0.013491 0.000000 0.000000 0.000000
# 3 -0.007539 -0.013491 0.018897 0.000000 0.000000 0.000000
# 4 0.000000 0.000000 0.000000 0.029125 0.000000 0.000000
# 5 0.000000 0.000000 0.000000 0.000000 0.019973 0.000000
# 6 0.000000 0.000000 0.000000 0.000000 0.000000 0.052087
#
#
# Mechanical properties :
#
#
# Convention : Reuss Voigt Hill
#
# Bulk Modulus (GPa) = 60.21270 72.71770 66.46520
# Shear Modulus (GPa) = 19.33239 26.64602 22.98921
#
# Velocity S-wave (km/s) = 3.44007 4.03869 3.75134
# Velocity P-wave (km/s) = 7.25515 8.14010 7.71033
#
# Compressibility (1/GPa) = 0.01660779
#
# Stress axis : x y z
#
# Youngs Moduli (GPa) = 32.30771 29.06066 52.91897
#
# Poissons Ratio (x) = 0.37188 0.39894
# Poissons Ratio (y) = 0.41343 0.71392
# Poissons Ratio (z) = 0.24356 0.39205
#
# Static dielectric constant tensor:
#      x y z
#    x 1.537470 0.000000 0.000000 
#    y 0.000000 1.543080 0.000000 
#    z 0.000000 0.000000 1.550130 
# 
# From -- ./inp_files/30014.got.cif
#   From: 2010.05.17/outbox.cif.g08.bks.cpg/sg47_16_cif.got.tgz:30014.got - 2010.06.03 20:15:42.
