data_PCOD9382233
_publ_section_title
;
Structure prediction by ZEFSAII (Michael W. Deem and Ramdas Pophale) SiO2 
 PCOD9382233
Probable space group: P M M M
;
_chemical_formula_sum "Si O2"
_cell_formula_units_Z 52
_cell_length_a 9.235625
_cell_length_b 28.857930
_cell_length_c 12.160646
_cell_angle_alpha 90.000000
_cell_angle_beta 90.000000
_cell_angle_gamma 90.000000
_cell_volume 3241.067773
_symmetry_space_group_name_H-M "P M M M"
_symmetry_group_IT_number 47
_symmetry_cell_setting 'orthorhombic'
loop_
_space_group_symop_operation_xyz
x,y,z
-x,-y,z
x,-y,-z
-x,y,-z
-x,-y,-z
x,y,-z
-x,y,z
x,-y,z
loop_
_atom_site_type_symbol
_atom_site_label
_atom_site_fract_x
_atom_site_fract_y
_atom_site_fract_z
Si Si1 0.172491 0.906448 0.370311
Si Si2 0.666011 0.000000 0.633582
Si Si3 0.825698 0.193420 0.707774
Si Si4 0.327612 0.239600 0.500000
Si Si5 0.824367 0.727933 0.125578
Si Si6 0.170499 0.663661 0.500000
Si Si7 0.673861 0.552664 0.128925
Si Si8 0.172353 0.634961 0.744792
O O1 0.208025 0.896892 0.500000
O O2 0.253730 0.952805 0.333890
O O3 0.206609 0.861243 0.297858
O O4 0.000000 0.914331 0.366258
O O5 0.500000 0.000000 0.669506
O O6 0.668782 0.000000 0.500000
O O7 0.742104 0.215913 0.606371
O O8 0.786426 0.223840 0.814398
O O9 0.000000 0.198160 0.690742
O O10 0.500000 0.235822 0.500000
O O11 0.273556 0.292216 0.500000
O O12 0.779479 0.683604 0.198927
O O13 0.000000 0.726645 0.122605
O O14 0.772016 0.724658 0.000000
O O15 0.195143 0.637007 0.613826
O O16 0.000000 0.678696 0.500000
O O17 0.500000 0.555776 0.138687
O O18 0.716334 0.500000 0.159431
O O19 0.748399 0.591998 0.200050
O O20 0.709918 0.559292 0.000000
O O21 0.000000 0.631026 0.763950
#
# Coordination Sequence:
#
# PCOD9382233 Si02
#       8
#     8   4   8   4   8   4   8   8
#     4   9  16  26  43  63  86 123 165 193 225 287
#     4   9  17  27  39  59  92 123 148 194 251 284
#     4  10  18  32  50  68  98 135 164 195 242 293
#     4  12  22  30  46  72 100 128 168 209 234 276
#     4   9  17  29  49  76 100 124 159 201 243 287
#     4  10  20  36  53  71  99 136 166 194 241 298
#     4   9  19  36  55  74 100 134 167 201 246 296
#     4  10  19  32  54  77 100 128 164 207 244 286
#
# _framework density 16.044094999999999
#
# number of rings (size 3 to 8) (size 9 to 14) (size 15 to 20)
#    0.000    2.385    2.308    1.846    0.000    3.385 
#    0.000    1.154    0.000    2.769    0.000    0.538 
#    0.000    4.308    0.000    0.000    0.000    0.000 
#
# Total GULP energy -289793.316481 kJ/mol
# GULP energy per Si atom -5572.948394 kJ/mol
# Density = 1.600758 g / cm^3
# Si number density = 16.044095 Si / 1000 Ang^3
#
#
#
# Elastic Constant Matrix: (Units=GPa)
#
#
# Indices 1 2 3 4 5 6 
#
# 1 26.2791 49.5263 30.7005 0.0000 0.0000 0.0000
# 2 49.5263 152.4067 69.3201 0.0000 0.0000 0.0000
# 3 30.7005 69.3201 98.8269 0.0000 0.0000 0.0000
# 4 0.0000 0.0000 0.0000 9.9773 0.0000 0.0000
# 5 0.0000 0.0000 0.0000 0.0000 11.6210 0.0000
# 6 0.0000 0.0000 0.0000 0.0000 0.0000 -2.0585
#
#
#
# Elastic Compliance Matrix: (Units=1/GPa)
#
#
# Indices 1 2 3 4 5 6 
#
# 1 0.108789 -0.029342 -0.013214 0.000000 0.000000 0.000000
# 2 -0.029342 0.017549 -0.003195 0.000000 0.000000 0.000000
# 3 -0.013214 -0.003195 0.016464 0.000000 0.000000 0.000000
# 4 0.000000 0.000000 0.000000 0.100227 0.000000 0.000000
# 5 0.000000 0.000000 0.000000 0.000000 0.086051 0.000000
# 6 0.000000 0.000000 0.000000 0.000000 0.000000 -0.485780
#
#
# Mechanical properties :
#
#
# Convention : Reuss Voigt Hill
#
# Bulk Modulus (GPa) = 19.49253 64.06740 41.77996
# Shear Modulus (GPa) = -103.95594 12.43900 -45.75847
#
# Velocity S-wave (km/s) = -8.05820 2.78744 -5.34625
# Velocity P-wave (km/s) = 8.62576 7.09778 3.46591
#
# Compressibility (1/GPa) = 0.05130170
#
# Stress axis : x y z
#
# Youngs Moduli (GPa) = 9.19211 56.98182 60.73720
#
# Poissons Ratio (x) = 1.67196 0.80257
# Poissons Ratio (y) = 0.26972 0.19403
# Poissons Ratio (z) = 0.12146 0.18203
#
# Static dielectric constant tensor:
#      x y z
#    x 1.528100 0.000000 0.000000 
#    y 0.000000 1.537310 0.000000 
#    z 0.000000 0.000000 1.533930 
# 
# From -- ./inp_files/15542.got.cif
#   From: 2010.05.17/outbox.cif.g08.bks.cpg/sg47_8_cif.got.tgz:15542.got - 2010.06.03 20:15:42.
