data_PCOD9382266
_publ_section_title
;
Structure prediction by ZEFSAII (Michael W. Deem and Ramdas Pophale) SiO2 
 PCOD9382266
Probable space group: P M M M
;
_chemical_formula_sum "Si O2"
_cell_formula_units_Z 52
_cell_length_a 7.658505
_cell_length_b 13.707332
_cell_length_c 21.465453
_cell_angle_alpha 90.000000
_cell_angle_beta 90.000000
_cell_angle_gamma 90.000000
_cell_volume 2253.393256
_symmetry_space_group_name_H-M "P M M M"
_symmetry_group_IT_number 47
_symmetry_cell_setting 'orthorhombic'
loop_
_space_group_symop_operation_xyz
x,y,z
-x,-y,z
x,-y,-z
-x,y,-z
-x,-y,-z
x,y,-z
-x,y,z
x,-y,z
loop_
_atom_site_type_symbol
_atom_site_label
_atom_site_fract_x
_atom_site_fract_y
_atom_site_fract_z
Si Si1 0.299928 0.115120 0.500000
Si Si2 0.287545 0.609210 0.571726
Si Si3 0.711503 0.393539 0.200768
Si Si4 0.286563 0.318558 0.932100
Si Si5 0.699940 0.893399 0.105760
Si Si6 0.711403 0.804412 0.370264
Si Si7 0.803138 0.823041 0.234978
O O1 0.500000 0.155773 0.500000
O O2 0.223729 0.147150 0.434142
O O3 0.308924 0.000000 0.500000
O O4 0.237186 0.633415 0.500000
O O5 0.500000 0.607670 0.572065
O O6 0.227061 0.500000 0.585733
O O7 0.234187 0.691759 0.620020
O O8 0.500000 0.392058 0.204415
O O9 0.769511 0.500000 0.224021
O O10 0.764308 0.380142 0.128280
O O11 0.772403 0.293814 0.232515
O O12 0.500000 0.316977 0.930851
O O13 0.224539 0.206622 0.922201
O O14 0.232576 0.354511 0.000000
O O15 0.500000 0.896987 0.083327
O O16 0.695238 0.873569 0.180263
O O17 0.779030 0.000000 0.093177
O O18 0.500000 0.808765 0.368575
O O19 0.771288 0.851368 0.306134
O O20 0.000000 0.844817 0.217421
#
# Coordination Sequence:
#
# PCOD9382266 Si02
#       7
#     4   8   8   8   8   8   8
#     4   9  18  32  52  78 102 125 159 206 256 307
#     4   8  13  23  43  71  96 117 147 191 241 290
#     4   9  18  34  55  78 106 142 183 221 255 299
#     4   8  14  26  48  82 116 137 161 208 268 320
#     4   9  18  34  55  77 102 135 176 220 263 310
#     4  10  18  32  53  75  99 129 166 210 257 307
#     4  11  23  36  51  74 105 141 178 219 265 313
#
# _framework density 23.076311
#
# number of rings (size 3 to 8) (size 9 to 14) (size 15 to 20)
#    0.000    2.846    0.769    2.769    0.000    2.462 
#    0.000    6.538    0.000    7.846    0.000    9.692 
#    0.000    0.000    0.000    0.000    0.000    0.000 
#
# Total GULP energy -290102.079395 kJ/mol
# GULP energy per Si atom -5578.886142 kJ/mol
# Density = 2.302379 g / cm^3
# Si number density = 23.076311 Si / 1000 Ang^3
#
#
#
# Elastic Constant Matrix: (Units=GPa)
#
#
# Indices 1 2 3 4 5 6 
#
# 1 50.3009 -1.6888 -4.1109 0.0000 0.0000 0.0000
# 2 -1.6888 45.9489 -18.0655 0.0000 0.0000 0.0000
# 3 -4.1109 -18.0655 87.6472 0.0000 0.0000 0.0000
# 4 0.0000 0.0000 0.0000 -0.4899 0.0000 0.0000
# 5 0.0000 0.0000 0.0000 0.0000 -282.5717 0.0000
# 6 0.0000 0.0000 0.0000 0.0000 0.0000 -17.2350
#
#
#
# Elastic Compliance Matrix: (Units=1/GPa)
#
#
# Indices 1 2 3 4 5 6 
#
# 1 0.020018 0.001202 0.001187 0.000000 0.000000 0.000000
# 2 0.001202 0.023755 0.004953 0.000000 0.000000 0.000000
# 3 0.001187 0.004953 0.012486 0.000000 0.000000 0.000000
# 4 0.000000 0.000000 0.000000 -2.041245 0.000000 0.000000
# 5 0.000000 0.000000 0.000000 0.000000 -0.003539 0.000000
# 6 0.000000 0.000000 0.000000 0.000000 0.000000 -0.058021
#
#
# Mechanical properties :
#
#
# Convention : Reuss Voigt Hill
#
# Bulk Modulus (GPa) = 14.09616 15.12965 14.61291
# Shear Modulus (GPa) = -2.45389 -46.20852 -24.33120
#
# Velocity S-wave (km/s) = -1.03232 -4.47970 -3.25064
# Velocity P-wave (km/s) = 2.16814 4.49292 2.78258
#
# Compressibility (1/GPa) = 0.07094130
#
# Stress axis : x y z
#
# Youngs Moduli (GPa) = 49.95578 42.09701 80.09071
#
# Poissons Ratio (x) = -0.05061 -0.09504
# Poissons Ratio (y) = -0.06006 -0.39666
# Poissons Ratio (z) = -0.05928 -0.20849
#
# Static dielectric constant tensor:
#      x y z
#    x 1.916140 0.000000 0.000000 
#    y 0.000000 1.866610 0.000000 
#    z 0.000000 0.000000 1.858100 
# 
# From -- ./inp_files/29609.got.cif
#   From: 2010.05.17/outbox.cif.g08.bks.cpg/sg47_15_cif.got.tgz:29609.got - 2010.06.03 20:15:42.
