data_PCOD9382842
_publ_section_title
;
Structure prediction by ZEFSAII (Michael W. Deem and Ramdas Pophale) SiO2 
 PCOD9382842
Probable space group: P M M M
;
_chemical_formula_sum "Si O2"
_cell_formula_units_Z 56
_cell_length_a 8.573917
_cell_length_b 19.748849
_cell_length_c 19.045854
_cell_angle_alpha 90.000000
_cell_angle_beta 90.000000
_cell_angle_gamma 90.000000
_cell_volume 3224.939079
_symmetry_space_group_name_H-M "P M M M"
_symmetry_group_IT_number 47
_symmetry_cell_setting 'orthorhombic'
loop_
_space_group_symop_operation_xyz
x,y,z
-x,-y,z
x,-y,-z
-x,y,-z
-x,-y,-z
x,y,-z
-x,y,z
x,-y,z
loop_
_atom_site_type_symbol
_atom_site_label
_atom_site_fract_x
_atom_site_fract_y
_atom_site_fract_z
Si Si1 0.188705 0.711362 0.419991
Si Si2 0.810197 0.425110 0.655360
Si Si3 0.186672 0.922935 0.783473
Si Si4 0.687143 0.715575 0.152668
Si Si5 0.812321 0.575083 0.180890
Si Si6 0.686619 0.794195 0.707383
Si Si7 0.688660 0.147604 0.079117
O O1 0.239931 0.721800 0.500000
O O2 0.242697 0.638171 0.390606
O O3 0.247221 0.767191 0.365451
O O4 0.000000 0.711289 0.419042
O O5 0.760518 0.500000 0.630966
O O6 0.763756 0.417821 0.737055
O O7 0.000000 0.424622 0.654398
O O8 0.257255 0.868420 0.729893
O O9 0.240407 0.899579 0.860930
O O10 0.000000 0.919490 0.779784
O O11 0.236654 0.000000 0.770056
O O12 0.500000 0.711729 0.153218
O O13 0.752037 0.640871 0.140916
O O14 0.738953 0.744087 0.229109
O O15 0.731799 0.774765 0.098417
O O16 0.761103 0.500000 0.156896
O O17 0.000000 0.575870 0.179631
O O18 0.500000 0.792977 0.706026
O O19 0.500000 0.143267 0.083954
O O20 0.735745 0.130545 0.000000
#
# Coordination Sequence:
#
# PCOD9382842 Si02
#       7
#     8   8   8   8   8   8   8
#     4  10  19  30  48  73 100 133 171 212 258 302
#     4   8  14  25  41  64  95 129 166 208 253 300
#     4  10  21  36  56  82 108 132 160 199 243 287
#     4   9  17  29  47  70  93 124 167 209 247 286
#     4   9  16  26  43  66  91 123 164 211 259 300
#     4  10  20  34  52  73  99 132 169 207 246 295
#     4   9  19  35  53  76 108 141 169 197 234 287
#
# _framework density 17.36467
#
# number of rings (size 3 to 8) (size 9 to 14) (size 15 to 20)
#    0.000    2.714    1.429    2.571    0.000    4.857 
#    0.000    2.857    0.000    1.286    0.000    7.000 
#    0.000    0.000    0.000    0.000    0.000    0.000 
#
# Total GULP energy -312143.077253 kJ/mol
# GULP energy per Si atom -5573.983522 kJ/mol
# Density = 1.732515 g / cm^3
# Si number density = 17.364670 Si / 1000 Ang^3
#
#
#
# Elastic Constant Matrix: (Units=GPa)
#
#
# Indices 1 2 3 4 5 6 
#
# 1 7.4913 14.1595 5.4760 0.0000 0.0000 0.0000
# 2 14.1595 129.1760 26.3530 0.0000 0.0000 0.0000
# 3 5.4760 26.3530 47.3199 0.0000 0.0000 0.0000
# 4 0.0000 0.0000 0.0000 15.2251 0.0000 0.0000
# 5 0.0000 0.0000 0.0000 0.0000 19.7674 0.0000
# 6 0.0000 0.0000 0.0000 0.0000 0.0000 12.5460
#
#
#
# Elastic Compliance Matrix: (Units=1/GPa)
#
#
# Indices 1 2 3 4 5 6 
#
# 1 0.173022 -0.016788 -0.010673 0.000000 0.000000 0.000000
# 2 -0.016788 0.010363 -0.003828 0.000000 0.000000 0.000000
# 3 -0.010673 -0.003828 0.024500 0.000000 0.000000 0.000000
# 4 0.000000 0.000000 0.000000 0.065681 0.000000 0.000000
# 5 0.000000 0.000000 0.000000 0.000000 0.050588 0.000000
# 6 0.000000 0.000000 0.000000 0.000000 0.000000 0.079707
#
#
# Mechanical properties :
#
#
# Convention : Reuss Voigt Hill
#
# Bulk Modulus (GPa) = 6.88208 30.66271 18.77240
# Shear Modulus (GPa) = 9.71110 18.70761 14.20935
#
# Velocity S-wave (km/s) = 2.36740 3.28584 2.86368
# Velocity P-wave (km/s) = 3.38299 5.66499 4.66566
#
# Compressibility (1/GPa) = 0.14530496
#
# Stress axis : x y z
#
# Youngs Moduli (GPa) = 5.77962 96.50088 40.81652
#
# Poissons Ratio (x) = 1.62008 0.43564
# Poissons Ratio (y) = 0.09703 0.15626
# Poissons Ratio (z) = 0.06169 0.36943
#
# Static dielectric constant tensor:
#      x y z
#    x 1.594210 0.000000 0.000000 
#    y 0.000000 1.599810 0.000000 
#    z 0.000000 0.000000 1.575240 
# 
# From -- ./inp_files/29882.got.cif
#   From: 2010.05.17/outbox.cif.g08.bks.cpg/sg47_15_cif.got.tgz:29882.got - 2010.06.03 20:15:42.
