data_PCOD9382458
_publ_section_title
;
Structure prediction by ZEFSAII (Michael W. Deem and Ramdas Pophale) SiO2 
 PCOD9382458
Probable space group: P M M M
;
_chemical_formula_sum "Si O2"
_cell_formula_units_Z 64
_cell_length_a 24.275084
_cell_length_b 19.747463
_cell_length_c 8.791236
_cell_angle_alpha 90.000000
_cell_angle_beta 90.000000
_cell_angle_gamma 90.000000
_cell_volume 4214.266433
_symmetry_space_group_name_H-M "P M M M"
_symmetry_group_IT_number 47
_symmetry_cell_setting 'orthorhombic'
loop_
_space_group_symop_operation_xyz
x,y,z
-x,-y,z
x,-y,-z
-x,y,-z
-x,-y,-z
x,y,-z
-x,y,z
x,-y,z
loop_
_atom_site_type_symbol
_atom_site_label
_atom_site_fract_x
_atom_site_fract_y
_atom_site_fract_z
Si Si1 0.833400 0.651469 0.181947
Si Si2 0.727517 0.422716 0.316708
Si Si3 0.436834 0.209827 0.181973
Si Si4 0.261106 0.074665 0.816682
Si Si5 0.616049 0.076633 0.682106
Si Si6 0.937073 0.421523 0.316699
Si Si7 0.231549 0.781040 0.183314
Si Si8 0.661886 0.707869 0.682017
O O1 0.784160 0.604031 0.244006
O O2 0.891010 0.626383 0.247395
O O3 0.815896 0.727975 0.227065
O O4 0.834461 0.647389 0.000000
O O5 0.733954 0.420552 0.500000
O O6 0.716160 0.500000 0.271920
O O7 0.679907 0.368735 0.276902
O O8 0.500000 0.224324 0.223610
O O9 0.419320 0.136372 0.245464
O O10 0.394244 0.264487 0.247758
O O11 0.431985 0.208641 0.000000
O O12 0.321520 0.082439 0.743691
O O13 0.225383 0.140289 0.774494
O O14 0.239730 0.000000 0.773765
O O15 0.267646 0.075658 0.000000
O O16 0.616331 0.083905 0.500000
O O17 0.596879 0.000000 0.719232
O O18 0.934210 0.418474 0.500000
O O19 0.926256 0.500000 0.273025
O O20 0.000000 0.405176 0.271850
O O21 0.288038 0.753989 0.256540
O O22 0.237300 0.777035 0.000000
O O23 0.659323 0.713415 0.500000
#
# Coordination Sequence:
#
# PCOD9382458 Si02
#       8
#     8   8   8   8   8   8   8   8
#     4  10  19  28  42  68  98 124 152 187 224 261
#     4   9  18  32  49  69  93 119 146 179 221 270
#     4  11  23  36  49  64  85 115 148 181 219 269
#     4   9  16  27  45  65  87 120 154 178 210 262
#     4  10  20  32  47  68  91 113 142 183 223 258
#     4   9  18  32  47  62  86 124 164 196 226 262
#     4   9  17  29  44  64  93 122 146 179 222 266
#     4  10  19  31  49  69  87 111 144 181 223 267
#
# _framework density 15.18651
#
# number of rings (size 3 to 8) (size 9 to 14) (size 15 to 20)
#    0.000    2.375    1.250    2.250    0.000    5.250 
#    0.000    1.875    0.000    0.375    0.000    2.625 
#    0.000    0.500    0.000    6.250    0.000    1.000 
#
# Total GULP energy -356770.835767 kJ/mol
# GULP energy per Si atom -5574.544309 kJ/mol
# Density = 1.515194 g / cm^3
# Si number density = 15.186510 Si / 1000 Ang^3
#
#
#
# Elastic Constant Matrix: (Units=GPa)
#
#
# Indices 1 2 3 4 5 6 
#
# 1 106.3297 80.1476 31.6613 0.0000 0.0000 0.0000
# 2 80.1476 148.8998 36.5093 0.0000 0.0000 0.0000
# 3 31.6613 36.5093 20.8026 0.0000 0.0000 0.0000
# 4 0.0000 0.0000 0.0000 20.4436 0.0000 0.0000
# 5 0.0000 0.0000 0.0000 0.0000 24.1949 0.0000
# 6 0.0000 0.0000 0.0000 0.0000 0.0000 25.3416
#
#
#
# Elastic Compliance Matrix: (Units=1/GPa)
#
#
# Indices 1 2 3 4 5 6 
#
# 1 0.019601 -0.005680 -0.019864 0.000000 0.000000 0.000000
# 2 -0.005680 0.013435 -0.014934 0.000000 0.000000 0.000000
# 3 -0.019864 -0.014934 0.104513 0.000000 0.000000 0.000000
# 4 0.000000 0.000000 0.000000 0.048915 0.000000 0.000000
# 5 0.000000 0.000000 0.000000 0.000000 0.041331 0.000000
# 6 0.000000 0.000000 0.000000 0.000000 0.000000 0.039461
#
#
# Mechanical properties :
#
#
# Convention : Reuss Voigt Hill
#
# Bulk Modulus (GPa) = 17.66988 63.62984 40.64986
# Shear Modulus (GPa) = 13.62119 22.51030 18.06574
#
# Velocity S-wave (km/s) = 2.99812 3.85418 3.45279
# Velocity P-wave (km/s) = 4.86266 7.86106 6.53612
#
# Compressibility (1/GPa) = 0.05659349
#
# Stress axis : x y z
#
# Youngs Moduli (GPa) = 51.01829 74.43248 9.56819
#
# Poissons Ratio (x) = 0.42278 0.19006
# Poissons Ratio (y) = 0.28978 0.14289
# Poissons Ratio (z) = 1.01341 1.11157
#
# Static dielectric constant tensor:
#      x y z
#    x 1.470730 0.000000 0.000000 
#    y 0.000000 1.535060 0.000000 
#    z 0.000000 0.000000 1.508690 
# 
# From -- ./inp_files/11811.got.cif
#   From: 2010.05.17/outbox.cif.g08.bks.cpg/sg47_6_cif.got.tgz:11811.got - 2010.06.03 20:15:42.
