data_PCOD9382048
_publ_section_title
;
Structure prediction by ZEFSAII (Michael W. Deem and Ramdas Pophale) SiO2 
 PCOD9382048
Probable space group: P M M M
;
_chemical_formula_sum "Si O2"
_cell_formula_units_Z 52
_cell_length_a 14.784844
_cell_length_b 24.290788
_cell_length_c 7.585835
_cell_angle_alpha 90.000000
_cell_angle_beta 90.000000
_cell_angle_gamma 90.000000
_cell_volume 2724.342731
_symmetry_space_group_name_H-M "P M M M"
_symmetry_group_IT_number 47
_symmetry_cell_setting 'orthorhombic'
loop_
_space_group_symop_operation_xyz
x,y,z
-x,-y,z
x,-y,-z
-x,y,-z
-x,-y,-z
x,y,-z
-x,y,z
x,-y,z
loop_
_atom_site_type_symbol
_atom_site_label
_atom_site_fract_x
_atom_site_fract_y
_atom_site_fract_z
Si Si1 0.103306 0.620221 0.290265
Si Si2 0.895335 0.830973 0.786212
Si Si3 0.796024 0.940507 0.792840
Si Si4 0.600260 0.226827 0.715201
Si Si5 0.782708 0.278029 0.292047
Si Si6 0.103028 0.500000 0.209696
Si Si7 0.399530 0.098548 0.286919
O O1 0.096124 0.628710 0.500000
O O2 0.165222 0.669095 0.217377
O O3 0.142247 0.558898 0.263388
O O4 0.000000 0.621994 0.218742
O O5 0.844359 0.885932 0.720622
O O6 0.844436 0.776128 0.725978
O O7 0.000000 0.830823 0.732133
O O8 0.892330 0.830733 0.000000
O O9 0.688063 0.933354 0.777179
O O10 0.822305 0.000000 0.716726
O O11 0.818865 0.941671 0.000000
O O12 0.601931 0.226989 0.500000
O O13 0.500000 0.244964 0.769841
O O14 0.684159 0.262450 0.781012
O O15 0.611281 0.162700 0.766028
O O16 0.769497 0.288584 0.500000
O O17 0.000000 0.500000 0.283224
O O18 0.098684 0.500000 0.000000
O O19 0.398480 0.096354 0.500000
O O20 0.500000 0.080032 0.229879
#
# Coordination Sequence:
#
# PCOD9382048 Si02
#       7
#     8   8   8   8   8   4   8
#     4   9  17  28  43  67  98 128 156 188 227 269
#     4  10  21  35  49  66  90 120 154 195 240 281
#     4  10  21  35  49  66  89 119 156 195 236 283
#     4   8  14  26  46  71  96 120 147 183 229 277
#     4  10  18  30  51  75  97 123 155 191 232 280
#     4   9  17  29  45  65  92 129 166 194 223 261
#     4   9  17  31  51  72  93 118 148 185 233 286
#
# _framework density 19.087171000000001
#
# number of rings (size 3 to 8) (size 9 to 14) (size 15 to 20)
#    0.000    2.692    1.538    1.615    0.000    3.692 
#    0.000    4.615    0.000    0.462    0.000    2.692 
#    0.000    4.308    0.000    0.000    0.000    0.000 
#
# Total GULP energy -290018.877588 kJ/mol
# GULP energy per Si atom -5577.286107 kJ/mol
# Density = 1.904373 g / cm^3
# Si number density = 19.087171 Si / 1000 Ang^3
#
#
#
# Elastic Constant Matrix: (Units=GPa)
#
#
# Indices 1 2 3 4 5 6 
#
# 1 100.5066 62.1097 -7.7281 0.0000 0.0000 0.0000
# 2 62.1097 146.6403 -6.6328 0.0000 0.0000 0.0000
# 3 -7.7281 -6.6328 39.7153 0.0000 0.0000 0.0000
# 4 0.0000 0.0000 0.0000 12.1399 0.0000 0.0000
# 5 0.0000 0.0000 0.0000 0.0000 11.1550 0.0000
# 6 0.0000 0.0000 0.0000 0.0000 0.0000 32.8904
#
#
#
# Elastic Compliance Matrix: (Units=1/GPa)
#
#
# Indices 1 2 3 4 5 6 
#
# 1 0.013590 -0.005679 0.001696 0.000000 0.000000 0.000000
# 2 -0.005679 0.009245 0.000439 0.000000 0.000000 0.000000
# 3 0.001696 0.000439 0.025582 0.000000 0.000000 0.000000
# 4 0.000000 0.000000 0.000000 0.082373 0.000000 0.000000
# 5 0.000000 0.000000 0.000000 0.000000 0.089646 0.000000
# 6 0.000000 0.000000 0.000000 0.000000 0.000000 0.030404
#
#
# Mechanical properties :
#
#
# Convention : Reuss Voigt Hill
#
# Bulk Modulus (GPa) = 24.19678 42.48443 33.34061
# Shear Modulus (GPa) = 18.40234 27.17795 22.79015
#
# Velocity S-wave (km/s) = 3.10840 3.77753 3.45918
# Velocity P-wave (km/s) = 5.05840 6.42906 5.78447
#
# Compressibility (1/GPa) = 0.04132781
#
# Stress axis : x y z
#
# Youngs Moduli (GPa) = 73.58612 108.17042 39.08927
#
# Poissons Ratio (x) = 0.61432 -0.06629
# Poissons Ratio (y) = 0.41791 -0.01715
# Poissons Ratio (z) = -0.12479 -0.04747
#
# Static dielectric constant tensor:
#      x y z
#    x 1.669240 0.000000 0.000000 
#    y 0.000000 1.673290 0.000000 
#    z 0.000000 0.000000 1.722520 
# 
# From -- ./inp_files/7621.got.cif
#   From: 2010.05.17/outbox.cif.g08.bks.cpg/sg47_4_cif.got.tgz:7621.got - 2010.06.03 20:15:42.
