data_PCOD9382553
_publ_section_title
;
Structure prediction by ZEFSAII (Michael W. Deem and Ramdas Pophale) SiO2 
 PCOD9382553
Probable space group: P M M M
;
_chemical_formula_sum "Si O2"
_cell_formula_units_Z 64
_cell_length_a 9.284846
_cell_length_b 29.488842
_cell_length_c 14.618585
_cell_angle_alpha 90.000000
_cell_angle_beta 90.000000
_cell_angle_gamma 90.000000
_cell_volume 4002.559169
_symmetry_space_group_name_H-M "P M M M"
_symmetry_group_IT_number 47
_symmetry_cell_setting 'orthorhombic'
loop_
_space_group_symop_operation_xyz
x,y,z
-x,-y,z
x,-y,-z
-x,y,-z
-x,-y,-z
x,y,-z
-x,y,z
x,-y,z
loop_
_atom_site_type_symbol
_atom_site_label
_atom_site_fract_x
_atom_site_fract_y
_atom_site_fract_z
Si Si1 0.831866 0.449912 0.389062
Si Si2 0.326746 0.641125 0.392476
Si Si3 0.670860 0.948593 0.220711
Si Si4 0.832695 0.190913 0.390976
Si Si5 0.167529 0.129246 0.109767
Si Si6 0.327271 0.730354 0.285533
Si Si7 0.171519 0.915240 0.607034
Si Si8 0.327611 0.223230 0.105241
O O1 0.824920 0.450452 0.500000
O O2 0.782007 0.500000 0.358014
O O3 0.741824 0.406207 0.360434
O O4 0.000000 0.444933 0.364535
O O5 0.289424 0.648542 0.500000
O O6 0.500000 0.637929 0.387513
O O7 0.276911 0.683808 0.332246
O O8 0.500000 0.940080 0.221056
O O9 0.751618 0.911606 0.159377
O O10 0.735331 0.943596 0.322440
O O11 0.695798 0.000000 0.187836
O O12 0.818583 0.197604 0.500000
O O13 0.735564 0.226555 0.338723
O O14 0.799204 0.138085 0.373377
O O15 0.000000 0.198135 0.366443
O O16 0.244394 0.177070 0.130139
O O17 0.000000 0.130631 0.137529
O O18 0.174501 0.123216 0.000000
O O19 0.500000 0.730920 0.294124
O O20 0.291464 0.738279 0.179069
O O21 0.202405 0.923782 0.500000
O O22 0.000000 0.922703 0.620442
O O23 0.500000 0.214802 0.110312
O O24 0.292936 0.234774 0.000000
#
# Coordination Sequence:
#
# PCOD9382553 Si02
#       8
#     8   8   8   8   8   8   8   8
#     4   8  14  25  40  57  79 111 152 193 228 264
#     4   9  17  27  38  57  88 122 154 187 222 262
#     4  11  24  38  52  73  99 124 150 183 225 273
#     4   9  18  31  46  66  91 118 149 183 218 259
#     4  10  21  37  57  78  97 118 147 185 228 275
#     4  10  19  29  43  65  93 123 153 185 222 265
#     4   9  19  36  55  73  94 122 157 194 228 264
#     4   9  18  33  52  72  94 121 152 185 224 271
#
# _framework density 15.98977
#
# number of rings (size 3 to 8) (size 9 to 14) (size 15 to 20)
#    0.000    2.625    0.000    3.000    0.000    7.000 
#    0.000    6.250    0.000    0.000    0.000    0.000 
#    0.000    0.500    0.000    6.250    0.000    1.250 
#
# Total GULP energy -356861.338147 kJ/mol
# GULP energy per Si atom -5575.958409 kJ/mol
# Density = 1.595338 g / cm^3
# Si number density = 15.989770 Si / 1000 Ang^3
#
#
#
# Elastic Constant Matrix: (Units=GPa)
#
#
# Indices 1 2 3 4 5 6 
#
# 1 34.2761 45.1403 32.3932 0.0000 0.0000 0.0000
# 2 45.1403 95.2439 59.3414 0.0000 0.0000 0.0000
# 3 32.3932 59.3414 52.7329 0.0000 0.0000 0.0000
# 4 0.0000 0.0000 0.0000 15.6616 0.0000 0.0000
# 5 0.0000 0.0000 0.0000 0.0000 19.3624 0.0000
# 6 0.0000 0.0000 0.0000 0.0000 0.0000 9.7753
#
#
#
# Elastic Compliance Matrix: (Units=1/GPa)
#
#
# Indices 1 2 3 4 5 6 
#
# 1 0.085281 -0.026027 -0.023098 0.000000 0.000000 0.000000
# 2 -0.026027 0.043073 -0.032483 0.000000 0.000000 0.000000
# 3 -0.023098 -0.032483 0.069706 0.000000 0.000000 0.000000
# 4 0.000000 0.000000 0.000000 0.063850 0.000000 0.000000
# 5 0.000000 0.000000 0.000000 0.000000 0.051647 0.000000
# 6 0.000000 0.000000 0.000000 0.000000 0.000000 0.102298
#
#
# Mechanical properties :
#
#
# Convention : Reuss Voigt Hill
#
# Bulk Modulus (GPa) = 28.69964 50.66697 39.68330
# Shear Modulus (GPa) = 8.46474 11.98506 10.22490
#
# Velocity S-wave (km/s) = 2.30333 2.74075 2.53151
# Velocity P-wave (km/s) = 5.00615 6.46309 5.78070
#
# Compressibility (1/GPa) = 0.03484365
#
# Stress axis : x y z
#
# Youngs Moduli (GPa) = 11.72600 23.21637 14.34596
#
# Poissons Ratio (x) = 0.60425 0.33136
# Poissons Ratio (y) = 0.30519 0.46600
# Poissons Ratio (z) = 0.27085 0.75414
#
# Static dielectric constant tensor:
#      x y z
#    x 1.528940 0.000000 0.000000 
#    y 0.000000 1.527510 0.000000 
#    z 0.000000 0.000000 1.546160 
# 
# From -- ./inp_files/14297.got.cif
#   From: 2010.05.17/outbox.cif.g08.bks.cpg/sg47_8_cif.got.tgz:14297.got - 2010.06.03 20:15:42.
