data_PCOD9382297
_publ_section_title
;
Structure prediction by ZEFSAII (Michael W. Deem and Ramdas Pophale) SiO2 
 PCOD9382297
Probable space group: P M M M
;
_chemical_formula_sum "Si O2"
_cell_formula_units_Z 48
_cell_length_a 12.438115
_cell_length_b 14.191988
_cell_length_c 15.087227
_cell_angle_alpha 90.000000
_cell_angle_beta 90.000000
_cell_angle_gamma 90.000000
_cell_volume 2663.221130
_symmetry_space_group_name_H-M "P M M M"
_symmetry_group_IT_number 47
_symmetry_cell_setting 'orthorhombic'
loop_
_space_group_symop_operation_xyz
x,y,z
-x,-y,z
x,-y,-z
-x,y,-z
-x,-y,-z
x,y,-z
-x,y,z
x,-y,z
loop_
_atom_site_type_symbol
_atom_site_label
_atom_site_fract_x
_atom_site_fract_y
_atom_site_fract_z
Si Si1 0.272068 0.891163 0.837027
Si Si2 0.500000 0.108015 0.895369
Si Si3 0.625594 0.103910 0.349289
Si Si4 0.128950 0.274357 0.102714
Si Si5 0.626864 0.313029 0.403507
Si Si6 0.199287 0.612511 0.726630
Si Si7 0.000000 0.385554 0.602130
O O1 0.386479 0.848787 0.868847
O O2 0.290166 0.892033 0.731487
O O3 0.176614 0.828038 0.872967
O O4 0.263478 0.000000 0.867283
O O5 0.500000 0.000000 0.859189
O O6 0.500000 0.101906 0.000000
O O7 0.500000 0.107827 0.317082
O O8 0.639790 0.199582 0.402736
O O9 0.636513 0.000000 0.391615
O O10 0.179159 0.342316 0.177352
O O11 0.000000 0.276680 0.111080
O O12 0.155725 0.296967 0.000000
O O13 0.664034 0.349736 0.500000
O O14 0.500000 0.332761 0.395235
O O15 0.692414 0.354565 0.321831
O O16 0.196611 0.500000 0.733957
O O17 0.103995 0.642996 0.659124
O O18 0.000000 0.500000 0.599046
O O19 0.000000 0.352241 0.500000
#
# Coordination Sequence:
#
# PCOD9382297 Si02
#       7
#     8   4   8   8   8   8   4
#     4  10  18  32  54  81 113 149 188 232 282 334
#     4   9  16  26  46  78 108 136 177 226 274 322
#     4   9  16  29  52  81 114 151 188 226 269 321
#     4  11  24  40  58  82 112 148 192 239 292 352
#     4  10  21  36  57  88 122 154 187 225 280 348
#     4  11  22  39  61  83 110 144 187 241 292 339
#     4   9  18  34  59  87 106 129 175 235 291 334
#
# _framework density 18.023288000000001
#
# number of rings (size 3 to 8) (size 9 to 14) (size 15 to 20)
#    0.000    2.000    3.333    1.000    0.000    3.333 
#    0.000    4.167    0.000    0.000    0.000    1.167 
#    0.000    5.333    0.000    0.000    0.000    0.000 
#
# Total GULP energy -267462.818994 kJ/mol
# GULP energy per Si atom -5572.142062 kJ/mol
# Density = 1.798227 g / cm^3
# Si number density = 18.023288 Si / 1000 Ang^3
#
#
#
# Elastic Constant Matrix: (Units=GPa)
#
#
# Indices 1 2 3 4 5 6 
#
# 1 64.1874 28.8215 52.5403 0.0000 0.0000 0.0000
# 2 28.8215 66.9194 44.4405 0.0000 0.0000 0.0000
# 3 52.5403 44.4405 140.2756 0.0000 0.0000 0.0000
# 4 0.0000 0.0000 0.0000 11.5686 0.0000 0.0000
# 5 0.0000 0.0000 0.0000 0.0000 20.8473 0.0000
# 6 0.0000 0.0000 0.0000 0.0000 0.0000 17.4189
#
#
#
# Elastic Compliance Matrix: (Units=1/GPa)
#
#
# Indices 1 2 3 4 5 6 
#
# 1 0.023979 -0.005526 -0.007231 0.000000 0.000000 0.000000
# 2 -0.005526 0.020198 -0.004329 0.000000 0.000000 0.000000
# 3 -0.007231 -0.004329 0.011209 0.000000 0.000000 0.000000
# 4 0.000000 0.000000 0.000000 0.086441 0.000000 0.000000
# 5 0.000000 0.000000 0.000000 0.000000 0.047968 0.000000
# 6 0.000000 0.000000 0.000000 0.000000 0.000000 0.057409
#
#
# Mechanical properties :
#
#
# Convention : Reuss Voigt Hill
#
# Bulk Modulus (GPa) = 47.13750 58.10966 52.62358
# Shear Modulus (GPa) = 17.33416 19.67228 18.50322
#
# Velocity S-wave (km/s) = 3.10460 3.30736 3.20758
# Velocity P-wave (km/s) = 6.24994 6.84808 6.55584
#
# Compressibility (1/GPa) = 0.02121453
#
# Stress axis : x y z
#
# Youngs Moduli (GPa) = 41.70252 49.50914 89.21612
#
# Poissons Ratio (x) = 0.27357 0.64511
# Poissons Ratio (y) = 0.23043 0.38625
# Poissons Ratio (z) = 0.30155 0.21434
#
# Static dielectric constant tensor:
#      x y z
#    x 1.619840 0.000000 0.000000 
#    y 0.000000 1.617030 0.000000 
#    z 0.000000 0.000000 1.648570 
# 
# From -- ./inp_files/22721.got.cif
#   From: 2010.05.17/outbox.cif.g08.bks.cpg/sg47_12_cif.got.tgz:22721.got - 2010.06.03 20:15:42.
