data_PCOD9382394
_publ_section_title
;
Structure prediction by ZEFSAII (Michael W. Deem and Ramdas Pophale) SiO2 
 PCOD9382394
Probable space group: P M M M
;
_chemical_formula_sum "Si O2"
_cell_formula_units_Z 40
_cell_length_a 7.976252
_cell_length_b 17.486518
_cell_length_c 20.123855
_cell_angle_alpha 90.000000
_cell_angle_beta 90.000000
_cell_angle_gamma 90.000000
_cell_volume 2806.812392
_symmetry_space_group_name_H-M "P M M M"
_symmetry_group_IT_number 47
_symmetry_cell_setting 'orthorhombic'
loop_
_space_group_symop_operation_xyz
x,y,z
-x,-y,z
x,-y,-z
-x,y,-z
-x,-y,-z
x,y,-z
-x,y,z
x,-y,z
loop_
_atom_site_type_symbol
_atom_site_label
_atom_site_fract_x
_atom_site_fract_y
_atom_site_fract_z
Si Si1 0.198136 0.588847 0.716481
Si Si2 0.701750 0.590416 0.428128
Si Si3 0.500000 0.912822 0.919439
Si Si4 0.704578 0.500000 0.923467
Si Si5 0.810605 0.193781 0.078929
Si Si6 0.696757 0.654505 0.851567
O O1 0.260409 0.500000 0.720431
O O2 0.229362 0.618997 0.641896
O O3 0.282001 0.639078 0.773457
O O4 0.000000 0.587480 0.728705
O O5 0.758180 0.622224 0.500000
O O6 0.500000 0.595916 0.426003
O O7 0.744998 0.500000 0.428961
O O8 0.666647 0.865899 0.900664
O O9 0.500000 0.000000 0.894996
O O10 0.500000 0.915833 0.000000
O O11 0.500000 0.500000 0.920952
O O12 0.760219 0.576959 0.886880
O O13 0.755641 0.500000 0.000000
O O14 0.788157 0.271492 0.120115
O O15 0.000000 0.164059 0.087162
O O16 0.786946 0.210665 0.000000
O O17 0.500000 0.663628 0.867657
#
# Coordination Sequence:
#
# PCOD9382394 Si02
#       6
#     8   8   4   4   8   8
#     4  10  19  28  38  55  81 109 144 187 226 265
#     4   8  14  25  40  55  71  95 133 180 225 267
#     4   9  18  34  54  73  91 111 138 174 219 273
#     4   9  18  28  41  59  76 106 152 193 226 260
#     4  10  20  33  49  69  92 116 144 182 225 269
#     4  11  19  30  45  59  83 116 151 190 226 262
#
# _framework density 14.251042
#
# number of rings (size 3 to 8) (size 9 to 14) (size 15 to 20)
#    0.000    2.400    2.000    2.400    0.000    2.400 
#    0.000    4.000    0.000    2.400    0.000    0.000 
#    0.000    0.000    0.000    0.000    0.000    2.000 
#
# Total GULP energy -222899.738126 kJ/mol
# GULP energy per Si atom -5572.493453 kJ/mol
# Density = 1.421861 g / cm^3
# Si number density = 14.251042 Si / 1000 Ang^3
#
#
#
# Elastic Constant Matrix: (Units=GPa)
#
#
# Indices 1 2 3 4 5 6 
#
# 1 57.3863 30.6541 16.8526 0.0000 0.0000 0.0000
# 2 30.6541 72.6550 27.8463 0.0000 0.0000 0.0000
# 3 16.8526 27.8463 74.3200 0.0000 0.0000 0.0000
# 4 0.0000 0.0000 0.0000 3.0799 0.0000 0.0000
# 5 0.0000 0.0000 0.0000 0.0000 14.4925 0.0000
# 6 0.0000 0.0000 0.0000 0.0000 0.0000 6.2271
#
#
#
# Elastic Compliance Matrix: (Units=1/GPa)
#
#
# Indices 1 2 3 4 5 6 
#
# 1 0.022705 -0.008882 -0.001821 0.000000 0.000000 0.000000
# 2 -0.008882 0.019546 -0.005310 0.000000 0.000000 0.000000
# 3 -0.001821 -0.005310 0.015858 0.000000 0.000000 0.000000
# 4 0.000000 0.000000 0.000000 0.324688 0.000000 0.000000
# 5 0.000000 0.000000 0.000000 0.000000 0.069001 0.000000
# 6 0.000000 0.000000 0.000000 0.000000 0.000000 0.160588
#
#
# Mechanical properties :
#
#
# Convention : Reuss Voigt Hill
#
# Bulk Modulus (GPa) = 38.33683 39.45191 38.89437
# Shear Modulus (GPa) = 7.65575 13.36044 10.50809
#
# Velocity S-wave (km/s) = 2.32028 3.06519 2.71838
# Velocity P-wave (km/s) = 5.84275 6.34593 6.09953
#
# Compressibility (1/GPa) = 0.02608458
#
# Stress axis : x y z
#
# Youngs Moduli (GPa) = 44.04369 51.16156 63.06136
#
# Poissons Ratio (x) = 0.45440 0.11481
# Poissons Ratio (y) = 0.39118 0.33483
# Poissons Ratio (z) = 0.08019 0.27164
#
# Static dielectric constant tensor:
#      x y z
#    x 1.509980 0.000000 0.000000 
#    y 0.000000 1.437040 0.000000 
#    z 0.000000 0.000000 1.476210 
# 
# From -- ./inp_files/24861.got.cif
#   From: 2010.05.17/outbox.cif.g08.bks.cpg/sg47_13_cif.got.tgz:24861.got - 2010.06.03 20:15:42.
