data_PCOD9382777
_publ_section_title
;
Structure prediction by ZEFSAII (Michael W. Deem and Ramdas Pophale) SiO2 
 PCOD9382777
Probable space group: P M M M
;
_chemical_formula_sum "Si O2"
_cell_formula_units_Z 40
_cell_length_a 30.654405
_cell_length_b 7.816827
_cell_length_c 9.330327
_cell_angle_alpha 90.000000
_cell_angle_beta 90.000000
_cell_angle_gamma 90.000000
_cell_volume 2235.734641
_symmetry_space_group_name_H-M "P M M M"
_symmetry_group_IT_number 47
_symmetry_cell_setting 'orthorhombic'
loop_
_space_group_symop_operation_xyz
x,y,z
-x,-y,z
x,-y,-z
-x,y,-z
-x,-y,-z
x,y,-z
-x,y,z
x,-y,z
loop_
_atom_site_type_symbol
_atom_site_label
_atom_site_fract_x
_atom_site_fract_y
_atom_site_fract_z
Si Si1 0.450396 0.305129 0.174153
Si Si2 0.228564 0.697138 0.674566
Si Si3 0.133274 0.704691 0.338851
Si Si4 0.952396 0.206044 0.164741
Si Si5 0.706231 0.000000 0.673504
Si Si6 0.386627 0.000000 0.174093
O O1 0.500000 0.261454 0.219118
O O2 0.440820 0.500000 0.219713
O O3 0.414944 0.166089 0.217452
O O4 0.450778 0.304537 0.000000
O O5 0.226292 0.694867 0.500000
O O6 0.236427 0.500000 0.720486
O O7 0.180346 0.759440 0.722346
O O8 0.265690 0.831794 0.713842
O O9 0.128295 0.774629 0.500000
O O10 0.137404 0.500000 0.348489
O O11 0.090161 0.742110 0.250550
O O12 0.000000 0.264340 0.221295
O O13 0.953269 0.000000 0.163780
O O14 0.948975 0.264257 0.000000
O O15 0.660025 0.000000 0.751292
O O16 0.701103 0.000000 0.500000
O O17 0.382264 0.000000 0.000000
#
# Coordination Sequence:
#
# PCOD9382777 Si02
#       6
#     8   8   8   8   4   4
#     4   8  14  26  46  71  97 128 165 200 237 282
#     4   8  16  32  51  71  94 120 158 204 240 281
#     4   9  18  32  51  74  94 114 150 201 246 280
#     4   9  19  34  48  66  96 130 158 184 223 283
#     4  10  20  33  51  71  93 131 168 191 237 298
#     4  10  19  30  46  72 102 125 155 204 247 277
#
# _framework density 17.891210999999998
#
# number of rings (size 3 to 8) (size 9 to 14) (size 15 to 20)
#    0.000    3.200    0.000    2.700    1.400    3.600 
#    0.000    4.000    0.000    2.400    0.000    1.400 
#    0.000    0.000    0.000    0.000    0.000    0.000 
#
# Total GULP energy -222740.051223 kJ/mol
# GULP energy per Si atom -5568.501281 kJ/mol
# Density = 1.785049 g / cm^3
# Si number density = 17.891211 Si / 1000 Ang^3
#
#
#
# Elastic Constant Matrix: (Units=GPa)
#
#
# Indices 1 2 3 4 5 6 
#
# 1 213.1100 94.6059 47.3144 0.0000 0.0000 0.0000
# 2 94.6059 86.6239 22.5167 0.0000 0.0000 0.0000
# 3 47.3144 22.5167 18.9350 0.0000 0.0000 0.0000
# 4 0.0000 0.0000 0.0000 15.5067 0.0000 0.0000
# 5 0.0000 0.0000 0.0000 0.0000 33.2217 0.0000
# 6 0.0000 0.0000 0.0000 0.0000 0.0000 18.8271
#
#
#
# Elastic Compliance Matrix: (Units=1/GPa)
#
#
# Indices 1 2 3 4 5 6 
#
# 1 0.014221 -0.009111 -0.024701 0.000000 0.000000 0.000000
# 2 -0.009111 0.022546 -0.004045 0.000000 0.000000 0.000000
# 3 -0.024701 -0.004045 0.119345 0.000000 0.000000 0.000000
# 4 0.000000 0.000000 0.000000 0.064488 0.000000 0.000000
# 5 0.000000 0.000000 0.000000 0.000000 0.030101 0.000000
# 6 0.000000 0.000000 0.000000 0.000000 0.000000 0.053115
#
#
# Mechanical properties :
#
#
# Convention : Reuss Voigt Hill
#
# Bulk Modulus (GPa) = 12.43807 71.94919 42.19363
# Shear Modulus (GPa) = 12.30531 23.79322 18.04926
#
# Velocity S-wave (km/s) = 2.62541 3.65071 3.17966
# Velocity P-wave (km/s) = 4.01964 7.62052 6.09220
#
# Compressibility (1/GPa) = 0.08039835
#
# Stress axis : x y z
#
# Youngs Moduli (GPa) = 70.31828 44.35421 8.37908
#
# Poissons Ratio (x) = 0.40410 0.20697
# Poissons Ratio (y) = 0.64065 0.03389
# Poissons Ratio (z) = 1.73694 0.17940
#
# Static dielectric constant tensor:
#      x y z
#    x 1.619580 0.000000 0.000000 
#    y 0.000000 1.638870 0.000000 
#    z 0.000000 0.000000 1.603570 
# 
# From -- ./inp_files/13009.got.cif
#   From: 2010.05.17/outbox.cif.g08.bks.cpg/sg47_7_cif.got.tgz:13009.got - 2010.06.03 20:15:42.
