data_PCOD9382923
_publ_section_title
;
Structure prediction by ZEFSAII (Michael W. Deem and Ramdas Pophale) SiO2 
 PCOD9382923
Probable space group: P M M M
;
_chemical_formula_sum "Si O2"
_cell_formula_units_Z 29
_cell_length_a 7.914321
_cell_length_b 22.028474
_cell_length_c 7.884358
_cell_angle_alpha 90.000000
_cell_angle_beta 90.000000
_cell_angle_gamma 90.000000
_cell_volume 1374.562241
_symmetry_space_group_name_H-M "P M M M"
_symmetry_group_IT_number 47
_symmetry_cell_setting 'orthorhombic'
loop_
_space_group_symop_operation_xyz
x,y,z
-x,-y,z
x,-y,-z
-x,y,-z
-x,-y,-z
x,y,-z
-x,y,z
x,-y,z
loop_
_atom_site_type_symbol
_atom_site_label
_atom_site_fract_x
_atom_site_fract_y
_atom_site_fract_z
Si Si1 0.300448 0.196650 0.697639
Si Si2 0.197533 0.324899 0.813044
Si Si3 0.203211 0.934498 0.298741
Si Si4 0.000000 0.500000 0.500000
Si Si5 0.310997 0.597861 0.500000
O O1 0.242810 0.196941 0.500000
O O2 0.500000 0.207782 0.700082
O O3 0.213807 0.252597 0.789571
O O4 0.268077 0.129401 0.769971
O O5 0.292843 0.359113 0.664106
O O6 0.000000 0.341075 0.801396
O O7 0.260179 0.341752 0.000000
O O8 0.247684 0.934745 0.500000
O O9 0.000000 0.933372 0.287030
O O10 0.261199 0.000000 0.228841
O O11 0.152243 0.552341 0.500000
O O12 0.500000 0.570871 0.500000
#
# Coordination Sequence:
#
# PCOD9382923 Si02
#       5
#     8   8   8   1   4
#     4  10  19  30  50  83 120 161 211 269 331 391
#     4  11  23  41  67  98 135 178 223 274 330 386
#     4   8  14  25  42  67 103 152 207 262 324 392
#     4  12  26  52  78 110 148 182 220 260 314 382
#     4  12  25  47  77 108 142 180 221 267 320 380
#
# _framework density 21.097626000000002
#
# number of rings (size 3 to 8) (size 9 to 14) (size 15 to 20)
#    0.000    1.931    2.759    2.690    0.000    3.862 
#    0.000    4.138    0.000    2.483    0.000    5.793 
#    0.000    0.000    0.000    0.000    0.000    0.000 
#
# Total GULP energy -161618.313027 kJ/mol
# GULP energy per Si atom -5573.045277 kJ/mol
# Density = 2.104961 g / cm^3
# Si number density = 21.097626 Si / 1000 Ang^3
#
#
#
# Elastic Constant Matrix: (Units=GPa)
#
#
# Indices 1 2 3 4 5 6 
#
# 1 84.3528 36.8511 29.4092 0.0000 0.0000 0.0000
# 2 36.8511 123.9834 41.9063 0.0000 0.0000 0.0000
# 3 29.4092 41.9063 101.2849 0.0000 0.0000 0.0000
# 4 0.0000 0.0000 0.0000 -8.7674 0.0000 0.0000
# 5 0.0000 0.0000 0.0000 0.0000 -19.2863 0.0000
# 6 0.0000 0.0000 0.0000 0.0000 0.0000 -17.3308
#
#
#
# Elastic Compliance Matrix: (Units=1/GPa)
#
#
# Indices 1 2 3 4 5 6 
#
# 1 0.014265 -0.003302 -0.002776 0.000000 0.000000 0.000000
# 2 -0.003302 0.010141 -0.003237 0.000000 0.000000 0.000000
# 3 -0.002776 -0.003237 0.012019 0.000000 0.000000 0.000000
# 4 0.000000 0.000000 0.000000 -0.114059 0.000000 0.000000
# 5 0.000000 0.000000 0.000000 0.000000 -0.051850 0.000000
# 6 0.000000 0.000000 0.000000 0.000000 0.000000 -0.057701
#
#
# Mechanical properties :
#
#
# Convention : Reuss Voigt Hill
#
# Bulk Modulus (GPa) = 56.19510 58.43935 57.31723
# Shear Modulus (GPa) = -30.74590 4.35340 -13.19625
#
# Velocity S-wave (km/s) = -3.82162 1.43803 -2.50368
# Velocity P-wave (km/s) = 2.68710 5.52421 4.34381
#
# Compressibility (1/GPa) = 0.01779514
#
# Stress axis : x y z
#
# Youngs Moduli (GPa) = 70.10061 98.60852 83.20476
#
# Poissons Ratio (x) = 0.32558 0.23098
# Poissons Ratio (y) = 0.23145 0.26935
# Poissons Ratio (z) = 0.19460 0.31921
#
# Static dielectric constant tensor:
#      x y z
#    x 1.745590 0.000000 0.000000 
#    y 0.000000 1.763850 0.000000 
#    z 0.000000 0.000000 1.786830 
# 
# From -- ./inp_files/994.got.cif
#   From: 2010.05.17/outbox.cif.g08.bks.cpg/sg47_1_cif.got.tgz:994.got - 2010.06.03 20:15:42.
