data_PCOD9382927
_publ_section_title
;
Structure prediction by ZEFSAII (Michael W. Deem and Ramdas Pophale) SiO2 
 PCOD9382927
Probable space group: P M M M
;
_chemical_formula_sum "Si O2"
_cell_formula_units_Z 64
_cell_length_a 26.952913
_cell_length_b 14.368803
_cell_length_c 9.040991
_cell_angle_alpha 90.000000
_cell_angle_beta 90.000000
_cell_angle_gamma 90.000000
_cell_volume 3501.404914
_symmetry_space_group_name_H-M "P M M M"
_symmetry_group_IT_number 47
_symmetry_cell_setting 'orthorhombic'
loop_
_space_group_symop_operation_xyz
x,y,z
-x,-y,z
x,-y,-z
-x,y,-z
-x,-y,-z
x,y,-z
-x,y,z
x,-y,z
loop_
_atom_site_type_symbol
_atom_site_label
_atom_site_fract_x
_atom_site_fract_y
_atom_site_fract_z
Si Si1 0.250303 0.611705 0.825706
Si Si2 0.692824 0.112774 0.168406
Si Si3 0.056041 0.390722 0.322262
Si Si4 0.408669 0.891158 0.324633
Si Si5 0.445254 0.713076 0.176355
Si Si6 0.802919 0.894696 0.820104
Si Si7 0.647245 0.387796 0.673022
Si Si8 0.148113 0.711148 0.178583
O O1 0.246304 0.500000 0.808973
O O2 0.300224 0.642725 0.742998
O O3 0.198432 0.656691 0.776749
O O4 0.256353 0.632670 0.000000
O O5 0.647564 0.133709 0.275683
O O6 0.747627 0.140273 0.220413
O O7 0.695407 0.000000 0.159770
O O8 0.683457 0.146706 0.000000
O O9 0.059184 0.382870 0.500000
O O10 0.062132 0.500000 0.285260
O O11 0.099438 0.332769 0.247935
O O12 0.000000 0.362976 0.278000
O O13 0.414883 0.880690 0.500000
O O14 0.441764 0.818247 0.237015
O O15 0.417286 0.000000 0.287027
O O16 0.500000 0.674913 0.214166
O O17 0.400017 0.656874 0.247565
O O18 0.440001 0.713077 0.000000
O O19 0.842922 0.818300 0.777067
O O20 0.810994 0.000000 0.766835
O O21 0.801833 0.897959 0.000000
O O22 0.646080 0.364447 0.500000
O O23 0.644827 0.500000 0.688586
O O24 0.145000 0.705633 0.000000
#
# Coordination Sequence:
#
# PCOD9382927 Si02
#       8
#     8   8   8   8   8   8   8   8
#     4   9  18  32  50  77 113 145 173 212 264 321
#     4   8  14  27  48  72  99 136 179 215 252 307
#     4   9  19  36  55  75 104 143 183 224 275 333
#     4  10  21  36  55  81 112 142 173 217 272 325
#     4  11  25  42  60  81 104 136 181 228 271 324
#     4   8  15  28  46  72 108 146 181 218 261 308
#     4  10  22  40  61  84 110 141 176 217 270 330
#     4  10  19  30  51  83 112 142 183 227 267 310
#
# _framework density 18.278376999999999
#
# number of rings (size 3 to 8) (size 9 to 14) (size 15 to 20)
#    0.000    2.625    0.000    2.625    1.750    4.500 
#    0.000    5.000    0.000    1.500    0.000    2.625 
#    0.000    0.000    0.000    0.000    0.000    0.000 
#
# Total GULP energy -357135.785962 kJ/mol
# GULP energy per Si atom -5580.246656 kJ/mol
# Density = 1.823677 g / cm^3
# Si number density = 18.278377 Si / 1000 Ang^3
#
#
#
# Elastic Constant Matrix: (Units=GPa)
#
#
# Indices 1 2 3 4 5 6 
#
# 1 161.3561 67.8521 52.2223 0.0000 0.0000 0.0000
# 2 67.8521 61.0821 34.0646 0.0000 0.0000 0.0000
# 3 52.2223 34.0646 43.8384 0.0000 0.0000 0.0000
# 4 0.0000 0.0000 0.0000 20.9743 0.0000 0.0000
# 5 0.0000 0.0000 0.0000 0.0000 102.6120 0.0000
# 6 0.0000 0.0000 0.0000 0.0000 0.0000 28.7297
#
#
#
# Elastic Compliance Matrix: (Units=1/GPa)
#
#
# Indices 1 2 3 4 5 6 
#
# 1 0.012877 -0.010147 -0.007455 0.000000 0.000000 0.000000
# 2 -0.010147 0.036887 -0.016576 0.000000 0.000000 0.000000
# 3 -0.007455 -0.016576 0.044572 0.000000 0.000000 0.000000
# 4 0.000000 0.000000 0.000000 0.047677 0.000000 0.000000
# 5 0.000000 0.000000 0.000000 0.000000 0.009745 0.000000
# 6 0.000000 0.000000 0.000000 0.000000 0.000000 0.034807
#
#
# Mechanical properties :
#
#
# Convention : Reuss Voigt Hill
#
# Bulk Modulus (GPa) = 38.48997 63.83939 51.16468
# Shear Modulus (GPa) = 18.96948 37.93906 28.45427
#
# Velocity S-wave (km/s) = 3.22500 4.56085 3.94981
# Velocity P-wave (km/s) = 5.91362 7.92067 6.98956
#
# Compressibility (1/GPa) = 0.02598080
#
# Stress axis : x y z
#
# Youngs Moduli (GPa) = 77.65699 27.11019 22.43548
#
# Poissons Ratio (x) = 0.27508 0.16727
# Poissons Ratio (y) = 0.78795 0.37188
# Poissons Ratio (z) = 0.57897 0.44937
#
# Static dielectric constant tensor:
#      x y z
#    x 1.617980 0.000000 0.000000 
#    y 0.000000 1.665720 0.000000 
#    z 0.000000 0.000000 1.609490 
# 
# From -- ./inp_files/7779.got.cif
#   From: 2010.05.17/outbox.cif.g08.bks.cpg/sg47_4_cif.got.tgz:7779.got - 2010.06.03 20:15:42.
