data_PCOD9382559
_publ_section_title
;
Structure prediction by ZEFSAII (Michael W. Deem and Ramdas Pophale) SiO2 
 PCOD9382559
Probable space group: P M M M
;
_chemical_formula_sum "Si O2"
_cell_formula_units_Z 44
_cell_length_a 14.209673
_cell_length_b 16.346565
_cell_length_c 12.762205
_cell_angle_alpha 90.000000
_cell_angle_beta 90.000000
_cell_angle_gamma 90.000000
_cell_volume 2964.396597
_symmetry_space_group_name_H-M "P M M M"
_symmetry_group_IT_number 47
_symmetry_cell_setting 'orthorhombic'
loop_
_space_group_symop_operation_xyz
x,y,z
-x,-y,z
x,-y,-z
-x,y,-z
-x,-y,-z
x,y,-z
-x,y,z
x,-y,z
loop_
_atom_site_type_symbol
_atom_site_label
_atom_site_fract_x
_atom_site_fract_y
_atom_site_fract_z
Si Si1 0.613070 0.597449 0.500000
Si Si2 0.288842 0.673896 0.705078
Si Si3 0.109640 0.405442 0.626135
Si Si4 0.613821 0.000000 0.122444
Si Si5 0.603631 0.597290 0.116907
Si Si6 0.613310 0.908988 0.500000
Si Si7 0.385937 0.844251 0.269714
O O1 0.637567 0.500000 0.500000
O O2 0.500000 0.603644 0.500000
O O3 0.654542 0.641991 0.397545
O O4 0.180286 0.659007 0.677400
O O5 0.317277 0.617262 0.801324
O O6 0.326405 0.761864 0.742598
O O7 0.118385 0.399385 0.500000
O O8 0.135149 0.500000 0.653330
O O9 0.000000 0.393226 0.652626
O O10 0.638678 0.918329 0.189743
O O11 0.500000 0.000000 0.119467
O O12 0.645875 0.000000 0.000000
O O13 0.500000 0.626998 0.153372
O O14 0.597759 0.500000 0.109529
O O15 0.619716 0.630299 0.000000
O O16 0.500000 0.913788 0.500000
O O17 0.636574 0.868418 0.610088
O O18 0.652816 0.000000 0.500000
O O19 0.500000 0.830965 0.261732
#
# Coordination Sequence:
#
# PCOD9382559 Si02
#       7
#     4   8   8   4   8   4   8
#     4  11  21  29  40  66 104 136 158 192 241 291
#     4  12  20  29  47  71  96 123 164 206 247 287
#     4   9  18  33  50  68  94 129 167 205 249 298
#     4   9  18  33  49  65  92 132 170 200 235 282
#     4   9  18  31  44  60  89 130 165 188 221 278
#     4   9  15  27  43  56  84 123 152 178 220 275
#     4  10  19  29  43  67  96 126 159 197 237 284
#
# _framework density 14.842817999999999
#
# number of rings (size 3 to 8) (size 9 to 14) (size 15 to 20)
#    0.000    2.091    1.818    4.909    0.000    2.909 
#    0.000    1.818    0.000    0.545    0.000    3.182 
#    0.000    2.909    0.000    0.000    0.000    0.000 
#
# Total GULP energy -244982.440994 kJ/mol
# GULP energy per Si atom -5567.782750 kJ/mol
# Density = 1.480903 g / cm^3
# Si number density = 14.842818 Si / 1000 Ang^3
#
#
#
# Elastic Constant Matrix: (Units=GPa)
#
#
# Indices 1 2 3 4 5 6 
#
# 1 65.3620 34.7641 25.7671 0.0000 0.0000 0.0000
# 2 34.7641 85.3037 30.3635 0.0000 0.0000 0.0000
# 3 25.7671 30.3635 73.6682 0.0000 0.0000 0.0000
# 4 0.0000 0.0000 0.0000 36.6262 0.0000 0.0000
# 5 0.0000 0.0000 0.0000 0.0000 0.2426 0.0000
# 6 0.0000 0.0000 0.0000 0.0000 0.0000 4.2756
#
#
#
# Elastic Compliance Matrix: (Units=1/GPa)
#
#
# Indices 1 2 3 4 5 6 
#
# 1 0.020686 -0.006862 -0.004407 0.000000 0.000000 0.000000
# 2 -0.006862 0.016014 -0.004201 0.000000 0.000000 0.000000
# 3 -0.004407 -0.004201 0.016847 0.000000 0.000000 0.000000
# 4 0.000000 0.000000 0.000000 0.027303 0.000000 0.000000
# 5 0.000000 0.000000 0.000000 0.000000 4.122574 0.000000
# 6 0.000000 0.000000 0.000000 0.000000 0.000000 0.233886
#
#
# Mechanical properties :
#
#
# Convention : Reuss Voigt Hill
#
# Bulk Modulus (GPa) = 44.23041 45.12480 44.67760
# Shear Modulus (GPa) = 1.11712 17.12481 9.12097
#
# Velocity S-wave (km/s) = 0.86849 3.40037 2.48161
# Velocity P-wave (km/s) = 5.55604 6.77380 6.19492
#
# Compressibility (1/GPa) = 0.02260888
#
# Stress axis : x y z
#
# Youngs Moduli (GPa) = 48.34100 62.44409 59.35666
#
# Poissons Ratio (x) = 0.42847 0.26161
# Poissons Ratio (y) = 0.33170 0.24933
# Poissons Ratio (z) = 0.21306 0.26230
#
# Static dielectric constant tensor:
#      x y z
#    x 1.490050 0.000000 0.000000 
#    y 0.000000 1.573310 0.000000 
#    z 0.000000 0.000000 0.962860 
# 
# From -- ./inp_files/17435.got.cif
#   From: 2010.05.17/outbox.cif.g08.bks.cpg/sg47_9_cif.got.tgz:17435.got - 2010.06.03 20:15:42.
