data_PCOD9382659
_publ_section_title
;
Structure prediction by ZEFSAII (Michael W. Deem and Ramdas Pophale) SiO2 
 PCOD9382659
Probable space group: P M M M
;
_chemical_formula_sum "Si O2"
_cell_formula_units_Z 44
_cell_length_a 8.898291
_cell_length_b 18.958120
_cell_length_c 19.923769
_cell_angle_alpha 90.000000
_cell_angle_beta 90.000000
_cell_angle_gamma 90.000000
_cell_volume 3361.037593
_symmetry_space_group_name_H-M "P M M M"
_symmetry_group_IT_number 47
_symmetry_cell_setting 'orthorhombic'
loop_
_space_group_symop_operation_xyz
x,y,z
-x,-y,z
x,-y,-z
-x,y,-z
-x,-y,-z
x,y,-z
-x,y,z
x,-y,z
loop_
_atom_site_type_symbol
_atom_site_label
_atom_site_fract_x
_atom_site_fract_y
_atom_site_fract_z
Si Si1 0.318450 0.268939 0.579924
Si Si2 0.322125 0.915648 0.212952
Si Si3 0.175798 0.085501 0.925825
Si Si4 0.820966 0.134827 0.652311
Si Si5 0.319754 0.424215 0.419365
Si Si6 0.676620 0.000000 0.580341
O O1 0.287202 0.261896 0.500000
O O2 0.500000 0.264839 0.587078
O O3 0.241994 0.206494 0.620426
O O4 0.266356 0.347166 0.603332
O O5 0.500000 0.906020 0.220889
O O6 0.269433 0.892327 0.138955
O O7 0.234635 0.876052 0.271623
O O8 0.290683 0.000000 0.219413
O O9 0.000000 0.104075 0.917728
O O10 0.182993 0.000000 0.926935
O O11 0.226496 0.109743 0.000000
O O12 0.752804 0.069251 0.610822
O O13 0.000000 0.133004 0.648978
O O14 0.298695 0.424244 0.500000
O O15 0.500000 0.424598 0.408525
O O16 0.260130 0.500000 0.393815
O O17 0.500000 0.000000 0.598493
O O18 0.689185 0.000000 0.500000
#
# Coordination Sequence:
#
# PCOD9382659 Si02
#       6
#     8   8   8   8   8   4
#     4   9  17  29  44  60  79 102 128 163 203 240
#     4  10  19  30  44  58  75  99 130 167 201 235
#     4   8  14  25  41  60  81 101 121 150 190 234
#     4  12  23  32  43  57  76 102 132 167 205 245
#     4   7  10  19  38  62  81  96 119 152 190 233
#     4  11  23  37  49  57  68  91 128 173 215 249
#
# _framework density 13.091196
#
# number of rings (size 3 to 8) (size 9 to 14) (size 15 to 20)
#    0.000    2.636    0.909    5.182    0.000    4.364 
#    0.000    1.818    0.000    0.545    0.000    2.545 
#    0.000    0.000    0.000    0.000    0.000    0.909 
#
# Total GULP energy -245000.154402 kJ/mol
# GULP energy per Si atom -5568.185327 kJ/mol
# Density = 1.306140 g / cm^3
# Si number density = 13.091196 Si / 1000 Ang^3
#
#
#
# Elastic Constant Matrix: (Units=GPa)
#
#
# Indices 1 2 3 4 5 6 
#
# 1 51.5930 39.6006 44.2000 0.0000 0.0000 0.0000
# 2 39.6006 109.1525 45.7019 0.0000 0.0000 0.0000
# 3 44.2000 45.7019 75.2499 0.0000 0.0000 0.0000
# 4 0.0000 0.0000 0.0000 0.0914 0.0000 0.0000
# 5 0.0000 0.0000 0.0000 0.0000 21.0553 0.0000
# 6 0.0000 0.0000 0.0000 0.0000 0.0000 0.0109
#
#
#
# Elastic Compliance Matrix: (Units=1/GPa)
#
#
# Indices 1 2 3 4 5 6 
#
# 1 0.042316 -0.006632 -0.020828 0.000000 0.000000 0.000000
# 2 -0.006632 0.013325 -0.004197 0.000000 0.000000 0.000000
# 3 -0.020828 -0.004197 0.028072 0.000000 0.000000 0.000000
# 4 0.000000 0.000000 0.000000 10.943347 0.000000 0.000000
# 5 0.000000 0.000000 0.000000 0.000000 0.047494 0.000000
# 6 0.000000 0.000000 0.000000 0.000000 0.000000 91.889448
#
#
# Mechanical properties :
#
#
# Convention : Reuss Voigt Hill
#
# Bulk Modulus (GPa) = 49.02152 55.00005 52.01078
# Shear Modulus (GPa) = 0.04853 11.33104 5.68978
#
# Velocity S-wave (km/s) = 0.19274 2.94521 2.08703
# Velocity P-wave (km/s) = 6.13001 7.32597 6.75451
#
# Compressibility (1/GPa) = 0.02039921
#
# Stress axis : x y z
#
# Youngs Moduli (GPa) = 23.63181 75.04736 35.62271
#
# Poissons Ratio (x) = 0.49769 0.74194
# Poissons Ratio (y) = 0.15672 0.14952
# Poissons Ratio (z) = 0.49220 0.31500
#
# Static dielectric constant tensor:
#      x y z
#    x 1.431660 0.000000 0.000000 
#    y 0.000000 1.435340 0.000000 
#    z 0.000000 0.000000 1.424270 
# 
# From -- ./inp_files/26662.got.cif
#   From: 2010.05.17/outbox.cif.g08.bks.cpg/sg47_14_cif.got.tgz:26662.got - 2010.06.03 20:15:42.
