data_PCOD9382248
_publ_section_title
;
Structure prediction by ZEFSAII (Michael W. Deem and Ramdas Pophale) SiO2 
 PCOD9382248
Probable space group: P M M M
;
_chemical_formula_sum "Si O2"
_cell_formula_units_Z 52
_cell_length_a 15.431347
_cell_length_b 20.375224
_cell_length_c 7.399726
_cell_angle_alpha 90.000000
_cell_angle_beta 90.000000
_cell_angle_gamma 90.000000
_cell_volume 2326.600773
_symmetry_space_group_name_H-M "P M M M"
_symmetry_group_IT_number 47
_symmetry_cell_setting 'orthorhombic'
loop_
_space_group_symop_operation_xyz
x,y,z
-x,-y,z
x,-y,-z
-x,y,-z
-x,-y,-z
x,y,-z
-x,y,z
x,-y,z
loop_
_atom_site_type_symbol
_atom_site_label
_atom_site_fract_x
_atom_site_fract_y
_atom_site_fract_z
Si Si1 0.398859 0.000000 0.779286
Si Si2 0.318150 0.634469 0.708206
Si Si3 0.902963 0.830247 0.220949
Si Si4 0.594288 0.763779 0.782152
Si Si5 0.132416 0.317279 0.793348
Si Si6 0.399889 0.500000 0.278416
Si Si7 0.000000 0.424874 0.778942
Si Si8 0.719632 0.877247 0.220465
O O1 0.342003 0.937023 0.723286
O O2 0.500000 0.000000 0.721122
O O3 0.401622 0.000000 0.000000
O O4 0.295356 0.623717 0.500000
O O5 0.391534 0.689681 0.720765
O O6 0.233295 0.665965 0.794132
O O7 0.351344 0.565649 0.782629
O O8 0.886988 0.754791 0.283397
O O9 0.819989 0.873447 0.277917
O O10 0.000000 0.850696 0.275406
O O11 0.901358 0.830314 0.000000
O O12 0.500000 0.788962 0.725781
O O13 0.671413 0.810689 0.721086
O O14 0.596324 0.763695 0.000000
O O15 0.081256 0.380182 0.719432
O O16 0.102626 0.311754 0.000000
O O17 0.500000 0.500000 0.222563
O O18 0.400244 0.500000 0.500000
O O19 0.000000 0.500000 0.715077
O O20 0.000000 0.429264 0.000000
O O21 0.720159 0.878450 0.000000
#
# Coordination Sequence:
#
# PCOD9382248 Si02
#       8
#     4   8   8   8   8   4   4   8
#     4   9  16  26  41  65 102 144 172 197 246 306
#     4  11  22  35  52  73  99 131 169 209 257 310
#     4   9  15  26  46  69  93 128 167 201 248 303
#     4  10  19  32  52  76 100 128 167 215 258 297
#     4  10  18  32  52  73  99 130 166 209 256 306
#     4   9  20  38  53  64  89 132 170 199 245 311
#     4   9  18  30  49  77 101 128 168 211 258 315
#     4   9  16  27  44  70 102 132 167 206 246 298
#
# _framework density 22.350203
#
# number of rings (size 3 to 8) (size 9 to 14) (size 15 to 20)
#    0.000    2.385    2.308    1.385    1.077    2.769 
#    0.000    1.923    0.000    5.538    0.000    0.538 
#    0.000    1.846    0.000    1.385    0.000    1.538 
#
# Total GULP energy -290289.961722 kJ/mol
# GULP energy per Si atom -5582.499264 kJ/mol
# Density = 2.229933 g / cm^3
# Si number density = 22.350203 Si / 1000 Ang^3
#
#
#
# Elastic Constant Matrix: (Units=GPa)
#
#
# Indices 1 2 3 4 5 6 
#
# 1 195.4159 68.8887 2.9800 0.0000 0.0000 0.0000
# 2 68.8887 128.5875 -0.6837 0.0000 0.0000 0.0000
# 3 2.9800 -0.6837 72.7742 0.0000 0.0000 0.0000
# 4 0.0000 0.0000 0.0000 4.2995 0.0000 0.0000
# 5 0.0000 0.0000 0.0000 0.0000 54.7187 0.0000
# 6 0.0000 0.0000 0.0000 0.0000 0.0000 38.3257
#
#
#
# Elastic Compliance Matrix: (Units=1/GPa)
#
#
# Indices 1 2 3 4 5 6 
#
# 1 0.006315 -0.003385 -0.000290 0.000000 0.000000 0.000000
# 2 -0.003385 0.009591 0.000229 0.000000 0.000000 0.000000
# 3 -0.000290 0.000229 0.013755 0.000000 0.000000 0.000000
# 4 0.000000 0.000000 0.000000 0.232587 0.000000 0.000000
# 5 0.000000 0.000000 0.000000 0.000000 0.018275 0.000000
# 6 0.000000 0.000000 0.000000 0.000000 0.000000 0.026092
#
#
# Mechanical properties :
#
#
# Convention : Reuss Voigt Hill
#
# Bulk Modulus (GPa) = 43.91993 59.90529 51.91261
# Shear Modulus (GPa) = 15.57158 41.17495 28.37326
#
# Velocity S-wave (km/s) = 2.64239 4.29682 3.56685
# Velocity P-wave (km/s) = 5.38545 7.17482 6.34354
#
# Compressibility (1/GPa) = 0.02276871
#
# Stress axis : x y z
#
# Youngs Moduli (GPa) = 158.35597 104.26123 72.69992
#
# Poissons Ratio (x) = 0.35289 0.02111
# Poissons Ratio (y) = 0.53598 -0.01663
# Poissons Ratio (z) = 0.04598 -0.02385
#
# Static dielectric constant tensor:
#      x y z
#    x 1.821780 0.000000 0.000000 
#    y 0.000000 1.786210 0.000000 
#    z 0.000000 0.000000 1.871730 
# 
# From -- ./inp_files/7115.got.cif
#   From: 2010.05.17/outbox.cif.g08.bks.cpg/sg47_4_cif.got.tgz:7115.got - 2010.06.03 20:15:42.
