data_PCOD9382246
_publ_section_title
;
Structure prediction by ZEFSAII (Michael W. Deem and Ramdas Pophale) SiO2 
 PCOD9382246
Probable space group: P M M M
;
_chemical_formula_sum "Si O2"
_cell_formula_units_Z 52
_cell_length_a 23.485964
_cell_length_b 7.689540
_cell_length_c 14.925641
_cell_angle_alpha 90.000000
_cell_angle_beta 90.000000
_cell_angle_gamma 90.000000
_cell_volume 2695.514937
_symmetry_space_group_name_H-M "P M M M"
_symmetry_group_IT_number 47
_symmetry_cell_setting 'orthorhombic'
loop_
_space_group_symop_operation_xyz
x,y,z
-x,-y,z
x,-y,-z
-x,y,-z
-x,-y,-z
x,y,-z
-x,y,z
x,-y,z
loop_
_atom_site_type_symbol
_atom_site_label
_atom_site_fract_x
_atom_site_fract_y
_atom_site_fract_z
Si Si1 0.715142 0.711798 0.598878
Si Si2 0.564307 0.790006 0.897737
Si Si3 0.000000 0.713990 0.102928
Si Si4 0.674964 0.704964 0.788584
Si Si5 0.785444 0.796995 0.898128
Si Si6 0.893088 0.702382 0.216277
Si Si7 0.848257 0.712415 0.599230
O O1 0.696078 0.771459 0.500000
O O2 0.712837 0.500000 0.597229
O O3 0.681875 0.772144 0.686927
O O4 0.781667 0.759746 0.609670
O O5 0.500000 0.732610 0.875051
O O6 0.613235 0.732933 0.830682
O O7 0.564189 0.000000 0.898562
O O8 0.576802 0.732577 0.000000
O O9 0.056094 0.774226 0.155879
O O10 0.000000 0.500000 0.100420
O O11 0.000000 0.771151 0.000000
O O12 0.686741 0.500000 0.785994
O O13 0.723879 0.781298 0.852281
O O14 0.833760 0.710900 0.837381
O O15 0.800240 0.000000 0.901616
O O16 0.784468 0.728579 0.000000
O O17 0.907467 0.500000 0.230042
O O18 0.882808 0.778123 0.315159
O O19 0.867278 0.767529 0.500000
O O20 0.849530 0.500000 0.600547
#
# Coordination Sequence:
#
# PCOD9382246 Si02
#       7
#     8   8   4   8   8   8   8
#     4   8  14  26  45  71 101 128 155 193 246 300
#     4   9  19  36  54  71  99 141 176 200 239 293
#     4   9  18  30  46  70  98 127 161 207 256 295
#     4  11  20  31  52  80 102 126 164 207 249 289
#     4  11  23  35  47  68 100 133 162 199 249 298
#     4  10  18  32  52  72  94 126 166 204 245 296
#     4   8  13  24  45  71  97 124 155 196 246 295
#
# _framework density 19.291305999999999
#
# number of rings (size 3 to 8) (size 9 to 14) (size 15 to 20)
#    0.000    2.538    1.538    3.231    0.000    4.308 
#    0.000    1.538    0.000    7.385    0.000    3.231 
#    0.000    1.231    0.000    0.000    0.000    0.000 
#
# Total GULP energy -290075.649264 kJ/mol
# GULP energy per Si atom -5578.377870 kJ/mol
# Density = 1.924740 g / cm^3
# Si number density = 19.291306 Si / 1000 Ang^3
#
#
#
# Elastic Constant Matrix: (Units=GPa)
#
#
# Indices 1 2 3 4 5 6 
#
# 1 97.8372 -7.9253 87.4364 0.0000 0.0000 0.0000
# 2 -7.9253 31.8535 0.0450 0.0000 0.0000 0.0000
# 3 87.4364 0.0450 210.1670 0.0000 0.0000 0.0000
# 4 0.0000 0.0000 0.0000 57.3096 0.0000 0.0000
# 5 0.0000 0.0000 0.0000 0.0000 32.3666 0.0000
# 6 0.0000 0.0000 0.0000 0.0000 0.0000 28.6513
#
#
#
# Elastic Compliance Matrix: (Units=1/GPa)
#
#
# Indices 1 2 3 4 5 6 
#
# 1 0.016812 0.004193 -0.006995 0.000000 0.000000 0.000000
# 2 0.004193 0.032439 -0.001751 0.000000 0.000000 0.000000
# 3 -0.006995 -0.001751 0.007669 0.000000 0.000000 0.000000
# 4 0.000000 0.000000 0.000000 0.017449 0.000000 0.000000
# 5 0.000000 0.000000 0.000000 0.000000 0.030896 0.000000
# 6 0.000000 0.000000 0.000000 0.000000 0.000000 0.034902
#
#
# Mechanical properties :
#
#
# Convention : Reuss Voigt Hill
#
# Bulk Modulus (GPa) = 20.91484 55.44111 38.17797
# Shear Modulus (GPa) = 30.26384 41.01894 35.64139
#
# Velocity S-wave (km/s) = 3.96508 4.61618 4.30296
# Velocity P-wave (km/s) = 5.64160 7.56395 6.67237
#
# Compressibility (1/GPa) = 0.04781295
#
# Stress axis : x y z
#
# Youngs Moduli (GPa) = 59.47962 30.82674 130.39801
#
# Poissons Ratio (x) = -0.12925 0.91219
# Poissons Ratio (y) = -0.24939 0.22837
# Poissons Ratio (z) = 0.41609 0.05399
#
# Static dielectric constant tensor:
#      x y z
#    x 1.629440 0.000000 0.000000 
#    y 0.000000 1.730360 0.000000 
#    z 0.000000 0.000000 1.699140 
# 
# From -- ./inp_files/25454.got.cif
#   From: 2010.05.17/outbox.cif.g08.bks.cpg/sg47_13_cif.got.tgz:25454.got - 2010.06.03 20:15:42.
