data_PCOD9382032
_publ_section_title
;
Structure prediction by ZEFSAII (Michael W. Deem and Ramdas Pophale) SiO2 
 PCOD9382032
Probable space group: P M M M
;
_chemical_formula_sum "Si O2"
_cell_formula_units_Z 52
_cell_length_a 23.736686
_cell_length_b 14.687791
_cell_length_c 8.552658
_cell_angle_alpha 90.000000
_cell_angle_beta 90.000000
_cell_angle_gamma 90.000000
_cell_volume 2981.794263
_symmetry_space_group_name_H-M "P M M M"
_symmetry_group_IT_number 47
_symmetry_cell_setting 'orthorhombic'
loop_
_space_group_symop_operation_xyz
x,y,z
-x,-y,z
x,-y,-z
-x,y,-z
-x,-y,-z
x,y,-z
-x,y,z
x,-y,z
loop_
_atom_site_type_symbol
_atom_site_label
_atom_site_fract_x
_atom_site_fract_y
_atom_site_fract_z
Si Si1 0.220372 0.895384 0.809418
Si Si2 0.000000 0.105381 0.687436
Si Si3 0.564200 0.895847 0.311516
Si Si4 0.891827 0.788128 0.187387
Si Si5 0.148178 0.396906 0.687132
Si Si6 0.725070 0.602375 0.811174
Si Si7 0.668573 0.785886 0.188670
O O1 0.165866 0.838061 0.759514
O O2 0.278428 0.847968 0.759787
O O3 0.217049 0.000000 0.757868
O O4 0.220294 0.895000 0.000000
O O5 0.944919 0.157386 0.747881
O O6 0.000000 0.106155 0.500000
O O7 0.000000 0.000000 0.740782
O O8 0.565021 0.895016 0.500000
O O9 0.500000 0.874926 0.261774
O O10 0.610811 0.827100 0.250296
O O11 0.577175 0.000000 0.261095
O O12 0.888872 0.683982 0.243219
O O13 0.893169 0.790198 0.000000
O O14 0.146358 0.392657 0.500000
O O15 0.132245 0.500000 0.735958
O O16 0.212577 0.382319 0.743192
O O17 0.707095 0.500000 0.767789
O O18 0.683460 0.682925 0.762113
O O19 0.730116 0.606442 0.000000
O O20 0.667000 0.787954 0.000000
#
# Coordination Sequence:
#
# PCOD9382032 Si02
#       7
#     8   4   8   8   8   8   8
#     4   9  17  29  47  75 108 134 162 210 264 308
#     4  11  25  43  60  81 112 147 183 224 268 317
#     4   9  19  35  51  69  99 139 178 215 259 312
#     4  11  21  37  59  81 107 144 185 222 264 319
#     4  10  20  34  54  81 112 143 175 218 272 323
#     4   9  17  31  51  76 107 140 174 213 261 318
#     4  10  18  30  50  78 106 133 170 216 264 309
#
# _framework density 17.439164000000002
#
# number of rings (size 3 to 8) (size 9 to 14) (size 15 to 20)
#    0.000    2.231    1.538    2.538    0.000    4.000 
#    0.000    1.154    0.000    5.538    0.000    3.231 
#    0.000    0.000    0.000    0.000    0.000    0.000 
#
# Total GULP energy -290162.052143 kJ/mol
# GULP energy per Si atom -5580.039464 kJ/mol
# Density = 1.739947 g / cm^3
# Si number density = 17.439164 Si / 1000 Ang^3
#
#
#
# Elastic Constant Matrix: (Units=GPa)
#
#
# Indices 1 2 3 4 5 6 
#
# 1 116.7244 92.1433 26.3458 0.0000 0.0000 0.0000
# 2 92.1433 176.2442 36.1541 0.0000 0.0000 0.0000
# 3 26.3458 36.1541 19.0148 0.0000 0.0000 0.0000
# 4 0.0000 0.0000 0.0000 21.8196 0.0000 0.0000
# 5 0.0000 0.0000 0.0000 0.0000 45.1653 0.0000
# 6 0.0000 0.0000 0.0000 0.0000 0.0000 32.9747
#
#
#
# Elastic Compliance Matrix: (Units=1/GPa)
#
#
# Indices 1 2 3 4 5 6 
#
# 1 0.015681 -0.006134 -0.010064 0.000000 0.000000 0.000000
# 2 -0.006134 0.011701 -0.013750 0.000000 0.000000 0.000000
# 3 -0.010064 -0.013750 0.092679 0.000000 0.000000 0.000000
# 4 0.000000 0.000000 0.000000 0.045830 0.000000 0.000000
# 5 0.000000 0.000000 0.000000 0.000000 0.022141 0.000000
# 6 0.000000 0.000000 0.000000 0.000000 0.000000 0.030326
#
#
# Mechanical properties :
#
#
# Convention : Reuss Voigt Hill
#
# Bulk Modulus (GPa) = 16.62090 69.03000 42.82545
# Shear Modulus (GPa) = 16.76114 30.48123 23.62119
#
# Velocity S-wave (km/s) = 3.10356 4.18528 3.68433
# Velocity P-wave (km/s) = 4.73226 7.93881 6.53525
#
# Compressibility (1/GPa) = 0.06016520
#
# Stress axis : x y z
#
# Youngs Moduli (GPa) = 63.77281 85.46008 10.78996
#
# Poissons Ratio (x) = 0.52418 0.10859
# Poissons Ratio (y) = 0.39116 0.14836
# Poissons Ratio (z) = 0.64181 1.17509
#
# Static dielectric constant tensor:
#      x y z
#    x 1.559900 0.000000 0.000000 
#    y 0.000000 1.607140 0.000000 
#    z 0.000000 0.000000 1.595990 
# 
# From -- ./inp_files/10961.got.cif
#   From: 2010.05.17/outbox.cif.g08.bks.cpg/sg47_6_cif.got.tgz:10961.got - 2010.06.03 20:15:42.
