data_PCOD9382606
_publ_section_title
;
Structure prediction by ZEFSAII (Michael W. Deem and Ramdas Pophale) SiO2 
 PCOD9382606
Probable space group: P M M M
;
_chemical_formula_sum "Si O2"
_cell_formula_units_Z 64
_cell_length_a 7.571224
_cell_length_b 19.465249
_cell_length_c 21.244548
_cell_angle_alpha 90.000000
_cell_angle_beta 90.000000
_cell_angle_gamma 90.000000
_cell_volume 3130.931416
_symmetry_space_group_name_H-M "P M M M"
_symmetry_group_IT_number 47
_symmetry_cell_setting 'orthorhombic'
loop_
_space_group_symop_operation_xyz
x,y,z
-x,-y,z
x,-y,-z
-x,y,-z
-x,-y,-z
x,y,-z
-x,y,z
x,-y,z
loop_
_atom_site_type_symbol
_atom_site_label
_atom_site_fract_x
_atom_site_fract_y
_atom_site_fract_z
Si Si1 0.794300 0.575038 0.599930
Si Si2 0.783299 0.276262 0.070946
Si Si3 0.787997 0.731390 0.207265
Si Si4 0.298110 0.721728 0.567218
Si Si5 0.711356 0.423216 0.253089
Si Si6 0.201383 0.428152 0.075371
Si Si7 0.199619 0.814157 0.325490
Si Si8 0.215260 0.919930 0.571085
O O1 0.724118 0.500000 0.582726
O O2 0.701817 0.639999 0.570719
O O3 0.779102 0.581722 0.675457
O O4 0.000000 0.577992 0.582525
O O5 0.732715 0.242898 0.137474
O O6 0.716260 0.354097 0.082966
O O7 0.000000 0.278493 0.068894
O O8 0.728847 0.254239 0.000000
O O9 0.754522 0.649570 0.219557
O O10 0.717209 0.780619 0.262925
O O11 0.000000 0.736574 0.209750
O O12 0.222907 0.743407 0.500000
O O13 0.500000 0.745643 0.572166
O O14 0.193949 0.750965 0.625725
O O15 0.500000 0.425783 0.254304
O O16 0.772875 0.500000 0.230387
O O17 0.287181 0.500000 0.095519
O O18 0.000000 0.426209 0.100740
O O19 0.185720 0.431911 0.000000
O O20 0.278535 0.873780 0.370269
O O21 0.000000 0.836561 0.309268
O O22 0.274774 0.900315 0.500000
O O23 0.000000 0.914280 0.570535
O O24 0.259143 0.000000 0.579912
#
# Coordination Sequence:
#
# PCOD9382606 Si02
#       8
#     8   8   8   8   8   8   8   8
#     4  10  20  34  51  68  86 112 153 205 251 284
#     4   8  14  24  37  56  85 116 145 183 231 279
#     4  10  19  29  45  70  93 116 151 195 241 286
#     4  11  23  35  48  68  94 125 158 190 230 285
#     4  10  20  33  48  64  86 120 158 195 240 294
#     4   7   9  14  25  41  62  90 124 162 206 254
#     4  10  19  31  48  71  97 122 152 194 236 276
#     4   8  14  26  46  71  96 123 155 189 229 278
#
# _framework density 20.441202000000001
#
# number of rings (size 3 to 8) (size 9 to 14) (size 15 to 20)
#    0.000    2.750    1.250    3.000    0.000    3.750 
#    0.000    2.500    0.000    0.750    0.000    2.625 
#    0.000    0.500    0.000    7.000    0.000    0.000 
#
# Total GULP energy -356414.154834 kJ/mol
# GULP energy per Si atom -5568.971169 kJ/mol
# Density = 2.039468 g / cm^3
# Si number density = 20.441202 Si / 1000 Ang^3
#
#
#
# Elastic Constant Matrix: (Units=GPa)
#
#
# Indices 1 2 3 4 5 6 
#
# 1 55.9479 2.7145 5.5960 0.0000 0.0000 0.0000
# 2 2.7145 96.1611 54.9732 0.0000 0.0000 0.0000
# 3 5.5960 54.9732 175.0564 0.0000 0.0000 0.0000
# 4 0.0000 0.0000 0.0000 -14.1780 0.0000 0.0000
# 5 0.0000 0.0000 0.0000 0.0000 -4.7338 0.0000
# 6 0.0000 0.0000 0.0000 0.0000 0.0000 -21.2413
#
#
#
# Elastic Compliance Matrix: (Units=1/GPa)
#
#
# Indices 1 2 3 4 5 6 
#
# 1 0.017935 -0.000218 -0.000505 0.000000 0.000000 0.000000
# 2 -0.000218 0.012677 -0.003974 0.000000 0.000000 0.000000
# 3 -0.000505 -0.003974 0.006977 0.000000 0.000000 0.000000
# 4 0.000000 0.000000 0.000000 -0.070532 0.000000 0.000000
# 5 0.000000 0.000000 0.000000 0.000000 -0.211249 0.000000
# 6 0.000000 0.000000 0.000000 0.000000 0.000000 -0.047078
#
#
# Mechanical properties :
#
#
# Convention : Reuss Voigt Hill
#
# Bulk Modulus (GPa) = 35.46689 50.41476 42.94082
# Shear Modulus (GPa) = -18.35011 9.56149 -4.39431
#
# Velocity S-wave (km/s) = -2.99942 2.16511 -1.46779
# Velocity P-wave (km/s) = 2.32229 5.56481 4.26381
#
# Compressibility (1/GPa) = 0.02819532
#
# Stress axis : x y z
#
# Youngs Moduli (GPa) = 55.75741 78.88140 143.33666
#
# Poissons Ratio (x) = 0.01716 0.07238
# Poissons Ratio (y) = 0.01213 0.56963
# Poissons Ratio (z) = 0.02816 0.31348
#
# Static dielectric constant tensor:
#      x y z
#    x 1.773890 0.000000 0.000000 
#    y 0.000000 1.750720 0.000000 
#    z 0.000000 0.000000 1.785080 
# 
# From -- ./inp_files/30154.got.cif
#   From: 2010.05.17/outbox.cif.g08.bks.cpg/sg47_16_cif.got.tgz:30154.got - 2010.06.03 20:15:42.
