data_PCOD9382487
_publ_section_title
;
Structure prediction by ZEFSAII (Michael W. Deem and Ramdas Pophale) SiO2 
 PCOD9382487
Probable space group: P M M M
;
_chemical_formula_sum "Si O2"
_cell_formula_units_Z 56
_cell_length_a 7.712716
_cell_length_b 30.497342
_cell_length_c 14.284901
_cell_angle_alpha 90.000000
_cell_angle_beta 90.000000
_cell_angle_gamma 90.000000
_cell_volume 3360.056381
_symmetry_space_group_name_H-M "P M M M"
_symmetry_group_IT_number 47
_symmetry_cell_setting 'orthorhombic'
loop_
_space_group_symop_operation_xyz
x,y,z
-x,-y,z
x,-y,-z
-x,y,-z
-x,-y,-z
x,y,-z
-x,y,z
x,-y,z
loop_
_atom_site_type_symbol
_atom_site_label
_atom_site_fract_x
_atom_site_fract_y
_atom_site_fract_z
Si Si1 0.205441 0.181116 0.895762
Si Si2 0.208495 0.547187 0.108890
Si Si3 0.211522 0.049024 0.391572
Si Si4 0.707185 0.357220 0.107326
Si Si5 0.208623 0.223899 0.395139
Si Si6 0.212680 0.136079 0.710663
Si Si7 0.706508 0.270358 0.792494
O O1 0.273321 0.148938 0.814703
O O2 0.226095 0.230199 0.855587
O O3 0.000000 0.172800 0.901871
O O4 0.279741 0.177098 0.000000
O O5 0.267840 0.500000 0.148798
O O6 0.260036 0.594318 0.148350
O O7 0.000000 0.546423 0.108547
O O8 0.267173 0.547980 0.000000
O O9 0.261732 0.055958 0.500000
O O10 0.270602 0.089317 0.328145
O O11 0.000000 0.049231 0.389939
O O12 0.267084 0.000000 0.363283
O O13 0.500000 0.352631 0.101180
O O14 0.773621 0.316769 0.168976
O O15 0.775942 0.355146 0.000000
O O16 0.273543 0.232571 0.500000
O O17 0.266384 0.176239 0.356825
O O18 0.253197 0.258938 0.315078
O O19 0.000000 0.222155 0.399045
O O20 0.000000 0.136051 0.711000
O O21 0.500000 0.270043 0.802208
#
# Coordination Sequence:
#
# PCOD9382487 Si02
#       7
#     8   8   8   8   8   8   8
#     4   9  17  28  41  56  75 103 138 170 200 237
#     4   8  14  24  37  54  76 102 133 167 199 229
#     4   8  12  17  28  49  75 100 125 155 195 243
#     4   9  17  27  38  54  78 108 137 163 194 232
#     4   9  17  29  44  60  79 105 135 164 196 238
#     4   8  13  22  36  53  74 101 131 161 193 232
#     4  10  19  29  41  59  83 107 133 167 204 239
#
# _framework density 16.666388000000001
#
# number of rings (size 3 to 8) (size 9 to 14) (size 15 to 20)
#    0.000    3.286    0.000    3.000    0.000    4.286 
#    0.000    2.857    0.000    0.429    0.000    3.000 
#    0.000    9.714    0.000   42.857    0.000   39.143 
#
# Total GULP energy -311764.997611 kJ/mol
# GULP energy per Si atom -5567.232100 kJ/mol
# Density = 1.662845 g / cm^3
# Si number density = 16.666388 Si / 1000 Ang^3
#
#
#
# Elastic Constant Matrix: (Units=GPa)
#
#
# Indices 1 2 3 4 5 6 
#
# 1 24.5186 1.3084 3.1056 0.0000 0.0000 0.0000
# 2 1.3084 170.1783 81.1532 0.0000 0.0000 0.0000
# 3 3.1056 81.1532 108.7060 0.0000 0.0000 0.0000
# 4 0.0000 0.0000 0.0000 21.1079 0.0000 0.0000
# 5 0.0000 0.0000 0.0000 0.0000 6.4186 0.0000
# 6 0.0000 0.0000 0.0000 0.0000 0.0000 31.1263
#
#
#
# Elastic Compliance Matrix: (Units=1/GPa)
#
#
# Indices 1 2 3 4 5 6 
#
# 1 0.040949 0.000377 -0.001452 0.000000 0.000000 0.000000
# 2 0.000377 0.009128 -0.006825 0.000000 0.000000 0.000000
# 3 -0.001452 -0.006825 0.014336 0.000000 0.000000 0.000000
# 4 0.000000 0.000000 0.000000 0.047376 0.000000 0.000000
# 5 0.000000 0.000000 0.000000 0.000000 0.155797 0.000000
# 6 0.000000 0.000000 0.000000 0.000000 0.000000 0.032127
#
#
# Mechanical properties :
#
#
# Convention : Reuss Voigt Hill
#
# Bulk Modulus (GPa) = 20.57014 52.72635 36.64825
# Shear Modulus (GPa) = 15.07310 26.25294 20.66302
#
# Velocity S-wave (km/s) = 3.01059 3.97319 3.52490
# Velocity P-wave (km/s) = 4.94509 7.26315 6.21318
#
# Compressibility (1/GPa) = 0.04861415
#
# Stress axis : x y z
#
# Youngs Moduli (GPa) = 24.42056 109.55265 69.75506
#
# Poissons Ratio (x) = -0.04135 0.10126
# Poissons Ratio (y) = -0.00922 0.47609
# Poissons Ratio (z) = 0.03545 0.74772
#
# Static dielectric constant tensor:
#      x y z
#    x 1.619860 0.000000 0.000000 
#    y 0.000000 1.582100 0.000000 
#    z 0.000000 0.000000 1.542260 
# 
# From -- ./inp_files/8158.got.cif
#   From: 2010.05.17/outbox.cif.g08.bks.cpg/sg47_5_cif.got.tgz:8158.got - 2010.06.03 20:15:42.
