data_PCOD9382219
_publ_section_title
;
Structure prediction by ZEFSAII (Michael W. Deem and Ramdas Pophale) SiO2 
 PCOD9382219
Probable space group: P M M M
;
_chemical_formula_sum "Si O2"
_cell_formula_units_Z 56
_cell_length_a 21.595079
_cell_length_b 15.369840
_cell_length_c 8.847301
_cell_angle_alpha 90.000000
_cell_angle_beta 90.000000
_cell_angle_gamma 90.000000
_cell_volume 2936.533412
_symmetry_space_group_name_H-M "P M M M"
_symmetry_group_IT_number 47
_symmetry_cell_setting 'orthorhombic'
loop_
_space_group_symop_operation_xyz
x,y,z
-x,-y,z
x,-y,-z
-x,y,-z
-x,-y,-z
x,y,-z
-x,y,z
x,-y,z
loop_
_atom_site_type_symbol
_atom_site_label
_atom_site_fract_x
_atom_site_fract_y
_atom_site_fract_z
Si Si1 0.500000 0.896926 0.685321
Si Si2 0.068331 0.603643 0.827852
Si Si3 0.281661 0.907292 0.672957
Si Si4 0.839191 0.861668 0.823848
Si Si5 0.611792 0.228965 0.320231
Si Si6 0.928466 0.000000 0.680617
Si Si7 0.187425 0.324562 0.320782
Si Si8 0.678163 0.600142 0.684694
O O1 0.500000 0.900153 0.500000
O O2 0.558251 0.836624 0.735438
O O3 0.500000 0.000000 0.732525
O O4 0.063856 0.500000 0.836971
O O5 0.126135 0.622414 0.721859
O O6 0.000000 0.636716 0.778922
O O7 0.079709 0.636173 0.000000
O O8 0.257264 0.900729 0.500000
O O9 0.225600 0.907977 0.787381
O O10 0.325581 0.826190 0.697911
O O11 0.316414 0.000000 0.681076
O O12 0.892863 0.915503 0.742353
O O13 0.826225 0.766967 0.757200
O O14 0.852178 0.858539 0.000000
O O15 0.599595 0.238569 0.500000
O O16 0.628367 0.326370 0.263474
O O17 0.924998 0.000000 0.500000
O O18 0.000000 0.000000 0.727325
O O19 0.192377 0.312734 0.500000
O O20 0.252228 0.368955 0.270895
O O21 0.677010 0.600827 0.500000
O O22 0.667056 0.500000 0.732276
#
# Coordination Sequence:
#
# PCOD9382219 Si02
#       8
#     4   8   8   8   8   4   8   8
#     4   9  16  26  43  73 112 150 192 237 285 345
#     4   9  19  36  55  76 106 141 175 220 283 345
#     4  10  18  31  54  79 107 144 184 227 279 337
#     4  12  24  37  56  82 111 141 180 230 285 339
#     4   9  16  28  46  74 110 148 186 234 285 334
#     4  11  25  45  65  83 109 148 191 232 279 343
#     4  11  21  35  55  78 105 140 186 236 282 336
#     4   9  17  29  47  73 105 142 185 233 289 345
#
# _framework density 19.070105000000002
#
# number of rings (size 3 to 8) (size 9 to 14) (size 15 to 20)
#    0.000    2.000    2.143    3.214    0.000    4.000 
#    0.000    1.071    0.000    2.143    0.000    0.500 
#    0.000    1.714    0.000    1.286    0.000    1.429 
#
# Total GULP energy -311953.908531 kJ/mol
# GULP energy per Si atom -5570.605509 kJ/mol
# Density = 1.902670 g / cm^3
# Si number density = 19.070105 Si / 1000 Ang^3
#
#
#
# Elastic Constant Matrix: (Units=GPa)
#
#
# Indices 1 2 3 4 5 6 
#
# 1 90.2402 53.2396 20.8694 0.0000 0.0000 0.0000
# 2 53.2396 156.8948 20.8491 0.0000 0.0000 0.0000
# 3 20.8694 20.8491 30.1322 0.0000 0.0000 0.0000
# 4 0.0000 0.0000 0.0000 18.6007 0.0000 0.0000
# 5 0.0000 0.0000 0.0000 0.0000 -27.2139 0.0000
# 6 0.0000 0.0000 0.0000 0.0000 0.0000 60.3077
#
#
#
# Elastic Compliance Matrix: (Units=1/GPa)
#
#
# Indices 1 2 3 4 5 6 
#
# 1 0.015333 -0.004176 -0.007730 0.000000 0.000000 0.000000
# 2 -0.004176 0.008156 -0.002751 0.000000 0.000000 0.000000
# 3 -0.007730 -0.002751 0.040445 0.000000 0.000000 0.000000
# 4 0.000000 0.000000 0.000000 0.053761 0.000000 0.000000
# 5 0.000000 0.000000 0.000000 0.000000 -0.036746 0.000000
# 6 0.000000 0.000000 0.000000 0.000000 0.000000 0.016582
#
#
# Mechanical properties :
#
#
# Convention : Reuss Voigt Hill
#
# Bulk Modulus (GPa) = 28.88568 51.90927 40.39747
# Shear Modulus (GPa) = 36.13096 22.49284 29.31190
#
# Velocity S-wave (km/s) = 4.35747 3.43808 3.92479
# Velocity P-wave (km/s) = 6.36370 6.56048 6.46284
#
# Compressibility (1/GPa) = 0.03461923
#
# Stress axis : x y z
#
# Youngs Moduli (GPa) = 65.21958 122.60500 24.72507
#
# Poissons Ratio (x) = 0.51196 0.19113
# Poissons Ratio (y) = 0.27234 0.06803
# Poissons Ratio (z) = 0.50416 0.33734
#
# Static dielectric constant tensor:
#      x y z
#    x 1.696090 0.000000 0.000000 
#    y 0.000000 1.729340 0.000000 
#    z 0.000000 0.000000 1.643260 
# 
# From -- ./inp_files/11285.got.cif
#   From: 2010.05.17/outbox.cif.g08.bks.cpg/sg47_6_cif.got.tgz:11285.got - 2010.06.03 20:15:42.
