data_PCOD9382325
_publ_section_title
;
Structure prediction by ZEFSAII (Michael W. Deem and Ramdas Pophale) SiO2 
 PCOD9382325
Probable space group: P M M M
;
_chemical_formula_sum "Si O2"
_cell_formula_units_Z 52
_cell_length_a 7.570599
_cell_length_b 14.034119
_cell_length_c 21.933429
_cell_angle_alpha 90.000000
_cell_angle_beta 90.000000
_cell_angle_gamma 90.000000
_cell_volume 2330.354172
_symmetry_space_group_name_H-M "P M M M"
_symmetry_group_IT_number 47
_symmetry_cell_setting 'orthorhombic'
loop_
_space_group_symop_operation_xyz
x,y,z
-x,-y,z
x,-y,-z
-x,y,-z
-x,-y,-z
x,y,-z
-x,y,z
x,-y,z
loop_
_atom_site_type_symbol
_atom_site_label
_atom_site_fract_x
_atom_site_fract_y
_atom_site_fract_z
Si Si1 0.211594 0.609320 0.235333
Si Si2 0.206048 0.893651 0.667115
Si Si3 0.787152 0.306415 0.357601
Si Si4 0.709709 0.500000 0.431508
Si Si5 0.785059 0.393215 0.096729
Si Si6 0.294378 0.813444 0.934803
Si Si7 0.704432 0.113294 0.193223
O O1 0.239285 0.500000 0.252952
O O2 0.284640 0.669842 0.290218
O O3 0.275675 0.620443 0.166838
O O4 0.000000 0.624740 0.232072
O O5 0.277402 0.801670 0.630360
O O6 0.213550 0.870981 0.740039
O O7 0.000000 0.901431 0.651133
O O8 0.285431 0.000000 0.658988
O O9 0.755156 0.400006 0.398365
O O10 0.000000 0.299955 0.354211
O O11 0.500000 0.500000 0.434958
O O12 0.784527 0.500000 0.500000
O O13 0.732595 0.500000 0.077085
O O14 0.716057 0.300848 0.063509
O O15 0.000000 0.391441 0.094440
O O16 0.500000 0.843825 0.932945
O O17 0.216458 0.842615 0.868897
O O18 0.220202 0.848994 0.000000
O O19 0.500000 0.144604 0.198040
O O20 0.708596 0.000000 0.183725
#
# Coordination Sequence:
#
# PCOD9382325 Si02
#       7
#     8   8   8   4   8   8   8
#     4   8  13  24  45  72  97 121 157 204 253 305
#     4   9  18  32  54  86 117 141 169 214 272 324
#     4  10  18  32  57  82 109 146 184 218 256 315
#     4  11  25  41  55  79 117 153 186 227 266 295
#     4   9  18  32  50  69  91 122 159 202 254 316
#     4  10  21  34  46  63  90 125 167 215 263 309
#     4   9  18  33  52  73  99 132 170 212 260 317
#
# _framework density 22.314205000000001
#
# number of rings (size 3 to 8) (size 9 to 14) (size 15 to 20)
#    0.000    2.692    0.769    2.077    0.000    4.308 
#    0.000    3.846    0.000    0.462    0.000    6.462 
#    0.000    0.000    0.000    0.000    0.000    0.000 
#
# Total GULP energy -289745.240161 kJ/mol
# GULP energy per Si atom -5572.023849 kJ/mol
# Density = 2.226342 g / cm^3
# Si number density = 22.314205 Si / 1000 Ang^3
#
#
#
# Elastic Constant Matrix: (Units=GPa)
#
#
# Indices 1 2 3 4 5 6 
#
# 1 68.6111 -84.7630 59.3795 0.0000 0.0000 0.0000
# 2 -84.7630 795.2005 -373.9883 0.0000 0.0000 0.0000
# 3 59.3795 -373.9883 359.8675 0.0000 0.0000 0.0000
# 4 0.0000 0.0000 0.0000 28.0866 0.0000 0.0000
# 5 0.0000 0.0000 0.0000 0.0000 21.5609 0.0000
# 6 0.0000 0.0000 0.0000 0.0000 0.0000 8.8174
#
#
#
# Elastic Compliance Matrix: (Units=1/GPa)
#
#
# Indices 1 2 3 4 5 6 
#
# 1 0.017390 0.000986 -0.001845 0.000000 0.000000 0.000000
# 2 0.000986 0.002516 0.002452 0.000000 0.000000 0.000000
# 3 -0.001845 0.002452 0.005631 0.000000 0.000000 0.000000
# 4 0.000000 0.000000 0.000000 0.035604 0.000000 0.000000
# 5 0.000000 0.000000 0.000000 0.000000 0.046380 0.000000
# 6 0.000000 0.000000 0.000000 0.000000 0.000000 0.113412
#
#
# Mechanical properties :
#
#
# Convention : Reuss Voigt Hill
#
# Bulk Modulus (GPa) = 34.81542 47.21503 41.01523
# Shear Modulus (GPa) = 21.99536 119.89637 70.94586
#
# Velocity S-wave (km/s) = 3.14301 7.33809 5.64474
# Velocity P-wave (km/s) = 5.36727 9.64375 7.80415
#
# Compressibility (1/GPa) = 0.02872290
#
# Stress axis : x y z
#
# Youngs Moduli (GPa) = 57.50596 397.50070 177.58581
#
# Poissons Ratio (x) = -0.39198 0.32756
# Poissons Ratio (y) = -0.05671 -0.43539
# Poissons Ratio (z) = 0.10607 -0.97456
#
# Static dielectric constant tensor:
#      x y z
#    x 1.846910 0.000000 0.000000 
#    y 0.000000 1.882690 0.000000 
#    z 0.000000 0.000000 1.836850 
# 
# From -- ./inp_files/31973.got.cif
#   From: 2010.05.17/outbox.cif.g08.bks.cpg/sg47_16_cif.got.tgz:31973.got - 2010.06.03 20:15:42.
