data_PCOD9382837
_publ_section_title
;
Structure prediction by ZEFSAII (Michael W. Deem and Ramdas Pophale) SiO2 
 PCOD9382837
Probable space group: P M M M
;
_chemical_formula_sum "Si O2"
_cell_formula_units_Z 44
_cell_length_a 8.375574
_cell_length_b 7.231489
_cell_length_c 31.849345
_cell_angle_alpha 90.000000
_cell_angle_beta 90.000000
_cell_angle_gamma 90.000000
_cell_volume 1929.047027
_symmetry_space_group_name_H-M "P M M M"
_symmetry_group_IT_number 47
_symmetry_cell_setting 'orthorhombic'
loop_
_space_group_symop_operation_xyz
x,y,z
-x,-y,z
x,-y,-z
-x,y,-z
-x,-y,-z
x,y,-z
-x,y,z
x,-y,z
loop_
_atom_site_type_symbol
_atom_site_label
_atom_site_fract_x
_atom_site_fract_y
_atom_site_fract_z
Si Si1 0.500000 0.784222 0.694407
Si Si2 0.500000 0.277581 0.595570
Si Si3 0.821949 0.275498 0.450941
Si Si4 0.315231 0.224734 0.000000
Si Si5 0.175095 0.774748 0.262562
Si Si6 0.182968 0.224762 0.089384
Si Si7 0.321083 0.224395 0.176922
O O1 0.500000 0.768757 0.644481
O O2 0.667722 0.710596 0.712496
O O3 0.500000 0.000000 0.706877
O O4 0.500000 0.500000 0.591437
O O5 0.334864 0.212669 0.574059
O O6 0.807066 0.224581 0.500000
O O7 0.821948 0.500000 0.449340
O O8 0.000000 0.217094 0.436202
O O9 0.238727 0.287756 0.956392
O O10 0.500000 0.273624 0.000000
O O11 0.303427 0.000000 0.000000
O O12 0.201960 0.721539 0.213898
O O13 0.000000 0.714154 0.277489
O O14 0.174217 0.000000 0.264401
O O15 0.280660 0.286710 0.129996
O O16 0.000000 0.274374 0.095949
O O17 0.193621 0.000000 0.088600
O O18 0.500000 0.279477 0.188780
O O19 0.317600 0.000000 0.175838
#
# Coordination Sequence:
#
# PCOD9382837 Si02
#       7
#     4   4   8   4   8   8   8
#     4  10  20  33  45  63  90 119 150 184 224 271
#     4  10  19  30  48  72  96 122 153 187 223 263
#     4   8  14  26  46  72  98 122 152 190 225 256
#     4   9  15  21  25  31  47  73 103 139 189 246
#     4   9  16  27  42  57  75 102 137 177 219 260
#     4   9  15  20  26  37  53  75 105 144 193 247
#     4   9  14  21  33  48  64  83 114 160 207 248
#
# _framework density 22.809187999999999
#
# number of rings (size 3 to 8) (size 9 to 14) (size 15 to 20)
#    0.000    3.000    0.909    2.182    0.000    7.273 
#    0.000    0.000    0.000    1.091    0.000    1.273 
#    0.000    0.000    0.000    0.000    0.000    0.000 
#
# Total GULP energy -245702.959563 kJ/mol
# GULP energy per Si atom -5584.158172 kJ/mol
# Density = 2.275727 g / cm^3
# Si number density = 22.809188 Si / 1000 Ang^3
#
#
#
# Elastic Constant Matrix: (Units=GPa)
#
#
# Indices 1 2 3 4 5 6 
#
# 1 212.5262 6.2981 93.8057 0.0000 0.0000 0.0000
# 2 6.2981 106.7403 -5.7506 0.0000 0.0000 0.0000
# 3 93.8057 -5.7506 120.1500 0.0000 0.0000 0.0000
# 4 0.0000 0.0000 0.0000 17.8417 0.0000 0.0000
# 5 0.0000 0.0000 0.0000 0.0000 18.6321 0.0000
# 6 0.0000 0.0000 0.0000 0.0000 0.0000 -24.5185
#
#
#
# Elastic Compliance Matrix: (Units=1/GPa)
#
#
# Indices 1 2 3 4 5 6 
#
# 1 0.007236 -0.000733 -0.005685 0.000000 0.000000 0.000000
# 2 -0.000733 0.009467 0.001026 0.000000 0.000000 0.000000
# 3 -0.005685 0.001026 0.012810 0.000000 0.000000 0.000000
# 4 0.000000 0.000000 0.000000 0.056048 0.000000 0.000000
# 5 0.000000 0.000000 0.000000 0.000000 0.053671 0.000000
# 6 0.000000 0.000000 0.000000 0.000000 0.000000 -0.040786
#
#
# Mechanical properties :
#
#
# Convention : Reuss Voigt Hill
#
# Bulk Modulus (GPa) = 53.39358 69.79144 61.59251
# Shear Modulus (GPa) = 43.29962 25.39529 34.34745
#
# Velocity S-wave (km/s) = 4.36172 3.34035 3.88475
# Velocity P-wave (km/s) = 6.98754 6.74846 6.86904
#
# Compressibility (1/GPa) = 0.01872884
#
# Stress axis : x y z
#
# Youngs Moduli (GPa) = 138.19540 105.62952 78.06269
#
# Poissons Ratio (x) = 0.07745 0.44376
# Poissons Ratio (y) = 0.10133 -0.08006
# Poissons Ratio (z) = 0.78559 -0.10833
#
# Static dielectric constant tensor:
#      x y z
#    x 1.822030 0.000000 0.000000 
#    y 0.000000 5.710130 0.000000 
#    z 0.000000 0.000000 1.805340 
# 
# From -- ./inp_files/33963.got.cif
#   From: 2010.05.17/outbox.cif.g08.bks.cpg/sg47_17_cif.got.tgz:33963.got - 2010.06.03 20:15:42.
