data_PCOD9382673
_publ_section_title
;
Structure prediction by ZEFSAII (Michael W. Deem and Ramdas Pophale) SiO2 
 PCOD9382673
Probable space group: P M M M
;
_chemical_formula_sum "Si O2"
_cell_formula_units_Z 52
_cell_length_a 14.543782
_cell_length_b 7.753633
_cell_length_c 24.947234
_cell_angle_alpha 90.000000
_cell_angle_beta 90.000000
_cell_angle_gamma 90.000000
_cell_volume 2813.228430
_symmetry_space_group_name_H-M "P M M M"
_symmetry_group_IT_number 47
_symmetry_cell_setting 'orthorhombic'
loop_
_space_group_symop_operation_xyz
x,y,z
-x,-y,z
x,-y,-z
-x,y,-z
-x,-y,-z
x,y,-z
-x,y,z
x,-y,z
loop_
_atom_site_type_symbol
_atom_site_label
_atom_site_fract_x
_atom_site_fract_y
_atom_site_fract_z
Si Si1 0.393782 0.294866 0.000000
Si Si2 0.103059 0.703109 0.174959
Si Si3 0.111354 0.204081 0.942779
Si Si4 0.716409 0.295033 0.777408
Si Si5 0.610464 0.292680 0.442361
Si Si6 0.393133 0.288465 0.325513
Si Si7 0.605366 0.795323 0.116642
O O1 0.353473 0.240014 0.942592
O O2 0.396986 0.500000 0.000000
O O3 0.500000 0.225654 0.000000
O O4 0.095461 0.500000 0.186303
O O5 0.138580 0.717867 0.113709
O O6 0.182030 0.779010 0.212315
O O7 0.000000 0.778137 0.178501
O O8 0.000000 0.223456 0.943993
O O9 0.130999 0.000000 0.940985
O O10 0.146005 0.273848 0.000000
O O11 0.725999 0.500000 0.768832
O O12 0.663804 0.226116 0.725525
O O13 0.659158 0.273606 0.832153
O O14 0.644966 0.224782 0.500000
O O15 0.500000 0.266208 0.441828
O O16 0.624426 0.500000 0.443046
O O17 0.642795 0.230406 0.384071
O O18 0.500000 0.238290 0.319840
O O19 0.392266 0.500000 0.325782
O O20 0.500000 0.726897 0.116819
O O21 0.602110 0.000000 0.122587
#
# Coordination Sequence:
#
# PCOD9382673 Si02
#       7
#     4   8   8   8   8   8   8
#     4   9  17  31  51  69  84 107 140 175 209 246
#     4   9  18  31  44  59  80 105 134 171 212 250
#     4   8  14  26  44  62  76  92 118 154 200 255
#     4  10  19  30  44  62  83 111 145 176 208 251
#     4   7   9  14  26  47  77 109 134 159 199 245
#     4   8  13  21  35  56  81 108 138 171 204 242
#     4  10  20  33  48  66  88 111 136 170 211 252
#
# _framework density 18.484100999999999
#
# number of rings (size 3 to 8) (size 9 to 14) (size 15 to 20)
#    0.000    3.308    0.000    3.000    0.000    3.385 
#    1.385    1.538    0.000    0.000    0.000    0.000 
#    0.000    1.231    0.000   14.308    0.000    4.923 
#
# Total GULP energy -289634.018113 kJ/mol
# GULP energy per Si atom -5569.884964 kJ/mol
# Density = 1.844203 g / cm^3
# Si number density = 18.484101 Si / 1000 Ang^3
#
#
#
# Elastic Constant Matrix: (Units=GPa)
#
#
# Indices 1 2 3 4 5 6 
#
# 1 69.8041 1.0932 71.4606 0.0000 0.0000 0.0000
# 2 1.0932 23.8201 1.6473 0.0000 0.0000 0.0000
# 3 71.4606 1.6473 183.8757 0.0000 0.0000 0.0000
# 4 0.0000 0.0000 0.0000 -361.4998 0.0000 0.0000
# 5 0.0000 0.0000 0.0000 0.0000 13.3134 0.0000
# 6 0.0000 0.0000 0.0000 0.0000 0.0000 1.3787
#
#
#
# Elastic Compliance Matrix: (Units=1/GPa)
#
#
# Indices 1 2 3 4 5 6 
#
# 1 0.023796 -0.000453 -0.009244 0.000000 0.000000 0.000000
# 2 -0.000453 0.042016 -0.000200 0.000000 0.000000 0.000000
# 3 -0.009244 -0.000200 0.009033 0.000000 0.000000 0.000000
# 4 0.000000 0.000000 0.000000 -0.002766 0.000000 0.000000
# 5 0.000000 0.000000 0.000000 0.000000 0.075112 0.000000
# 6 0.000000 0.000000 0.000000 0.000000 0.000000 0.725324
#
#
# Mechanical properties :
#
#
# Convention : Reuss Voigt Hill
#
# Bulk Modulus (GPa) = 18.16513 47.32248 32.74381
# Shear Modulus (GPa) = 5.49052 -55.80831 -25.15889
#
# Velocity S-wave (km/s) = 1.72536 -5.50074 -3.69332
# Velocity P-wave (km/s) = 3.71724 3.83235 0.65916
#
# Compressibility (1/GPa) = 0.05505053
#
# Stress axis : x y z
#
# Youngs Moduli (GPa) = 42.02331 23.80043 110.70750
#
# Poissons Ratio (x) = 0.01078 1.02338
# Poissons Ratio (y) = 0.01903 0.02219
# Poissons Ratio (z) = 0.38847 0.00477
#
# Static dielectric constant tensor:
#      x y z
#    x 1.681400 0.000000 0.000000 
#    y 0.000000 1.665070 0.000000 
#    z 0.000000 0.000000 1.677400 
# 
# From -- ./inp_files/32630.got.cif
#   From: 2010.05.17/outbox.cif.g08.bks.cpg/sg47_17_cif.got.tgz:32630.got - 2010.06.03 20:15:42.
