data_PCOD9382086
_publ_section_title
;
Structure prediction by ZEFSAII (Michael W. Deem and Ramdas Pophale) SiO2 
 PCOD9382086
Probable space group: P M M M
;
_chemical_formula_sum "Si O2"
_cell_formula_units_Z 52
_cell_length_a 22.724556
_cell_length_b 7.911638
_cell_length_c 15.349318
_cell_angle_alpha 90.000000
_cell_angle_beta 90.000000
_cell_angle_gamma 90.000000
_cell_volume 2759.630257
_symmetry_space_group_name_H-M "P M M M"
_symmetry_group_IT_number 47
_symmetry_cell_setting 'orthorhombic'
loop_
_space_group_symop_operation_xyz
x,y,z
-x,-y,z
x,-y,-z
-x,y,-z
-x,-y,-z
x,y,-z
-x,y,z
x,-y,z
loop_
_atom_site_type_symbol
_atom_site_label
_atom_site_fract_x
_atom_site_fract_y
_atom_site_fract_z
Si Si1 0.428846 0.692015 0.500000
Si Si2 0.887381 0.203266 0.214505
Si Si3 0.566522 0.297525 0.686400
Si Si4 0.776979 0.792748 0.100673
Si Si5 0.068004 0.296424 0.597805
Si Si6 0.351222 0.800604 0.159311
Si Si7 0.000000 0.206893 0.898364
Si Si8 0.567046 0.296941 0.000000
O O1 0.404436 0.500000 0.500000
O O2 0.500000 0.679218 0.500000
O O3 0.415294 0.774481 0.592223
O O4 0.828053 0.262768 0.166681
O O5 0.895875 0.246854 0.316216
O O6 0.942850 0.262439 0.156317
O O7 0.887353 0.000000 0.209662
O O8 0.500000 0.237614 0.710802
O O9 0.561377 0.500000 0.676397
O O10 0.616897 0.265840 0.755330
O O11 0.712927 0.733091 0.132972
O O12 0.776665 0.000000 0.100155
O O13 0.787177 0.741676 0.000000
O O14 0.087169 0.239729 0.500000
O O15 0.067251 0.500000 0.595703
O O16 0.000000 0.238604 0.609763
O O17 0.344389 0.000000 0.169208
O O18 0.396954 0.763894 0.082725
O O19 0.000000 0.000000 0.899447
O O20 0.000000 0.259949 0.000000
O O21 0.565833 0.500000 0.000000
O O22 0.500000 0.235592 0.000000
#
# Coordination Sequence:
#
# PCOD9382086 Si02
#       8
#     4   8   8   8   8   8   4   4
#     4   7  12  26  49  73  97 127 161 196 243 304
#     4  10  18  30  53  80 101 128 172 217 251 289
#     4   9  17  31  52  77 102 129 164 208 256 303
#     4   9  18  34  53  72  99 137 172 204 247 304
#     4   9  18  33  52  74 105 142 169 199 257 319
#     4  11  21  34  52  74 102 137 173 207 253 310
#     4   9  16  26  44  77 108 126 157 209 256 291
#     4  11  23  37  53  75 103 134 171 218 262 298
#
# _framework density 18.843104
#
# number of rings (size 3 to 8) (size 9 to 14) (size 15 to 20)
#    0.000    2.538    1.538    3.000    0.000    4.923 
#    0.000    2.692    1.692    3.231    0.000    0.000 
#    0.000    0.000    0.000    0.000    0.000    0.000 
#
# Total GULP energy -289820.338116 kJ/mol
# GULP energy per Si atom -5573.468041 kJ/mol
# Density = 1.880022 g / cm^3
# Si number density = 18.843104 Si / 1000 Ang^3
#
#
#
# Elastic Constant Matrix: (Units=GPa)
#
#
# Indices 1 2 3 4 5 6 
#
# 1 144.6805 4.9852 98.2545 0.0000 0.0000 0.0000
# 2 4.9852 16.1121 4.0113 0.0000 0.0000 0.0000
# 3 98.2545 4.0113 202.9639 0.0000 0.0000 0.0000
# 4 0.0000 0.0000 0.0000 9.0758 0.0000 0.0000
# 5 0.0000 0.0000 0.0000 0.0000 52.0357 0.0000
# 6 0.0000 0.0000 0.0000 0.0000 0.0000 17.5511
#
#
#
# Elastic Compliance Matrix: (Units=1/GPa)
#
#
# Indices 1 2 3 4 5 6 
#
# 1 0.010359 -0.001966 -0.004976 0.000000 0.000000 0.000000
# 2 -0.001966 0.062745 -0.000288 0.000000 0.000000 0.000000
# 3 -0.004976 -0.000288 0.007341 0.000000 0.000000 0.000000
# 4 0.000000 0.000000 0.000000 0.110183 0.000000 0.000000
# 5 0.000000 0.000000 0.000000 0.000000 0.019218 0.000000
# 6 0.000000 0.000000 0.000000 0.000000 0.000000 0.056977
#
#
# Mechanical properties :
#
#
# Convention : Reuss Voigt Hill
#
# Bulk Modulus (GPa) = 15.15499 64.25095 39.70297
# Shear Modulus (GPa) = 16.48651 32.83288 24.65969
#
# Velocity S-wave (km/s) = 2.96114 4.17878 3.62150
# Velocity P-wave (km/s) = 4.44425 7.57989 6.21314
#
# Compressibility (1/GPa) = 0.06598489
#
# Stress axis : x y z
#
# Youngs Moduli (GPa) = 96.53800 15.93746 136.21332
#
# Poissons Ratio (x) = 0.03134 0.67776
# Poissons Ratio (y) = 0.18982 0.03926
# Poissons Ratio (z) = 0.48035 0.00459
#
# Static dielectric constant tensor:
#      x y z
#    x 1.643850 0.000000 0.000000 
#    y 0.000000 1.698880 0.000000 
#    z 0.000000 0.000000 1.701510 
# 
# From -- ./inp_files/25115.got.cif
#   From: 2010.05.17/outbox.cif.g08.bks.cpg/sg47_13_cif.got.tgz:25115.got - 2010.06.03 20:15:42.
