data_PCOD9382149
_publ_section_title
;
Structure prediction by ZEFSAII (Michael W. Deem and Ramdas Pophale) SiO2 
 PCOD9382149
Probable space group: P M M M
;
_chemical_formula_sum "Si O2"
_cell_formula_units_Z 56
_cell_length_a 16.301322
_cell_length_b 7.543773
_cell_length_c 20.301427
_cell_angle_alpha 90.000000
_cell_angle_beta 90.000000
_cell_angle_gamma 90.000000
_cell_volume 2496.536980
_symmetry_space_group_name_H-M "P M M M"
_symmetry_group_IT_number 47
_symmetry_cell_setting 'orthorhombic'
loop_
_space_group_symop_operation_xyz
x,y,z
-x,-y,z
x,-y,-z
-x,y,-z
-x,-y,-z
x,y,-z
-x,y,z
x,-y,z
loop_
_atom_site_type_symbol
_atom_site_label
_atom_site_fract_x
_atom_site_fract_y
_atom_site_fract_z
Si Si1 0.641587 0.200635 0.788384
Si Si2 0.590100 0.782896 0.352328
Si Si3 0.244213 0.216818 0.575807
Si Si4 0.904663 0.214143 0.926837
Si Si5 0.401307 0.790095 0.929106
Si Si6 0.909970 0.211204 0.338577
Si Si7 0.178011 0.703066 0.209512
O O1 0.601289 0.278685 0.723232
O O2 0.629209 0.286201 0.860002
O O3 0.738744 0.192554 0.776854
O O4 0.607904 0.000000 0.793944
O O5 0.500000 0.731606 0.377184
O O6 0.668852 0.725270 0.393863
O O7 0.592680 0.000000 0.351187
O O8 0.236026 0.269760 0.500000
O O9 0.167059 0.278888 0.619296
O O10 0.244317 0.000000 0.577773
O O11 0.852202 0.275330 0.865056
O O12 0.000000 0.268245 0.918911
O O13 0.902897 0.000000 0.926210
O O14 0.877117 0.271439 0.000000
O O15 0.500000 0.779101 0.928082
O O16 0.378743 0.000000 0.929810
O O17 0.373095 0.716702 0.000000
O O18 0.890722 0.241512 0.261700
O O19 0.000000 0.282748 0.355619
O O20 0.912244 0.000000 0.349278
O O21 0.198377 0.500000 0.221833
#
# Coordination Sequence:
#
# PCOD9382149 Si02
#       7
#     8   8   8   8   8   8   8
#     4  10  18  31  51  73 102 139 182 226 270 322
#     4   9  16  27  48  78 109 141 177 221 275 328
#     4   9  17  30  50  81 117 144 172 218 275 331
#     4   9  19  37  59  80 103 136 180 227 275 328
#     4   8  14  25  44  73 103 129 167 222 274 316
#     4  10  20  36  58  81 107 143 184 224 270 325
#     4  12  24  35  51  77 110 145 183 227 275 323
#
# _framework density 22.431073000000001
#
# number of rings (size 3 to 8) (size 9 to 14) (size 15 to 20)
#    0.000    2.429    1.429    3.000    0.000    5.429 
#    0.000    5.000    0.000    2.143    0.000    2.000 
#    0.000    1.143    0.000    0.000    0.000    0.000 
#
# Total GULP energy -312677.507499 kJ/mol
# GULP energy per Si atom -5583.526920 kJ/mol
# Density = 2.238002 g / cm^3
# Si number density = 22.431073 Si / 1000 Ang^3
#
#
#
# Elastic Constant Matrix: (Units=GPa)
#
#
# Indices 1 2 3 4 5 6 
#
# 1 138.3883 8.4365 68.9187 0.0000 0.0000 0.0000
# 2 8.4365 58.3959 -2.3359 0.0000 0.0000 0.0000
# 3 68.9187 -2.3359 132.1112 0.0000 0.0000 0.0000
# 4 0.0000 0.0000 0.0000 -43.2427 0.0000 0.0000
# 5 0.0000 0.0000 0.0000 0.0000 -367.8123 0.0000
# 6 0.0000 0.0000 0.0000 0.0000 0.0000 -42.0056
#
#
#
# Elastic Compliance Matrix: (Units=1/GPa)
#
#
# Indices 1 2 3 4 5 6 
#
# 1 0.009917 -0.001641 -0.005202 0.000000 0.000000 0.000000
# 2 -0.001641 0.017408 0.001164 0.000000 0.000000 0.000000
# 3 -0.005202 0.001164 0.010304 0.000000 0.000000 0.000000
# 4 0.000000 0.000000 0.000000 -0.023125 0.000000 0.000000
# 5 0.000000 0.000000 0.000000 0.000000 -0.002719 0.000000
# 6 0.000000 0.000000 0.000000 0.000000 0.000000 -0.023806
#
#
# Mechanical properties :
#
#
# Convention : Reuss Voigt Hill
#
# Bulk Modulus (GPa) = 38.06616 53.21487 45.64051
# Shear Modulus (GPa) = 617.73879 -73.68706 272.02586
#
# Velocity S-wave (km/s) = 16.61301 -5.73775 11.02430
# Velocity P-wave (km/s) = 19.62133 4.48558 13.50696
#
# Compressibility (1/GPa) = 0.02627005
#
# Stress axis : x y z
#
# Youngs Moduli (GPa) = 100.83786 57.44453 97.05064
#
# Poissons Ratio (x) = 0.09425 0.50489
# Poissons Ratio (y) = 0.16545 -0.11294
# Poissons Ratio (z) = 0.52460 -0.06685
#
# Static dielectric constant tensor:
#      x y z
#    x 1.818550 0.000000 0.000000 
#    y 0.000000 1.871360 0.000000 
#    z 0.000000 0.000000 1.835120 
# 
# From -- ./inp_files/7205.got.cif
#   From: 2010.05.17/outbox.cif.g08.bks.cpg/sg47_4_cif.got.tgz:7205.got - 2010.06.03 20:15:42.
