data_PCOD9382964
_publ_section_title
;
Structure prediction by ZEFSAII (Michael W. Deem and Ramdas Pophale) SiO2 
 PCOD9382964
Probable space group: P M M M
;
_chemical_formula_sum "Si O2"
_cell_formula_units_Z 52
_cell_length_a 7.634660
_cell_length_b 18.172568
_cell_length_c 18.816131
_cell_angle_alpha 90.000000
_cell_angle_beta 90.000000
_cell_angle_gamma 90.000000
_cell_volume 2610.575944
_symmetry_space_group_name_H-M "P M M M"
_symmetry_group_IT_number 47
_symmetry_cell_setting 'orthorhombic'
loop_
_space_group_symop_operation_xyz
x,y,z
-x,-y,z
x,-y,-z
-x,y,-z
-x,-y,-z
x,y,-z
-x,y,z
x,-y,z
loop_
_atom_site_type_symbol
_atom_site_label
_atom_site_fract_x
_atom_site_fract_y
_atom_site_fract_z
Si Si1 0.711551 0.085286 0.921856
Si Si2 0.293502 0.589458 0.000000
Si Si3 0.290700 0.240904 0.578126
Si Si4 0.796613 0.158516 0.223868
Si Si5 0.300505 0.688702 0.279516
Si Si6 0.210738 0.080733 0.364232
Si Si7 0.285221 0.585935 0.844389
O O1 0.500000 0.086820 0.920403
O O2 0.777144 0.130543 0.855419
O O3 0.765499 0.000000 0.914636
O O4 0.767879 0.111548 0.000000
O O5 0.223657 0.613137 0.077354
O O6 0.282163 0.500000 0.000000
O O7 0.500000 0.608232 0.000000
O O8 0.220552 0.258536 0.500000
O O9 0.500000 0.252102 0.577590
O O10 0.220358 0.289434 0.643967
O O11 0.264920 0.154039 0.593990
O O12 0.695504 0.233225 0.239065
O O13 0.740669 0.097768 0.282073
O O14 0.000000 0.174530 0.238554
O O15 0.500000 0.663365 0.292760
O O16 0.220816 0.631702 0.223409
O O17 0.000000 0.077973 0.368778
O O18 0.277077 0.000000 0.386433
O O19 0.500000 0.590563 0.845660
O O20 0.240467 0.500000 0.837624
#
# Coordination Sequence:
#
# PCOD9382964 Si02
#       7
#     8   4   8   8   8   8   8
#     4   9  18  32  48  65  86 115 154 197 234 267
#     4   7  10  18  34  60  91 113 132 167 214 257
#     4   9  18  31  45  62  87 119 151 183 222 271
#     4  10  19  31  46  64  90 120 151 186 227 276
#     4   9  17  30  47  66  89 118 152 186 225 272
#     4   9  18  31  46  65  87 112 145 186 230 273
#     4   8  13  23  42  67  92 117 147 184 224 267
#
# _framework density 19.918977000000002
#
# number of rings (size 3 to 8) (size 9 to 14) (size 15 to 20)
#    0.000    3.154    0.000    2.308    0.000    2.769 
#    1.385    2.308    0.000    0.923    0.000    3.231 
#    0.000    1.846    0.000    7.692    0.000    8.000 
#
# Total GULP energy -289669.015321 kJ/mol
# GULP energy per Si atom -5570.557987 kJ/mol
# Density = 1.987364 g / cm^3
# Si number density = 19.918977 Si / 1000 Ang^3
#
#
#
# Elastic Constant Matrix: (Units=GPa)
#
#
# Indices 1 2 3 4 5 6 
#
# 1 39.2222 2.6810 6.5285 0.0000 0.0000 0.0000
# 2 2.6810 57.8750 64.0672 0.0000 0.0000 0.0000
# 3 6.5285 64.0672 195.7397 0.0000 0.0000 0.0000
# 4 0.0000 0.0000 0.0000 14.7662 0.0000 0.0000
# 5 0.0000 0.0000 0.0000 0.0000 3.4508 0.0000
# 6 0.0000 0.0000 0.0000 0.0000 0.0000**********
#
#
#
# Elastic Compliance Matrix: (Units=1/GPa)
#
#
# Indices 1 2 3 4 5 6 
#
# 1 0.025643 -0.000378 -0.000732 0.000000 0.000000 0.000000
# 2 -0.000378 0.027102 -0.008858 0.000000 0.000000 0.000000
# 3 -0.000732 -0.008858 0.008033 0.000000 0.000000 0.000000
# 4 0.000000 0.000000 0.000000 0.067722 0.000000 0.000000
# 5 0.000000 0.000000 0.000000 0.000000 0.289786 0.000000
# 6 0.000000 0.000000 0.000000 0.000000 0.000000 -0.000035
#
#
# Mechanical properties :
#
#
# Convention : Reuss Voigt Hill
#
# Bulk Modulus (GPa) = 24.48430 48.82112 36.65271
# Shear Modulus (GPa) = 11.06682 -5744.01170 -2866.47244
#
# Velocity S-wave (km/s) = 2.35966 -53.75824 -37.97618
# Velocity P-wave (km/s) = 4.44326 61.87650 43.64034
#
# Compressibility (1/GPa) = 0.04084249
#
# Stress axis : x y z
#
# Youngs Moduli (GPa) = 38.99638 36.89773 124.49362
#
# Poissons Ratio (x) = 0.01395 0.09107
# Poissons Ratio (y) = 0.01474 1.10277
# Poissons Ratio (z) = 0.02853 0.32684
#
# Static dielectric constant tensor:
#      x y z
#    x 1.744350 0.000000 0.000000 
#    y 0.000000 1.673070 0.000000 
#    z 0.000000 0.000000 1.747930 
# 
# From -- ./inp_files/26734.got.cif
#   From: 2010.05.17/outbox.cif.g08.bks.cpg/sg47_14_cif.got.tgz:26734.got - 2010.06.03 20:15:42.
