data_PCOD9382939
_publ_section_title
;
Structure prediction by ZEFSAII (Michael W. Deem and Ramdas Pophale) SiO2 
 PCOD9382939
Probable space group: P M M M
;
_chemical_formula_sum "Si O2"
_cell_formula_units_Z 52
_cell_length_a 18.921106
_cell_length_b 9.002565
_cell_length_c 25.229569
_cell_angle_alpha 90.000000
_cell_angle_beta 90.000000
_cell_angle_gamma 90.000000
_cell_volume 4297.566602
_symmetry_space_group_name_H-M "P M M M"
_symmetry_group_IT_number 47
_symmetry_cell_setting 'orthorhombic'
loop_
_space_group_symop_operation_xyz
x,y,z
-x,-y,z
x,-y,-z
-x,y,-z
-x,-y,-z
x,y,-z
-x,y,z
x,-y,z
loop_
_atom_site_type_symbol
_atom_site_label
_atom_site_fract_x
_atom_site_fract_y
_atom_site_fract_z
Si Si1 0.000000 0.173691 0.936472
Si Si2 0.575927 0.179063 0.936709
Si Si3 0.865699 0.677331 0.880773
Si Si4 0.268241 0.821329 0.936433
Si Si5 0.085835 0.174022 0.558621
Si Si6 0.084815 0.824555 0.225010
Si Si7 0.085957 0.329864 0.665761
O O1 0.069166 0.252577 0.913502
O O2 0.000000 0.000000 0.920289
O O3 0.000000 0.180530 0.000000
O O4 0.500000 0.235099 0.915484
O O5 0.653196 0.229067 0.918006
O O6 0.575822 0.000000 0.930449
O O7 0.575585 0.206405 0.000000
O O8 0.868652 0.500000 0.882919
O O9 0.793712 0.738458 0.906069
O O10 0.876170 0.735013 0.820952
O O11 0.262134 0.000000 0.928719
O O12 0.262500 0.796266 0.000000
O O13 0.109052 0.225708 0.500000
O O14 0.110895 0.264236 0.609643
O O15 0.000000 0.181780 0.558648
O O16 0.103818 0.000000 0.564153
O O17 0.105586 0.767746 0.283339
O O18 0.000000 0.799733 0.218942
O O19 0.097428 0.000000 0.219663
O O20 0.108176 0.500000 0.672633
O O21 0.000000 0.328036 0.664085
#
# Coordination Sequence:
#
# PCOD9382939 Si02
#       7
#     4   8   8   8   8   8   8
#     4  11  23  37  49  57  67  87 116 147 182 225
#     4   7  10  19  38  62  81  95 114 139 164 194
#     4  12  23  32  43  57  74  92 115 149 185 220
#     4   9  17  29  44  60  78  98 118 141 172 214
#     4   8  13  21  32  46  65  88 112 135 163 204
#     4  10  19  31  45  54  64  85 116 149 182 220
#     4   9  16  24  35  51  69  85 106 138 176 214
#
# _framework density 12.099871
#
# number of rings (size 3 to 8) (size 9 to 14) (size 15 to 20)
#    0.000    2.692    0.769    4.846    0.000    5.538 
#    0.000    1.538    0.000    0.462    0.000    2.154 
#    0.000    0.000    0.000    0.000    0.000    0.000 
#
# Total GULP energy -289491.608204 kJ/mol
# GULP energy per Si atom -5567.146312 kJ/mol
# Density = 1.207233 g / cm^3
# Si number density = 12.099871 Si / 1000 Ang^3
#
#
#
# Elastic Constant Matrix: (Units=GPa)
#
#
# Indices 1 2 3 4 5 6 
#
# 1 81.4382 35.4005 33.2329 0.0000 0.0000 0.0000
# 2 35.4005 64.5372 42.2779 0.0000 0.0000 0.0000
# 3 33.2329 42.2779 71.6725 0.0000 0.0000 0.0000
# 4 0.0000 0.0000 0.0000 -391.5002 0.0000 0.0000
# 5 0.0000 0.0000 0.0000 0.0000 -0.1024 0.0000
# 6 0.0000 0.0000 0.0000 0.0000 0.0000 0.9879
#
#
#
# Elastic Compliance Matrix: (Units=1/GPa)
#
#
# Indices 1 2 3 4 5 6 
#
# 1 0.016743 -0.006679 -0.003823 0.000000 0.000000 0.000000
# 2 -0.006679 0.027918 -0.013371 0.000000 0.000000 0.000000
# 3 -0.003823 -0.013371 0.023613 0.000000 0.000000 0.000000
# 4 0.000000 0.000000 0.000000 -0.002554 0.000000 0.000000
# 5 0.000000 0.000000 0.000000 0.000000 -9.761365 0.000000
# 6 0.000000 0.000000 0.000000 0.000000 0.000000 1.012232
#
#
# Mechanical properties :
#
#
# Convention : Reuss Voigt Hill
#
# Bulk Modulus (GPa) = 48.71909 48.83006 48.77458
# Shear Modulus (GPa) = -0.57945 -71.00718 -35.79332
#
# Velocity S-wave (km/s) = -0.69277 -7.66888 -5.44479
# Velocity P-wave (km/s) = 6.30172 6.16215 0.93262
#
# Compressibility (1/GPa) = 0.02052583
#
# Stress axis : x y z
#
# Youngs Moduli (GPa) = 59.72685 35.81894 42.35040
#
# Poissons Ratio (x) = 0.23925 0.16192
# Poissons Ratio (y) = 0.39894 0.56628
# Poissons Ratio (z) = 0.22835 0.47894
#
# Static dielectric constant tensor:
#      x y z
#    x 1.388540 0.000000 0.000000 
#    y 0.000000 1.399330 0.000000 
#    z 0.000000 0.000000 1.392840 
# 
# From -- ./inp_files/10085.got.cif
#   From: 2010.05.17/outbox.cif.g08.bks.cpg/sg47_6_cif.got.tgz:10085.got - 2010.06.03 20:15:42.
