data_PCOD9382875
_publ_section_title
;
Structure prediction by ZEFSAII (Michael W. Deem and Ramdas Pophale) SiO2 
 PCOD9382875
Probable space group: P M M M
;
_chemical_formula_sum "Si O2"
_cell_formula_units_Z 40
_cell_length_a 7.613083
_cell_length_b 31.487627
_cell_length_c 7.464773
_cell_angle_alpha 90.000000
_cell_angle_beta 90.000000
_cell_angle_gamma 90.000000
_cell_volume 1789.439841
_symmetry_space_group_name_H-M "P M M M"
_symmetry_group_IT_number 47
_symmetry_cell_setting 'orthorhombic'
loop_
_space_group_symop_operation_xyz
x,y,z
-x,-y,z
x,-y,-z
-x,y,-z
-x,-y,-z
x,y,-z
-x,y,z
x,-y,z
loop_
_atom_site_type_symbol
_atom_site_label
_atom_site_fract_x
_atom_site_fract_y
_atom_site_fract_z
Si Si1 0.698707 0.230035 0.287720
Si Si2 0.000000 0.290128 0.713994
Si Si3 0.704394 0.863214 0.215755
Si Si4 0.000000 0.389621 0.215333
Si Si5 0.713209 0.045704 0.214270
Si Si6 0.298916 0.452331 0.218459
O O1 0.683055 0.236670 0.500000
O O2 0.500000 0.231019 0.212427
O O3 0.827934 0.265889 0.214899
O O4 0.777594 0.182689 0.264561
O O5 0.000000 0.340161 0.742726
O O6 0.000000 0.283448 0.500000
O O7 0.500000 0.861771 0.275317
O O8 0.778709 0.908478 0.281009
O O9 0.705796 0.865302 0.000000
O O10 0.830241 0.415552 0.280439
O O11 0.000000 0.392802 0.000000
O O12 0.500000 0.046461 0.235248
O O13 0.774873 0.000000 0.285997
O O14 0.746611 0.044901 0.000000
O O15 0.500000 0.446088 0.274947
O O16 0.242373 0.500000 0.271451
O O17 0.298184 0.452019 0.000000
#
# Coordination Sequence:
#
# PCOD9382875 Si02
#       6
#     8   4   8   4   8   8
#     4   9  18  33  50  64  82 113 151 188 226 271
#     4  10  22  37  49  65  91 123 156 187 229 282
#     4   8  13  22  39  63  87 111 142 181 223 264
#     4  10  19  30  48  74  98 121 155 196 229 259
#     4   7   9  14  27  51  83 113 137 164 205 261
#     4   8  14  26  46  73 103 131 157 186 222 264
#
# _framework density 22.353366000000001
#
# number of rings (size 3 to 8) (size 9 to 14) (size 15 to 20)
#    0.000    3.600    0.000    2.700    0.000    2.800 
#    0.000    0.000    0.000    1.800    0.000    6.300 
#    0.000    5.600    0.000    0.600    0.000    0.000 
#
# Total GULP energy -222956.922223 kJ/mol
# GULP energy per Si atom -5573.923056 kJ/mol
# Density = 2.230249 g / cm^3
# Si number density = 22.353366 Si / 1000 Ang^3
#
#
#
# Elastic Constant Matrix: (Units=GPa)
#
#
# Indices 1 2 3 4 5 6 
#
# 1 96.3061 104.0284 5.8286 0.0000 0.0000 0.0000
# 2 104.0284 259.3581 -1.2957 0.0000 0.0000 0.0000
# 3 5.8286 -1.2957 62.7171 0.0000 0.0000 0.0000
# 4 0.0000 0.0000 0.0000 42.5274 0.0000 0.0000
# 5 0.0000 0.0000 0.0000 0.0000 -7.1955 0.0000
# 6 0.0000 0.0000 0.0000 0.0000 0.0000 -43.2059
#
#
#
# Elastic Compliance Matrix: (Units=1/GPa)
#
#
# Indices 1 2 3 4 5 6 
#
# 1 0.018540 -0.007446 -0.001877 0.000000 0.000000 0.000000
# 2 -0.007446 0.006846 0.000833 0.000000 0.000000 0.000000
# 3 -0.001877 0.000833 0.016136 0.000000 0.000000 0.000000
# 4 0.000000 0.000000 0.000000 0.023514 0.000000 0.000000
# 5 0.000000 0.000000 0.000000 0.000000 -0.138975 0.000000
# 6 0.000000 0.000000 0.000000 0.000000 0.000000 -0.023145
#
#
# Mechanical properties :
#
#
# Convention : Reuss Voigt Hill
#
# Bulk Modulus (GPa) = 40.74284 70.61154 55.67719
# Shear Modulus (GPa) = -69.51781 19.07987 -25.21897
#
# Velocity S-wave (km/s) = -5.58274 2.92474 -3.36251
# Velocity P-wave (km/s) = 4.82594 6.56223 3.14429
#
# Compressibility (1/GPa) = 0.02454419
#
# Stress axis : x y z
#
# Youngs Moduli (GPa) = 53.93770 146.06408 61.97220
#
# Poissons Ratio (x) = 1.08755 0.11631
# Poissons Ratio (y) = 0.40161 -0.05165
# Poissons Ratio (z) = 0.10123 -0.12173
#
# Static dielectric constant tensor:
#      x y z
#    x 1.862580 0.000000 0.000000 
#    y 0.000000 1.827060 0.000000 
#    z 0.000000 0.000000 1.846660 
# 
# From -- ./inp_files/1841.got.cif
#   From: 2010.05.17/outbox.cif.g08.bks.cpg/sg47_1_cif.got.tgz:1841.got - 2010.06.03 20:15:42.
