data_PCOD9382906
_publ_section_title
;
Structure prediction by ZEFSAII (Michael W. Deem and Ramdas Pophale) SiO2 
 PCOD9382906
Probable space group: P M M M
;
_chemical_formula_sum "Si O2"
_cell_formula_units_Z 52
_cell_length_a 9.373375
_cell_length_b 13.734920
_cell_length_c 20.361279
_cell_angle_alpha 90.000000
_cell_angle_beta 90.000000
_cell_angle_gamma 90.000000
_cell_volume 2621.363097
_symmetry_space_group_name_H-M "P M M M"
_symmetry_group_IT_number 47
_symmetry_cell_setting 'orthorhombic'
loop_
_space_group_symop_operation_xyz
x,y,z
-x,-y,z
x,-y,-z
-x,y,-z
-x,-y,-z
x,y,-z
-x,y,z
x,-y,z
loop_
_atom_site_type_symbol
_atom_site_label
_atom_site_fract_x
_atom_site_fract_y
_atom_site_fract_z
Si Si1 0.500000 0.382620 0.077767
Si Si2 0.662868 0.382789 0.299292
Si Si3 0.834796 0.619121 0.426525
Si Si4 0.754523 0.301437 0.836673
Si Si5 0.330650 0.116885 0.378777
Si Si6 0.000000 0.616628 0.075537
Si Si7 0.000000 0.886487 0.578295
Si Si8 0.332413 0.889284 0.222369
O O1 0.500000 0.500000 0.083569
O O2 0.374674 0.336398 0.119054
O O3 0.500000 0.360335 0.000000
O O4 0.500000 0.347992 0.293291
O O5 0.660439 0.500000 0.300604
O O6 0.733613 0.349557 0.367344
O O7 0.747355 0.350510 0.235104
O O8 0.789618 0.649110 0.500000
O O9 0.834474 0.500000 0.426215
O O10 0.000000 0.648680 0.416570
O O11 0.874783 0.341126 0.882288
O O12 0.752364 0.187784 0.820475
O O13 0.500000 0.148720 0.398199
O O14 0.166540 0.148424 0.402863
O O15 0.323605 0.132496 0.300152
O O16 0.333381 0.000000 0.392054
O O17 0.000000 0.500000 0.076045
O O18 0.000000 0.647671 0.000000
O O19 0.000000 0.880240 0.500000
O O20 0.000000 0.000000 0.600509
O O21 0.500000 0.881135 0.205151
O O22 0.286036 0.000000 0.212591
#
# Coordination Sequence:
#
# PCOD9382906 Si02
#       8
#     4   8   8   8   8   4   4   8
#     4  11  22  38  63  91 124 164 199 236 293 367
#     4  10  19  30  49  81 117 148 189 251 309 357
#     4   8  15  28  46  70 104 150 196 234 287 363
#     4  12  22  38  62  92 121 159 208 258 304 361
#     4   8  15  28  47  72 107 150 194 252 324 385
#     4  11  26  45  63  89 130 173 207 243 299 376
#     4   9  16  25  42  72 106 143 198 262 320 391
#     4   9  18  36  62  91 121 154 199 260 319 370
#
# _framework density 19.837008999999998
#
# number of rings (size 3 to 8) (size 9 to 14) (size 15 to 20)
#    0.000    2.385    1.538    3.231    1.077    2.462 
#    0.000    4.231    0.000    3.692    0.000    2.154 
#    0.000    0.000    0.000    0.000    0.000    0.000 
#
# Total GULP energy -289543.368238 kJ/mol
# GULP energy per Si atom -5568.141697 kJ/mol
# Density = 1.979186 g / cm^3
# Si number density = 19.837009 Si / 1000 Ang^3
#
#
#
# Elastic Constant Matrix: (Units=GPa)
#
#
# Indices 1 2 3 4 5 6 
#
# 1 149.1658 32.1905 70.8477 0.0000 0.0000 0.0000
# 2 32.1905 72.6440 42.6171 0.0000 0.0000 0.0000
# 3 70.8477 42.6171 151.0790 0.0000 0.0000 0.0000
# 4 0.0000 0.0000 0.0000 15.1129 0.0000 0.0000
# 5 0.0000 0.0000 0.0000 0.0000 51.7893 0.0000
# 6 0.0000 0.0000 0.0000 0.0000 0.0000 22.7734
#
#
#
# Elastic Compliance Matrix: (Units=1/GPa)
#
#
# Indices 1 2 3 4 5 6 
#
# 1 0.008812 -0.001774 -0.003632 0.000000 0.000000 0.000000
# 2 -0.001774 0.016853 -0.003922 0.000000 0.000000 0.000000
# 3 -0.003632 -0.003922 0.009428 0.000000 0.000000 0.000000
# 4 0.000000 0.000000 0.000000 0.066169 0.000000 0.000000
# 5 0.000000 0.000000 0.000000 0.000000 0.019309 0.000000
# 6 0.000000 0.000000 0.000000 0.000000 0.000000 0.043911
#
#
# Mechanical properties :
#
#
# Convention : Reuss Voigt Hill
#
# Bulk Modulus (GPa) = 60.83718 73.79993 67.31856
# Shear Modulus (GPa) = 26.50884 33.08402 29.79643
#
# Velocity S-wave (km/s) = 3.65955 4.08829 3.87985
# Velocity P-wave (km/s) = 6.97076 7.71812 7.35394
#
# Compressibility (1/GPa) = 0.01643732
#
# Stress axis : x y z
#
# Youngs Moduli (GPa) = 113.48477 59.33742 106.06168
#
# Poissons Ratio (x) = 0.10527 0.38519
# Poissons Ratio (y) = 0.20134 0.41597
# Poissons Ratio (z) = 0.41215 0.23272
#
# Static dielectric constant tensor:
#      x y z
#    x 1.701390 0.000000 0.000000 
#    y 0.000000 1.777970 0.000000 
#    z 0.000000 0.000000 1.640400 
# 
# From -- ./inp_files/29636.got.cif
#   From: 2010.05.17/outbox.cif.g08.bks.cpg/sg47_15_cif.got.tgz:29636.got - 2010.06.03 20:15:42.
