data_PCOD9382049
_publ_section_title
;
Structure prediction by ZEFSAII (Michael W. Deem and Ramdas Pophale) SiO2 
 PCOD9382049
Probable space group: P M M M
;
_chemical_formula_sum "Si O2"
_cell_formula_units_Z 64
_cell_length_a 20.765621
_cell_length_b 20.810932
_cell_length_c 7.784160
_cell_angle_alpha 90.000000
_cell_angle_beta 90.000000
_cell_angle_gamma 90.000000
_cell_volume 3363.939741
_symmetry_space_group_name_H-M "P M M M"
_symmetry_group_IT_number 47
_symmetry_cell_setting 'orthorhombic'
loop_
_space_group_symop_operation_xyz
x,y,z
-x,-y,z
x,-y,-z
-x,y,-z
-x,-y,-z
x,y,-z
-x,y,z
x,-y,z
loop_
_atom_site_type_symbol
_atom_site_label
_atom_site_fract_x
_atom_site_fract_y
_atom_site_fract_z
Si Si1 0.930069 0.211457 0.206867
Si Si2 0.208644 0.749789 0.297317
Si Si3 0.100953 0.931113 0.797900
Si Si4 0.572936 0.426180 0.790230
Si Si5 0.616290 0.930286 0.292508
Si Si6 0.759093 0.107662 0.291128
Si Si7 0.667098 0.315181 0.205960
Si Si8 0.430100 0.791173 0.204810
O O1 0.866783 0.251771 0.252891
O O2 0.922303 0.137669 0.273098
O O3 0.000000 0.236109 0.263468
O O4 0.930185 0.207773 0.000000
O O5 0.212792 0.754112 0.500000
O O6 0.234761 0.818524 0.228576
O O7 0.257743 0.694294 0.244009
O O8 0.178082 0.927556 0.778232
O O9 0.078956 0.000000 0.725180
O O10 0.084187 0.931253 0.000000
O O11 0.500000 0.406748 0.739561
O O12 0.583267 0.500000 0.736679
O O13 0.628092 0.377396 0.730666
O O14 0.573406 0.425691 0.000000
O O15 0.614434 0.930184 0.500000
O O16 0.690950 0.921609 0.239950
O O17 0.580445 0.866413 0.234984
O O18 0.592145 0.000000 0.233234
O O19 0.762195 0.105854 0.500000
O O20 0.627875 0.252678 0.273044
O O21 0.662311 0.316143 0.000000
O O22 0.500000 0.771525 0.273956
O O23 0.431301 0.781281 0.000000
#
# Coordination Sequence:
#
# PCOD9382049 Si02
#       8
#     8   8   8   8   8   8   8   8
#     4   9  18  32  48  66  92 124 155 192 241 293
#     4  10  19  31  49  70  93 121 157 199 239 281
#     4   9  17  27  41  63  87 111 143 183 231 290
#     4   8  14  26  47  77 110 140 169 200 234 275
#     4  10  20  33  47  61  80 110 150 196 246 297
#     4   9  17  30  45  60  81 110 146 190 238 285
#     4  10  18  30  51  75  99 127 161 199 236 278
#     4  10  21  34  47  65  89 117 151 195 244 289
#
# _framework density 19.025310999999999
#
# number of rings (size 3 to 8) (size 9 to 14) (size 15 to 20)
#    0.000    2.625    1.250    1.500    0.000    4.500 
#    0.000    2.500    0.000    1.500    0.000    4.375 
#    0.000    0.500    0.000    5.750    0.000    1.625 
#
# Total GULP energy -356894.027838 kJ/mol
# GULP energy per Si atom -5576.469185 kJ/mol
# Density = 1.898201 g / cm^3
# Si number density = 19.025311 Si / 1000 Ang^3
#
#
#
# Elastic Constant Matrix: (Units=GPa)
#
#
# Indices 1 2 3 4 5 6 
#
# 1 136.8453 63.2513 6.5590 0.0000 0.0000 0.0000
# 2 63.2513 83.9049 5.0248 0.0000 0.0000 0.0000
# 3 6.5590 5.0248 24.7104 0.0000 0.0000 0.0000
# 4 0.0000 0.0000 0.0000 0.8447 0.0000 0.0000
# 5 0.0000 0.0000 0.0000 0.0000 299.9118 0.0000
# 6 0.0000 0.0000 0.0000 0.0000 0.0000 13.8682
#
#
#
# Elastic Compliance Matrix: (Units=1/GPa)
#
#
# Indices 1 2 3 4 5 6 
#
# 1 0.011255 -0.008408 -0.001278 0.000000 0.000000 0.000000
# 2 -0.008408 0.018346 -0.001499 0.000000 0.000000 0.000000
# 3 -0.001278 -0.001499 0.041113 0.000000 0.000000 0.000000
# 4 0.000000 0.000000 0.000000 1.183803 0.000000 0.000000
# 5 0.000000 0.000000 0.000000 0.000000 0.003334 0.000000
# 6 0.000000 0.000000 0.000000 0.000000 0.000000 0.072107
#
#
# Mechanical properties :
#
#
# Convention : Reuss Voigt Hill
#
# Bulk Modulus (GPa) = 20.68476 43.90342 32.29409
# Shear Modulus (GPa) = 3.65379 74.29998 38.97688
#
# Velocity S-wave (km/s) = 1.38732 6.25604 4.53115
# Velocity P-wave (km/s) = 3.66907 8.67816 6.66230
#
# Compressibility (1/GPa) = 0.04834477
#
# Stress axis : x y z
#
# Youngs Moduli (GPa) = 88.84911 54.50668 24.32339
#
# Poissons Ratio (x) = 0.45829 0.03108
# Poissons Ratio (y) = 0.74705 0.03646
# Poissons Ratio (z) = 0.11352 0.08170
#
# Static dielectric constant tensor:
#      x y z
#    x 1.696730 0.000000 0.000000 
#    y 0.000000 1.666580 0.000000 
#    z 0.000000 0.000000 1.699180 
# 
# From -- ./inp_files/11642.got.cif
#   From: 2010.05.17/outbox.cif.g08.bks.cpg/sg47_6_cif.got.tgz:11642.got - 2010.06.03 20:15:42.
