data_PCOD9382679
_publ_section_title
;
Structure prediction by ZEFSAII (Michael W. Deem and Ramdas Pophale) SiO2 
 PCOD9382679
Probable space group: P M M M
;
_chemical_formula_sum "Si O2"
_cell_formula_units_Z 60
_cell_length_a 9.587174
_cell_length_b 23.477994
_cell_length_c 15.187070
_cell_angle_alpha 90.000000
_cell_angle_beta 90.000000
_cell_angle_gamma 90.000000
_cell_volume 3418.421345
_symmetry_space_group_name_H-M "P M M M"
_symmetry_group_IT_number 47
_symmetry_cell_setting 'orthorhombic'
loop_
_space_group_symop_operation_xyz
x,y,z
-x,-y,z
x,-y,-z
-x,y,-z
-x,-y,-z
x,y,-z
-x,y,z
x,-y,z
loop_
_atom_site_type_symbol
_atom_site_label
_atom_site_fract_x
_atom_site_fract_y
_atom_site_fract_z
Si Si1 0.341129 0.174208 0.855155
Si Si2 0.838373 0.935024 0.893123
Si Si3 0.157507 0.000000 0.391449
Si Si4 0.341501 0.222677 0.657282
Si Si5 0.834304 0.281965 0.095938
Si Si6 0.832185 0.327667 0.286766
Si Si7 0.343361 0.102252 0.602117
Si Si8 0.169542 0.435335 0.600979
O O1 0.500000 0.170169 0.888381
O O2 0.263599 0.113896 0.859038
O O3 0.346878 0.197648 0.755919
O O4 0.249796 0.222868 0.901950
O O5 0.000000 0.923844 0.868000
O O6 0.803001 0.000000 0.866785
O O7 0.832728 0.933011 0.000000
O O8 0.239178 0.944063 0.359879
O O9 0.152271 0.000000 0.500000
O O10 0.000000 0.000000 0.360028
O O11 0.500000 0.237449 0.629714
O O12 0.241951 0.276760 0.660075
O O13 0.292516 0.167150 0.604846
O O14 0.797205 0.318280 0.183180
O O15 0.000000 0.269793 0.102466
O O16 0.809498 0.309574 0.000000
O O17 0.787140 0.387501 0.329317
O O18 0.000000 0.323072 0.294734
O O19 0.357290 0.086454 0.500000
O O20 0.500000 0.100238 0.641344
O O21 0.211200 0.421614 0.500000
O O22 0.215332 0.500000 0.621063
O O23 0.000000 0.435862 0.601622
#
# Coordination Sequence:
#
# PCOD9382679 Si02
#       8
#     8   8   4   8   8   8   8   8
#     4  10  19  30  44  63  87 112 142 184 230 274
#     4   9  18  32  47  61  80 108 140 175 219 273
#     4   9  17  29  45  65  85 103 134 187 238 271
#     4   9  19  33  45  63  92 120 145 182 232 277
#     4   9  17  29  45  64  88 120 154 188 229 276
#     4   9  17  29  47  70  94 122 157 194 228 269
#     4   9  17  31  49  63  79 112 152 181 217 279
#     4   8  14  26  46  73 103 132 161 192 227 269
#
# _framework density 17.551960000000001
#
# number of rings (size 3 to 8) (size 9 to 14) (size 15 to 20)
#    0.000    3.000    0.000    1.800    0.000    4.800 
#    1.200    0.667    0.000    0.800    0.000    3.733 
#    0.000    0.000    0.000    6.667    0.000    6.933 
#
# Total GULP energy -334110.930423 kJ/mol
# GULP energy per Si atom -5568.515507 kJ/mol
# Density = 1.751201 g / cm^3
# Si number density = 17.551960 Si / 1000 Ang^3
#
#
#
# Elastic Constant Matrix: (Units=GPa)
#
#
# Indices 1 2 3 4 5 6 
#
# 1 47.5943 57.6649 26.8857 0.0000 0.0000 0.0000
# 2 57.6649 139.3748 50.6998 0.0000 0.0000 0.0000
# 3 26.8857 50.6998 46.8178 0.0000 0.0000 0.0000
# 4 0.0000 0.0000 0.0000 -10.1391 0.0000 0.0000
# 5 0.0000 0.0000 0.0000 0.0000 10.1992 0.0000
# 6 0.0000 0.0000 0.0000 0.0000 0.0000 8.5502
#
#
#
# Elastic Compliance Matrix: (Units=1/GPa)
#
#
# Indices 1 2 3 4 5 6 
#
# 1 0.044434 -0.015018 -0.009254 0.000000 0.000000 0.000000
# 2 -0.015018 0.016914 -0.009692 0.000000 0.000000 0.000000
# 3 -0.009254 -0.009692 0.037169 0.000000 0.000000 0.000000
# 4 0.000000 0.000000 0.000000 -0.098628 0.000000 0.000000
# 5 0.000000 0.000000 0.000000 0.000000 0.098047 0.000000
# 6 0.000000 0.000000 0.000000 0.000000 0.000000 0.116956
#
#
# Mechanical properties :
#
#
# Convention : Reuss Voigt Hill
#
# Bulk Modulus (GPa) = 32.69076 56.03196 44.36136
# Shear Modulus (GPa) = 17.06386 8.29115 12.67751
#
# Velocity S-wave (km/s) = 3.12138 2.17578 2.69045
# Velocity P-wave (km/s) = 5.62639 6.18909 5.91443
#
# Compressibility (1/GPa) = 0.03058968
#
# Stress axis : x y z
#
# Youngs Moduli (GPa) = 22.50541 59.12208 26.90379
#
# Poissons Ratio (x) = 0.88789 0.24896
# Poissons Ratio (y) = 0.33798 0.26076
# Poissons Ratio (z) = 0.20826 0.57304
#
# Static dielectric constant tensor:
#      x y z
#    x 1.602660 0.000000 0.000000 
#    y 0.000000 1.579810 0.000000 
#    z 0.000000 0.000000 1.670570 
# 
# From -- ./inp_files/26986.got.cif
#   From: 2010.05.17/outbox.cif.g08.bks.cpg/sg47_14_cif.got.tgz:26986.got - 2010.06.03 20:15:42.
