data_PCOD9382025
_publ_section_title
;
Structure prediction by ZEFSAII (Michael W. Deem and Ramdas Pophale) SiO2 
 PCOD9382025
Probable space group: P M M M
;
_chemical_formula_sum "Si O2"
_cell_formula_units_Z 56
_cell_length_a 15.900998
_cell_length_b 8.145050
_cell_length_c 21.010250
_cell_angle_alpha 90.000000
_cell_angle_beta 90.000000
_cell_angle_gamma 90.000000
_cell_volume 2721.130422
_symmetry_space_group_name_H-M "P M M M"
_symmetry_group_IT_number 47
_symmetry_cell_setting 'orthorhombic'
loop_
_space_group_symop_operation_xyz
x,y,z
-x,-y,z
x,-y,-z
-x,y,-z
-x,-y,-z
x,y,-z
-x,y,z
x,-y,z
loop_
_atom_site_type_symbol
_atom_site_label
_atom_site_fract_x
_atom_site_fract_y
_atom_site_fract_z
Si Si1 0.591851 0.301332 0.380415
Si Si2 0.410010 0.807007 0.900117
Si Si3 0.812514 0.805251 0.792041
Si Si4 0.771666 0.195505 0.429484
Si Si5 0.776750 0.799653 0.931268
Si Si6 0.629531 0.691796 0.762756
Si Si7 0.907110 0.695239 0.674058
O O1 0.500000 0.250198 0.405489
O O2 0.595299 0.500000 0.382132
O O3 0.674727 0.237574 0.414783
O O4 0.598388 0.252208 0.306035
O O5 0.500000 0.736337 0.921460
O O6 0.320727 0.742100 0.925050
O O7 0.404705 0.786868 0.823833
O O8 0.410597 0.000000 0.916120
O O9 0.822740 0.752733 0.865722
O O10 0.730005 0.714307 0.765428
O O11 0.886185 0.770484 0.742897
O O12 0.794020 0.000000 0.791837
O O13 0.793391 0.259041 0.500000
O O14 0.834280 0.260656 0.375702
O O15 0.779719 0.000000 0.429209
O O16 0.775664 0.000000 0.931594
O O17 0.810352 0.745828 0.000000
O O18 0.607965 0.500000 0.770294
O O19 0.907106 0.500000 0.681183
O O20 0.000000 0.748975 0.652249
#
# Coordination Sequence:
#
# PCOD9382025 Si02
#       7
#     8   8   8   8   8   8   8
#     4  10  21  36  56  83 116 159 206 245 285 336
#     4   9  17  27  41  66 100 140 189 242 292 339
#     4  10  19  33  57  86 114 146 187 235 287 338
#     4  11  25  43  63  89 122 158 194 237 290 343
#     4   8  15  28  47  74 108 146 187 232 285 342
#     4  10  18  30  50  75 106 146 191 237 288 340
#     4  11  24  42  66  94 120 150 189 232 286 353
#
# _framework density 20.579681000000001
#
# number of rings (size 3 to 8) (size 9 to 14) (size 15 to 20)
#    0.000    2.143    1.429    3.000    0.000    4.857 
#    0.000    4.286    0.000   11.143    0.000    7.000 
#    0.000    0.000    0.000    0.000    0.000    0.000 
#
# Total GULP energy -312491.055157 kJ/mol
# GULP energy per Si atom -5580.197414 kJ/mol
# Density = 2.053284 g / cm^3
# Si number density = 20.579681 Si / 1000 Ang^3
#
#
#
# Elastic Constant Matrix: (Units=GPa)
#
#
# Indices 1 2 3 4 5 6 
#
# 1 86.9728 8.0448 43.9778 0.0000 0.0000 0.0000
# 2 8.0448 23.8304 16.0712 0.0000 0.0000 0.0000
# 3 43.9778 16.0712 131.4763 0.0000 0.0000 0.0000
# 4 0.0000 0.0000 0.0000 121.0695 0.0000 0.0000
# 5 0.0000 0.0000 0.0000 0.0000 -13.7376 0.0000
# 6 0.0000 0.0000 0.0000 0.0000 0.0000 11.3382
#
#
#
# Elastic Compliance Matrix: (Units=1/GPa)
#
#
# Indices 1 2 3 4 5 6 
#
# 1 0.013901 -0.001697 -0.004442 0.000000 0.000000 0.000000
# 2 -0.001697 0.045940 -0.005048 0.000000 0.000000 0.000000
# 3 -0.004442 -0.005048 0.009709 0.000000 0.000000 0.000000
# 4 0.000000 0.000000 0.000000 0.008260 0.000000 0.000000
# 5 0.000000 0.000000 0.000000 0.000000 -0.072793 0.000000
# 6 0.000000 0.000000 0.000000 0.000000 0.000000 0.088197
#
#
# Mechanical properties :
#
#
# Convention : Reuss Voigt Hill
#
# Bulk Modulus (GPa) = 21.19725 42.05188 31.62457
# Shear Modulus (GPa) = 38.07656 35.34640 36.71148
#
# Velocity S-wave (km/s) = 4.30606 4.14882 4.22817
# Velocity P-wave (km/s) = 5.91991 6.59001 6.26393
#
# Compressibility (1/GPa) = 0.04717593
#
# Stress axis : x y z
#
# Youngs Moduli (GPa) = 71.93672 21.76734 102.99798
#
# Poissons Ratio (x) = 0.03694 0.45756
# Poissons Ratio (y) = 0.12207 0.51993
# Poissons Ratio (z) = 0.31957 0.10988
#
# Static dielectric constant tensor:
#      x y z
#    x 1.746230 0.000000 0.000000 
#    y 0.000000 1.736740 0.000000 
#    z 0.000000 0.000000 1.760140 
# 
# From -- ./inp_files/7261.got.cif
#   From: 2010.05.17/outbox.cif.g08.bks.cpg/sg47_4_cif.got.tgz:7261.got - 2010.06.03 20:15:42.
