data_PCOD9382892
_publ_section_title
;
Structure prediction by ZEFSAII (Michael W. Deem and Ramdas Pophale) SiO2 
 PCOD9382892
Probable space group: P M M M
;
_chemical_formula_sum "Si O2"
_cell_formula_units_Z 64
_cell_length_a 7.708409
_cell_length_b 15.478734
_cell_length_c 24.682051
_cell_angle_alpha 90.000000
_cell_angle_beta 90.000000
_cell_angle_gamma 90.000000
_cell_volume 2944.973778
_symmetry_space_group_name_H-M "P M M M"
_symmetry_group_IT_number 47
_symmetry_cell_setting 'orthorhombic'
loop_
_space_group_symop_operation_xyz
x,y,z
-x,-y,z
x,-y,-z
-x,y,-z
-x,-y,-z
x,y,-z
-x,y,z
x,-y,z
loop_
_atom_site_type_symbol
_atom_site_label
_atom_site_fract_x
_atom_site_fract_y
_atom_site_fract_z
Si Si1 0.296341 0.097693 0.778826
Si Si2 0.291241 0.277635 0.823486
Si Si3 0.206168 0.597591 0.724856
Si Si4 0.712457 0.284680 0.939313
Si Si5 0.709476 0.774977 0.559373
Si Si6 0.699787 0.909202 0.064865
Si Si7 0.205827 0.902612 0.656697
Si Si8 0.297207 0.403814 0.397844
O O1 0.500000 0.091537 0.791361
O O2 0.225116 0.179380 0.812389
O O3 0.281470 0.121056 0.715264
O O4 0.222859 0.000000 0.785616
O O5 0.500000 0.270813 0.826100
O O6 0.248095 0.335778 0.771978
O O7 0.236504 0.322237 0.880647
O O8 0.260945 0.500000 0.740063
O O9 0.286502 0.616848 0.666242
O O10 0.000000 0.597963 0.716681
O O11 0.500000 0.285127 0.942055
O O12 0.773758 0.185852 0.929708
O O13 0.769694 0.313210 0.000000
O O14 0.767875 0.805209 0.500000
O O15 0.500000 0.770919 0.558802
O O16 0.756050 0.837488 0.608475
O O17 0.777059 0.678148 0.570841
O O18 0.500000 0.906179 0.084596
O O19 0.777422 0.000000 0.085215
O O20 0.691202 0.916372 0.000000
O O21 0.000000 0.904837 0.664372
O O22 0.267003 0.000000 0.643476
O O23 0.500000 0.409304 0.412655
O O24 0.221263 0.500000 0.406071
#
# Coordination Sequence:
#
# PCOD9382892 Si02
#       8
#     8   8   8   8   8   8   8   8
#     4   9  18  32  49  72 104 137 167 203 250 302
#     4  10  19  30  49  76 102 130 164 203 247 295
#     4  10  21  36  54  76 100 126 160 205 256 305
#     4   8  14  24  38  60  92 127 160 194 235 285
#     4  10  21  35  52  77 107 138 171 204 242 293
#     4   7   9  14  26  46  75 112 149 181 215 258
#     4  10  21  36  53  72  96 131 176 222 262 296
#     4   9  18  34  56  80 106 134 162 196 241 294
#
# _framework density 21.731943000000001
#
# number of rings (size 3 to 8) (size 9 to 14) (size 15 to 20)
#    0.000    2.875    0.000    2.625    0.000    6.750 
#    0.000    5.000    0.000    0.750    0.000    5.250 
#    0.000    0.000    0.000    7.375    0.000    7.000 
#
# Total GULP energy -356578.725084 kJ/mol
# GULP energy per Si atom -5571.542579 kJ/mol
# Density = 2.168248 g / cm^3
# Si number density = 21.731943 Si / 1000 Ang^3
#
#
#
# Elastic Constant Matrix: (Units=GPa)
#
#
# Indices 1 2 3 4 5 6 
#
# 1 35.4497 2.5698 1.8793 0.0000 0.0000 0.0000
# 2 2.5698 49.6745 43.2081 0.0000 0.0000 0.0000
# 3 1.8793 43.2081 123.1943 0.0000 0.0000 0.0000
# 4 0.0000 0.0000 0.0000 -0.8781 0.0000 0.0000
# 5 0.0000 0.0000 0.0000 0.0000 8.6022 0.0000
# 6 0.0000 0.0000 0.0000 0.0000 0.0000 131.7763
#
#
#
# Elastic Compliance Matrix: (Units=1/GPa)
#
#
# Indices 1 2 3 4 5 6 
#
# 1 0.028316 -0.001567 0.000118 0.000000 0.000000 0.000000
# 2 -0.001567 0.029055 -0.010167 0.000000 0.000000 0.000000
# 3 0.000118 -0.010167 0.011681 0.000000 0.000000 0.000000
# 4 0.000000 0.000000 0.000000 -1.138768 0.000000 0.000000
# 5 0.000000 0.000000 0.000000 0.000000 0.116249 0.000000
# 6 0.000000 0.000000 0.000000 0.000000 0.000000 0.007589
#
#
# Mechanical properties :
#
#
# Convention : Reuss Voigt Hill
#
# Bulk Modulus (GPa) = 21.82430 33.73698 27.78064
# Shear Modulus (GPa) = -5.51042 38.61083 16.55021
#
# Velocity S-wave (km/s) = -1.59409 4.21965 2.76263
# Velocity P-wave (km/s) = 2.58382 6.26884 4.79450
#
# Compressibility (1/GPa) = 0.04582048
#
# Stress axis : x y z
#
# Youngs Moduli (GPa) = 35.31524 34.41701 85.60727
#
# Poissons Ratio (x) = 0.05394 -0.01008
# Poissons Ratio (y) = 0.05535 0.87035
# Poissons Ratio (z) = -0.00416 0.34991
#
# Static dielectric constant tensor:
#      x y z
#    x 1.798080 0.000000 0.000000 
#    y 0.000000 1.861340 0.000000 
#    z 0.000000 0.000000 1.808600 
# 
# From -- ./inp_files/32151.got.cif
#   From: 2010.05.17/outbox.cif.g08.bks.cpg/sg47_17_cif.got.tgz:32151.got - 2010.06.03 20:15:42.
