data_PCOD9382229
_publ_section_title
;
Structure prediction by ZEFSAII (Michael W. Deem and Ramdas Pophale) SiO2 
 PCOD9382229
Probable space group: P M M M
;
_chemical_formula_sum "Si O2"
_cell_formula_units_Z 46
_cell_length_a 14.425583
_cell_length_b 7.391444
_cell_length_c 20.637771
_cell_angle_alpha 90.000000
_cell_angle_beta 90.000000
_cell_angle_gamma 90.000000
_cell_volume 2200.520678
_symmetry_space_group_name_H-M "P M M M"
_symmetry_group_IT_number 47
_symmetry_cell_setting 'orthorhombic'
loop_
_space_group_symop_operation_xyz
x,y,z
-x,-y,z
x,-y,-z
-x,y,-z
-x,-y,-z
x,y,-z
-x,y,z
x,-y,z
loop_
_atom_site_type_symbol
_atom_site_label
_atom_site_fract_x
_atom_site_fract_y
_atom_site_fract_z
Si Si1 0.104035 0.720796 0.805615
Si Si2 0.393083 0.277856 0.000000
Si Si3 0.895449 0.718830 0.655662
Si Si4 0.343693 0.500000 0.500000
Si Si5 0.283251 0.291477 0.125068
Si Si6 0.606515 0.218083 0.745642
Si Si7 0.302064 0.207864 0.610055
O O1 0.106975 0.500000 0.805005
O O2 0.119311 0.775498 0.730670
O O3 0.185053 0.787925 0.852179
O O4 0.000000 0.773927 0.824298
O O5 0.338776 0.215836 0.935873
O O6 0.395449 0.500000 0.000000
O O7 0.500000 0.219855 0.000000
O O8 0.893257 0.500000 0.653984
O O9 0.810042 0.784775 0.613049
O O10 0.000000 0.774139 0.636709
O O11 0.339277 0.342182 0.556384
O O12 0.264290 0.500000 0.107848
O O13 0.346458 0.287235 0.189117
O O14 0.500000 0.276214 0.740854
O O15 0.662239 0.268091 0.681034
O O16 0.608520 0.000000 0.749455
O O17 0.331506 0.000000 0.599739
#
# Coordination Sequence:
#
# PCOD9382229 Si02
#       7
#     8   4   8   2   8   8   8
#     4   8  14  25  47  79 111 144 187 240 293 340
#     4   9  18  30  44  76 120 155 191 245 300 343
#     4   9  16  31  57  86 117 151 190 244 299 346
#     4  12  26  44  66  86 128 158 194 238 296 368
#     4  10  18  31  55  81 112 152 197 236 286 353
#     4  10  22  39  59  85 114 142 187 251 299 336
#     4  11  23  41  63  88 118 156 198 243 296 354
#
# _framework density 20.904143000000001
#
# number of rings (size 3 to 8) (size 9 to 14) (size 15 to 20)
#    0.000    2.348    2.609    1.826    1.217    1.391 
#    0.000    2.609    0.000    7.826    0.000    0.000 
#    0.000    1.391    0.000    0.000    0.000    0.000 
#
# Total GULP energy -256370.145211 kJ/mol
# GULP energy per Si atom -5573.264026 kJ/mol
# Density = 2.085656 g / cm^3
# Si number density = 20.904143 Si / 1000 Ang^3
#
#
#
# Elastic Constant Matrix: (Units=GPa)
#
#
# Indices 1 2 3 4 5 6 
#
# 1 59.3968 -3.0062 0.8475 0.0000 0.0000 0.0000
# 2 -3.0062 89.5152 19.7144 0.0000 0.0000 0.0000
# 3 0.8475 19.7144 95.4104 0.0000 0.0000 0.0000
# 4 0.0000 0.0000 0.0000 22.7550 0.0000 0.0000
# 5 0.0000 0.0000 0.0000 0.0000 -39.7190 0.0000
# 6 0.0000 0.0000 0.0000 0.0000 0.0000 8.6841
#
#
#
# Elastic Compliance Matrix: (Units=1/GPa)
#
#
# Indices 1 2 3 4 5 6 
#
# 1 0.016872 0.000628 -0.000280 0.000000 0.000000 0.000000
# 2 0.000628 0.011727 -0.002429 0.000000 0.000000 0.000000
# 3 -0.000280 -0.002429 0.010985 0.000000 0.000000 0.000000
# 4 0.000000 0.000000 0.000000 0.043946 0.000000 0.000000
# 5 0.000000 0.000000 0.000000 0.000000 -0.025177 0.000000
# 6 0.000000 0.000000 0.000000 0.000000 0.000000 0.115153
#
#
# Mechanical properties :
#
#
# Convention : Reuss Voigt Hill
#
# Bulk Modulus (GPa) = 28.22951 31.04819 29.63885
# Shear Modulus (GPa) = 26.38873 13.46182 19.92528
#
# Velocity S-wave (km/s) = 3.55684 2.54043 3.09070
# Velocity P-wave (km/s) = 5.51377 4.84664 5.19094
#
# Compressibility (1/GPa) = 0.03542392
#
# Stress axis : x y z
#
# Youngs Moduli (GPa) = 59.27078 85.27128 91.03015
#
# Poissons Ratio (x) = -0.05357 0.02546
# Poissons Ratio (y) = -0.03723 0.22109
# Poissons Ratio (z) = 0.01658 0.20710
#
# Static dielectric constant tensor:
#      x y z
#    x 1.763470 0.000000 0.000000 
#    y 0.000000 1.883910 0.000000 
#    z 0.000000 0.000000 1.695970 
# 
# From -- ./inp_files/30784.got.cif
#   From: 2010.05.17/outbox.cif.g08.bks.cpg/sg47_16_cif.got.tgz:30784.got - 2010.06.03 20:15:42.
