data_PCOD9382261
_publ_section_title
;
Structure prediction by ZEFSAII (Michael W. Deem and Ramdas Pophale) SiO2 
 PCOD9382261
Probable space group: P M M M
;
_chemical_formula_sum "Si O2"
_cell_formula_units_Z 64
_cell_length_a 20.167232
_cell_length_b 7.556236
_cell_length_c 21.635748
_cell_angle_alpha 90.000000
_cell_angle_beta 90.000000
_cell_angle_gamma 90.000000
_cell_volume 3297.036252
_symmetry_space_group_name_H-M "P M M M"
_symmetry_group_IT_number 47
_symmetry_cell_setting 'orthorhombic'
loop_
_space_group_symop_operation_xyz
x,y,z
-x,-y,z
x,-y,-z
-x,y,-z
-x,-y,-z
x,y,-z
-x,y,z
x,-y,z
loop_
_atom_site_type_symbol
_atom_site_label
_atom_site_fract_x
_atom_site_fract_y
_atom_site_fract_z
Si Si1 0.212615 0.716845 0.931418
Si Si2 0.926820 0.708376 0.882946
Si Si3 0.573749 0.792538 0.390206
Si Si4 0.213254 0.290974 0.689430
Si Si5 0.290584 0.716678 0.810832
Si Si6 0.926052 0.788056 0.738798
Si Si7 0.282638 0.293590 0.432833
Si Si8 0.573237 0.714081 0.245133
O O1 0.211647 0.500000 0.929854
O O2 0.137537 0.778818 0.917571
O O3 0.259315 0.775305 0.875334
O O4 0.233534 0.770074 0.000000
O O5 0.930006 0.500000 0.897678
O O6 0.915020 0.724278 0.809225
O O7 0.000000 0.784610 0.896063
O O8 0.500000 0.721373 0.405596
O O9 0.638331 0.712846 0.421651
O O10 0.582450 0.771307 0.316251
O O11 0.573728 0.000000 0.405190
O O12 0.228716 0.500000 0.689350
O O13 0.246699 0.221854 0.752407
O O14 0.134611 0.269611 0.696179
O O15 0.245644 0.215700 0.627073
O O16 0.289096 0.500000 0.811554
O O17 0.365646 0.772470 0.796686
O O18 0.000000 0.727983 0.720110
O O19 0.926069 0.000000 0.740573
O O20 0.267502 0.214309 0.500000
O O21 0.263423 0.500000 0.435343
O O22 0.500000 0.772863 0.225171
O O23 0.573926 0.500000 0.245878
#
# Coordination Sequence:
#
# PCOD9382261 Si02
#       8
#     8   8   8   8   8   8   8   8
#     4   9  16  25  40  65  95 124 154 193 238 280
#     4   9  16  27  44  66  92 123 159 194 231 278
#     4  10  20  32  47  71 103 134 163 196 236 283
#     4  10  18  32  53  74  95 121 157 200 241 281
#     4   9  15  26  45  69  93 119 155 198 239 279
#     4  10  20  32  48  73 101 126 156 194 236 283
#     4  10  21  36  53  73  97 127 163 201 240 284
#     4   9  16  28  48  70  93 124 162 202 242 283
#
# _framework density 19.411373999999999
#
# number of rings (size 3 to 8) (size 9 to 14) (size 15 to 20)
#    0.000    2.500    2.500    0.750    0.000    2.750 
#    0.000    2.500    0.000    1.125    0.000    7.000 
#    0.000    0.000    0.000    3.125    0.000    3.250 
#
# Total GULP energy -357036.075939 kJ/mol
# GULP energy per Si atom -5578.688687 kJ/mol
# Density = 1.936719 g / cm^3
# Si number density = 19.411374 Si / 1000 Ang^3
#
#
#
# Elastic Constant Matrix: (Units=GPa)
#
#
# Indices 1 2 3 4 5 6 
#
# 1 114.9693 -6.0712 78.3904 0.0000 0.0000 0.0000
# 2 -6.0712 44.8945 2.7912 0.0000 0.0000 0.0000
# 3 78.3904 2.7912 135.5999 0.0000 0.0000 0.0000
# 4 0.0000 0.0000 0.0000 -69.4000 0.0000 0.0000
# 5 0.0000 0.0000 0.0000 0.0000 18.7049 0.0000
# 6 0.0000 0.0000 0.0000 0.0000 0.0000 -26.5527
#
#
#
# Elastic Compliance Matrix: (Units=1/GPa)
#
#
# Indices 1 2 3 4 5 6 
#
# 1 0.014634 0.002508 -0.008511 0.000000 0.000000 0.000000
# 2 0.002508 0.022733 -0.001918 0.000000 0.000000 0.000000
# 3 -0.008511 -0.001918 0.012335 0.000000 0.000000 0.000000
# 4 0.000000 0.000000 0.000000 -0.014409 0.000000 0.000000
# 5 0.000000 0.000000 0.000000 0.000000 0.053462 0.000000
# 6 0.000000 0.000000 0.000000 0.000000 0.000000 -0.037661
#
#
# Mechanical properties :
#
#
# Convention : Reuss Voigt Hill
#
# Bulk Modulus (GPa) = 29.53430 49.52048 39.52739
# Shear Modulus (GPa) = 63.92075 -0.75934 31.58070
#
# Velocity S-wave (km/s) = 5.74465 -0.62612 4.03788
# Velocity P-wave (km/s) = 7.69736 5.00437 6.49204
#
# Compressibility (1/GPa) = 0.03385893
#
# Stress axis : x y z
#
# Youngs Moduli (GPa) = 68.33465 43.98914 81.07277
#
# Poissons Ratio (x) = -0.11033 0.69005
# Poissons Ratio (y) = -0.17139 0.15549
# Poissons Ratio (z) = 0.58163 0.08437
#
# Static dielectric constant tensor:
#      x y z
#    x 1.477600 0.000000 0.000000 
#    y 0.000000 1.713970 0.000000 
#    z 0.000000 0.000000 1.666150 
# 
# From -- ./inp_files/29986.got.cif
#   From: 2010.05.17/outbox.cif.g08.bks.cpg/sg47_15_cif.got.tgz:29986.got - 2010.06.03 20:15:42.
