data_PCOD9382410
_publ_section_title
;
Structure prediction by ZEFSAII (Michael W. Deem and Ramdas Pophale) SiO2 
 PCOD9382410
Probable space group: P M M M
;
_chemical_formula_sum "Si O2"
_cell_formula_units_Z 52
_cell_length_a 27.519983
_cell_length_b 9.032603
_cell_length_c 14.014880
_cell_angle_alpha 90.000000
_cell_angle_beta 90.000000
_cell_angle_gamma 90.000000
_cell_volume 3483.777961
_symmetry_space_group_name_H-M "P M M M"
_symmetry_group_IT_number 47
_symmetry_cell_setting 'orthorhombic'
loop_
_space_group_symop_operation_xyz
x,y,z
-x,-y,z
x,-y,-z
-x,y,-z
-x,-y,-z
x,y,-z
-x,y,z
x,-y,z
loop_
_atom_site_type_symbol
_atom_site_label
_atom_site_fract_x
_atom_site_fract_y
_atom_site_fract_z
Si Si1 0.602165 0.822373 0.890885
Si Si2 0.105674 0.172126 0.883839
Si Si3 0.794486 0.676102 0.113001
Si Si4 0.652931 0.678576 0.390542
Si Si5 0.000000 0.819386 0.889549
Si Si6 0.703000 0.823293 0.787011
Si Si7 0.445919 0.321896 0.288159
O O1 0.657288 0.789503 0.856872
O O2 0.567244 0.745576 0.814632
O O3 0.595899 0.000000 0.885567
O O4 0.594510 0.775579 0.000000
O O5 0.152428 0.266264 0.855994
O O6 0.052481 0.224410 0.848302
O O7 0.112604 0.000000 0.857122
O O8 0.103157 0.175711 0.000000
O O9 0.791447 0.500000 0.123654
O O10 0.751669 0.754221 0.170548
O O11 0.789163 0.711697 0.000000
O O12 0.661866 0.719834 0.500000
O O13 0.657054 0.500000 0.382330
O O14 0.688382 0.754709 0.314769
O O15 0.597928 0.720022 0.358911
O O16 0.000000 0.000000 0.890546
O O17 0.000000 0.769970 0.000000
O O18 0.707281 0.000000 0.780361
O O19 0.500000 0.276078 0.318513
O O20 0.445252 0.500000 0.281194
#
# Coordination Sequence:
#
# PCOD9382410 Si02
#       7
#     8   8   8   8   4   8   8
#     4   9  18  31  45  61  82 110 142 172 204 243
#     4   8  13  22  36  53  75 107 147 185 217 249
#     4  10  19  28  39  59  87 116 146 180 217 255
#     4   9  18  33  51  68  86 108 133 164 207 256
#     4   7  10  18  33  51  71 101 144 187 218 245
#     4  10  19  31  47  64  83 108 140 177 213 252
#     4   9  18  31  46  66  89 110 135 166 199 240
#
# _framework density 14.926323
#
# number of rings (size 3 to 8) (size 9 to 14) (size 15 to 20)
#    0.000    3.000    0.000    2.308    0.000    3.692 
#    0.000    3.462    0.000    2.308    0.000    4.308 
#    0.000    0.000    0.000    0.692    0.000   13.462 
#
# Total GULP energy -289575.491173 kJ/mol
# GULP energy per Si atom -5568.759446 kJ/mol
# Density = 1.489235 g / cm^3
# Si number density = 14.926323 Si / 1000 Ang^3
#
#
#
# Elastic Constant Matrix: (Units=GPa)
#
#
# Indices 1 2 3 4 5 6 
#
# 1 120.9816 39.7137 31.2520 0.0000 0.0000 0.0000
# 2 39.7137 26.3304 25.7534 0.0000 0.0000 0.0000
# 3 31.2520 25.7534 60.5451 0.0000 0.0000 0.0000
# 4 0.0000 0.0000 0.0000 16.6023 0.0000 0.0000
# 5 0.0000 0.0000 0.0000 0.0000 9.9443 0.0000
# 6 0.0000 0.0000 0.0000 0.0000 0.0000 20.1751
#
#
#
# Elastic Compliance Matrix: (Units=1/GPa)
#
#
# Indices 1 2 3 4 5 6 
#
# 1 0.016820 -0.028902 0.003612 0.000000 0.000000 0.000000
# 2 -0.028902 0.114699 -0.033870 0.000000 0.000000 0.000000
# 3 0.003612 -0.033870 0.029059 0.000000 0.000000 0.000000
# 4 0.000000 0.000000 0.000000 0.060233 0.000000 0.000000
# 5 0.000000 0.000000 0.000000 0.000000 0.100561 0.000000
# 6 0.000000 0.000000 0.000000 0.000000 0.000000 0.049566
#
#
# Mechanical properties :
#
#
# Convention : Reuss Voigt Hill
#
# Bulk Modulus (GPa) = 23.66414 44.58836 34.12625
# Shear Modulus (GPa) = 9.93354 16.75353 13.34353
#
# Velocity S-wave (km/s) = 2.58254 3.35388 2.99316
# Velocity P-wave (km/s) = 4.97806 6.70337 5.90408
#
# Compressibility (1/GPa) = 0.04225804
#
# Stress axis : x y z
#
# Youngs Moduli (GPa) = 59.45197 8.71843 34.41245
#
# Poissons Ratio (x) = 0.25198 -0.12428
# Poissons Ratio (y) = 1.71830 1.16554
# Poissons Ratio (z) = -0.21472 0.29529
#
# Static dielectric constant tensor:
#      x y z
#    x 1.514190 0.000000 0.000000 
#    y 0.000000 1.495900 0.000000 
#    z 0.000000 0.000000 1.464930 
# 
# From -- ./inp_files/7610.got.cif
#   From: 2010.05.17/outbox.cif.g08.bks.cpg/sg47_4_cif.got.tgz:7610.got - 2010.06.03 20:15:42.
