data_PCOD9382340
_publ_section_title
;
Structure prediction by ZEFSAII (Michael W. Deem and Ramdas Pophale) SiO2 
 PCOD9382340
Probable space group: P M M M
;
_chemical_formula_sum "Si O2"
_cell_formula_units_Z 56
_cell_length_a 19.665503
_cell_length_b 7.766082
_cell_length_c 18.168239
_cell_angle_alpha 90.000000
_cell_angle_beta 90.000000
_cell_angle_gamma 90.000000
_cell_volume 2774.724477
_symmetry_space_group_name_H-M "P M M M"
_symmetry_group_IT_number 47
_symmetry_cell_setting 'orthorhombic'
loop_
_space_group_symop_operation_xyz
x,y,z
-x,-y,z
x,-y,-z
-x,y,-z
-x,-y,-z
x,y,-z
-x,y,z
x,-y,z
loop_
_atom_site_type_symbol
_atom_site_label
_atom_site_fract_x
_atom_site_fract_y
_atom_site_fract_z
Si Si1 0.827554 0.789251 0.918261
Si Si2 0.313052 0.703386 0.299784
Si Si3 0.678802 0.205072 0.128430
Si Si4 0.577970 0.710439 0.583309
Si Si5 0.920981 0.295405 0.500000
Si Si6 0.421687 0.788792 0.000000
Si Si7 0.162299 0.794864 0.353003
Si Si8 0.922790 0.211034 0.213633
O O1 0.751685 0.728581 0.899489
O O2 0.879674 0.732580 0.856367
O O3 0.826430 0.000000 0.916525
O O4 0.847109 0.736573 0.000000
O O5 0.322729 0.500000 0.295292
O O6 0.323080 0.767129 0.216221
O O7 0.369723 0.774429 0.355729
O O8 0.238723 0.733437 0.335420
O O9 0.619211 0.267793 0.073730
O O10 0.679660 0.000000 0.117635
O O11 0.596202 0.763579 0.500000
O O12 0.500000 0.761419 0.597801
O O13 0.579407 0.500000 0.583708
O O14 0.927012 0.500000 0.500000
O O15 0.875858 0.246642 0.428935
O O16 0.000000 0.226476 0.500000
O O17 0.500000 0.731986 0.000000
O O18 0.422619 0.000000 0.000000
O O19 0.114678 0.729845 0.287101
O O20 0.166105 0.000000 0.347990
O O21 0.000000 0.268505 0.210982
O O22 0.922864 0.000000 0.214268
#
# Coordination Sequence:
#
# PCOD9382340 Si02
#       8
#     8   8   8   8   4   4   8   8
#     4   9  15  26  47  73 101 135 174 220 272 321
#     4  11  22  34  55  86 115 143 185 237 287 339
#     4  10  18  33  54  75 106 146 186 226 277 341
#     4   8  16  33  55  77 103 138 177 216 266 332
#     4  11  25  43  61  85 120 157 194 241 297 350
#     4   9  18  32  55  85 112 146 193 240 289 352
#     4  11  22  38  59  83 114 153 195 235 281 340
#     4   9  17  29  48  76 107 137 175 223 270 321
#
# _framework density 20.182182999999998
#
# number of rings (size 3 to 8) (size 9 to 14) (size 15 to 20)
#    0.000    2.286    2.143    1.929    1.000    2.000 
#    0.000    1.786    0.000    1.714    0.000    4.000 
#    0.000    1.143    0.000    0.000    0.000    0.000 
#
# Total GULP energy -312452.322136 kJ/mol
# GULP energy per Si atom -5579.505752 kJ/mol
# Density = 2.013625 g / cm^3
# Si number density = 20.182183 Si / 1000 Ang^3
#
#
#
# Elastic Constant Matrix: (Units=GPa)
#
#
# Indices 1 2 3 4 5 6 
#
# 1 157.9163 -9.8415 107.1994 0.0000 0.0000 0.0000
# 2 -9.8415 21.3827 -13.6637 0.0000 0.0000 0.0000
# 3 107.1994 -13.6637 197.8709 0.0000 0.0000 0.0000
# 4 0.0000 0.0000 0.0000 129.5810 0.0000 0.0000
# 5 0.0000 0.0000 0.0000 0.0000 27.4059 0.0000
# 6 0.0000 0.0000 0.0000 0.0000 0.0000 9.7193
#
#
#
# Elastic Compliance Matrix: (Units=1/GPa)
#
#
# Indices 1 2 3 4 5 6 
#
# 1 0.010045 0.001199 -0.005359 0.000000 0.000000 0.000000
# 2 0.001199 0.049069 0.002739 0.000000 0.000000 0.000000
# 3 -0.005359 0.002739 0.008146 0.000000 0.000000 0.000000
# 4 0.000000 0.000000 0.000000 0.007717 0.000000 0.000000
# 5 0.000000 0.000000 0.000000 0.000000 0.036488 0.000000
# 6 0.000000 0.000000 0.000000 0.000000 0.000000 0.102888
#
#
# Mechanical properties :
#
#
# Convention : Reuss Voigt Hill
#
# Bulk Modulus (GPa) = 15.52388 60.50649 38.01518
# Shear Modulus (GPa) = 20.94945 52.90629 36.92787
#
# Velocity S-wave (km/s) = 3.22532 5.12555 4.28217
# Velocity P-wave (km/s) = 4.64530 8.06682 6.58226
#
# Compressibility (1/GPa) = 0.06441690
#
# Stress axis : x y z
#
# Youngs Moduli (GPa) = 99.54840 20.37962 122.75217
#
# Poissons Ratio (x) = -0.02443 0.65788
# Poissons Ratio (y) = -0.11933 -0.33621
# Poissons Ratio (z) = 0.53352 -0.05582
#
# Static dielectric constant tensor:
#      x y z
#    x 1.700110 0.000000 0.000000 
#    y 0.000000 1.753990 0.000000 
#    z 0.000000 0.000000 1.691320 
# 
# From -- ./inp_files/25243.got.cif
#   From: 2010.05.17/outbox.cif.g08.bks.cpg/sg47_13_cif.got.tgz:25243.got - 2010.06.03 20:15:42.
