data_PCOD9382303
_publ_section_title
;
Structure prediction by ZEFSAII (Michael W. Deem and Ramdas Pophale) SiO2 
 PCOD9382303
Probable space group: P M M M
;
_chemical_formula_sum "Si O2"
_cell_formula_units_Z 52
_cell_length_a 16.092450
_cell_length_b 7.618410
_cell_length_c 20.024237
_cell_angle_alpha 90.000000
_cell_angle_beta 90.000000
_cell_angle_gamma 90.000000
_cell_volume 2454.949069
_symmetry_space_group_name_H-M "P M M M"
_symmetry_group_IT_number 47
_symmetry_cell_setting 'orthorhombic'
loop_
_space_group_symop_operation_xyz
x,y,z
-x,-y,z
x,-y,-z
-x,y,-z
-x,-y,-z
x,y,-z
-x,y,z
x,-y,z
loop_
_atom_site_type_symbol
_atom_site_label
_atom_site_fract_x
_atom_site_fract_y
_atom_site_fract_z
Si Si1 0.402175 0.288735 0.072914
Si Si2 0.121576 0.702387 0.809592
Si Si3 0.250563 0.288690 0.575902
Si Si4 0.091210 0.714926 0.339031
Si Si5 0.692350 0.200525 0.203732
Si Si6 0.000000 0.714805 0.076860
Si Si7 0.594427 0.789471 0.667531
O O1 0.500000 0.250210 0.075070
O O2 0.392957 0.500000 0.077330
O O3 0.358699 0.205839 0.135810
O O4 0.369989 0.233433 0.000000
O O5 0.095181 0.500000 0.807039
O O6 0.095999 0.778359 0.737716
O O7 0.220600 0.708192 0.809721
O O8 0.078219 0.771840 0.876749
O O9 0.246360 0.223592 0.500000
O O10 0.244278 0.500000 0.574275
O O11 0.172097 0.225221 0.619982
O O12 0.338828 0.247023 0.609830
O O13 0.095031 0.500000 0.338052
O O14 0.000000 0.762212 0.366671
O O15 0.637264 0.276959 0.263979
O O16 0.712496 0.000000 0.221877
O O17 0.000000 0.500000 0.072095
O O18 0.000000 0.777242 0.000000
O O19 0.500000 0.722964 0.657815
O O20 0.587864 0.000000 0.673789
#
# Coordination Sequence:
#
# PCOD9382303 Si02
#       7
#     8   8   8   8   8   4   8
#     4   9  19  36  56  78 105 138 177 221 270 323
#     4  10  18  32  55  78 104 143 184 223 271 326
#     4  10  21  36  56  85 116 143 179 230 282 332
#     4   9  16  30  55  83 110 142 180 222 272 333
#     4  11  22  35  54  81 111 142 182 230 277 328
#     4   9  18  32  53  83 112 140 183 234 275 322
#     4  10  22  39  57  78 108 150 194 231 275 336
#
# _framework density 21.181704
#
# number of rings (size 3 to 8) (size 9 to 14) (size 15 to 20)
#    0.000    2.231    2.308    1.385    0.000    3.692 
#    0.000    5.769    0.000    1.846    0.000    1.077 
#    0.000    0.000    0.000    0.000    0.000    0.000 
#
# Total GULP energy -290152.308211 kJ/mol
# GULP energy per Si atom -5579.852081 kJ/mol
# Density = 2.113349 g / cm^3
# Si number density = 21.181704 Si / 1000 Ang^3
#
#
#
# Elastic Constant Matrix: (Units=GPa)
#
#
# Indices 1 2 3 4 5 6 
#
# 1 174.2372 11.5266 102.0140 0.0000 0.0000 0.0000
# 2 11.5266 39.8790 6.3174 0.0000 0.0000 0.0000
# 3 102.0140 6.3174 183.7126 0.0000 0.0000 0.0000
# 4 0.0000 0.0000 0.0000 2.6981 0.0000 0.0000
# 5 0.0000 0.0000 0.0000 0.0000 40.7757 0.0000
# 6 0.0000 0.0000 0.0000 0.0000 0.0000 50.6540
#
#
#
# Elastic Compliance Matrix: (Units=1/GPa)
#
#
# Indices 1 2 3 4 5 6 
#
# 1 0.008623 -0.001743 -0.004728 0.000000 0.000000 0.000000
# 2 -0.001743 0.025566 0.000089 0.000000 0.000000 0.000000
# 3 -0.004728 0.000089 0.008066 0.000000 0.000000 0.000000
# 4 0.000000 0.000000 0.000000 0.370628 0.000000 0.000000
# 5 0.000000 0.000000 0.000000 0.000000 0.024524 0.000000
# 6 0.000000 0.000000 0.000000 0.000000 0.000000 0.019742
#
#
# Mechanical properties :
#
#
# Convention : Reuss Voigt Hill
#
# Bulk Modulus (GPa) = 33.91094 70.83832 52.37463
# Shear Modulus (GPa) = 10.42222 37.35695 23.88958
#
# Velocity S-wave (km/s) = 2.22060 4.20413 3.36198
# Velocity P-wave (km/s) = 4.75595 7.55527 6.31273
#
# Compressibility (1/GPa) = 0.02948901
#
# Stress axis : x y z
#
# Youngs Moduli (GPa) = 115.96858 39.11493 123.97975
#
# Poissons Ratio (x) = 0.06819 0.58622
# Poissons Ratio (y) = 0.20218 -0.01103
# Poissons Ratio (z) = 0.54834 -0.00348
#
# Static dielectric constant tensor:
#      x y z
#    x 1.757590 0.000000 0.000000 
#    y 0.000000 1.815860 0.000000 
#    z 0.000000 0.000000 1.752850 
# 
# From -- ./inp_files/30877.got.cif
#   From: 2010.05.17/outbox.cif.g08.bks.cpg/sg47_16_cif.got.tgz:30877.got - 2010.06.03 20:15:42.
