data_PCOD9382895
_publ_section_title
;
Structure prediction by ZEFSAII (Michael W. Deem and Ramdas Pophale) SiO2 
 PCOD9382895
Probable space group: P M M M
;
_chemical_formula_sum "Si O2"
_cell_formula_units_Z 56
_cell_length_a 9.073618
_cell_length_b 14.673391
_cell_length_c 24.016353
_cell_angle_alpha 90.000000
_cell_angle_beta 90.000000
_cell_angle_gamma 90.000000
_cell_volume 3197.555123
_symmetry_space_group_name_H-M "P M M M"
_symmetry_group_IT_number 47
_symmetry_cell_setting 'orthorhombic'
loop_
_space_group_symop_operation_xyz
x,y,z
-x,-y,z
x,-y,-z
-x,y,-z
-x,-y,-z
x,y,-z
-x,y,z
x,-y,z
loop_
_atom_site_type_symbol
_atom_site_label
_atom_site_fract_x
_atom_site_fract_y
_atom_site_fract_z
Si Si1 0.677046 0.394958 0.777077
Si Si2 0.324369 0.275726 0.437070
Si Si3 0.827168 0.609125 0.340334
Si Si4 0.824829 0.106636 0.612599
Si Si5 0.328229 0.891612 0.271245
Si Si6 0.676683 0.219408 0.839847
Si Si7 0.177425 0.895446 0.935603
O O1 0.500000 0.389620 0.769498
O O2 0.715470 0.500000 0.789543
O O3 0.752541 0.368441 0.718838
O O4 0.717416 0.323249 0.824894
O O5 0.291167 0.306552 0.500000
O O6 0.500000 0.274733 0.429679
O O7 0.250918 0.339125 0.390624
O O8 0.259779 0.174874 0.427671
O O9 0.812405 0.500000 0.347616
O O10 0.000000 0.632080 0.338967
O O11 0.770660 0.129288 0.675225
O O12 0.000000 0.118790 0.607982
O O13 0.790346 0.000000 0.602739
O O14 0.500000 0.869798 0.284141
O O15 0.285974 0.838283 0.215684
O O16 0.318678 0.000000 0.260939
O O17 0.500000 0.214174 0.846988
O O18 0.753185 0.174853 0.892726
O O19 0.000000 0.891583 0.932319
O O20 0.221700 0.000000 0.921897
O O21 0.218823 0.878165 0.000000
#
# Coordination Sequence:
#
# PCOD9382895 Si02
#       7
#     8   8   8   8   8   8   8
#     4   9  18  33  53  78 109 141 170 204 250 304
#     4  11  24  39  55  75  99 132 174 214 253 305
#     4  10  21  37  58  83 108 133 164 207 260 313
#     4  10  21  36  54  76 102 133 169 211 260 310
#     4   9  17  29  46  71 103 133 162 202 252 306
#     4  10  19  30  49  77 104 133 172 213 250 291
#     4   9  19  35  52  72 102 139 175 211 255 306
#
# _framework density 17.513380999999999
#
# number of rings (size 3 to 8) (size 9 to 14) (size 15 to 20)
#    0.000    2.286    0.000    3.000    0.000    6.857 
#    0.000    5.000    0.000    0.429    0.000    3.000 
#    0.000    0.000    0.000    0.000    0.000    0.000 
#
# Total GULP energy -312645.760728 kJ/mol
# GULP energy per Si atom -5582.960013 kJ/mol
# Density = 1.747352 g / cm^3
# Si number density = 17.513381 Si / 1000 Ang^3
#
#
#
# Elastic Constant Matrix: (Units=GPa)
#
#
# Indices 1 2 3 4 5 6 
#
# 1 43.6556 42.7506 47.5175 0.0000 0.0000 0.0000
# 2 42.7506 86.6542 77.4419 0.0000 0.0000 0.0000
# 3 47.5175 77.4419 110.8493 0.0000 0.0000 0.0000
# 4 0.0000 0.0000 0.0000 24.1917 0.0000 0.0000
# 5 0.0000 0.0000 0.0000 0.0000 49.3598 0.0000
# 6 0.0000 0.0000 0.0000 0.0000 0.0000 25.3421
#
#
#
# Elastic Compliance Matrix: (Units=1/GPa)
#
#
# Indices 1 2 3 4 5 6 
#
# 1 0.048822 -0.014329 -0.010918 0.000000 0.000000 0.000000
# 2 -0.014329 0.034926 -0.018258 0.000000 0.000000 0.000000
# 3 -0.010918 -0.018258 0.026457 0.000000 0.000000 0.000000
# 4 0.000000 0.000000 0.000000 0.041337 0.000000 0.000000
# 5 0.000000 0.000000 0.000000 0.000000 0.020259 0.000000
# 6 0.000000 0.000000 0.000000 0.000000 0.000000 0.039460
#
#
# Mechanical properties :
#
#
# Convention : Reuss Voigt Hill
#
# Bulk Modulus (GPa) = 43.11167 64.06436 53.58802
# Shear Modulus (GPa) = 16.33974 24.67533 20.50754
#
# Velocity S-wave (km/s) = 3.05780 3.75766 3.42565
# Velocity P-wave (km/s) = 6.09399 7.44891 6.80526
#
# Compressibility (1/GPa) = 0.02319557
#
# Stress axis : x y z
#
# Youngs Moduli (GPa) = 20.48242 28.63190 37.79763
#
# Poissons Ratio (x) = 0.41027 0.41267
# Poissons Ratio (y) = 0.29350 0.69010
# Poissons Ratio (z) = 0.22363 0.52275
#
# Static dielectric constant tensor:
#      x y z
#    x 1.585590 0.000000 0.000000 
#    y 0.000000 1.617810 0.000000 
#    z 0.000000 0.000000 1.563470 
# 
# From -- ./inp_files/7268.got.cif
#   From: 2010.05.17/outbox.cif.g08.bks.cpg/sg47_4_cif.got.tgz:7268.got - 2010.06.03 20:15:42.
