data_PCOD9382776
_publ_section_title
;
Structure prediction by ZEFSAII (Michael W. Deem and Ramdas Pophale) SiO2 
 PCOD9382776
Probable space group: P M M M
;
_chemical_formula_sum "Si O2"
_cell_formula_units_Z 48
_cell_length_a 22.069510
_cell_length_b 7.795661
_cell_length_c 14.454945
_cell_angle_alpha 90.000000
_cell_angle_beta 90.000000
_cell_angle_gamma 90.000000
_cell_volume 2486.921515
_symmetry_space_group_name_H-M "P M M M"
_symmetry_group_IT_number 47
_symmetry_cell_setting 'orthorhombic'
loop_
_space_group_symop_operation_xyz
x,y,z
-x,-y,z
x,-y,-z
-x,y,-z
-x,-y,-z
x,y,-z
-x,y,z
x,-y,z
loop_
_atom_site_type_symbol
_atom_site_label
_atom_site_fract_x
_atom_site_fract_y
_atom_site_fract_z
Si Si1 0.000000 0.204037 0.894250
Si Si2 0.130708 0.705689 0.894628
Si Si3 0.303501 0.288967 0.605482
Si Si4 0.632113 0.796077 0.106606
Si Si5 0.753665 0.296317 0.785575
Si Si6 0.564380 0.700997 0.612791
Si Si7 0.500000 0.295946 0.893568
O O1 0.064390 0.258318 0.852871
O O2 0.000000 0.000000 0.898861
O O3 0.000000 0.275878 0.000000
O O4 0.136736 0.500000 0.900245
O O5 0.188283 0.775129 0.838994
O O6 0.131746 0.773956 0.000000
O O7 0.292345 0.236335 0.500000
O O8 0.305868 0.500000 0.605226
O O9 0.256232 0.230156 0.681832
O O10 0.370277 0.226940 0.637622
O O11 0.690516 0.727231 0.159941
O O12 0.565289 0.755137 0.147240
O O13 0.637700 0.000000 0.104015
O O14 0.632905 0.729987 0.000000
O O15 0.763330 0.500000 0.777698
O O16 0.564670 0.703005 0.500000
O O17 0.500000 0.778061 0.642830
O O18 0.563726 0.500000 0.640283
O O19 0.500000 0.500000 0.897125
O O20 0.500000 0.225530 0.000000
#
# Coordination Sequence:
#
# PCOD9382776 Si02
#       7
#     4   8   8   8   8   8   4
#     4   9  17  29  47  71  96 121 150 184 223 273
#     4   9  17  29  45  66  96 130 157 184 224 274
#     4   8  14  25  40  60  89 122 156 198 243 282
#     4  10  20  33  48  66  92 126 160 196 241 289
#     4  10  19  30  46  71  98 126 161 198 234 278
#     4   7   9  15  29  48  72 104 138 175 225 277
#     4   9  17  31  51  69  86 115 158 205 245 284
#
# _framework density 19.300971000000001
#
# number of rings (size 3 to 8) (size 9 to 14) (size 15 to 20)
#    0.000    3.167    0.000    3.000    0.000    4.333 
#    1.500    1.667    0.000    0.500    0.000    0.583 
#    0.000    6.000    0.000    0.000    0.000    0.000 
#
# Total GULP energy -267502.306351 kJ/mol
# GULP energy per Si atom -5572.964716 kJ/mol
# Density = 1.925704 g / cm^3
# Si number density = 19.300971 Si / 1000 Ang^3
#
#
#
# Elastic Constant Matrix: (Units=GPa)
#
#
# Indices 1 2 3 4 5 6 
#
# 1 171.3065 -1.3372 71.8773 0.0000 0.0000 0.0000
# 2 -1.3372 24.6227 1.1707 0.0000 0.0000 0.0000
# 3 71.8773 1.1707 76.7697 0.0000 0.0000 0.0000
# 4 0.0000 0.0000 0.0000 -1.2081 0.0000 0.0000
# 5 0.0000 0.0000 0.0000 0.0000 18.4554 0.0000
# 6 0.0000 0.0000 0.0000 0.0000 0.0000 -54.7591
#
#
#
# Elastic Compliance Matrix: (Units=1/GPa)
#
#
# Indices 1 2 3 4 5 6 
#
# 1 0.009637 0.000953 -0.009037 0.000000 0.000000 0.000000
# 2 0.000953 0.040737 -0.001514 0.000000 0.000000 0.000000
# 3 -0.009037 -0.001514 0.021510 0.000000 0.000000 0.000000
# 4 0.000000 0.000000 0.000000 -0.827756 0.000000 0.000000
# 5 0.000000 0.000000 0.000000 0.000000 0.054185 0.000000
# 6 0.000000 0.000000 0.000000 0.000000 0.000000 -0.018262
#
#
# Mechanical properties :
#
#
# Convention : Reuss Voigt Hill
#
# Bulk Modulus (GPa) = 18.97949 46.23560 32.60755
# Shear Modulus (GPa) = -7.31860 5.89685 -0.71088
#
# Velocity S-wave (km/s) = -1.94937 1.74981 -0.60754
# Velocity P-wave (km/s) = 2.18816 5.29995 4.05448
#
# Compressibility (1/GPa) = 0.05268845
#
# Stress axis : x y z
#
# Youngs Moduli (GPa) = 103.76911 24.54791 46.48933
#
# Poissons Ratio (x) = -0.02340 0.42013
# Poissons Ratio (y) = -0.09890 0.07036
# Poissons Ratio (z) = 0.93778 0.03715
#
# Static dielectric constant tensor:
#      x y z
#    x 1.705120 0.000000 0.000000 
#    y 0.000000 1.678720 0.000000 
#    z 0.000000 0.000000 1.720470 
# 
# From -- ./inp_files/24498.got.cif
#   From: 2010.05.17/outbox.cif.g08.bks.cpg/sg47_13_cif.got.tgz:24498.got - 2010.06.03 20:15:42.
