data_PCOD9382478
_publ_section_title
;
Structure prediction by ZEFSAII (Michael W. Deem and Ramdas Pophale) SiO2 
 PCOD9382478
Probable space group: P M M M
;
_chemical_formula_sum "Si O2"
_cell_formula_units_Z 48
_cell_length_a 20.064702
_cell_length_b 21.173312
_cell_length_c 9.026435
_cell_angle_alpha 90.000000
_cell_angle_beta 90.000000
_cell_angle_gamma 90.000000
_cell_volume 3834.756306
_symmetry_space_group_name_H-M "P M M M"
_symmetry_group_IT_number 47
_symmetry_cell_setting 'orthorhombic'
loop_
_space_group_symop_operation_xyz
x,y,z
-x,-y,z
x,-y,-z
-x,y,-z
-x,-y,-z
x,y,-z
-x,y,z
x,-y,z
loop_
_atom_site_type_symbol
_atom_site_label
_atom_site_fract_x
_atom_site_fract_y
_atom_site_fract_z
Si Si1 0.573896 0.923430 0.327216
Si Si2 0.080931 0.628745 0.329779
Si Si3 0.921037 0.239650 0.177021
Si Si4 0.075949 0.000000 0.320159
Si Si5 0.710480 0.924707 0.823830
Si Si6 0.081287 0.500000 0.171394
Si Si7 0.157844 0.124664 0.321659
O O1 0.583030 0.906175 0.500000
O O2 0.500000 0.901815 0.278897
O O3 0.637358 0.904066 0.231476
O O4 0.572627 0.000000 0.321768
O O5 0.103158 0.632731 0.500000
O O6 0.098511 0.691550 0.239337
O O7 0.103365 0.563833 0.253254
O O8 0.000000 0.626599 0.330933
O O9 0.877658 0.185744 0.254115
O O10 0.000000 0.229954 0.210828
O O11 0.913401 0.237788 0.000000
O O12 0.114901 0.062980 0.275755
O O13 0.074361 0.000000 0.500000
O O14 0.000000 0.000000 0.266416
O O15 0.768415 0.887221 0.740479
O O16 0.717822 0.000000 0.789412
O O17 0.716463 0.917410 0.000000
O O18 0.000000 0.500000 0.174083
O O19 0.101405 0.500000 0.000000
O O20 0.158662 0.128199 0.500000
#
# Coordination Sequence:
#
# PCOD9382478 Si02
#       7
#     8   8   8   4   8   4   8
#     4   8  14  25  41  59  77  96 118 143 174 217
#     4   9  16  26  40  57  75  96 122 150 181 223
#     4  10  20  32  43  56  75  97 122 157 201 242
#     4   9  18  30  43  57  68  83 116 161 203 240
#     4  10  19  29  41  57  78  98 119 150 189 232
#     4   9  15  23  37  57  79  99 117 143 182 223
#     4  11  20  31  45  57  72  95 125 161 197 237
#
# _framework density 12.517094
#
# number of rings (size 3 to 8) (size 9 to 14) (size 15 to 20)
#    0.000    2.500    0.833    3.250    0.000    5.667 
#    0.000    1.667    0.000    2.000    0.000    0.000 
#    0.000    0.000    0.000    0.000    0.000    0.000 
#
# Total GULP energy -267466.953727 kJ/mol
# GULP energy per Si atom -5572.228203 kJ/mol
# Density = 1.248860 g / cm^3
# Si number density = 12.517094 Si / 1000 Ang^3
#
#
#
# Elastic Constant Matrix: (Units=GPa)
#
#
# Indices 1 2 3 4 5 6 
#
# 1 77.5606 41.2019 41.7281 0.0000 0.0000 0.0000
# 2 41.2019 91.0585 45.7764 0.0000 0.0000 0.0000
# 3 41.7281 45.7764 71.4250 0.0000 0.0000 0.0000
# 4 0.0000 0.0000 0.0000 20.1396 0.0000 0.0000
# 5 0.0000 0.0000 0.0000 0.0000 16.2392 0.0000
# 6 0.0000 0.0000 0.0000 0.0000 0.0000 1.2673
#
#
#
# Elastic Compliance Matrix: (Units=1/GPa)
#
#
# Indices 1 2 3 4 5 6 
#
# 1 0.020082 -0.004704 -0.008717 0.000000 0.000000 0.000000
# 2 -0.004704 0.017304 -0.008342 0.000000 0.000000 0.000000
# 3 -0.008717 -0.008342 0.024440 0.000000 0.000000 0.000000
# 4 0.000000 0.000000 0.000000 0.049653 0.000000 0.000000
# 5 0.000000 0.000000 0.000000 0.000000 0.061579 0.000000
# 6 0.000000 0.000000 0.000000 0.000000 0.000000 0.789055
#
#
# Mechanical properties :
#
#
# Convention : Reuss Voigt Hill
#
# Bulk Modulus (GPa) = 54.64791 55.27299 54.96045
# Shear Modulus (GPa) = 4.94197 14.95175 9.94686
#
# Velocity S-wave (km/s) = 1.98916 3.45991 2.82203
# Velocity P-wave (km/s) = 7.00208 7.75985 7.39068
#
# Compressibility (1/GPa) = 0.01829896
#
# Stress axis : x y z
#
# Youngs Moduli (GPa) = 49.79517 57.78961 40.91665
#
# Poissons Ratio (x) = 0.27186 0.35669
# Poissons Ratio (y) = 0.23426 0.34132
# Poissons Ratio (z) = 0.43409 0.48207
#
# Static dielectric constant tensor:
#      x y z
#    x 1.397080 0.000000 0.000000 
#    y 0.000000 1.389010 0.000000 
#    z 0.000000 0.000000 1.415170 
# 
# From -- ./inp_files/9722.got.cif
#   From: 2010.05.17/outbox.cif.g08.bks.cpg/sg47_5_cif.got.tgz:9722.got - 2010.06.03 20:15:42.
