data_PCOD9382206
_publ_section_title
;
Structure prediction by ZEFSAII (Michael W. Deem and Ramdas Pophale) SiO2 
 PCOD9382206
Probable space group: P M M M
;
_chemical_formula_sum "Si O2"
_cell_formula_units_Z 56
_cell_length_a 8.963347
_cell_length_b 21.332549
_cell_length_c 15.137920
_cell_angle_alpha 90.000000
_cell_angle_beta 90.000000
_cell_angle_gamma 90.000000
_cell_volume 2894.537413
_symmetry_space_group_name_H-M "P M M M"
_symmetry_group_IT_number 47
_symmetry_cell_setting 'orthorhombic'
loop_
_space_group_symop_operation_xyz
x,y,z
-x,-y,z
x,-y,-z
-x,y,-z
-x,-y,-z
x,y,-z
-x,y,z
x,-y,z
loop_
_atom_site_type_symbol
_atom_site_label
_atom_site_fract_x
_atom_site_fract_y
_atom_site_fract_z
Si Si1 0.678616 0.106068 0.219723
Si Si2 0.818134 0.500000 0.102046
Si Si3 0.170864 0.093406 0.402474
Si Si4 0.819249 0.426562 0.597893
Si Si5 0.824542 0.000000 0.104889
Si Si6 0.167867 0.244409 0.598856
Si Si7 0.179927 0.377205 0.211837
Si Si8 0.325287 0.749179 0.775641
O O1 0.500000 0.104313 0.217106
O O2 0.732754 0.081221 0.315778
O O3 0.749127 0.060932 0.147517
O O4 0.725655 0.179095 0.205574
O O5 0.771643 0.563321 0.152972
O O6 0.000000 0.500000 0.103724
O O7 0.770916 0.500000 0.000000
O O8 0.224311 0.072771 0.500000
O O9 0.163810 0.169065 0.406165
O O10 0.000000 0.071691 0.390864
O O11 0.765348 0.407255 0.500000
O O12 0.782744 0.500000 0.608763
O O13 0.772254 0.391209 0.686597
O O14 0.000000 0.422432 0.595794
O O15 0.000000 0.000000 0.126341
O O16 0.806393 0.000000 0.000000
O O17 0.195505 0.267637 0.500000
O O18 0.289401 0.258788 0.671585
O O19 0.000000 0.265442 0.625929
O O20 0.242096 0.309908 0.181505
O O21 0.000000 0.375220 0.209822
O O22 0.500000 0.745546 0.793619
#
# Coordination Sequence:
#
# PCOD9382206 Si02
#       8
#     8   4   8   8   4   8   8   8
#     4  10  21  38  60  86 119 157 193 230 275 336
#     4   9  18  34  56  80 102 127 171 230 284 333
#     4   8  14  27  50  80 115 154 193 234 276 315
#     4   8  13  23  42  70 102 135 178 230 274 316
#     4  11  25  45  70  95 114 137 177 232 294 355
#     4   8  14  26  45  70 102 144 192 231 262 305
#     4  10  18  31  53  78 104 140 183 228 279 330
#     4  10  21  34  50  78 115 151 184 222 274 329
#
# _framework density 19.346788
#
# number of rings (size 3 to 8) (size 9 to 14) (size 15 to 20)
#    0.000    2.857    0.714    2.357    0.000    3.429 
#    0.000    5.714    0.000    5.571    0.000    1.000 
#    0.000    0.000    0.000    0.000    0.000    0.000 
#
# Total GULP energy -312087.931371 kJ/mol
# GULP energy per Si atom -5572.998774 kJ/mol
# Density = 1.930275 g / cm^3
# Si number density = 19.346788 Si / 1000 Ang^3
#
#
#
# Elastic Constant Matrix: (Units=GPa)
#
#
# Indices 1 2 3 4 5 6 
#
# 1 32.4983 36.5350 31.0437 0.0000 0.0000 0.0000
# 2 36.5350 160.3303 57.5993 0.0000 0.0000 0.0000
# 3 31.0437 57.5993 82.4073 0.0000 0.0000 0.0000
# 4 0.0000 0.0000 0.0000 -14.7869 0.0000 0.0000
# 5 0.0000 0.0000 0.0000 0.0000 -3.2710 0.0000
# 6 0.0000 0.0000 0.0000 0.0000 0.0000 20.1977
#
#
#
# Elastic Compliance Matrix: (Units=1/GPa)
#
#
# Indices 1 2 3 4 5 6 
#
# 1 0.052714 -0.006514 -0.015305 0.000000 0.000000 0.000000
# 2 -0.006514 0.009133 -0.003930 0.000000 0.000000 0.000000
# 3 -0.015305 -0.003930 0.020647 0.000000 0.000000 0.000000
# 4 0.000000 0.000000 0.000000 -0.067627 0.000000 0.000000
# 5 0.000000 0.000000 0.000000 0.000000 -0.305716 0.000000
# 6 0.000000 0.000000 0.000000 0.000000 0.000000 0.049511
#
#
# Mechanical properties :
#
#
# Convention : Reuss Voigt Hill
#
# Bulk Modulus (GPa) = 32.26134 58.39909 45.33022
# Shear Modulus (GPa) = -27.85387 10.43180 -8.71104
#
# Velocity S-wave (km/s) = -3.79847 2.32459 -2.12423
# Velocity P-wave (km/s) = 1.58946 6.12012 4.17909
#
# Compressibility (1/GPa) = 0.03099685
#
# Stress axis : x y z
#
# Youngs Moduli (GPa) = 18.97045 109.48960 48.43231
#
# Poissons Ratio (x) = 0.71317 0.74126
# Poissons Ratio (y) = 0.12357 0.19034
# Poissons Ratio (z) = 0.29034 0.43030
#
# Static dielectric constant tensor:
#      x y z
#    x 1.652320 0.000000 0.000000 
#    y 0.000000 1.734820 0.000000 
#    z 0.000000 0.000000 1.675160 
# 
# From -- ./inp_files/21662.got.cif
#   From: 2010.05.17/outbox.cif.g08.bks.cpg/sg47_11_cif.got.tgz:21662.got - 2010.06.03 20:15:42.
