data_PCOD9382699
_publ_section_title
;
Structure prediction by ZEFSAII (Michael W. Deem and Ramdas Pophale) SiO2 
 PCOD9382699
Probable space group: P M M M
;
_chemical_formula_sum "Si O2"
_cell_formula_units_Z 56
_cell_length_a 19.106758
_cell_length_b 19.386774
_cell_length_c 9.250477
_cell_angle_alpha 90.000000
_cell_angle_beta 90.000000
_cell_angle_gamma 90.000000
_cell_volume 3426.546882
_symmetry_space_group_name_H-M "P M M M"
_symmetry_group_IT_number 47
_symmetry_cell_setting 'orthorhombic'
loop_
_space_group_symop_operation_xyz
x,y,z
-x,-y,z
x,-y,-z
-x,y,-z
-x,-y,-z
x,y,-z
-x,y,z
x,-y,z
loop_
_atom_site_type_symbol
_atom_site_label
_atom_site_fract_x
_atom_site_fract_y
_atom_site_fract_z
Si Si1 0.079689 0.331973 0.171069
Si Si2 0.580387 0.213741 0.673701
Si Si3 0.584975 0.924218 0.167298
Si Si4 0.917730 0.919545 0.173322
Si Si5 0.286993 0.296844 0.326688
Si Si6 0.847842 0.793223 0.327261
Si Si7 0.786886 0.421157 0.173112
O O1 0.100681 0.265213 0.263130
O O2 0.135008 0.392332 0.202338
O O3 0.000000 0.352400 0.198501
O O4 0.086384 0.314724 0.000000
O O5 0.580632 0.209512 0.500000
O O6 0.500000 0.226561 0.720302
O O7 0.605137 0.140606 0.737200
O O8 0.636307 0.271131 0.717245
O O9 0.500000 0.925733 0.169839
O O10 0.609210 0.000000 0.216716
O O11 0.605775 0.915035 0.000000
O O12 0.868610 0.865321 0.254408
O O13 0.000000 0.906176 0.207971
O O14 0.903379 0.000000 0.208058
O O15 0.910317 0.911438 0.000000
O O16 0.285333 0.306516 0.500000
O O17 0.229418 0.237350 0.293140
O O18 0.263759 0.366715 0.249500
O O19 0.854387 0.798045 0.500000
O O20 0.778480 0.500000 0.220854
O O21 0.776645 0.418550 0.000000
#
# Coordination Sequence:
#
# PCOD9382699 Si02
#       7
#     8   8   8   8   8   8   8
#     4   9  17  29  46  68  94 123 151 181 220 262
#     4   9  17  30  49  70  90 116 154 196 231 267
#     4   8  14  25  41  63  92 121 146 176 218 267
#     4   9  18  32  48  65  87 118 157 199 237 269
#     4   9  19  34  49  68  94 121 149 183 227 276
#     4  10  19  30  45  65  91 121 152 188 228 271
#     4   9  18  32  50  72  95 120 152 185 216 259
#
# _framework density 16.342984000000001
#
# number of rings (size 3 to 8) (size 9 to 14) (size 15 to 20)
#    0.000    3.000    0.000    1.714    0.000    4.571 
#    0.000    4.286    0.000    4.714    0.000    7.000 
#    0.000    0.000    0.000    0.000    0.000    0.000 
#
# Total GULP energy -311922.514271 kJ/mol
# GULP energy per Si atom -5570.044898 kJ/mol
# Density = 1.630579 g / cm^3
# Si number density = 16.342984 Si / 1000 Ang^3
#
#
#
# Elastic Constant Matrix: (Units=GPa)
#
#
# Indices 1 2 3 4 5 6 
#
# 1 87.0283 72.3641 34.0157 0.0000 0.0000 0.0000
# 2 72.3641 140.2992 48.3665 0.0000 0.0000 0.0000
# 3 34.0157 48.3665 24.2937 0.0000 0.0000 0.0000
# 4 0.0000 0.0000 0.0000 1.5431 0.0000 0.0000
# 5 0.0000 0.0000 0.0000 0.0000 17.1814 0.0000
# 6 0.0000 0.0000 0.0000 0.0000 0.0000 12.2048
#
#
#
# Elastic Compliance Matrix: (Units=1/GPa)
#
#
# Indices 1 2 3 4 5 6 
#
# 1 0.025700 -0.002711 -0.030588 0.000000 0.000000 0.000000
# 2 -0.002711 0.023010 -0.042016 0.000000 0.000000 0.000000
# 3 -0.030588 -0.042016 0.167641 0.000000 0.000000 0.000000
# 4 0.000000 0.000000 0.000000 0.648055 0.000000 0.000000
# 5 0.000000 0.000000 0.000000 0.000000 0.058203 0.000000
# 6 0.000000 0.000000 0.000000 0.000000 0.000000 0.081935
#
#
# Mechanical properties :
#
#
# Convention : Reuss Voigt Hill
#
# Bulk Modulus (GPa) = 15.21545 62.34600 38.78072
# Shear Modulus (GPa) = 4.24780 12.64417 8.44598
#
# Velocity S-wave (km/s) = 1.61394 2.78452 2.27578
# Velocity P-wave (km/s) = 3.57818 6.96917 5.53953
#
# Compressibility (1/GPa) = 0.06572269
#
# Stress axis : x y z
#
# Youngs Moduli (GPa) = 38.91021 43.45887 5.96512
#
# Poissons Ratio (x) = 0.11781 0.18246
# Poissons Ratio (y) = 0.10548 0.25063
# Poissons Ratio (z) = 1.19018 1.82595
#
# Static dielectric constant tensor:
#      x y z
#    x 1.559730 0.000000 0.000000 
#    y 0.000000 1.533920 0.000000 
#    z 0.000000 0.000000 1.543100 
# 
# From -- ./inp_files/11515.got.cif
#   From: 2010.05.17/outbox.cif.g08.bks.cpg/sg47_6_cif.got.tgz:11515.got - 2010.06.03 20:15:42.
