data_PCOD9382307
_publ_section_title
;
Structure prediction by ZEFSAII (Michael W. Deem and Ramdas Pophale) SiO2 
 PCOD9382307
Probable space group: P M M M
;
_chemical_formula_sum "Si O2"
_cell_formula_units_Z 56
_cell_length_a 16.144206
_cell_length_b 7.740418
_cell_length_c 21.580029
_cell_angle_alpha 90.000000
_cell_angle_beta 90.000000
_cell_angle_gamma 90.000000
_cell_volume 2696.703065
_symmetry_space_group_name_H-M "P M M M"
_symmetry_group_IT_number 47
_symmetry_cell_setting 'orthorhombic'
loop_
_space_group_symop_operation_xyz
x,y,z
-x,-y,z
x,-y,-z
-x,y,-z
-x,-y,-z
x,y,-z
-x,y,z
x,-y,z
loop_
_atom_site_type_symbol
_atom_site_label
_atom_site_fract_x
_atom_site_fract_y
_atom_site_fract_z
Si Si1 0.090276 0.702328 0.309706
Si Si2 0.752455 0.804074 0.237566
Si Si3 0.230848 0.700664 0.899456
Si Si4 0.411169 0.298585 0.074266
Si Si5 0.829031 0.790452 0.429804
Si Si6 0.096852 0.711291 0.000000
Si Si7 0.500000 0.294728 0.571127
Si Si8 0.666562 0.792909 0.355920
O O1 0.099218 0.500000 0.294397
O O2 0.164640 0.803614 0.278529
O O3 0.101609 0.724779 0.383082
O O4 0.000000 0.762050 0.289735
O O5 0.776612 0.710274 0.174374
O O6 0.684098 0.728280 0.285563
O O7 0.728922 0.000000 0.221086
O O8 0.237714 0.500000 0.918910
O O9 0.321971 0.781171 0.910754
O O10 0.153191 0.766223 0.940298
O O11 0.500000 0.223881 0.096124
O O12 0.409977 0.500000 0.095590
O O13 0.414161 0.300776 0.000000
O O14 0.837586 0.731776 0.500000
O O15 0.741361 0.732487 0.400244
O O16 0.830182 0.000000 0.429486
O O17 0.092146 0.500000 0.000000
O O18 0.000000 0.769792 0.000000
O O19 0.500000 0.500000 0.565876
O O20 0.500000 0.223942 0.500000
O O21 0.580738 0.244953 0.610600
O O22 0.674037 0.000000 0.350951
#
# Coordination Sequence:
#
# PCOD9382307 Si02
#       8
#     8   8   8   8   8   4   4   8
#     4  10  21  36  54  77 104 135 175 222 268 317
#     4  10  22  39  57  77 105 144 185 227 275 328
#     4  10  18  32  55  80 108 143 181 226 278 329
#     4   8  13  24  46  76 106 134 169 214 262 313
#     4   9  18  33  54  79 106 138 174 212 261 321
#     4   9  18  32  52  82 116 147 181 225 277 335
#     4  11  23  35  53  85 117 142 177 232 289 331
#     4   9  19  37  56  73 101 144 188 223 263 323
#
# _framework density 20.766096999999998
#
# number of rings (size 3 to 8) (size 9 to 14) (size 15 to 20)
#    0.000    2.571    0.714    2.786    0.000    6.286 
#    1.286    3.214    0.000    0.429    0.000    1.000 
#    0.000    0.000    0.000    0.000    0.000    0.000 
#
# Total GULP energy -311930.146215 kJ/mol
# GULP energy per Si atom -5570.181182 kJ/mol
# Density = 2.071883 g / cm^3
# Si number density = 20.766097 Si / 1000 Ang^3
#
#
#
# Elastic Constant Matrix: (Units=GPa)
#
#
# Indices 1 2 3 4 5 6 
#
# 1 156.1992 5.3831 55.2986 0.0000 0.0000 0.0000
# 2 5.3831 33.5572 3.4787 0.0000 0.0000 0.0000
# 3 55.2986 3.4787 121.0672 0.0000 0.0000 0.0000
# 4 0.0000 0.0000 0.0000 44.9456 0.0000 0.0000
# 5 0.0000 0.0000 0.0000 0.0000 26.0881 0.0000
# 6 0.0000 0.0000 0.0000 0.0000 0.0000 11.2192
#
#
#
# Elastic Compliance Matrix: (Units=1/GPa)
#
#
# Indices 1 2 3 4 5 6 
#
# 1 0.007662 -0.000869 -0.003475 0.000000 0.000000 0.000000
# 2 -0.000869 0.029987 -0.000465 0.000000 0.000000 0.000000
# 3 -0.003475 -0.000465 0.009860 0.000000 0.000000 0.000000
# 4 0.000000 0.000000 0.000000 0.022249 0.000000 0.000000
# 5 0.000000 0.000000 0.000000 0.000000 0.038332 0.000000
# 6 0.000000 0.000000 0.000000 0.000000 0.000000 0.089133
#
#
# Mechanical properties :
#
#
# Convention : Reuss Voigt Hill
#
# Bulk Modulus (GPa) = 26.39008 48.79381 37.59194
# Shear Modulus (GPa) = 22.78196 32.89480 27.83838
#
# Velocity S-wave (km/s) = 3.31581 3.98435 3.66535
# Velocity P-wave (km/s) = 5.23405 6.68689 6.00457
#
# Compressibility (1/GPa) = 0.03789303
#
# Stress axis : x y z
#
# Youngs Moduli (GPa) = 130.51079 33.34730 101.41594
#
# Poissons Ratio (x) = 0.02898 0.35240
# Poissons Ratio (y) = 0.11340 0.04714
# Poissons Ratio (z) = 0.45350 0.01550
#
# Static dielectric constant tensor:
#      x y z
#    x 1.771590 0.000000 0.000000 
#    y 0.000000 1.785840 0.000000 
#    z 0.000000 0.000000 1.770900 
# 
# From -- ./inp_files/31075.got.cif
#   From: 2010.05.17/outbox.cif.g08.bks.cpg/sg47_16_cif.got.tgz:31075.got - 2010.06.03 20:15:42.
