data_PCOD9382291
_publ_section_title
;
Structure prediction by ZEFSAII (Michael W. Deem and Ramdas Pophale) SiO2 
 PCOD9382291
Probable space group: P M M M
;
_chemical_formula_sum "Si O2"
_cell_formula_units_Z 48
_cell_length_a 7.430665
_cell_length_b 20.215507
_cell_length_c 14.248638
_cell_angle_alpha 90.000000
_cell_angle_beta 90.000000
_cell_angle_gamma 90.000000
_cell_volume 2140.354317
_symmetry_space_group_name_H-M "P M M M"
_symmetry_group_IT_number 47
_symmetry_cell_setting 'orthorhombic'
loop_
_space_group_symop_operation_xyz
x,y,z
-x,-y,z
x,-y,-z
-x,y,-z
-x,-y,-z
x,y,-z
-x,y,z
x,-y,z
loop_
_atom_site_type_symbol
_atom_site_label
_atom_site_fract_x
_atom_site_fract_y
_atom_site_fract_z
Si Si1 0.282532 0.124930 0.500000
Si Si2 0.220205 0.319535 0.893545
Si Si3 0.792145 0.642965 0.313052
Si Si4 0.716622 0.500000 0.608420
Si Si5 0.788931 0.827345 0.151944
Si Si6 0.212567 0.281905 0.500000
Si Si7 0.716284 0.927334 0.303683
Si Si8 0.779305 0.926746 0.000000
O O1 0.500000 0.124548 0.500000
O O2 0.232048 0.202636 0.500000
O O3 0.222915 0.084958 0.409169
O O4 0.279162 0.352392 0.794375
O O5 0.281483 0.243843 0.875822
O O6 0.000000 0.323410 0.895927
O O7 0.277222 0.340155 0.000000
O O8 0.782366 0.567002 0.343886
O O9 0.715403 0.685565 0.401864
O O10 0.000000 0.665436 0.305012
O O11 0.500000 0.500000 0.611306
O O12 0.773791 0.500000 0.500000
O O13 0.769539 0.858892 0.253289
O O14 0.000000 0.821614 0.131352
O O15 0.715746 0.885684 0.088251
O O16 0.000000 0.298415 0.500000
O O17 0.500000 0.929618 0.300074
O O18 0.780930 0.000000 0.267929
O O19 0.000000 0.929193 0.000000
O O20 0.712508 0.000000 0.000000
#
# Coordination Sequence:
#
# PCOD9382291 Si02
#       8
#     4   8   8   4   8   4   8   4
#     4  10  21  36  53  71  98 141 185 221 266 330
#     4   9  17  32  55  84 113 145 185 225 265 315
#     4  10  20  35  59  86 116 149 179 218 267 319
#     4  11  23  39  60  87 118 148 181 220 263 312
#     4  10  18  32  54  78 104 134 175 226 272 317
#     4  10  20  34  54  87 117 137 172 225 282 325
#     4  10  21  36  51  69  98 138 182 227 276 330
#     4   9  16  26  45  75 105 134 171 216 270 323
#
# _framework density 22.426193999999999
#
# number of rings (size 3 to 8) (size 9 to 14) (size 15 to 20)
#    0.000    2.167    1.667    2.000    0.000    5.000 
#    0.000    1.667    0.000    7.000    0.000    0.000 
#    0.000    0.000    0.000    0.000    0.000    0.000 
#
# Total GULP energy -267592.992506 kJ/mol
# GULP energy per Si atom -5574.854011 kJ/mol
# Density = 2.237515 g / cm^3
# Si number density = 22.426194 Si / 1000 Ang^3
#
#
#
# Elastic Constant Matrix: (Units=GPa)
#
#
# Indices 1 2 3 4 5 6 
#
# 1 67.0200 -7.5483 2.4351 0.0000 0.0000 0.0000
# 2 -7.5483 97.3363 40.8306 0.0000 0.0000 0.0000
# 3 2.4351 40.8306 169.5497 0.0000 0.0000 0.0000
# 4 0.0000 0.0000 0.0000 38.3478 0.0000 0.0000
# 5 0.0000 0.0000 0.0000 0.0000 7.7057 0.0000
# 6 0.0000 0.0000 0.0000 0.0000 0.0000 7.8037
#
#
#
# Elastic Compliance Matrix: (Units=1/GPa)
#
#
# Indices 1 2 3 4 5 6 
#
# 1 0.015099 0.001404 -0.000555 0.000000 0.000000 0.000000
# 2 0.001404 0.011559 -0.002804 0.000000 0.000000 0.000000
# 3 -0.000555 -0.002804 0.006581 0.000000 0.000000 0.000000
# 4 0.000000 0.000000 0.000000 0.026077 0.000000 0.000000
# 5 0.000000 0.000000 0.000000 0.000000 0.129774 0.000000
# 6 0.000000 0.000000 0.000000 0.000000 0.000000 0.128144
#
#
# Mechanical properties :
#
#
# Convention : Reuss Voigt Hill
#
# Bulk Modulus (GPa) = 34.09577 45.03786 39.56682
# Shear Modulus (GPa) = 15.10935 30.65068 22.88002
#
# Velocity S-wave (km/s) = 2.59846 3.70095 3.19758
# Velocity P-wave (km/s) = 4.92333 6.19589 5.59590
#
# Compressibility (1/GPa) = 0.02932915
#
# Stress axis : x y z
#
# Youngs Moduli (GPa) = 66.22874 86.51565 151.94985
#
# Poissons Ratio (x) = -0.12144 0.08432
# Poissons Ratio (y) = -0.09296 0.42602
# Poissons Ratio (z) = 0.03675 0.24256
#
# Static dielectric constant tensor:
#      x y z
#    x 1.885250 0.000000 0.000000 
#    y 0.000000 1.780850 0.000000 
#    z 0.000000 0.000000 1.887770 
# 
# From -- ./inp_files/21201.got.cif
#   From: 2010.05.17/outbox.cif.g08.bks.cpg/sg47_11_cif.got.tgz:21201.got - 2010.06.03 20:15:42.
