data_PCOD9382900
_publ_section_title
;
Structure prediction by ZEFSAII (Michael W. Deem and Ramdas Pophale) SiO2 
 PCOD9382900
Probable space group: P M M M
;
_chemical_formula_sum "Si O2"
_cell_formula_units_Z 64
_cell_length_a 25.952958
_cell_length_b 8.305701
_cell_length_c 15.149366
_cell_angle_alpha 90.000000
_cell_angle_beta 90.000000
_cell_angle_gamma 90.000000
_cell_volume 3265.559601
_symmetry_space_group_name_H-M "P M M M"
_symmetry_group_IT_number 47
_symmetry_cell_setting 'orthorhombic'
loop_
_space_group_symop_operation_xyz
x,y,z
-x,-y,z
x,-y,-z
-x,y,-z
-x,-y,-z
x,y,-z
-x,y,z
x,-y,z
loop_
_atom_site_type_symbol
_atom_site_label
_atom_site_fract_x
_atom_site_fract_y
_atom_site_fract_z
Si Si1 0.752364 0.192314 0.226666
Si Si2 0.190718 0.192592 0.403718
Si Si3 0.843378 0.692192 0.101424
Si Si4 0.943938 0.191280 0.792168
Si Si5 0.557491 0.303682 0.899647
Si Si6 0.636086 0.305198 0.247455
Si Si7 0.558401 0.696269 0.398008
Si Si8 0.924442 0.310989 0.597497
O O1 0.776022 0.243324 0.320890
O O2 0.791301 0.252533 0.150999
O O3 0.693791 0.249987 0.228709
O O4 0.752859 0.000000 0.222781
O O5 0.215248 0.218756 0.500000
O O6 0.136941 0.284926 0.401633
O O7 0.179858 0.000000 0.396082
O O8 0.842427 0.500000 0.098539
O O9 0.893862 0.741101 0.158030
O O10 0.846210 0.753132 0.000000
O O11 0.942430 0.228816 0.687459
O O12 0.000000 0.250913 0.825639
O O13 0.942103 0.000000 0.803221
O O14 0.500000 0.254373 0.872686
O O15 0.557892 0.500000 0.898999
O O16 0.600476 0.248637 0.832985
O O17 0.566488 0.252472 0.000000
O O18 0.636562 0.500000 0.249625
O O19 0.605183 0.250435 0.335250
O O20 0.565408 0.744800 0.500000
O O21 0.500000 0.744931 0.369910
O O22 0.558281 0.500000 0.395752
O O23 0.941558 0.250973 0.500000
O O24 0.936824 0.500000 0.602374
#
# Coordination Sequence:
#
# PCOD9382900 Si02
#       8
#     8   8   8   8   8   8   8   8
#     4  11  23  38  57  82 114 153 191 230 283 347
#     4   9  18  34  56  79 106 145 190 231 275 332
#     4  11  25  45  68  90 113 145 189 243 299 350
#     4  11  24  41  63  92 125 160 195 233 281 343
#     4   8  14  26  46  72  99 127 165 217 274 328
#     4  10  19  30  49  77 107 139 180 231 281 333
#     4   8  14  26  46  74 108 146 190 240 291 338
#     4  10  20  34  57  89 122 156 194 237 282 326
#
# _framework density 19.598479000000001
#
# number of rings (size 3 to 8) (size 9 to 14) (size 15 to 20)
#    0.000    2.250    1.250    2.625    0.000    6.250 
#    0.000    3.750    0.000    1.500    0.000    1.750 
#    0.000    0.000    0.000    0.000    0.000    0.000 
#
# Total GULP energy -356946.256838 kJ/mol
# GULP energy per Si atom -5577.285263 kJ/mol
# Density = 1.955387 g / cm^3
# Si number density = 19.598479 Si / 1000 Ang^3
#
#
#
# Elastic Constant Matrix: (Units=GPa)
#
#
# Indices 1 2 3 4 5 6 
#
# 1 183.3784 22.6416 105.8227 0.0000 0.0000 0.0000
# 2 22.6416 17.0578 21.4640 0.0000 0.0000 0.0000
# 3 105.8227 21.4640 139.1496 0.0000 0.0000 0.0000
# 4 0.0000 0.0000 0.0000 15.3203 0.0000 0.0000
# 5 0.0000 0.0000 0.0000 0.0000 -17.0223 0.0000
# 6 0.0000 0.0000 0.0000 0.0000 0.0000 19.7556
#
#
#
# Elastic Compliance Matrix: (Units=1/GPa)
#
#
# Indices 1 2 3 4 5 6 
#
# 1 0.010000 -0.004596 -0.006896 0.000000 0.000000 0.000000
# 2 -0.004596 0.074856 -0.008051 0.000000 0.000000 0.000000
# 3 -0.006896 -0.008051 0.013673 0.000000 0.000000 0.000000
# 4 0.000000 0.000000 0.000000 0.065273 0.000000 0.000000
# 5 0.000000 0.000000 0.000000 0.000000 -0.058746 0.000000
# 6 0.000000 0.000000 0.000000 0.000000 0.000000 0.050619
#
#
# Mechanical properties :
#
#
# Convention : Reuss Voigt Hill
#
# Bulk Modulus (GPa) = 16.82314 71.04918 43.93616
# Shear Modulus (GPa) = 23.30175 16.25452 19.77814
#
# Velocity S-wave (km/s) = 3.45187 2.88301 3.18019
# Velocity P-wave (km/s) = 4.94871 6.88574 5.99596
#
# Compressibility (1/GPa) = 0.05944192
#
# Stress axis : x y z
#
# Youngs Moduli (GPa) = 99.99664 13.35897 73.13703
#
# Poissons Ratio (x) = 0.06140 0.50437
# Poissons Ratio (y) = 0.45962 0.58884
# Poissons Ratio (z) = 0.68960 0.10756
#
# Static dielectric constant tensor:
#      x y z
#    x 1.687470 0.000000 0.000000 
#    y 0.000000 1.683630 0.000000 
#    z 0.000000 0.000000 1.704940 
# 
# From -- ./inp_files/25568.got.cif
#   From: 2010.05.17/outbox.cif.g08.bks.cpg/sg47_13_cif.got.tgz:25568.got - 2010.06.03 20:15:42.
