data_PCOD9382890
_publ_section_title
;
Structure prediction by ZEFSAII (Michael W. Deem and Ramdas Pophale) SiO2 
 PCOD9382890
Probable space group: P M M M
;
_chemical_formula_sum "Si O2"
_cell_formula_units_Z 64
_cell_length_a 15.317149
_cell_length_b 7.676674
_cell_length_c 24.410957
_cell_angle_alpha 90.000000
_cell_angle_beta 90.000000
_cell_angle_gamma 90.000000
_cell_volume 2870.356508
_symmetry_space_group_name_H-M "P M M M"
_symmetry_group_IT_number 47
_symmetry_cell_setting 'orthorhombic'
loop_
_space_group_symop_operation_xyz
x,y,z
-x,-y,z
x,-y,-z
-x,y,-z
-x,-y,-z
x,y,-z
-x,y,z
x,-y,z
loop_
_atom_site_type_symbol
_atom_site_label
_atom_site_fract_x
_atom_site_fract_y
_atom_site_fract_z
Si Si1 0.598312 0.794773 0.838744
Si Si2 0.400933 0.299760 0.715719
Si Si3 0.280692 0.289375 0.059315
Si Si4 0.100776 0.208987 0.779701
Si Si5 0.591481 0.800361 0.565562
Si Si6 0.785773 0.214507 0.438510
Si Si7 0.903813 0.703339 0.094667
Si Si8 0.211762 0.795000 0.678880
O O1 0.500000 0.740626 0.854473
O O2 0.619067 0.708030 0.780698
O O3 0.662922 0.762063 0.888460
O O4 0.598583 0.000000 0.827018
O O5 0.500000 0.224980 0.709246
O O6 0.404327 0.500000 0.698455
O O7 0.316762 0.220568 0.685832
O O8 0.277868 0.500000 0.059690
O O9 0.181705 0.222443 0.066171
O O10 0.316097 0.233478 0.000000
O O11 0.112763 0.286444 0.840028
O O12 0.164813 0.278428 0.732762
O O13 0.000000 0.238404 0.763518
O O14 0.113527 0.000000 0.785991
O O15 0.584547 0.812831 0.500000
O O16 0.500000 0.719586 0.585427
O O17 0.686413 0.720317 0.570453
O O18 0.594427 0.000000 0.586456
O O19 0.815563 0.266935 0.500000
O O20 0.825319 0.268481 0.379964
O O21 0.784021 0.000000 0.439747
O O22 0.908403 0.500000 0.079091
O O23 0.000000 0.780607 0.084061
O O24 0.192004 0.000000 0.679437
#
# Coordination Sequence:
#
# PCOD9382890 Si02
#       8
#     8   8   8   8   8   8   8   8
#     4  10  21  37  56  76 100 133 174 219 260 294
#     4  10  21  36  53  74 102 134 165 202 255 313
#     4  10  21  35  52  77 108 141 174 207 248 299
#     4   9  18  32  49  71 100 130 160 201 257 312
#     4   7   9  14  25  42  67 100 135 171 214 261
#     4   8  14  24  38  60  91 124 159 200 244 289
#     4   9  18  33  53  76 101 130 166 207 249 296
#     4  10  19  30  49  75  99 128 167 210 252 295
#
# _framework density 22.296883000000001
#
# number of rings (size 3 to 8) (size 9 to 14) (size 15 to 20)
#    0.000    2.875    0.000    2.625    0.000    5.750 
#    0.000    3.750    0.000    0.750    0.000    6.125 
#    0.000    0.000    0.000    4.250    0.000    4.500 
#
# Total GULP energy -356636.153972 kJ/mol
# GULP energy per Si atom -5572.439906 kJ/mol
# Density = 2.224613 g / cm^3
# Si number density = 22.296883 Si / 1000 Ang^3
#
#
#
# Elastic Constant Matrix: (Units=GPa)
#
#
# Indices 1 2 3 4 5 6 
#
# 1 39.5954 0.8001 30.3328 0.0000 0.0000 0.0000
# 2 0.8001 41.6874 -2.0995 0.0000 0.0000 0.0000
# 3 30.3328 -2.0995 99.6122 0.0000 0.0000 0.0000
# 4 0.0000 0.0000 0.0000 12.1305 0.0000 0.0000
# 5 0.0000 0.0000 0.0000 0.0000 -0.6956 0.0000
# 6 0.0000 0.0000 0.0000 0.0000 0.0000 3.2961
#
#
#
# Elastic Compliance Matrix: (Units=1/GPa)
#
#
# Indices 1 2 3 4 5 6 
#
# 1 0.032993 -0.001140 -0.010071 0.000000 0.000000 0.000000
# 2 -0.001140 0.024053 0.000854 0.000000 0.000000 0.000000
# 3 -0.010071 0.000854 0.013124 0.000000 0.000000 0.000000
# 4 0.000000 0.000000 0.000000 0.082437 0.000000 0.000000
# 5 0.000000 0.000000 0.000000 0.000000 -1.437570 0.000000
# 6 0.000000 0.000000 0.000000 0.000000 0.000000 0.303392
#
#
# Mechanical properties :
#
#
# Convention : Reuss Voigt Hill
#
# Bulk Modulus (GPa) = 20.22003 26.55132 23.38568
# Shear Modulus (GPa) = -5.29453 13.07028 3.88788
#
# Velocity S-wave (km/s) = -1.54263 2.42377 1.32192
# Velocity P-wave (km/s) = 2.43214 4.44599 3.58344
#
# Compressibility (1/GPa) = 0.04945590
#
# Stress axis : x y z
#
# Youngs Moduli (GPa) = 30.30903 41.57490 76.19860
#
# Poissons Ratio (x) = 0.04741 0.76738
# Poissons Ratio (y) = 0.03457 -0.06509
# Poissons Ratio (z) = 0.30524 -0.03551
#
# Static dielectric constant tensor:
#      x y z
#    x 1.901620 0.000000 0.000000 
#    y 0.000000 1.844940 0.000000 
#    z 0.000000 0.000000 1.848010 
# 
# From -- ./inp_files/32810.got.cif
#   From: 2010.05.17/outbox.cif.g08.bks.cpg/sg47_17_cif.got.tgz:32810.got - 2010.06.03 20:15:42.
