data_PCOD9382974
_publ_section_title
;
Structure prediction by ZEFSAII (Michael W. Deem and Ramdas Pophale) SiO2 
 PCOD9382974
Probable space group: P M M M
;
_chemical_formula_sum "Si O2"
_cell_formula_units_Z 52
_cell_length_a 9.237427
_cell_length_b 13.861249
_cell_length_c 24.082911
_cell_angle_alpha 90.000000
_cell_angle_beta 90.000000
_cell_angle_gamma 90.000000
_cell_volume 3083.630732
_symmetry_space_group_name_H-M "P M M M"
_symmetry_group_IT_number 47
_symmetry_cell_setting 'orthorhombic'
loop_
_space_group_symop_operation_xyz
x,y,z
-x,-y,z
x,-y,-z
-x,y,-z
-x,-y,-z
x,y,-z
-x,y,z
x,-y,z
loop_
_atom_site_type_symbol
_atom_site_label
_atom_site_fract_x
_atom_site_fract_y
_atom_site_fract_z
Si Si1 0.173609 0.611987 0.064466
Si Si2 0.825437 0.108729 0.356206
Si Si3 0.163450 0.612821 0.740838
Si Si4 0.670994 0.109559 0.237286
Si Si5 0.828945 0.315352 0.382860
Si Si6 0.671905 0.711611 0.835980
Si Si7 0.332305 0.500000 0.433528
O O1 0.211994 0.500000 0.076917
O O2 0.250900 0.681837 0.107446
O O3 0.000000 0.619606 0.069932
O O4 0.210424 0.630474 0.000000
O O5 0.756807 0.118824 0.294940
O O6 0.783062 0.203583 0.391811
O O7 0.000000 0.112821 0.351322
O O8 0.787319 0.000000 0.376509
O O9 0.168694 0.500000 0.727618
O O10 0.187159 0.667827 0.683327
O O11 0.276596 0.638349 0.788064
O O12 0.000000 0.635424 0.761063
O O13 0.500000 0.125666 0.248996
O O14 0.715451 0.185626 0.190567
O O15 0.689009 0.000000 0.217651
O O16 0.743888 0.402137 0.411949
O O17 0.000000 0.325038 0.396203
O O18 0.500000 0.709334 0.843236
O O19 0.500000 0.500000 0.415423
O O20 0.326424 0.500000 0.500000
#
# Coordination Sequence:
#
# PCOD9382974 Si02
#       7
#     8   8   8   8   8   8   4
#     4   9  19  36  54  69  89 124 166 204 249 306
#     4   9  17  30  51  79 108 137 172 214 258 306
#     4  10  19  31  46  69 103 137 165 196 243 303
#     4   9  18  31  45  66 101 139 170 200 242 301
#     4  10  19  34  55  79 107 140 176 213 257 309
#     4  11  21  30  46  73 100 128 165 206 251 298
#     4  11  25  41  57  79 107 141 182 225 264 305
#
# _framework density 16.863237999999999
#
# number of rings (size 3 to 8) (size 9 to 14) (size 15 to 20)
#    0.000    2.231    2.308    1.615    0.000    5.231 
#    0.000    0.769    0.000    0.923    0.000    6.462 
#    0.000    0.000    0.000    0.000    0.000    0.000 
#
# Total GULP energy -289811.751354 kJ/mol
# GULP energy per Si atom -5573.302911 kJ/mol
# Density = 1.682486 g / cm^3
# Si number density = 16.863238 Si / 1000 Ang^3
#
#
#
# Elastic Constant Matrix: (Units=GPa)
#
#
# Indices 1 2 3 4 5 6 
#
# 1 31.5165 40.4222 20.7536 0.0000 0.0000 0.0000
# 2 40.4222 139.4707 33.4927 0.0000 0.0000 0.0000
# 3 20.7536 33.4927 27.9946 0.0000 0.0000 0.0000
# 4 0.0000 0.0000 0.0000 10.6977 0.0000 0.0000
# 5 0.0000 0.0000 0.0000 0.0000 29.7529 0.0000
# 6 0.0000 0.0000 0.0000 0.0000 0.0000 21.1257
#
#
#
# Elastic Compliance Matrix: (Units=1/GPa)
#
#
# Indices 1 2 3 4 5 6 
#
# 1 0.073073 -0.011463 -0.040458 0.000000 0.000000 0.000000
# 2 -0.011463 0.011858 -0.005690 0.000000 0.000000 0.000000
# 3 -0.040458 -0.005690 0.072522 0.000000 0.000000 0.000000
# 4 0.000000 0.000000 0.000000 0.093478 0.000000 0.000000
# 5 0.000000 0.000000 0.000000 0.000000 0.033610 0.000000
# 6 0.000000 0.000000 0.000000 0.000000 0.000000 0.047336
#
#
# Mechanical properties :
#
#
# Convention : Reuss Voigt Hill
#
# Bulk Modulus (GPa) = 23.67875 43.14653 33.41264
# Shear Modulus (GPa) = 10.84186 19.26948 15.05567
#
# Velocity S-wave (km/s) = 2.53836 3.38404 2.99123
# Velocity P-wave (km/s) = 4.76058 6.39614 5.63799
#
# Compressibility (1/GPa) = 0.04223195
#
# Stress axis : x y z
#
# Youngs Moduli (GPa) = 13.68497 84.32793 13.78898
#
# Poissons Ratio (x) = 0.96663 0.55788
# Poissons Ratio (y) = 0.15687 0.07845
# Poissons Ratio (z) = 0.55367 0.47980
#
# Static dielectric constant tensor:
#      x y z
#    x 1.573210 0.000000 0.000000 
#    y 0.000000 1.615680 0.000000 
#    z 0.000000 0.000000 1.534520 
# 
# From -- ./inp_files/31983.got.cif
#   From: 2010.05.17/outbox.cif.g08.bks.cpg/sg47_16_cif.got.tgz:31983.got - 2010.06.03 20:15:42.
