data_PCOD9382768
_publ_section_title
;
Structure prediction by ZEFSAII (Michael W. Deem and Ramdas Pophale) SiO2 
 PCOD9382768
Probable space group: P M M M
;
_chemical_formula_sum "Si O2"
_cell_formula_units_Z 44
_cell_length_a 8.964578
_cell_length_b 21.863897
_cell_length_c 14.001028
_cell_angle_alpha 90.000000
_cell_angle_beta 90.000000
_cell_angle_gamma 90.000000
_cell_volume 2744.210029
_symmetry_space_group_name_H-M "P M M M"
_symmetry_group_IT_number 47
_symmetry_cell_setting 'orthorhombic'
loop_
_space_group_symop_operation_xyz
x,y,z
-x,-y,z
x,-y,-z
-x,y,-z
-x,-y,-z
x,y,-z
-x,y,z
x,-y,z
loop_
_atom_site_type_symbol
_atom_site_label
_atom_site_fract_x
_atom_site_fract_y
_atom_site_fract_z
Si Si1 0.821795 0.744334 0.788706
Si Si2 0.319956 0.807184 0.609500
Si Si3 0.172018 0.500000 0.115981
Si Si4 0.320458 0.932049 0.710208
Si Si5 0.322098 0.627232 0.113370
Si Si6 0.820909 0.128217 0.109055
O O1 0.756415 0.762794 0.685810
O O2 0.749279 0.683398 0.830288
O O3 0.787246 0.802300 0.857615
O O4 0.000000 0.738064 0.784315
O O5 0.278844 0.795441 0.500000
O O6 0.500000 0.802246 0.617980
O O7 0.277451 0.876502 0.640285
O O8 0.254192 0.562235 0.145210
O O9 0.000000 0.500000 0.146654
O O10 0.174342 0.500000 0.000000
O O11 0.500000 0.931525 0.715673
O O12 0.255176 0.915588 0.813885
O O13 0.272890 0.000000 0.680029
O O14 0.500000 0.626599 0.124718
O O15 0.289243 0.634575 0.000000
O O16 0.000000 0.120687 0.114200
O O17 0.773471 0.118061 0.000000
#
# Coordination Sequence:
#
# PCOD9382768 Si02
#       6
#     8   8   4   8   8   8
#     4  10  19  31  48  69  93 121 156 196 236 280
#     4   9  18  33  51  69  90 116 148 190 240 290
#     4   9  17  29  45  67  98 135 170 199 227 263
#     4   9  18  31  46  66  90 115 147 187 231 281
#     4  10  19  30  46  70 101 134 165 196 230 269
#     4   9  18  31  45  62  87 120 155 189 226 271
#
# _framework density 16.033757999999999
#
# number of rings (size 3 to 8) (size 9 to 14) (size 15 to 20)
#    0.000    2.636    0.000    1.909    0.000    5.455 
#    0.000    3.636    0.000    0.000    0.000    5.727 
#    0.000    5.091    0.000    0.000    0.000    0.000 
#
# Total GULP energy -245339.849315 kJ/mol
# GULP energy per Si atom -5575.905666 kJ/mol
# Density = 1.599726 g / cm^3
# Si number density = 16.033758 Si / 1000 Ang^3
#
#
#
# Elastic Constant Matrix: (Units=GPa)
#
#
# Indices 1 2 3 4 5 6 
#
# 1 38.9418 46.7157 32.6104 0.0000 0.0000 0.0000
# 2 46.7157 119.7558 33.5940 0.0000 0.0000 0.0000
# 3 32.6104 33.5940 74.4009 0.0000 0.0000 0.0000
# 4 0.0000 0.0000 0.0000 12.1863 0.0000 0.0000
# 5 0.0000 0.0000 0.0000 0.0000 20.5648 0.0000
# 6 0.0000 0.0000 0.0000 0.0000 0.0000 26.0229
#
#
#
# Elastic Compliance Matrix: (Units=1/GPa)
#
#
# Indices 1 2 3 4 5 6 
#
# 1 0.067281 -0.020580 -0.020197 0.000000 0.000000 0.000000
# 2 -0.020580 0.015856 0.001861 0.000000 0.000000 0.000000
# 3 -0.020197 0.001861 0.021453 0.000000 0.000000 0.000000
# 4 0.000000 0.000000 0.000000 0.082059 0.000000 0.000000
# 5 0.000000 0.000000 0.000000 0.000000 0.048627 0.000000
# 6 0.000000 0.000000 0.000000 0.000000 0.000000 0.038428
#
#
# Mechanical properties :
#
#
# Convention : Reuss Voigt Hill
#
# Bulk Modulus (GPa) = 37.37266 50.99319 44.18292
# Shear Modulus (GPa) = 13.87127 19.76669 16.81898
#
# Velocity S-wave (km/s) = 2.94450 3.51496 3.24230
# Velocity P-wave (km/s) = 5.90927 6.95312 6.45234
#
# Compressibility (1/GPa) = 0.02675753
#
# Stress axis : x y z
#
# Youngs Moduli (GPa) = 14.86298 63.06592 46.61313
#
# Poissons Ratio (x) = 1.29790 0.94146
# Poissons Ratio (y) = 0.30588 -0.08674
# Poissons Ratio (z) = 0.30019 -0.11735
#
# Static dielectric constant tensor:
#      x y z
#    x 1.533440 0.000000 0.000000 
#    y 0.000000 1.529260 0.000000 
#    z 0.000000 0.000000 1.511240 
# 
# From -- ./inp_files/20930.got.cif
#   From: 2010.05.17/outbox.cif.g08.bks.cpg/sg47_11_cif.got.tgz:20930.got - 2010.06.03 20:15:42.
