data_PCOD9382657
_publ_section_title
;
Structure prediction by ZEFSAII (Michael W. Deem and Ramdas Pophale) SiO2 
 PCOD9382657
Probable space group: P M M M
;
_chemical_formula_sum "Si O2"
_cell_formula_units_Z 40
_cell_length_a 9.063631
_cell_length_b 22.819768
_cell_length_c 12.888109
_cell_angle_alpha 90.000000
_cell_angle_beta 90.000000
_cell_angle_gamma 90.000000
_cell_volume 2665.647026
_symmetry_space_group_name_H-M "P M M M"
_symmetry_group_IT_number 47
_symmetry_cell_setting 'orthorhombic'
loop_
_space_group_symop_operation_xyz
x,y,z
-x,-y,z
x,-y,-z
-x,y,-z
-x,-y,-z
x,y,-z
-x,y,z
x,-y,z
loop_
_atom_site_type_symbol
_atom_site_label
_atom_site_fract_x
_atom_site_fract_y
_atom_site_fract_z
Si Si1 0.320857 0.933045 0.500000
Si Si2 0.170597 0.500000 0.626531
Si Si3 0.677235 0.142614 0.700977
Si Si4 0.330000 0.380758 0.626188
Si Si5 0.176388 0.067994 0.121897
Si Si6 0.824424 0.740458 0.623985
O O1 0.500000 0.934766 0.500000
O O2 0.276758 0.897822 0.602795
O O3 0.267348 0.000000 0.500000
O O4 0.173117 0.500000 0.500000
O O5 0.252298 0.440774 0.660618
O O6 0.000000 0.500000 0.658059
O O7 0.500000 0.146543 0.701868
O O8 0.736585 0.111336 0.803728
O O9 0.746979 0.206213 0.682586
O O10 0.329316 0.381981 0.500000
O O11 0.500000 0.378242 0.659549
O O12 0.242402 0.322234 0.655950
O O13 0.000000 0.074751 0.136808
O O14 0.213591 0.000000 0.145790
O O15 0.207157 0.077670 0.000000
O O16 0.795995 0.747640 0.500000
O O17 0.000000 0.741262 0.639258
#
# Coordination Sequence:
#
# PCOD9382657 Si02
#       6
#     4   4   8   8   8   8
#     4   9  18  30  43  63  91 118 143 178 225 269
#     4   9  15  23  35  53  77 107 146 187 226 263
#     4  11  20  31  48  68  93 120 150 187 228 274
#     4   9  16  25  38  55  78 109 148 189 227 263
#     4   9  19  36  54  70  90 116 147 186 232 279
#     4  10  19  30  43  60  86 119 154 187 224 272
#
# _framework density 15.005737999999999
#
# number of rings (size 3 to 8) (size 9 to 14) (size 15 to 20)
#    0.000    2.400    1.000    3.300    0.000    6.000 
#    0.000    1.000    0.000    2.400    0.000    0.000 
#    0.000    0.000    0.000    0.900    0.000   16.700 
#
# Total GULP energy -223043.576252 kJ/mol
# GULP energy per Si atom -5576.089406 kJ/mol
# Density = 1.497158 g / cm^3
# Si number density = 15.005738 Si / 1000 Ang^3
#
#
#
# Elastic Constant Matrix: (Units=GPa)
#
#
# Indices 1 2 3 4 5 6 
#
# 1 90.1971 78.6889 38.4918 0.0000 0.0000 0.0000
# 2 78.6889 167.3855 51.3854 0.0000 0.0000 0.0000
# 3 38.4918 51.3854 42.1599 0.0000 0.0000 0.0000
# 4 0.0000 0.0000 0.0000 12.1654 0.0000 0.0000
# 5 0.0000 0.0000 0.0000 0.0000 17.6135 0.0000
# 6 0.0000 0.0000 0.0000 0.0000 0.0000 29.7220
#
#
#
# Elastic Compliance Matrix: (Units=1/GPa)
#
#
# Indices 1 2 3 4 5 6 
#
# 1 0.022018 -0.006679 -0.011963 0.000000 0.000000 0.000000
# 2 -0.006679 0.011572 -0.008006 0.000000 0.000000 0.000000
# 3 -0.011963 -0.008006 0.044400 0.000000 0.000000 0.000000
# 4 0.000000 0.000000 0.000000 0.082200 0.000000 0.000000
# 5 0.000000 0.000000 0.000000 0.000000 0.056775 0.000000
# 6 0.000000 0.000000 0.000000 0.000000 0.000000 0.033645
#
#
# Mechanical properties :
#
#
# Convention : Reuss Voigt Hill
#
# Bulk Modulus (GPa) = 40.49516 70.76383 55.62950
# Shear Modulus (GPa) = 16.01865 20.64528 18.33196
#
# Velocity S-wave (km/s) = 3.27081 3.71324 3.49902
# Velocity P-wave (km/s) = 6.42723 8.10212 7.31279
#
# Compressibility (1/GPa) = 0.02469431
#
# Stress axis : x y z
#
# Youngs Moduli (GPa) = 45.41660 86.41756 22.52278
#
# Poissons Ratio (x) = 0.57714 0.26943
# Poissons Ratio (y) = 0.30332 0.18033
# Poissons Ratio (z) = 0.54331 0.69189
#
# Static dielectric constant tensor:
#      x y z
#    x 1.497620 0.000000 0.000000 
#    y 0.000000 1.490880 0.000000 
#    z 0.000000 0.000000 1.467720 
# 
# From -- ./inp_files/4026.got.cif
#   From: 2010.05.17/outbox.cif.g08.bks.cpg/sg47_3_cif.got.tgz:4026.got - 2010.06.03 20:15:42.
