data_PCOD9382956
_publ_section_title
;
Structure prediction by ZEFSAII (Michael W. Deem and Ramdas Pophale) SiO2 
 PCOD9382956
Probable space group: P M M M
;
_chemical_formula_sum "Si O2"
_cell_formula_units_Z 36
_cell_length_a 17.095048
_cell_length_b 8.205193
_cell_length_c 17.147818
_cell_angle_alpha 90.000000
_cell_angle_beta 90.000000
_cell_angle_gamma 90.000000
_cell_volume 2405.293019
_symmetry_space_group_name_H-M "P M M M"
_symmetry_group_IT_number 47
_symmetry_cell_setting 'orthorhombic'
loop_
_space_group_symop_operation_xyz
x,y,z
-x,-y,z
x,-y,-z
-x,y,-z
-x,-y,-z
x,y,-z
-x,y,z
x,-y,z
loop_
_atom_site_type_symbol
_atom_site_label
_atom_site_fract_x
_atom_site_fract_y
_atom_site_fract_z
Si Si1 0.827304 0.311693 0.158161
Si Si2 0.905066 0.500000 0.589356
Si Si3 0.500000 0.310295 0.094289
Si Si4 0.907021 0.807094 0.000000
Si Si5 0.906190 0.816577 0.310157
Si Si6 0.669761 0.193236 0.091221
O O1 0.840977 0.500000 0.177377
O O2 0.862473 0.206254 0.228142
O O3 0.736122 0.278725 0.141812
O O4 0.870299 0.268617 0.077460
O O5 0.877662 0.500000 0.500000
O O6 0.882381 0.333670 0.634118
O O7 0.000000 0.500000 0.588021
O O8 0.500000 0.500000 0.115217
O O9 0.581670 0.230264 0.118801
O O10 0.500000 0.297280 0.000000
O O11 0.000000 0.784325 0.000000
O O12 0.889637 0.000000 0.000000
O O13 0.000000 0.802774 0.297190
O O14 0.891542 0.000000 0.340994
O O15 0.683366 0.000000 0.092727
O O16 0.676717 0.246845 0.000000
#
# Coordination Sequence:
#
# PCOD9382956 Si02
#       6
#     8   4   4   4   8   8
#     4  12  22  32  47  66  92 125 164 205 242 280
#     4   9  18  34  54  75  97 120 153 195 237 290
#     4   9  17  29  45  63  85 111 149 198 244 283
#     4  11  23  35  45  60  85 122 167 208 243 279
#     4  10  20  34  51  71  97 128 160 197 243 289
#     4  10  19  31  46  63  86 118 159 201 241 284
#
# _framework density 14.966991999999999
#
# number of rings (size 3 to 8) (size 9 to 14) (size 15 to 20)
#    0.000    1.667    2.222    4.000    0.000    6.222 
#    0.000    2.222    0.000    0.000    0.000    0.000 
#    0.000    0.000    0.000    2.000    0.000    8.000 
#
# Total GULP energy -200878.521372 kJ/mol
# GULP energy per Si atom -5579.958927 kJ/mol
# Density = 1.493293 g / cm^3
# Si number density = 14.966992 Si / 1000 Ang^3
#
#
#
# Elastic Constant Matrix: (Units=GPa)
#
#
# Indices 1 2 3 4 5 6 
#
# 1 44.4724 30.0285 16.0934 0.0000 0.0000 0.0000
# 2 30.0285 85.3326 30.3989 0.0000 0.0000 0.0000
# 3 16.0934 30.3989 71.7210 0.0000 0.0000 0.0000
# 4 0.0000 0.0000 0.0000 11.3106 0.0000 0.0000
# 5 0.0000 0.0000 0.0000 0.0000 1.8734 0.0000
# 6 0.0000 0.0000 0.0000 0.0000 0.0000 24.2869
#
#
#
# Elastic Compliance Matrix: (Units=1/GPa)
#
#
# Indices 1 2 3 4 5 6 
#
# 1 0.029916 -0.009583 -0.002651 0.000000 0.000000 0.000000
# 2 -0.009583 0.016873 -0.005001 0.000000 0.000000 0.000000
# 3 -0.002651 -0.005001 0.016658 0.000000 0.000000 0.000000
# 4 0.000000 0.000000 0.000000 0.088413 0.000000 0.000000
# 5 0.000000 0.000000 0.000000 0.000000 0.533802 0.000000
# 6 0.000000 0.000000 0.000000 0.000000 0.000000 0.041174
#
#
# Mechanical properties :
#
#
# Convention : Reuss Voigt Hill
#
# Bulk Modulus (GPa) = 34.51171 39.39639 36.95405
# Shear Modulus (GPa) = 6.48539 15.82787 11.15663
#
# Velocity S-wave (km/s) = 2.08388 3.25548 2.73319
# Velocity P-wave (km/s) = 5.37575 6.36476 5.89105
#
# Compressibility (1/GPa) = 0.02897567
#
# Stress axis : x y z
#
# Youngs Moduli (GPa) = 33.42728 59.26739 60.03292
#
# Poissons Ratio (x) = 0.56795 0.15915
# Poissons Ratio (y) = 0.32033 0.30024
# Poissons Ratio (z) = 0.08862 0.29641
#
# Static dielectric constant tensor:
#      x y z
#    x 1.492530 0.000000 0.000000 
#    y 0.000000 1.529740 0.000000 
#    z 0.000000 0.000000 1.470140 
# 
# From -- ./inp_files/23273.got.cif
#   From: 2010.05.17/outbox.cif.g08.bks.cpg/sg47_12_cif.got.tgz:23273.got - 2010.06.03 20:15:42.
