data_PCOD9382440
_publ_section_title
;
Structure prediction by ZEFSAII (Michael W. Deem and Ramdas Pophale) SiO2 
 PCOD9382440
Probable space group: P M M M
;
_chemical_formula_sum "Si O2"
_cell_formula_units_Z 64
_cell_length_a 24.560881
_cell_length_b 9.120165
_cell_length_c 19.274861
_cell_angle_alpha 90.000000
_cell_angle_beta 90.000000
_cell_angle_gamma 90.000000
_cell_volume 4317.555126
_symmetry_space_group_name_H-M "P M M M"
_symmetry_group_IT_number 47
_symmetry_cell_setting 'orthorhombic'
loop_
_space_group_symop_operation_xyz
x,y,z
-x,-y,z
x,-y,-z
-x,y,-z
-x,-y,-z
x,y,-z
-x,y,z
x,-y,z
loop_
_atom_site_type_symbol
_atom_site_label
_atom_site_fract_x
_atom_site_fract_y
_atom_site_fract_z
Si Si1 0.721796 0.324730 0.365389
Si Si2 0.329686 0.826622 0.078885
Si Si3 0.170169 0.170229 0.583910
Si Si4 0.561971 0.323805 0.289977
Si Si5 0.673809 0.325623 0.784050
Si Si6 0.060594 0.670879 0.415783
Si Si7 0.614704 0.824668 0.578955
Si Si8 0.559898 0.665352 0.917046
O O1 0.717894 0.500000 0.375484
O O2 0.780348 0.264848 0.386634
O O3 0.708303 0.292170 0.284865
O O4 0.674456 0.244515 0.408834
O O5 0.304280 0.750757 0.146465
O O6 0.392721 0.781863 0.090505
O O7 0.322375 0.000000 0.081165
O O8 0.315090 0.776121 0.000000
O O9 0.172096 0.179991 0.500000
O O10 0.111666 0.233000 0.607123
O O11 0.176239 0.000000 0.602909
O O12 0.500000 0.287655 0.269431
O O13 0.565315 0.500000 0.298789
O O14 0.611149 0.284573 0.237257
O O15 0.576615 0.247101 0.362697
O O16 0.675183 0.500000 0.794466
O O17 0.060203 0.675955 0.500000
O O18 0.068128 0.500000 0.396725
O O19 0.000000 0.718167 0.392847
O O20 0.596967 0.794831 0.500000
O O21 0.617195 0.000000 0.588540
O O22 0.500000 0.705010 0.890590
O O23 0.573369 0.500000 0.890745
O O24 0.555539 0.651142 0.000000
#
# Coordination Sequence:
#
# PCOD9382440 Si02
#       8
#     8   8   8   8   8   8   8   8
#     4  10  20  33  48  64  82 107 142 179 213 252
#     4  10  20  31  44  64  85 102 123 153 191 238
#     4  10  19  28  41  64  91 118 149 184 221 258
#     4   9  19  35  51  65  81 103 133 166 201 248
#     4   9  19  34  49  64  81 104 134 167 204 246
#     4   8  14  25  40  58  83 117 155 191 223 251
#     4  10  20  32  46  65  87 107 130 166 211 256
#     4   8  14  25  40  56  74  97 122 146 175 214
#
# _framework density 14.823204
#
# number of rings (size 3 to 8) (size 9 to 14) (size 15 to 20)
#    0.000    2.750    0.000    3.375    0.000    8.000 
#    0.000    5.000    0.000    0.000    0.000    0.000 
#    0.000    0.000    0.000    0.000    0.000    0.625 
#
# Total GULP energy -356481.766673 kJ/mol
# GULP energy per Si atom -5570.027604 kJ/mol
# Density = 1.478947 g / cm^3
# Si number density = 14.823204 Si / 1000 Ang^3
#
#
#
# Elastic Constant Matrix: (Units=GPa)
#
#
# Indices 1 2 3 4 5 6 
#
# 1 57.2656 18.3724 11.9046 0.0000 0.0000 0.0000
# 2 18.3724 36.7961 32.6699 0.0000 0.0000 0.0000
# 3 11.9046 32.6699 84.5585 0.0000 0.0000 0.0000
# 4 0.0000 0.0000 0.0000 20.9124 0.0000 0.0000
# 5 0.0000 0.0000 0.0000 0.0000 7.6168 0.0000
# 6 0.0000 0.0000 0.0000 0.0000 0.0000 17.0212
#
#
#
# Elastic Compliance Matrix: (Units=1/GPa)
#
#
# Indices 1 2 3 4 5 6 
#
# 1 0.020946 -0.011934 0.001662 0.000000 0.000000 0.000000
# 2 -0.011934 0.048166 -0.016929 0.000000 0.000000 0.000000
# 3 0.001662 -0.016929 0.018133 0.000000 0.000000 0.000000
# 4 0.000000 0.000000 0.000000 0.047819 0.000000 0.000000
# 5 0.000000 0.000000 0.000000 0.000000 0.131289 0.000000
# 6 0.000000 0.000000 0.000000 0.000000 0.000000 0.058750
#
#
# Mechanical properties :
#
#
# Convention : Reuss Voigt Hill
#
# Bulk Modulus (GPa) = 30.44839 33.83489 32.14164
# Shear Modulus (GPa) = 12.80563 16.82161 14.81362
#
# Velocity S-wave (km/s) = 2.94239 3.37236 3.16468
# Velocity P-wave (km/s) = 5.66826 6.16757 5.92318
#
# Compressibility (1/GPa) = 0.03284246
#
# Stress axis : x y z
#
# Youngs Moduli (GPa) = 47.74256 20.76140 55.14813
#
# Poissons Ratio (x) = 0.24776 -0.09165
# Poissons Ratio (y) = 0.56975 0.93362
# Poissons Ratio (z) = -0.07934 0.35148
#
# Static dielectric constant tensor:
#      x y z
#    x 1.488170 0.000000 0.000000 
#    y 0.000000 1.495290 0.000000 
#    z 0.000000 0.000000 1.523230 
# 
# From -- ./inp_files/31569.got.cif
#   From: 2010.05.17/outbox.cif.g08.bks.cpg/sg47_16_cif.got.tgz:31569.got - 2010.06.03 20:15:42.
