data_PCOD9382639
_publ_section_title
;
Structure prediction by ZEFSAII (Michael W. Deem and Ramdas Pophale) SiO2 
 PCOD9382639
Probable space group: P M M M
;
_chemical_formula_sum "Si O2"
_cell_formula_units_Z 52
_cell_length_a 18.707967
_cell_length_b 9.181878
_cell_length_c 25.213881
_cell_angle_alpha 90.000000
_cell_angle_beta 90.000000
_cell_angle_gamma 90.000000
_cell_volume 4331.096018
_symmetry_space_group_name_H-M "P M M M"
_symmetry_group_IT_number 47
_symmetry_cell_setting 'orthorhombic'
loop_
_space_group_symop_operation_xyz
x,y,z
-x,-y,z
x,-y,-z
-x,y,-z
-x,-y,-z
x,y,-z
-x,y,z
x,-y,z
loop_
_atom_site_type_symbol
_atom_site_label
_atom_site_fract_x
_atom_site_fract_y
_atom_site_fract_z
Si Si1 0.000000 0.829074 0.063566
Si Si2 0.578512 0.171119 0.935756
Si Si3 0.868426 0.324705 0.878273
Si Si4 0.277468 0.674405 0.938223
Si Si5 0.086868 0.830058 0.559057
Si Si6 0.086205 0.828269 0.227655
Si Si7 0.086967 0.332989 0.664386
O O1 0.069259 0.749321 0.087105
O O2 0.000000 0.000000 0.079321
O O3 0.000000 0.820728 0.000000
O O4 0.500000 0.223428 0.917336
O O5 0.649008 0.255130 0.917956
O O6 0.584400 0.000000 0.923177
O O7 0.577945 0.183205 0.000000
O O8 0.876851 0.500000 0.878277
O O9 0.791996 0.287695 0.904060
O O10 0.877188 0.260670 0.819487
O O11 0.285029 0.500000 0.937589
O O12 0.266282 0.718505 0.000000
O O13 0.109918 0.782449 0.500000
O O14 0.111767 0.735470 0.608750
O O15 0.000000 0.824561 0.559162
O O16 0.105998 0.000000 0.566023
O O17 0.106827 0.763658 0.284866
O O18 0.000000 0.810580 0.221772
O O19 0.101594 0.000000 0.224308
O O20 0.109957 0.500000 0.670521
O O21 0.000000 0.332659 0.662970
#
# Coordination Sequence:
#
# PCOD9382639 Si02
#       7
#     4   8   8   8   8   8   8
#     4  11  23  35  45  57  71  89 116 147 182 225
#     4   8  14  25  41  60  79  97 115 134 160 198
#     4  11  21  32  45  57  72  92 117 150 185 220
#     4   9  18  30  42  58  77  95 115 139 173 216
#     4   8  13  21  32  46  65  87 108 131 165 208
#     4  10  19  30  42  53  67  86 115 150 183 220
#     4   9  16  24  35  50  66  84 109 139 174 212
#
# _framework density 12.0062
#
# number of rings (size 3 to 8) (size 9 to 14) (size 15 to 20)
#    0.000    2.692    0.769    3.000    0.000    5.538 
#    0.000    4.615    0.000    0.000    0.000    0.000 
#    0.000    0.000    0.000    0.000    0.000    0.000 
#
# Total GULP energy -289581.154604 kJ/mol
# GULP energy per Si atom -5568.868358 kJ/mol
# Density = 1.197887 g / cm^3
# Si number density = 12.006200 Si / 1000 Ang^3
#
#
#
# Elastic Constant Matrix: (Units=GPa)
#
#
# Indices 1 2 3 4 5 6 
#
# 1 74.4711 38.6250 33.8425 0.0000 0.0000 0.0000
# 2 38.6250 61.1646 42.5001 0.0000 0.0000 0.0000
# 3 33.8425 42.5001 78.4838 0.0000 0.0000 0.0000
# 4 0.0000 0.0000 0.0000 19.9912 0.0000 0.0000
# 5 0.0000 0.0000 0.0000 0.0000 1.5678 0.0000
# 6 0.0000 0.0000 0.0000 0.0000 0.0000 13.1410
#
#
#
# Elastic Compliance Matrix: (Units=1/GPa)
#
#
# Indices 1 2 3 4 5 6 
#
# 1 0.020376 -0.010842 -0.002915 0.000000 0.000000 0.000000
# 2 -0.010842 0.031981 -0.012643 0.000000 0.000000 0.000000
# 3 -0.002915 -0.012643 0.020845 0.000000 0.000000 0.000000
# 4 0.000000 0.000000 0.000000 0.050022 0.000000 0.000000
# 5 0.000000 0.000000 0.000000 0.000000 0.637848 0.000000
# 6 0.000000 0.000000 0.000000 0.000000 0.000000 0.076097
#
#
# Mechanical properties :
#
#
# Convention : Reuss Voigt Hill
#
# Bulk Modulus (GPa) = 49.01551 49.33941 49.17746
# Shear Modulus (GPa) = 5.57557 13.55013 9.56285
#
# Velocity S-wave (km/s) = 2.15731 3.36310 2.82528
# Velocity P-wave (km/s) = 6.86434 7.50098 7.18971
#
# Compressibility (1/GPa) = 0.02040171
#
# Stress axis : x y z
#
# Youngs Moduli (GPa) = 49.07757 31.26888 47.97319
#
# Poissons Ratio (x) = 0.33900 0.13986
# Poissons Ratio (y) = 0.53208 0.60653
# Poissons Ratio (z) = 0.14308 0.39534
#
# Static dielectric constant tensor:
#      x y z
#    x 1.368650 0.000000 0.000000 
#    y 0.000000 1.401650 0.000000 
#    z 0.000000 0.000000 1.389600 
# 
# From -- ./inp_files/10105.got.cif
#   From: 2010.05.17/outbox.cif.g08.bks.cpg/sg47_6_cif.got.tgz:10105.got - 2010.06.03 20:15:42.
