data_PCOD9382080
_publ_section_title
;
Structure prediction by ZEFSAII (Michael W. Deem and Ramdas Pophale) SiO2 
 PCOD9382080
Probable space group: P M M M
;
_chemical_formula_sum "Si O2"
_cell_formula_units_Z 64
_cell_length_a 8.872455
_cell_length_b 20.391864
_cell_length_c 20.093223
_cell_angle_alpha 90.000000
_cell_angle_beta 90.000000
_cell_angle_gamma 90.000000
_cell_volume 3635.384369
_symmetry_space_group_name_H-M "P M M M"
_symmetry_group_IT_number 47
_symmetry_cell_setting 'orthorhombic'
loop_
_space_group_symop_operation_xyz
x,y,z
-x,-y,z
x,-y,-z
-x,y,-z
-x,-y,-z
x,y,-z
-x,y,z
x,-y,z
loop_
_atom_site_type_symbol
_atom_site_label
_atom_site_fract_x
_atom_site_fract_y
_atom_site_fract_z
Si Si1 0.820327 0.426502 0.720136
Si Si2 0.670877 0.928428 0.236546
Si Si3 0.822777 0.074115 0.098666
Si Si4 0.677546 0.403047 0.424644
Si Si5 0.669860 0.200123 0.682530
Si Si6 0.324128 0.305816 0.199105
Si Si7 0.167753 0.267618 0.427052
Si Si8 0.680673 0.783287 0.074503
O O1 0.788157 0.500000 0.746261
O O2 0.755212 0.425003 0.644248
O O3 0.755292 0.369648 0.768408
O O4 0.000000 0.417728 0.715677
O O5 0.500000 0.920995 0.207451
O O6 0.789180 0.924926 0.177316
O O7 0.690580 0.871207 0.287990
O O8 0.678681 0.000000 0.267698
O O9 0.746584 0.142462 0.076469
O O10 0.000000 0.077387 0.083853
O O11 0.769921 0.000000 0.076862
O O12 0.728621 0.424565 0.500000
O O13 0.500000 0.417092 0.420476
O O14 0.711473 0.325597 0.423622
O O15 0.500000 0.206001 0.654658
O O16 0.681208 0.251254 0.743021
O O17 0.794162 0.217122 0.629308
O O18 0.500000 0.322808 0.187202
O O19 0.266564 0.267126 0.132717
O O20 0.174354 0.237632 0.500000
O O21 0.000000 0.296596 0.418356
O O22 0.500000 0.789451 0.083559
O O23 0.710600 0.757266 0.000000
#
# Coordination Sequence:
#
# PCOD9382080 Si02
#       8
#     8   8   8   8   8   8   8   8
#     4  11  24  39  56  80 109 143 180 216 259 311
#     4   9  17  31  51  74 103 138 176 218 263 311
#     4  10  20  32  48  75 112 149 182 216 256 307
#     4  10  20  34  53  78 109 144 179 214 256 307
#     4  10  18  30  52  79 103 132 173 221 266 309
#     4  10  20  36  57  83 108 133 173 220 264 312
#     4  10  20  32  48  73 104 138 176 216 260 310
#     4  10  21  38  59  81 107 141 180 221 266 316
#
# _framework density 17.604741000000001
#
# number of rings (size 3 to 8) (size 9 to 14) (size 15 to 20)
#    0.000    2.000    2.500    1.500    0.000    5.000 
#    0.000    2.500    0.000    0.750    0.000    5.250 
#    0.000    0.000    0.000    0.000    0.000    0.000 
#
# Total GULP energy -356385.162644 kJ/mol
# GULP energy per Si atom -5568.518166 kJ/mol
# Density = 1.756467 g / cm^3
# Si number density = 17.604741 Si / 1000 Ang^3
#
#
#
# Elastic Constant Matrix: (Units=GPa)
#
#
# Indices 1 2 3 4 5 6 
#
# 1 42.7863 38.0387 36.4429 0.0000 0.0000 0.0000
# 2 38.0387 118.2612 58.9723 0.0000 0.0000 0.0000
# 3 36.4429 58.9723 88.4109 0.0000 0.0000 0.0000
# 4 0.0000 0.0000 0.0000 13.3511 0.0000 0.0000
# 5 0.0000 0.0000 0.0000 0.0000 -2.1086 0.0000
# 6 0.0000 0.0000 0.0000 0.0000 0.0000 -51.0760
#
#
#
# Elastic Compliance Matrix: (Units=1/GPa)
#
#
# Indices 1 2 3 4 5 6 
#
# 1 0.039407 -0.006856 -0.011671 0.000000 0.000000 0.000000
# 2 -0.006856 0.013863 -0.006421 0.000000 0.000000 0.000000
# 3 -0.011671 -0.006421 0.020405 0.000000 0.000000 0.000000
# 4 0.000000 0.000000 0.000000 0.074900 0.000000 0.000000
# 5 0.000000 0.000000 0.000000 0.000000 -0.474258 0.000000
# 6 0.000000 0.000000 0.000000 0.000000 0.000000 -0.019579
#
#
# Mechanical properties :
#
#
# Convention : Reuss Voigt Hill
#
# Bulk Modulus (GPa) = 42.05237 57.37402 49.71320
# Shear Modulus (GPa) = -17.39491 -0.23306 -8.81398
#
# Velocity S-wave (km/s) = -3.14679 -0.36424 -2.23997
# Velocity P-wave (km/s) = 3.27655 5.69947 4.64864
#
# Compressibility (1/GPa) = 0.02377987
#
# Stress axis : x y z
#
# Youngs Moduli (GPa) = 25.37599 72.13508 49.00877
#
# Poissons Ratio (x) = 0.49453 0.57197
# Poissons Ratio (y) = 0.17397 0.31469
# Poissons Ratio (z) = 0.29616 0.46318
#
# Static dielectric constant tensor:
#      x y z
#    x 1.629180 0.000000 0.000000 
#    y 0.000000 1.604990 0.000000 
#    z 0.000000 0.000000 1.613550 
# 
# From -- ./inp_files/27023.got.cif
#   From: 2010.05.17/outbox.cif.g08.bks.cpg/sg47_14_cif.got.tgz:27023.got - 2010.06.03 20:15:42.
