data_PCOD9382861
_publ_section_title
;
Structure prediction by ZEFSAII (Michael W. Deem and Ramdas Pophale) SiO2 
 PCOD9382861
Probable space group: P M M M
;
_chemical_formula_sum "Si O2"
_cell_formula_units_Z 40
_cell_length_a 9.518052
_cell_length_b 7.461224
_cell_length_c 30.573321
_cell_angle_alpha 90.000000
_cell_angle_beta 90.000000
_cell_angle_gamma 90.000000
_cell_volume 2171.204687
_symmetry_space_group_name_H-M "P M M M"
_symmetry_group_IT_number 47
_symmetry_cell_setting 'orthorhombic'
loop_
_space_group_symop_operation_xyz
x,y,z
-x,-y,z
x,-y,-z
-x,y,-z
-x,-y,-z
x,y,-z
-x,y,z
x,-y,z
loop_
_atom_site_type_symbol
_atom_site_label
_atom_site_fract_x
_atom_site_fract_y
_atom_site_fract_z
Si Si1 0.667316 0.000000 0.290941
Si Si2 0.337660 0.718486 0.048961
Si Si3 0.829342 0.706112 0.548695
Si Si4 0.665706 0.711733 0.782189
Si Si5 0.161107 0.281209 0.867714
Si Si6 0.829691 0.000000 0.381576
O O1 0.698586 0.828382 0.260385
O O2 0.755779 0.000000 0.335012
O O3 0.500000 0.000000 0.300372
O O4 0.500000 0.771295 0.055809
O O5 0.335623 0.500000 0.049210
O O6 0.240221 0.779422 0.088473
O O7 0.294558 0.774521 0.000000
O O8 0.784417 0.767016 0.500000
O O9 0.786323 0.500000 0.554276
O O10 0.000000 0.710215 0.548142
O O11 0.786804 0.830442 0.588633
O O12 0.500000 0.736195 0.792053
O O13 0.689598 0.500000 0.774682
O O14 0.755471 0.770452 0.824066
O O15 0.162544 0.500000 0.868435
O O16 0.000000 0.223381 0.866640
O O17 0.000000 0.000000 0.376761
#
# Coordination Sequence:
#
# PCOD9382861 Si02
#       6
#     4   8   8   8   8   4
#     4  10  22  37  51  71  97 127 164 200 241 293
#     4   8  13  21  34  55  86 123 159 192 228 278
#     4   8  14  26  46  73 103 133 166 202 237 277
#     4   9  18  34  53  68  87 120 160 199 237 283
#     4   9  16  25  40  64  91 118 151 194 243 289
#     4  10  19  30  48  74 100 127 161 202 245 284
#
# _framework density 18.422951999999999
#
# number of rings (size 3 to 8) (size 9 to 14) (size 15 to 20)
#    0.000    3.200    0.000    2.100    0.000    5.600 
#    0.000    2.000    0.000    1.200    0.000    2.100 
#    0.000    5.600    0.000    0.600    0.000    0.000 
#
# Total GULP energy -223052.007203 kJ/mol
# GULP energy per Si atom -5576.300180 kJ/mol
# Density = 1.838102 g / cm^3
# Si number density = 18.422952 Si / 1000 Ang^3
#
#
#
# Elastic Constant Matrix: (Units=GPa)
#
#
# Indices 1 2 3 4 5 6 
#
# 1 68.5089 38.2808 100.3858 0.0000 0.0000 0.0000
# 2 38.2808 74.0150 70.1328 0.0000 0.0000 0.0000
# 3 100.3858 70.1328 219.3013 0.0000 0.0000 0.0000
# 4 0.0000 0.0000 0.0000 -171.8134 0.0000 0.0000
# 5 0.0000 0.0000 0.0000 0.0000 39.0764 0.0000
# 6 0.0000 0.0000 0.0000 0.0000 0.0000 3.9042
#
#
#
# Elastic Compliance Matrix: (Units=1/GPa)
#
#
# Indices 1 2 3 4 5 6 
#
# 1 0.045835 -0.005489 -0.019226 0.000000 0.000000 0.000000
# 2 -0.005489 0.020042 -0.003897 0.000000 0.000000 0.000000
# 3 -0.019226 -0.003897 0.014607 0.000000 0.000000 0.000000
# 4 0.000000 0.000000 0.000000 -0.005820 0.000000 0.000000
# 5 0.000000 0.000000 0.000000 0.000000 0.025591 0.000000
# 6 0.000000 0.000000 0.000000 0.000000 0.000000 0.256131
#
#
# Mechanical properties :
#
#
# Convention : Reuss Voigt Hill
#
# Bulk Modulus (GPa) = 42.99032 86.60269 64.79651
# Shear Modulus (GPa) = 11.86625 -15.56482 -1.84929
#
# Velocity S-wave (km/s) = 2.54067 -2.90980 -1.00298
# Velocity P-wave (km/s) = 5.65619 5.98505 5.82294
#
# Compressibility (1/GPa) = 0.02326105
#
# Stress axis : x y z
#
# Youngs Moduli (GPa) = 21.81730 49.89477 68.46065
#
# Poissons Ratio (x) = 0.27385 1.31622
# Poissons Ratio (y) = 0.11975 0.26680
# Poissons Ratio (z) = 0.41946 0.19444
#
# Static dielectric constant tensor:
#      x y z
#    x 1.611040 0.000000 0.000000 
#    y 0.000000 1.690710 0.000000 
#    z 0.000000 0.000000 1.599960 
# 
# From -- ./inp_files/33060.got.cif
#   From: 2010.05.17/outbox.cif.g08.bks.cpg/sg47_17_cif.got.tgz:33060.got - 2010.06.03 20:15:42.
