data_PCOD9382516
_publ_section_title
;
Structure prediction by ZEFSAII (Michael W. Deem and Ramdas Pophale) SiO2 
 PCOD9382516
Probable space group: P M M M
;
_chemical_formula_sum "Si O2"
_cell_formula_units_Z 52
_cell_length_a 14.291369
_cell_length_b 27.582012
_cell_length_c 7.874496
_cell_angle_alpha 90.000000
_cell_angle_beta 90.000000
_cell_angle_gamma 90.000000
_cell_volume 3104.005932
_symmetry_space_group_name_H-M "P M M M"
_symmetry_group_IT_number 47
_symmetry_cell_setting 'orthorhombic'
loop_
_space_group_symop_operation_xyz
x,y,z
-x,-y,z
x,-y,-z
-x,y,-z
-x,-y,-z
x,y,-z
-x,y,z
x,-y,z
loop_
_atom_site_type_symbol
_atom_site_label
_atom_site_fract_x
_atom_site_fract_y
_atom_site_fract_z
Si Si1 0.605504 0.255270 0.295762
Si Si2 0.894346 0.703831 0.795317
Si Si3 0.785347 0.200960 0.202018
Si Si4 0.893387 0.105185 0.295744
Si Si5 0.285468 0.648999 0.704494
Si Si6 0.391738 0.445501 0.292683
Si Si7 0.886210 0.000000 0.304025
O O1 0.601269 0.258535 0.500000
O O2 0.500000 0.248362 0.232137
O O3 0.679467 0.213391 0.253197
O O4 0.650935 0.305887 0.233000
O O5 0.849720 0.754557 0.731010
O O6 0.820770 0.662074 0.749444
O O7 0.000000 0.697045 0.732783
O O8 0.897660 0.706507 0.000000
O O9 0.826173 0.149664 0.257120
O O10 0.790264 0.202741 0.000000
O O11 0.898672 0.100511 0.500000
O O12 0.861018 0.052382 0.228288
O O13 0.000000 0.115025 0.234782
O O14 0.292512 0.648628 0.500000
O O15 0.325578 0.597892 0.766981
O O16 0.389653 0.445595 0.500000
O O17 0.500000 0.436326 0.244838
O O18 0.366211 0.500000 0.237345
O O19 0.853076 0.000000 0.500000
O O20 0.000000 0.000000 0.307324
#
# Coordination Sequence:
#
# PCOD9382516 Si02
#       7
#     8   8   8   8   8   8   4
#     4   9  17  29  44  62  85 111 139 172 208 247
#     4   9  18  31  43  56  80 114 145 171 204 246
#     4  10  19  29  42  62  87 113 141 173 210 251
#     4   9  16  27  44  64  87 115 145 175 206 243
#     4   9  16  26  43  66  86 105 135 173 207 241
#     4   8  13  22  39  64  90 111 130 158 203 255
#     4   7  12  24  41  61  84 111 142 173 205 242
#
# _framework density 16.752545999999999
#
# number of rings (size 3 to 8) (size 9 to 14) (size 15 to 20)
#    0.000    3.154    0.000    2.769    0.000    4.000 
#    0.000    0.385    0.000    3.692    0.000    4.846 
#    0.000    4.308    0.000    0.000    0.000    0.000 
#
# Total GULP energy -289618.026181 kJ/mol
# GULP energy per Si atom -5569.577427 kJ/mol
# Density = 1.671442 g / cm^3
# Si number density = 16.752546 Si / 1000 Ang^3
#
#
#
# Elastic Constant Matrix: (Units=GPa)
#
#
# Indices 1 2 3 4 5 6 
#
# 1 140.4795 93.9080 7.5711 0.0000 0.0000 0.0000
# 2 93.9080 148.1218 6.0255 0.0000 0.0000 0.0000
# 3 7.5711 6.0255 17.2445 0.0000 0.0000 0.0000
# 4 0.0000 0.0000 0.0000 1.8235 0.0000 0.0000
# 5 0.0000 0.0000 0.0000 0.0000 -1.8241 0.0000
# 6 0.0000 0.0000 0.0000 0.0000 0.0000 25.4840
#
#
#
# Elastic Compliance Matrix: (Units=1/GPa)
#
#
# Indices 1 2 3 4 5 6 
#
# 1 0.012482 -0.007801 -0.002754 0.000000 0.000000 0.000000
# 2 -0.007801 0.011725 -0.000672 0.000000 0.000000 0.000000
# 3 -0.002754 -0.000672 0.059433 0.000000 0.000000 0.000000
# 4 0.000000 0.000000 0.000000 0.548400 0.000000 0.000000
# 5 0.000000 0.000000 0.000000 0.000000 -0.548206 0.000000
# 6 0.000000 0.000000 0.000000 0.000000 0.000000 0.039240
#
#
# Mechanical properties :
#
#
# Convention : Reuss Voigt Hill
#
# Bulk Modulus (GPa) = 16.34373 57.87278 37.10826
# Shear Modulus (GPa) = 30.13427 18.31942 24.22685
#
# Velocity S-wave (km/s) = 4.24581 3.31044 3.80697
# Velocity P-wave (km/s) = 5.81490 7.01660 6.44383
#
# Compressibility (1/GPa) = 0.06118554
#
# Stress axis : x y z
#
# Youngs Moduli (GPa) = 80.11490 85.29078 16.82555
#
# Poissons Ratio (x) = 0.66540 0.04634
# Poissons Ratio (y) = 0.62502 0.01130
# Poissons Ratio (z) = 0.22065 0.05728
#
# Static dielectric constant tensor:
#      x y z
#    x 1.553350 0.000000 0.000000 
#    y 0.000000 1.586870 0.000000 
#    z 0.000000 0.000000 1.607140 
# 
# From -- ./inp_files/7693.got.cif
#   From: 2010.05.17/outbox.cif.g08.bks.cpg/sg47_4_cif.got.tgz:7693.got - 2010.06.03 20:15:42.
