data_PCOD9382843
_publ_section_title
;
Structure prediction by ZEFSAII (Michael W. Deem and Ramdas Pophale) SiO2 
 PCOD9382843
Probable space group: P M M M
;
_chemical_formula_sum "Si O2"
_cell_formula_units_Z 48
_cell_length_a 15.264481
_cell_length_b 19.835256
_cell_length_c 7.796710
_cell_angle_alpha 90.000000
_cell_angle_beta 90.000000
_cell_angle_gamma 90.000000
_cell_volume 2360.648000
_symmetry_space_group_name_H-M "P M M M"
_symmetry_group_IT_number 47
_symmetry_cell_setting 'orthorhombic'
loop_
_space_group_symop_operation_xyz
x,y,z
-x,-y,z
x,-y,-z
-x,y,-z
-x,-y,-z
x,y,-z
-x,y,z
x,-y,z
loop_
_atom_site_type_symbol
_atom_site_label
_atom_site_fract_x
_atom_site_fract_y
_atom_site_fract_z
Si Si1 0.904784 0.716869 0.207500
Si Si2 0.098659 0.076757 0.205497
Si Si3 0.349016 0.574451 0.206177
Si Si4 0.242562 0.814375 0.307081
Si Si5 0.402698 0.273297 0.706164
Si Si6 0.857136 0.571551 0.208192
O O1 0.827282 0.754019 0.300348
O O2 0.903150 0.639325 0.261548
O O3 0.000000 0.746433 0.242332
O O4 0.890606 0.721135 0.000000
O O5 0.181992 0.124385 0.240695
O O6 0.000000 0.097085 0.268077
O O7 0.092138 0.075524 0.000000
O O8 0.382638 0.500000 0.266911
O O9 0.386635 0.646765 0.260861
O O10 0.245804 0.576259 0.250343
O O11 0.356602 0.573188 0.000000
O O12 0.266761 0.833342 0.500000
O O13 0.328529 0.778598 0.225075
O O14 0.113711 0.000000 0.266111
O O15 0.400782 0.266795 0.500000
O O16 0.500000 0.256494 0.769357
O O17 0.891113 0.500000 0.271927
O O18 0.863027 0.570471 0.000000
#
# Coordination Sequence:
#
# PCOD9382843 Si02
#       6
#     8   8   8   8   8   8
#     4  10  19  30  48  73 100 134 173 210 253 310
#     4   9  19  37  61  88 116 144 171 199 238 295
#     4   9  17  31  52  75  98 127 170 228 285 327
#     4  11  22  35  53  77 106 139 172 213 259 301
#     4  10  22  38  53  72 101 139 182 223 266 318
#     4   8  14  26  44  66  93 125 164 212 259 302
#
# _framework density 20.333400000000001
#
# number of rings (size 3 to 8) (size 9 to 14) (size 15 to 20)
#    0.000    2.500    1.667    2.500    0.000    5.000 
#    0.000    4.167    0.000    1.000    0.000    4.667 
#    0.000    0.000    0.000    0.000    0.000    0.000 
#
# Total GULP energy -267315.352509 kJ/mol
# GULP energy per Si atom -5569.069844 kJ/mol
# Density = 2.028712 g / cm^3
# Si number density = 20.333400 Si / 1000 Ang^3
#
#
#
# Elastic Constant Matrix: (Units=GPa)
#
#
# Indices 1 2 3 4 5 6 
#
# 1 131.7163 77.5678 16.1627 0.0000 0.0000 0.0000
# 2 77.5678 150.9594 7.2055 0.0000 0.0000 0.0000
# 3 16.1627 7.2055 23.5590 0.0000 0.0000 0.0000
# 4 0.0000 0.0000 0.0000 34.5186 0.0000 0.0000
# 5 0.0000 0.0000 0.0000 0.0000 10.5999 0.0000
# 6 0.0000 0.0000 0.0000 0.0000 0.0000 210.9281
#
#
#
# Elastic Compliance Matrix: (Units=1/GPa)
#
#
# Indices 1 2 3 4 5 6 
#
# 1 0.011741 -0.005732 -0.006302 0.000000 0.000000 0.000000
# 2 -0.005732 0.009521 0.001021 0.000000 0.000000 0.000000
# 3 -0.006302 0.001021 0.046458 0.000000 0.000000 0.000000
# 4 0.000000 0.000000 0.000000 0.028970 0.000000 0.000000
# 5 0.000000 0.000000 0.000000 0.000000 0.094341 0.000000
# 6 0.000000 0.000000 0.000000 0.000000 0.000000 0.004741
#
#
# Mechanical properties :
#
#
# Convention : Reuss Voigt Hill
#
# Bulk Modulus (GPa) = 21.88516 56.45629 39.17073
# Shear Modulus (GPa) = 21.45655 64.89590 43.17623
#
# Velocity S-wave (km/s) = 3.25197 5.65555 4.61305
# Velocity P-wave (km/s) = 4.98868 8.39479 6.90505
#
# Compressibility (1/GPa) = 0.04569306
#
# Stress axis : x y z
#
# Youngs Moduli (GPa) = 85.17162 105.03175 21.52493
#
# Poissons Ratio (x) = 0.60205 0.13565
# Poissons Ratio (y) = 0.48821 -0.02197
# Poissons Ratio (z) = 0.53673 -0.10719
#
# Static dielectric constant tensor:
#      x y z
#    x 1.732360 0.000000 0.000000 
#    y 0.000000 1.755230 0.000000 
#    z 0.000000 0.000000 1.787490 
# 
# From -- ./inp_files/6329.got.cif
#   From: 2010.05.17/outbox.cif.g08.bks.cpg/sg47_4_cif.got.tgz:6329.got - 2010.06.03 20:15:42.
