data_PCOD9382845
_publ_section_title
;
Structure prediction by ZEFSAII (Michael W. Deem and Ramdas Pophale) SiO2 
 PCOD9382845
Probable space group: P M M M
;
_chemical_formula_sum "Si O2"
_cell_formula_units_Z 64
_cell_length_a 29.688245
_cell_length_b 14.471908
_cell_length_c 7.385291
_cell_angle_alpha 90.000000
_cell_angle_beta 90.000000
_cell_angle_gamma 90.000000
_cell_volume 3173.057416
_symmetry_space_group_name_H-M "P M M M"
_symmetry_group_IT_number 47
_symmetry_cell_setting 'orthorhombic'
loop_
_space_group_symop_operation_xyz
x,y,z
-x,-y,z
x,-y,-z
-x,y,-z
-x,-y,-z
x,y,-z
-x,y,z
x,-y,z
loop_
_atom_site_type_symbol
_atom_site_label
_atom_site_fract_x
_atom_site_fract_y
_atom_site_fract_z
Si Si1 0.868945 0.769749 0.289751
Si Si2 0.193583 0.606684 0.277949
Si Si3 0.623403 0.753539 0.292389
Si Si4 0.783427 0.894375 0.782288
Si Si5 0.051876 0.895288 0.278982
Si Si6 0.549903 0.107329 0.279374
Si Si7 0.278265 0.275948 0.710113
Si Si8 0.450311 0.607352 0.781424
O O1 0.878667 0.750180 0.500000
O O2 0.846218 0.676015 0.216146
O O3 0.829795 0.847105 0.280035
O O4 0.913492 0.817783 0.212594
O O5 0.193580 0.609665 0.500000
O O6 0.189093 0.500000 0.224567
O O7 0.240715 0.653162 0.216240
O O8 0.632816 0.782344 0.500000
O O9 0.591607 0.832894 0.211046
O O10 0.671781 0.729817 0.209643
O O11 0.590694 0.665753 0.292253
O O12 0.744189 0.825300 0.720305
O O13 0.779014 0.000000 0.720555
O O14 0.783481 0.894035 0.000000
O O15 0.053251 0.894920 0.500000
O O16 0.000000 0.879538 0.226626
O O17 0.064757 0.000000 0.223668
O O18 0.549764 0.113522 0.500000
O O19 0.500000 0.138513 0.219089
O O20 0.554665 0.000000 0.232576
O O21 0.283446 0.303266 0.500000
O O22 0.500000 0.640160 0.721751
O O23 0.446514 0.500000 0.732707
O O24 0.449123 0.613328 0.000000
#
# Coordination Sequence:
#
# PCOD9382845 Si02
#       8
#     8   8   8   8   8   8   8   8
#     4   9  16  27  46  68  87 115 156 193 225 268
#     4   8  14  26  43  61  83 112 146 185 227 267
#     4  10  19  30  48  73  93 111 144 190 232 266
#     4  10  20  32  46  65  91 122 153 188 228 265
#     4   8  13  21  36  62  93 119 145 183 229 274
#     4   8  14  25  41  62  88 114 137 166 211 264
#     4   9  19  32  46  67  91 117 149 183 224 275
#     4   9  19  35  51  67  91 124 156 182 217 271
#
# _framework density 20.169820999999999
#
# number of rings (size 3 to 8) (size 9 to 14) (size 15 to 20)
#    0.000    3.125    0.000    3.000    0.000    4.000 
#    0.000    3.125    0.000    7.125    0.000    6.125 
#    0.000    0.000    0.000    4.500    0.000    5.500 
#
# Total GULP energy -356885.588922 kJ/mol
# GULP energy per Si atom -5576.337327 kJ/mol
# Density = 2.012391 g / cm^3
# Si number density = 20.169821 Si / 1000 Ang^3
#
#
#
# Elastic Constant Matrix: (Units=GPa)
#
#
# Indices 1 2 3 4 5 6 
#
# 1 161.3115 100.1537 1.9204 0.0000 0.0000 0.0000
# 2 100.1537 153.8451 -2.6630 0.0000 0.0000 0.0000
# 3 1.9204 -2.6630 71.3748 0.0000 0.0000 0.0000
# 4 0.0000 0.0000 0.0000 13.9950 0.0000 0.0000
# 5 0.0000 0.0000 0.0000 0.0000 -1.2406 0.0000
# 6 0.0000 0.0000 0.0000 0.0000 0.0000 28.5643
#
#
#
# Elastic Compliance Matrix: (Units=1/GPa)
#
#
# Indices 1 2 3 4 5 6 
#
# 1 0.010425 -0.006796 -0.000534 0.000000 0.000000 0.000000
# 2 -0.006796 0.010934 0.000591 0.000000 0.000000 0.000000
# 3 -0.000534 0.000591 0.014047 0.000000 0.000000 0.000000
# 4 0.000000 0.000000 0.000000 0.071454 0.000000 0.000000
# 5 0.000000 0.000000 0.000000 0.000000 -0.806072 0.000000
# 6 0.000000 0.000000 0.000000 0.000000 0.000000 0.035009
#
#
# Mechanical properties :
#
#
# Convention : Reuss Voigt Hill
#
# Bulk Modulus (GPa) = 45.60371 65.03927 55.32149
# Shear Modulus (GPa) = -7.77102 27.40511 9.81704
#
# Velocity S-wave (km/s) = -1.96498 3.69008 2.20857
# Velocity P-wave (km/s) = 4.18458 7.10432 5.83019
#
# Compressibility (1/GPa) = 0.02192804
#
# Stress axis : x y z
#
# Youngs Moduli (GPa) = 95.92395 91.45426 71.18980
#
# Poissons Ratio (x) = 0.62151 0.03802
# Poissons Ratio (y) = 0.65189 -0.04206
# Poissons Ratio (z) = 0.05123 -0.05403
#
# Static dielectric constant tensor:
#      x y z
#    x 1.708850 0.000000 0.000000 
#    y 0.000000 1.693950 0.000000 
#    z 0.000000 0.000000 1.752690 
# 
# From -- ./inp_files/14306.got.cif
#   From: 2010.05.17/outbox.cif.g08.bks.cpg/sg47_8_cif.got.tgz:14306.got - 2010.06.03 20:15:42.
