data_PCOD9382763
_publ_section_title
;
Structure prediction by ZEFSAII (Michael W. Deem and Ramdas Pophale) SiO2 
 PCOD9382763
Probable space group: P M M M
;
_chemical_formula_sum "Si O2"
_cell_formula_units_Z 48
_cell_length_a 15.910148
_cell_length_b 7.550584
_cell_length_c 19.368808
_cell_angle_alpha 90.000000
_cell_angle_beta 90.000000
_cell_angle_gamma 90.000000
_cell_volume 2326.792510
_symmetry_space_group_name_H-M "P M M M"
_symmetry_group_IT_number 47
_symmetry_cell_setting 'orthorhombic'
loop_
_space_group_symop_operation_xyz
x,y,z
-x,-y,z
x,-y,-z
-x,y,-z
-x,-y,-z
x,y,-z
-x,y,z
x,-y,z
loop_
_atom_site_type_symbol
_atom_site_label
_atom_site_fract_x
_atom_site_fract_y
_atom_site_fract_z
Si Si1 0.750256 0.707812 0.833048
Si Si2 0.746663 0.207590 0.673920
Si Si3 0.594890 0.716096 0.920700
Si Si4 0.904757 0.286257 0.421217
Si Si5 0.595117 0.783806 0.420617
Si Si6 0.094577 0.283822 0.079367
O O1 0.750041 0.500000 0.850682
O O2 0.752220 0.720723 0.750988
O O3 0.665556 0.780498 0.867948
O O4 0.833956 0.781391 0.869023
O O5 0.832422 0.231246 0.631110
O O6 0.668313 0.280880 0.629681
O O7 0.731403 0.000000 0.681638
O O8 0.500000 0.775552 0.904746
O O9 0.592985 0.500000 0.918890
O O10 0.615072 0.764855 0.000000
O O11 0.886462 0.227246 0.500000
O O12 0.905686 0.500000 0.421835
O O13 0.000000 0.227982 0.403497
O O14 0.610585 0.729513 0.500000
O O15 0.500000 0.730662 0.401312
O O16 0.596567 0.000000 0.420471
O O17 0.092865 0.500000 0.081383
O O18 0.000000 0.224679 0.096372
O O19 0.113480 0.235197 0.000000
#
# Coordination Sequence:
#
# PCOD9382763 Si02
#       6
#     8   8   8   8   8   8
#     4  10  19  30  46  69  97 129 161 196 244 299
#     4  11  22  33  48  74 106 137 167 201 243 293
#     4   8  14  26  46  71  95 121 161 214 263 301
#     4   9  19  37  59  79  99 127 164 205 249 296
#     4   8  15  30  51  71  91 121 164 208 244 280
#     4   8  14  26  46  70  90 111 150 202 243 276
#
# _framework density 20.629256000000002
#
# number of rings (size 3 to 8) (size 9 to 14) (size 15 to 20)
#    0.000    3.000    0.000    3.500    0.000    4.667 
#    0.000    2.500    0.000    3.500    0.000    8.167 
#    0.000    0.000    0.000    0.000    0.000    0.000 
#
# Total GULP energy -267827.877492 kJ/mol
# GULP energy per Si atom -5579.747448 kJ/mol
# Density = 2.058230 g / cm^3
# Si number density = 20.629256 Si / 1000 Ang^3
#
#
#
# Elastic Constant Matrix: (Units=GPa)
#
#
# Indices 1 2 3 4 5 6 
#
# 1 186.7093 -2.9751 133.8345 0.0000 0.0000 0.0000
# 2 -2.9751 44.5176 -9.3771 0.0000 0.0000 0.0000
# 3 133.8345 -9.3771 136.5006 0.0000 0.0000 0.0000
# 4 0.0000 0.0000 0.0000 43.8827 0.0000 0.0000
# 5 0.0000 0.0000 0.0000 0.0000 -1.9903 0.0000
# 6 0.0000 0.0000 0.0000 0.0000 0.0000 -6.6465
#
#
#
# Elastic Compliance Matrix: (Units=1/GPa)
#
#
# Indices 1 2 3 4 5 6 
#
# 1 0.018313 -0.002596 -0.018133 0.000000 0.000000 0.000000
# 2 -0.002596 0.023161 0.004136 0.000000 0.000000 0.000000
# 3 -0.018133 0.004136 0.025389 0.000000 0.000000 0.000000
# 4 0.000000 0.000000 0.000000 0.022788 0.000000 0.000000
# 5 0.000000 0.000000 0.000000 0.000000 -0.502432 0.000000
# 6 0.000000 0.000000 0.000000 0.000000 0.000000 -0.150455
#
#
# Mechanical properties :
#
#
# Convention : Reuss Voigt Hill
#
# Bulk Modulus (GPa) = 29.69402 67.85467 48.77434
# Shear Modulus (GPa) = -9.63716 23.46552 6.91418
#
# Velocity S-wave (km/s) = -2.16373 3.37632 1.83273
# Velocity P-wave (km/s) = 2.86060 6.93998 5.30784
#
# Compressibility (1/GPa) = 0.03367682
#
# Stress axis : x y z
#
# Youngs Moduli (GPa) = 54.60718 43.17643 39.38681
#
# Poissons Ratio (x) = 0.11207 0.71421
# Poissons Ratio (y) = 0.14175 -0.16291
# Poissons Ratio (z) = 0.99021 -0.17858
#
# Static dielectric constant tensor:
#      x y z
#    x 1.740740 0.000000 0.000000 
#    y 0.000000 1.800690 0.000000 
#    z 0.000000 0.000000 1.757760 
# 
# From -- ./inp_files/21033.got.cif
#   From: 2010.05.17/outbox.cif.g08.bks.cpg/sg47_11_cif.got.tgz:21033.got - 2010.06.03 20:15:42.
