data_PCOD9382760
_publ_section_title
;
Structure prediction by ZEFSAII (Michael W. Deem and Ramdas Pophale) SiO2 
 PCOD9382760
Probable space group: P M M M
;
_chemical_formula_sum "Si O2"
_cell_formula_units_Z 52
_cell_length_a 7.660909
_cell_length_b 23.725448
_cell_length_c 14.910749
_cell_angle_alpha 90.000000
_cell_angle_beta 90.000000
_cell_angle_gamma 90.000000
_cell_volume 2710.155344
_symmetry_space_group_name_H-M "P M M M"
_symmetry_group_IT_number 47
_symmetry_cell_setting 'orthorhombic'
loop_
_space_group_symop_operation_xyz
x,y,z
-x,-y,z
x,-y,-z
-x,y,-z
-x,-y,-z
x,y,-z
-x,y,z
x,-y,z
loop_
_atom_site_type_symbol
_atom_site_label
_atom_site_fract_x
_atom_site_fract_y
_atom_site_fract_z
Si Si1 0.707542 0.353552 0.099500
Si Si2 0.212930 0.064026 0.602659
Si Si3 0.293069 0.612488 0.289451
Si Si4 0.207504 0.275775 0.600850
Si Si5 0.207522 0.500000 0.398163
Si Si6 0.785859 0.169668 0.282792
Si Si7 0.211230 0.221822 0.900207
O O1 0.500000 0.364257 0.094983
O O2 0.778746 0.384845 0.187590
O O3 0.733460 0.286628 0.114972
O O4 0.780200 0.366713 0.000000
O O5 0.264575 0.077621 0.500000
O O6 0.271560 0.111491 0.672014
O O7 0.000000 0.064173 0.603453
O O8 0.268477 0.000000 0.622874
O O9 0.500000 0.618225 0.281869
O O10 0.231750 0.666484 0.345475
O O11 0.256484 0.555611 0.343089
O O12 0.279321 0.279381 0.500000
O O13 0.274052 0.222330 0.656523
O O14 0.000000 0.267055 0.593570
O O15 0.280081 0.500000 0.500000
O O16 0.000000 0.500000 0.405705
O O17 0.729677 0.182701 0.181344
O O18 0.000000 0.169393 0.282769
O O19 0.000000 0.221738 0.900000
O O20 0.270643 0.205320 0.000000
#
# Coordination Sequence:
#
# PCOD9382760 Si02
#       7
#     8   8   8   8   4   8   8
#     4   9  18  33  52  74 100 128 157 191 235 287
#     4   8  13  21  34  54  83 122 165 202 236 280
#     4  11  22  36  55  77 100 127 159 198 241 283
#     4  10  19  30  46  69  97 127 158 195 242 292
#     4  11  25  43  60  75  96 132 171 199 228 277
#     4   9  15  24  39  61  90 122 157 198 242 285
#     4   9  16  26  43  67  93 122 156 194 238 289
#
# _framework density 19.187093000000001
#
# number of rings (size 3 to 8) (size 9 to 14) (size 15 to 20)
#    0.000    2.538    1.538    2.077    0.000    5.231 
#    0.000    0.385    0.000    2.769    0.000    3.231 
#    0.000    2.462    0.000   12.308    0.000   11.692 
#
# Total GULP energy -290065.167944 kJ/mol
# GULP energy per Si atom -5578.176307 kJ/mol
# Density = 1.914342 g / cm^3
# Si number density = 19.187093 Si / 1000 Ang^3
#
#
#
# Elastic Constant Matrix: (Units=GPa)
#
#
# Indices 1 2 3 4 5 6 
#
# 1 31.1605 -11.1750 3.7404 0.0000 0.0000 0.0000
# 2 -11.1750 112.2957 98.0561 0.0000 0.0000 0.0000
# 3 3.7404 98.0561 212.1034 0.0000 0.0000 0.0000
# 4 0.0000 0.0000 0.0000 33.7218 0.0000 0.0000
# 5 0.0000 0.0000 0.0000 0.0000 10.1985 0.0000
# 6 0.0000 0.0000 0.0000 0.0000 0.0000 186.2208
#
#
#
# Elastic Compliance Matrix: (Units=1/GPa)
#
#
# Indices 1 2 3 4 5 6 
#
# 1 0.034955 0.006736 -0.003731 0.000000 0.000000 0.000000
# 2 0.006736 0.016231 -0.007623 0.000000 0.000000 0.000000
# 3 -0.003731 -0.007623 0.008304 0.000000 0.000000 0.000000
# 4 0.000000 0.000000 0.000000 0.029654 0.000000 0.000000
# 5 0.000000 0.000000 0.000000 0.000000 0.098053 0.000000
# 6 0.000000 0.000000 0.000000 0.000000 0.000000 0.005370
#
#
# Mechanical properties :
#
#
# Convention : Reuss Voigt Hill
#
# Bulk Modulus (GPa) = 19.89767 59.64473 39.77120
# Shear Modulus (GPa) = 22.87747 63.69077 43.28412
#
# Velocity S-wave (km/s) = 3.45677 5.76773 4.75478
# Velocity P-wave (km/s) = 5.13081 8.68958 7.13562
#
# Compressibility (1/GPa) = 0.05025713
#
# Stress axis : x y z
#
# Youngs Moduli (GPa) = 28.60782 61.60882 120.41755
#
# Poissons Ratio (x) = -0.41500 0.44922
# Poissons Ratio (y) = -0.19270 0.91790
# Poissons Ratio (z) = 0.10672 0.46962
#
# Static dielectric constant tensor:
#      x y z
#    x 1.724000 0.000000 0.000000 
#    y 0.000000 1.603470 0.000000 
#    z 0.000000 0.000000 1.711470 
# 
# From -- ./inp_files/21417.got.cif
#   From: 2010.05.17/outbox.cif.g08.bks.cpg/sg47_11_cif.got.tgz:21417.got - 2010.06.03 20:15:42.
