data_PCOD9382515
_publ_section_title
;
Structure prediction by ZEFSAII (Michael W. Deem and Ramdas Pophale) SiO2 
 PCOD9382515
Probable space group: P M M M
;
_chemical_formula_sum "Si O2"
_cell_formula_units_Z 52
_cell_length_a 26.893458
_cell_length_b 9.110236
_cell_length_c 13.874884
_cell_angle_alpha 90.000000
_cell_angle_beta 90.000000
_cell_angle_gamma 90.000000
_cell_volume 3399.426350
_symmetry_space_group_name_H-M "P M M M"
_symmetry_group_IT_number 47
_symmetry_cell_setting 'orthorhombic'
loop_
_space_group_symop_operation_xyz
x,y,z
-x,-y,z
x,-y,-z
-x,y,-z
-x,-y,-z
x,y,-z
-x,y,z
x,-y,z
loop_
_atom_site_type_symbol
_atom_site_label
_atom_site_fract_x
_atom_site_fract_y
_atom_site_fract_z
Si Si1 0.500000 0.675499 0.112512
Si Si2 0.748615 0.324842 0.293434
Si Si3 0.843865 0.827078 0.384098
Si Si4 0.055311 0.670875 0.383087
Si Si5 0.703278 0.175087 0.888628
Si Si6 0.654489 0.824738 0.389701
Si Si7 0.595974 0.174202 0.798705
O O1 0.500000 0.500000 0.117098
O O2 0.549035 0.738288 0.163353
O O3 0.500000 0.720231 0.000000
O O4 0.748430 0.500000 0.295245
O O5 0.800230 0.261343 0.332516
O O6 0.736310 0.263981 0.186940
O O7 0.704102 0.261161 0.359769
O O8 0.839615 0.805569 0.500000
O O9 0.898010 0.768097 0.352897
O O10 0.839008 0.000000 0.365042
O O11 0.054589 0.675357 0.500000
O O12 0.062530 0.500000 0.356182
O O13 0.000000 0.717705 0.350652
O O14 0.645518 0.203743 0.861737
O O15 0.710994 0.000000 0.874090
O O16 0.712570 0.210285 0.000000
O O17 0.640689 0.794657 0.500000
O O18 0.612353 0.790078 0.310849
O O19 0.664697 0.000000 0.380430
O O20 0.585654 0.000000 0.804464
#
# Coordination Sequence:
#
# PCOD9382515 Si02
#       7
#     4   8   8   8   8   8   8
#     4  11  23  35  48  69  96 122 147 181 226 271
#     4  11  21  30  44  68  96 123 152 187 227 274
#     4  10  19  29  42  61  88 123 161 198 230 263
#     4   8  14  25  40  58  83 116 152 190 233 278
#     4   9  18  34  54  72  91 117 149 185 226 272
#     4   9  18  34  53  70  91 120 154 190 225 265
#     4   9  18  33  53  74  92 115 149 184 220 265
#
# _framework density 15.296697999999999
#
# number of rings (size 3 to 8) (size 9 to 14) (size 15 to 20)
#    0.000    2.538    0.000    4.385    0.000    7.385 
#    0.000    1.923    0.000    2.308    0.000    0.000 
#    0.000    0.615    0.000    6.462    0.000    3.077 
#
# Total GULP energy -289935.495128 kJ/mol
# GULP energy per Si atom -5575.682599 kJ/mol
# Density = 1.526188 g / cm^3
# Si number density = 15.296698 Si / 1000 Ang^3
#
#
#
# Elastic Constant Matrix: (Units=GPa)
#
#
# Indices 1 2 3 4 5 6 
#
# 1 121.0626 70.7141 56.8294 0.0000 0.0000 0.0000
# 2 70.7141 74.8648 52.7272 0.0000 0.0000 0.0000
# 3 56.8294 52.7272 96.7598 0.0000 0.0000 0.0000
# 4 0.0000 0.0000 0.0000 17.0018 0.0000 0.0000
# 5 0.0000 0.0000 0.0000 0.0000 15.1819 0.0000
# 6 0.0000 0.0000 0.0000 0.0000 0.0000 38.1855
#
#
#
# Elastic Compliance Matrix: (Units=1/GPa)
#
#
# Indices 1 2 3 4 5 6 
#
# 1 0.018712 -0.016122 -0.002205 0.000000 0.000000 0.000000
# 2 -0.016122 0.035567 -0.009913 0.000000 0.000000 0.000000
# 3 -0.002205 -0.009913 0.017032 0.000000 0.000000 0.000000
# 4 0.000000 0.000000 0.000000 0.058817 0.000000 0.000000
# 5 0.000000 0.000000 0.000000 0.000000 0.065868 0.000000
# 6 0.000000 0.000000 0.000000 0.000000 0.000000 0.026188
#
#
# Mechanical properties :
#
#
# Convention : Reuss Voigt Hill
#
# Bulk Modulus (GPa) = 67.42243 72.58095 70.00169
# Shear Modulus (GPa) = 17.63008 21.56828 19.59918
#
# Velocity S-wave (km/s) = 3.39859 3.75906 3.58336
# Velocity P-wave (km/s) = 7.71834 8.14816 7.93616
#
# Compressibility (1/GPa) = 0.01483186
#
# Stress axis : x y z
#
# Youngs Moduli (GPa) = 53.44133 28.11606 58.71453
#
# Poissons Ratio (x) = 0.45328 0.12946
# Poissons Ratio (y) = 0.86157 0.58202
# Poissons Ratio (z) = 0.11783 0.27871
#
# Static dielectric constant tensor:
#      x y z
#    x 1.493810 0.000000 0.000000 
#    y 0.000000 1.507350 0.000000 
#    z 0.000000 0.000000 1.502200 
# 
# From -- ./inp_files/25462.got.cif
#   From: 2010.05.17/outbox.cif.g08.bks.cpg/sg47_13_cif.got.tgz:25462.got - 2010.06.03 20:15:42.
