data_PCOD9382318
_publ_section_title
;
Structure prediction by ZEFSAII (Michael W. Deem and Ramdas Pophale) SiO2 
 PCOD9382318
Probable space group: P M M M
;
_chemical_formula_sum "Si O2"
_cell_formula_units_Z 46
_cell_length_a 21.153372
_cell_length_b 7.335659
_cell_length_c 14.143832
_cell_angle_alpha 90.000000
_cell_angle_beta 90.000000
_cell_angle_gamma 90.000000
_cell_volume 2194.753907
_symmetry_space_group_name_H-M "P M M M"
_symmetry_group_IT_number 47
_symmetry_cell_setting 'orthorhombic'
loop_
_space_group_symop_operation_xyz
x,y,z
-x,-y,z
x,-y,-z
-x,y,-z
-x,-y,-z
x,y,-z
-x,y,z
x,-y,z
loop_
_atom_site_type_symbol
_atom_site_label
_atom_site_fract_x
_atom_site_fract_y
_atom_site_fract_z
Si Si1 0.212816 0.280895 0.105093
Si Si2 0.643528 0.776909 0.691408
Si Si3 0.427205 0.221956 0.500000
Si Si4 0.000000 0.000000 0.724900
Si Si5 0.885900 0.290731 0.735230
Si Si6 0.639466 0.791006 0.895728
Si Si7 0.774103 0.220072 0.392613
O O1 0.218659 0.500000 0.111735
O O2 0.162594 0.223747 0.183144
O O3 0.283941 0.207422 0.112543
O O4 0.189415 0.234616 0.000000
O O5 0.605915 0.720284 0.597612
O O6 0.618943 0.713386 0.793928
O O7 0.716209 0.720437 0.673652
O O8 0.642494 0.000000 0.693878
O O9 0.500000 0.275481 0.500000
O O10 0.423796 0.000000 0.500000
O O11 0.055435 0.158781 0.725651
O O12 0.904183 0.500000 0.756070
O O13 0.841318 0.287849 0.642981
O O14 0.617170 0.000000 0.898601
O O15 0.624945 0.710446 0.000000
O O16 0.760475 0.274318 0.500000
O O17 0.775545 0.000000 0.389929
#
# Coordination Sequence:
#
# PCOD9382318 Si02
#       7
#     8   8   4   2   8   8   8
#     4   9  18  32  51  77 108 136 168 224 287 333
#     4   9  15  25  44  72 107 142 184 232 276 327
#     4   9  16  26  42  72 113 157 194 226 270 330
#     4  12  26  44  62  78 112 152 188 232 282 348
#     4  11  23  40  60  81 107 143 189 234 285 346
#     4   9  16  25  44  73 103 134 173 222 280 339
#     4  10  18  32  56  82 107 135 175 233 296 338
#
# _framework density 20.959069
#
# number of rings (size 3 to 8) (size 9 to 14) (size 15 to 20)
#    0.000    2.348    3.478    0.261    1.217    0.348 
#    0.000    1.739    0.000    3.652    0.000    3.652 
#    0.000    5.565    0.000    4.348    0.000    4.522 
#
# Total GULP energy -256140.958946 kJ/mol
# GULP energy per Si atom -5568.281716 kJ/mol
# Density = 2.091137 g / cm^3
# Si number density = 20.959069 Si / 1000 Ang^3
#
#
#
# Elastic Constant Matrix: (Units=GPa)
#
#
# Indices 1 2 3 4 5 6 
#
# 1 55.0393 4.3562 23.5084 0.0000 0.0000 0.0000
# 2 4.3562 93.8689 7.1270 0.0000 0.0000 0.0000
# 3 23.5084 7.1270 171.6530 0.0000 0.0000 0.0000
# 4 0.0000 0.0000 0.0000 3.8835 0.0000 0.0000
# 5 0.0000 0.0000 0.0000 0.0000 -3.6517 0.0000
# 6 0.0000 0.0000 0.0000 0.0000 0.0000 26.0005
#
#
#
# Elastic Compliance Matrix: (Units=1/GPa)
#
#
# Indices 1 2 3 4 5 6 
#
# 1 0.019343 -0.000699 -0.002620 0.000000 0.000000 0.000000
# 2 -0.000699 0.010712 -0.000349 0.000000 0.000000 0.000000
# 3 -0.002620 -0.000349 0.006199 0.000000 0.000000 0.000000
# 4 0.000000 0.000000 0.000000 0.257500 0.000000 0.000000
# 5 0.000000 0.000000 0.000000 0.000000 -0.273847 0.000000
# 6 0.000000 0.000000 0.000000 0.000000 0.000000 0.038461
#
#
# Mechanical properties :
#
#
# Convention : Reuss Voigt Hill
#
# Bulk Modulus (GPa) = 34.57991 43.39382 38.98687
# Shear Modulus (GPa) = 66.36270 24.28443 45.32357
#
# Velocity S-wave (km/s) = 5.63309 3.40760 4.65529
# Velocity P-wave (km/s) = 7.67096 6.01925 6.89474
#
# Compressibility (1/GPa) = 0.02891853
#
# Stress axis : x y z
#
# Youngs Moduli (GPa) = 51.69768 93.35252 161.31550
#
# Poissons Ratio (x) = 0.06523 0.42266
# Poissons Ratio (y) = 0.03612 0.05631
# Poissons Ratio (z) = 0.13545 0.03259
#
# Static dielectric constant tensor:
#      x y z
#    x 1.679570 0.000000 0.000000 
#    y 0.000000 1.809260 0.000000 
#    z 0.000000 0.000000 1.812510 
# 
# From -- ./inp_files/24945.got.cif
#   From: 2010.05.17/outbox.cif.g08.bks.cpg/sg47_13_cif.got.tgz:24945.got - 2010.06.03 20:15:42.
