data_PCOD9382120
_publ_section_title
;
Structure prediction by ZEFSAII (Michael W. Deem and Ramdas Pophale) SiO2 
 PCOD9382120
Probable space group: P M M M
;
_chemical_formula_sum "Si O2"
_cell_formula_units_Z 56
_cell_length_a 15.486288
_cell_length_b 23.630426
_cell_length_c 7.779098
_cell_angle_alpha 90.000000
_cell_angle_beta 90.000000
_cell_angle_gamma 90.000000
_cell_volume 2846.742108
_symmetry_space_group_name_H-M "P M M M"
_symmetry_group_IT_number 47
_symmetry_cell_setting 'orthorhombic'
loop_
_space_group_symop_operation_xyz
x,y,z
-x,-y,z
x,-y,-z
-x,y,-z
-x,-y,-z
x,y,-z
-x,y,z
x,-y,z
loop_
_atom_site_type_symbol
_atom_site_label
_atom_site_fract_x
_atom_site_fract_y
_atom_site_fract_z
Si Si1 0.093655 0.815376 0.710628
Si Si2 0.400915 0.238147 0.796218
Si Si3 0.099452 0.624134 0.796935
Si Si4 0.901019 0.500000 0.294429
Si Si5 0.326852 0.117539 0.209853
Si Si6 0.145955 0.063882 0.298860
Si Si7 0.500000 0.933995 0.193070
Si Si8 0.227401 0.276550 0.299522
O O1 0.098523 0.816399 0.500000
O O2 0.098109 0.880416 0.772170
O O3 0.172233 0.776673 0.775614
O O4 0.000000 0.790725 0.756261
O O5 0.500000 0.244883 0.728621
O O6 0.351943 0.181098 0.735081
O O7 0.324992 0.283889 0.768257
O O8 0.410278 0.231705 0.000000
O O9 0.133759 0.560444 0.764952
O O10 0.164741 0.669984 0.722477
O O11 0.000000 0.628235 0.728353
O O12 0.095283 0.633600 0.000000
O O13 0.901300 0.500000 0.500000
O O14 0.000000 0.500000 0.228863
O O15 0.244203 0.085860 0.283550
O O16 0.411096 0.084395 0.271553
O O17 0.317778 0.115679 0.000000
O O18 0.122246 0.060066 0.500000
O O19 0.135188 0.000000 0.226782
O O20 0.500000 0.000000 0.176257
O O21 0.500000 0.907338 0.000000
O O22 0.237564 0.265349 0.500000
#
# Coordination Sequence:
#
# PCOD9382120 Si02
#       8
#     8   8   8   4   8   8   4   8
#     4   9  18  32  49  70  96 128 168 214 263 315
#     4  10  20  35  54  75 100 131 170 218 272 329
#     4  10  20  34  54  83 120 158 192 226 266 310
#     4   9  17  31  53  83 120 159 196 229 261 303
#     4  10  18  31  50  69  90 119 156 202 258 321
#     4  10  20  33  48  67  92 122 161 210 263 319
#     4   9  16  26  43  67  89 113 151 194 243 314
#     4  11  21  34  54  78 107 142 180 224 271 322
#
# _framework density 19.671609
#
# number of rings (size 3 to 8) (size 9 to 14) (size 15 to 20)
#    0.000    2.143    2.143    1.929    0.000    3.714 
#    0.000    1.786    0.000    2.571    0.000    1.500 
#    0.000    4.000    0.000    0.000    0.000    0.000 
#
# Total GULP energy -311964.965550 kJ/mol
# GULP energy per Si atom -5570.802956 kJ/mol
# Density = 1.962684 g / cm^3
# Si number density = 19.671609 Si / 1000 Ang^3
#
#
#
# Elastic Constant Matrix: (Units=GPa)
#
#
# Indices 1 2 3 4 5 6 
#
# 1 126.6472 45.8369 -0.3390 0.0000 0.0000 0.0000
# 2 45.8369 94.5330 1.2354 0.0000 0.0000 0.0000
# 3 -0.3390 1.2354 35.6693 0.0000 0.0000 0.0000
# 4 0.0000 0.0000 0.0000 11.9796 0.0000 0.0000
# 5 0.0000 0.0000 0.0000 0.0000 17.5252 0.0000
# 6 0.0000 0.0000 0.0000 0.0000 0.0000 20.1354
#
#
#
# Elastic Compliance Matrix: (Units=1/GPa)
#
#
# Indices 1 2 3 4 5 6 
#
# 1 0.009579 -0.004648 0.000252 0.000000 0.000000 0.000000
# 2 -0.004648 0.012838 -0.000489 0.000000 0.000000 0.000000
# 3 0.000252 -0.000489 0.028055 0.000000 0.000000 0.000000
# 4 0.000000 0.000000 0.000000 0.083475 0.000000 0.000000
# 5 0.000000 0.000000 0.000000 0.000000 0.057061 0.000000
# 6 0.000000 0.000000 0.000000 0.000000 0.000000 0.049664
#
#
# Mechanical properties :
#
#
# Convention : Reuss Voigt Hill
#
# Bulk Modulus (GPa) = 24.56852 38.92402 31.74627
# Shear Modulus (GPa) = 18.93878 23.93577 21.43727
#
# Velocity S-wave (km/s) = 3.10618 3.49200 3.30473
# Velocity P-wave (km/s) = 5.03795 6.00738 5.54390
#
# Compressibility (1/GPa) = 0.04070249
#
# Stress axis : x y z
#
# Youngs Moduli (GPa) = 104.39724 77.89170 35.64468
#
# Poissons Ratio (x) = 0.36203 -0.00898
# Poissons Ratio (y) = 0.48522 0.01742
# Poissons Ratio (z) = -0.02631 0.03808
#
# Static dielectric constant tensor:
#      x y z
#    x 1.757780 0.000000 0.000000 
#    y 0.000000 1.722040 0.000000 
#    z 0.000000 0.000000 1.875760 
# 
# From -- ./inp_files/7441.got.cif
#   From: 2010.05.17/outbox.cif.g08.bks.cpg/sg47_4_cif.got.tgz:7441.got - 2010.06.03 20:15:42.
