data_PCOD9382788
_publ_section_title
;
Structure prediction by ZEFSAII (Michael W. Deem and Ramdas Pophale) SiO2 
 PCOD9382788
Probable space group: P M M M
;
_chemical_formula_sum "Si O2"
_cell_formula_units_Z 64
_cell_length_a 24.292442
_cell_length_b 19.672103
_cell_length_c 8.754581
_cell_angle_alpha 90.000000
_cell_angle_beta 90.000000
_cell_angle_gamma 90.000000
_cell_volume 4183.669119
_symmetry_space_group_name_H-M "P M M M"
_symmetry_group_IT_number 47
_symmetry_cell_setting 'orthorhombic'
loop_
_space_group_symop_operation_xyz
x,y,z
-x,-y,z
x,-y,-z
-x,y,-z
-x,-y,-z
x,y,-z
-x,y,z
x,-y,z
loop_
_atom_site_type_symbol
_atom_site_label
_atom_site_fract_x
_atom_site_fract_y
_atom_site_fract_z
Si Si1 0.272039 0.714005 0.316974
Si Si2 0.114832 0.575172 0.814313
Si Si3 0.937112 0.283362 0.184916
Si Si4 0.436708 0.079055 0.816058
Si Si5 0.756578 0.424345 0.183764
Si Si6 0.666853 0.847494 0.316879
Si Si7 0.226964 0.078593 0.183171
Si Si8 0.836729 0.798366 0.316896
O O1 0.272467 0.708492 0.500000
O O2 0.276322 0.639520 0.247276
O O3 0.317299 0.770206 0.271989
O O4 0.213124 0.747120 0.271777
O O5 0.095920 0.500000 0.763668
O O6 0.080436 0.640449 0.764514
O O7 0.179005 0.583021 0.770211
O O8 0.113364 0.574691 0.000000
O O9 0.893272 0.231046 0.252659
O O10 0.000000 0.269374 0.228608
O O11 0.933505 0.281428 0.000000
O O12 0.500000 0.094531 0.774136
O O13 0.391831 0.127061 0.740325
O O14 0.425901 0.000000 0.774826
O O15 0.432410 0.083673 0.000000
O O16 0.738416 0.500000 0.232452
O O17 0.755315 0.422387 0.000000
O O18 0.670302 0.851777 0.500000
O O19 0.714580 0.894968 0.246772
O O20 0.181057 0.128869 0.250834
O O21 0.218545 0.000000 0.225036
O O22 0.227453 0.084100 0.000000
O O23 0.837940 0.801466 0.500000
#
# Coordination Sequence:
#
# PCOD9382788 Si02
#       8
#     8   8   8   8   8   8   8   8
#     4   9  18  30  43  63  90 120 152 186 226 270
#     4   8  14  25  41  63  89 114 145 186 225 262
#     4  10  19  30  47  68  88 115 151 187 223 269
#     4   9  18  32  48  67  95 132 171 204 231 264
#     4   9  16  26  43  65  87 115 151 188 226 270
#     4  10  20  31  45  70 101 128 159 195 228 268
#     4  10  20  33  51  73  94 117 146 184 230 276
#     4  10  20  33  48  66  90 118 147 182 226 275
#
# _framework density 15.297577
#
# number of rings (size 3 to 8) (size 9 to 14) (size 15 to 20)
#    0.000    2.625    1.250    3.375    0.000    6.250 
#    0.000    1.875    0.000    0.750    0.000    3.500 
#    0.000    0.500    0.000    5.500    0.000    4.000 
#
# Total GULP energy -356725.611917 kJ/mol
# GULP energy per Si atom -5573.837686 kJ/mol
# Density = 1.526276 g / cm^3
# Si number density = 15.297577 Si / 1000 Ang^3
#
#
#
# Elastic Constant Matrix: (Units=GPa)
#
#
# Indices 1 2 3 4 5 6 
#
# 1 98.4776 74.5526 29.8676 0.0000 0.0000 0.0000
# 2 74.5526 147.0414 39.7313 0.0000 0.0000 0.0000
# 3 29.8676 39.7313 23.1057 0.0000 0.0000 0.0000
# 4 0.0000 0.0000 0.0000 9.4115 0.0000 0.0000
# 5 0.0000 0.0000 0.0000 0.0000 16.9359 0.0000
# 6 0.0000 0.0000 0.0000 0.0000 0.0000 25.5141
#
#
#
# Elastic Compliance Matrix: (Units=1/GPa)
#
#
# Indices 1 2 3 4 5 6 
#
# 1 0.018855 -0.005555 -0.014821 0.000000 0.000000 0.000000
# 2 -0.005555 0.014340 -0.017477 0.000000 0.000000 0.000000
# 3 -0.014821 -0.017477 0.092489 0.000000 0.000000 0.000000
# 4 0.000000 0.000000 0.000000 0.106253 0.000000 0.000000
# 5 0.000000 0.000000 0.000000 0.000000 0.059046 0.000000
# 6 0.000000 0.000000 0.000000 0.000000 0.000000 0.039194
#
#
# Mechanical properties :
#
#
# Convention : Reuss Voigt Hill
#
# Bulk Modulus (GPa) = 20.00848 61.88087 40.94468
# Shear Modulus (GPa) = 11.83314 18.67051 15.25183
#
# Velocity S-wave (km/s) = 2.78426 3.49734 3.16097
# Velocity P-wave (km/s) = 4.84190 7.53974 6.33608
#
# Compressibility (1/GPa) = 0.04997881
#
# Stress axis : x y z
#
# Youngs Moduli (GPa) = 53.03556 69.73607 10.81209
#
# Poissons Ratio (x) = 0.38741 0.16024
# Poissons Ratio (y) = 0.29463 0.18896
# Poissons Ratio (z) = 0.78602 1.21876
#
# Static dielectric constant tensor:
#      x y z
#    x 1.487090 0.000000 0.000000 
#    y 0.000000 1.516930 0.000000 
#    z 0.000000 0.000000 1.515520 
# 
# From -- ./inp_files/12860.got.cif
#   From: 2010.05.17/outbox.cif.g08.bks.cpg/sg47_7_cif.got.tgz:12860.got - 2010.06.03 20:15:42.
