data_PCOD9382915
_publ_section_title
;
Structure prediction by ZEFSAII (Michael W. Deem and Ramdas Pophale) SiO2 
 PCOD9382915
Probable space group: P M M M
;
_chemical_formula_sum "Si O2"
_cell_formula_units_Z 48
_cell_length_a 9.475365
_cell_length_b 34.947497
_cell_length_c 8.054163
_cell_angle_alpha 90.000000
_cell_angle_beta 90.000000
_cell_angle_gamma 90.000000
_cell_volume 2667.057871
_symmetry_space_group_name_H-M "P M M M"
_symmetry_group_IT_number 47
_symmetry_cell_setting 'orthorhombic'
loop_
_space_group_symop_operation_xyz
x,y,z
-x,-y,z
x,-y,-z
-x,y,-z
-x,-y,-z
x,y,-z
-x,y,z
x,-y,z
loop_
_atom_site_type_symbol
_atom_site_label
_atom_site_fract_x
_atom_site_fract_y
_atom_site_fract_z
Si Si1 0.668277 0.770827 0.314557
Si Si2 0.828477 0.904067 0.000000
Si Si3 0.164982 0.301480 0.195747
Si Si4 0.161019 0.384262 0.697094
Si Si5 0.329906 0.176289 0.000000
Si Si6 0.336189 0.542283 0.799581
Si Si7 0.828592 0.044073 0.312674
O O1 0.699069 0.785911 0.500000
O O2 0.500000 0.764434 0.302635
O O3 0.747596 0.730796 0.288937
O O4 0.706742 0.799316 0.164873
O O5 0.786327 0.928005 0.164346
O O6 0.753478 0.863285 0.000000
O O7 0.000000 0.900183 0.000000
O O8 0.217130 0.344708 0.226411
O O9 0.000000 0.300490 0.247368
O O10 0.172303 0.293334 0.000000
O O11 0.158130 0.378839 0.500000
O O12 0.248508 0.421958 0.736860
O O13 0.000000 0.389382 0.758121
O O14 0.500000 0.170243 0.000000
O O15 0.500000 0.545831 0.749492
O O16 0.285377 0.500000 0.745067
O O17 0.332011 0.542735 0.000000
O O18 0.783427 0.055055 0.500000
O O19 0.000000 0.043959 0.313004
O O20 0.784810 0.000000 0.282321
#
# Coordination Sequence:
#
# PCOD9382915 Si02
#       7
#     8   4   8   8   4   8   8
#     4  10  21  38  59  79 101 136 180 221 265 319
#     4  10  19  30  50  78 104 134 180 225 261 314
#     4  10  20  35  57  82 107 134 167 211 264 316
#     4  10  21  35  51  76 108 137 166 202 250 309
#     4  10  22  39  53  73 108 144 177 219 268 322
#     4   9  19  36  55  74  98 131 172 214 253 296
#     4   8  14  26  46  74 107 139 173 220 274 318
#
# _framework density 17.997361000000001
#
# number of rings (size 3 to 8) (size 9 to 14) (size 15 to 20)
#    0.000    2.500    0.833    2.250    0.000    6.000 
#    0.000    2.500    0.000    1.000    0.000    1.167 
#    0.000    0.000    0.000    0.000    0.000    0.000 
#
# Total GULP energy -267670.844204 kJ/mol
# GULP energy per Si atom -5576.475921 kJ/mol
# Density = 1.795640 g / cm^3
# Si number density = 17.997361 Si / 1000 Ang^3
#
#
#
# Elastic Constant Matrix: (Units=GPa)
#
#
# Indices 1 2 3 4 5 6 
#
# 1 21.9770 44.2426 31.8879 0.0000 0.0000 0.0000
# 2 44.2426 143.8427 78.4544 0.0000 0.0000 0.0000
# 3 31.8879 78.4544 112.3617 0.0000 0.0000 0.0000
# 4 0.0000 0.0000 0.0000 4.3429 0.0000 0.0000
# 5 0.0000 0.0000 0.0000 0.0000 12.4734 0.0000
# 6 0.0000 0.0000 0.0000 0.0000 0.0000 61.8032
#
#
#
# Elastic Compliance Matrix: (Units=1/GPa)
#
#
# Indices 1 2 3 4 5 6 
#
# 1 0.133261 -0.032884 -0.014858 0.000000 0.000000 0.000000
# 2 -0.032884 0.019342 -0.004173 0.000000 0.000000 0.000000
# 3 -0.014858 -0.004173 0.016030 0.000000 0.000000 0.000000
# 4 0.000000 0.000000 0.000000 0.230260 0.000000 0.000000
# 5 0.000000 0.000000 0.000000 0.000000 0.080171 0.000000
# 6 0.000000 0.000000 0.000000 0.000000 0.000000 0.016180
#
#
# Mechanical properties :
#
#
# Convention : Reuss Voigt Hill
#
# Bulk Modulus (GPa) = 15.43145 65.26125 40.34635
# Shear Modulus (GPa) = 8.05573 23.96366 16.00970
#
# Velocity S-wave (km/s) = 2.11797 3.65294 2.98578
# Velocity P-wave (km/s) = 3.81758 7.35747 5.86115
#
# Compressibility (1/GPa) = 0.06480274
#
# Stress axis : x y z
#
# Youngs Moduli (GPa) = 7.50409 51.69978 62.38118
#
# Poissons Ratio (x) = 1.70008 0.92689
# Poissons Ratio (y) = 0.24676 0.26033
# Poissons Ratio (z) = 0.11150 0.21575
#
# Static dielectric constant tensor:
#      x y z
#    x 1.602950 0.000000 0.000000 
#    y 0.000000 1.591690 0.000000 
#    z 0.000000 0.000000 1.642420 
# 
# From -- ./inp_files/2577.got.cif
#   From: 2010.05.17/outbox.cif.g08.bks.cpg/sg47_2_cif.got.tgz:2577.got - 2010.06.03 20:15:42.
