data_PCOD9382112
_publ_section_title
;
Structure prediction by ZEFSAII (Michael W. Deem and Ramdas Pophale) SiO2 
 PCOD9382112
Probable space group: P M M M
;
_chemical_formula_sum "Si O2"
_cell_formula_units_Z 64
_cell_length_a 20.438385
_cell_length_b 8.212667
_cell_length_c 20.591788
_cell_angle_alpha 90.000000
_cell_angle_beta 90.000000
_cell_angle_gamma 90.000000
_cell_volume 3456.406776
_symmetry_space_group_name_H-M "P M M M"
_symmetry_group_IT_number 47
_symmetry_cell_setting 'orthorhombic'
loop_
_space_group_symop_operation_xyz
x,y,z
-x,-y,z
x,-y,-z
-x,y,-z
-x,-y,-z
x,y,-z
-x,y,z
x,-y,z
loop_
_atom_site_type_symbol
_atom_site_label
_atom_site_fract_x
_atom_site_fract_y
_atom_site_fract_z
Si Si1 0.923438 0.196470 0.072940
Si Si2 0.571889 0.810192 0.888096
Si Si3 0.570244 0.697301 0.395942
Si Si4 0.184176 0.693820 0.172654
Si Si5 0.710934 0.693816 0.070298
Si Si6 0.393927 0.689627 0.749967
Si Si7 0.253939 0.189512 0.710221
Si Si8 0.715861 0.697296 0.428923
O O1 0.879472 0.266901 0.130238
O O2 0.000000 0.238761 0.080260
O O3 0.918609 0.000000 0.074521
O O4 0.902580 0.250406 0.000000
O O5 0.500000 0.746542 0.906430
O O6 0.634579 0.723942 0.918221
O O7 0.580771 0.790912 0.810539
O O8 0.574890 0.000000 0.905542
O O9 0.500000 0.757000 0.421097
O O10 0.570208 0.500000 0.403366
O O11 0.574523 0.732124 0.319061
O O12 0.639534 0.752551 0.424437
O O13 0.189705 0.500000 0.180421
O O14 0.244527 0.758941 0.128340
O O15 0.192950 0.771303 0.243463
O O16 0.721748 0.500000 0.069423
O O17 0.730095 0.761812 0.000000
O O18 0.407283 0.500000 0.763908
O O19 0.316369 0.712397 0.738475
O O20 0.248055 0.237000 0.634734
O O21 0.270202 0.000000 0.714549
O O22 0.741620 0.743926 0.500000
O O23 0.715776 0.500000 0.424724
#
# Coordination Sequence:
#
# PCOD9382112 Si02
#       8
#     8   8   8   8   8   8   8   8
#     4   9  19  36  57  84 121 161 193 219 255 308
#     4  11  23  35  48  68  93 123 162 212 273 334
#     4   8  14  24  41  66  91 116 153 201 252 310
#     4  11  21  35  57  83 109 140 181 227 266 308
#     4  10  22  38  54  72  95 128 171 218 267 319
#     4  10  18  31  49  69  92 122 162 209 263 320
#     4  11  21  33  52  76 102 133 172 218 268 319
#     4   9  18  32  49  70  99 134 171 215 267 322
#
# _framework density 18.51634
#
# number of rings (size 3 to 8) (size 9 to 14) (size 15 to 20)
#    0.000    2.125    1.250    4.125    0.000    4.000 
#    0.000    3.125    0.000    3.375    0.000    3.500 
#    0.000    0.500    0.000    5.250    0.000    2.250 
#
# Total GULP energy -357183.427092 kJ/mol
# GULP energy per Si atom -5580.991048 kJ/mol
# Density = 1.847420 g / cm^3
# Si number density = 18.516340 Si / 1000 Ang^3
#
#
#
# Elastic Constant Matrix: (Units=GPa)
#
#
# Indices 1 2 3 4 5 6 
#
# 1 57.1096 2.2241 39.8635 0.0000 0.0000 0.0000
# 2 2.2241 18.5549 15.8359 0.0000 0.0000 0.0000
# 3 39.8635 15.8359 123.1677 0.0000 0.0000 0.0000
# 4 0.0000 0.0000 0.0000 12.7572 0.0000 0.0000
# 5 0.0000 0.0000 0.0000 0.0000 19.0364 0.0000
# 6 0.0000 0.0000 0.0000 0.0000 0.0000 23.0699
#
#
#
# Elastic Compliance Matrix: (Units=1/GPa)
#
#
# Indices 1 2 3 4 5 6 
#
# 1 0.022884 0.004019 -0.007923 0.000000 0.000000 0.000000
# 2 0.004019 0.061243 -0.009175 0.000000 0.000000 0.000000
# 3 -0.007923 -0.009175 0.011863 0.000000 0.000000 0.000000
# 4 0.000000 0.000000 0.000000 0.078387 0.000000 0.000000
# 5 0.000000 0.000000 0.000000 0.000000 0.052531 0.000000
# 6 0.000000 0.000000 0.000000 0.000000 0.000000 0.043347
#
#
# Mechanical properties :
#
#
# Convention : Reuss Voigt Hill
#
# Bulk Modulus (GPa) = 14.32011 34.96436 24.64223
# Shear Modulus (GPa) = 15.64016 20.36661 18.00339
#
# Velocity S-wave (km/s) = 2.90947 3.32011 3.12155
# Velocity P-wave (km/s) = 4.36317 5.79840 5.13122
#
# Compressibility (1/GPa) = 0.06983187
#
# Stress axis : x y z
#
# Youngs Moduli (GPa) = 43.69822 16.32849 84.29556
#
# Poissons Ratio (x) = -0.06563 0.66790
# Poissons Ratio (y) = -0.17563 0.77340
# Poissons Ratio (z) = 0.34623 0.14981
#
# Static dielectric constant tensor:
#      x y z
#    x 1.639190 0.000000 0.000000 
#    y 0.000000 1.644300 0.000000 
#    z 0.000000 0.000000 1.677440 
# 
# From -- ./inp_files/31336.got.cif
#   From: 2010.05.17/outbox.cif.g08.bks.cpg/sg47_16_cif.got.tgz:31336.got - 2010.06.03 20:15:42.
