data_PCOD9382198
_publ_section_title
;
Structure prediction by ZEFSAII (Michael W. Deem and Ramdas Pophale) SiO2 
 PCOD9382198
Probable space group: P M M M
;
_chemical_formula_sum "Si O2"
_cell_formula_units_Z 64
_cell_length_a 20.135253
_cell_length_b 7.868384
_cell_length_c 21.572004
_cell_angle_alpha 90.000000
_cell_angle_beta 90.000000
_cell_angle_gamma 90.000000
_cell_volume 3417.693635
_symmetry_space_group_name_H-M "P M M M"
_symmetry_group_IT_number 47
_symmetry_cell_setting 'orthorhombic'
loop_
_space_group_symop_operation_xyz
x,y,z
-x,-y,z
x,-y,-z
-x,y,-z
-x,-y,-z
x,y,-z
-x,y,z
x,-y,z
loop_
_atom_site_type_symbol
_atom_site_label
_atom_site_fract_x
_atom_site_fract_y
_atom_site_fract_z
Si Si1 0.073855 0.702945 0.122001
Si Si2 0.212552 0.202331 0.068085
Si Si3 0.785801 0.699965 0.309249
Si Si4 0.925742 0.796355 0.733426
Si Si5 0.573612 0.792540 0.242621
Si Si6 0.425943 0.794481 0.612507
Si Si7 0.284204 0.298426 0.567217
Si Si8 0.708568 0.798339 0.813606
O O1 0.074423 0.500000 0.115700
O O2 0.135061 0.773423 0.083541
O O3 0.083910 0.746329 0.194536
O O4 0.000000 0.765612 0.104524
O O5 0.255026 0.273459 0.125717
O O6 0.224344 0.000000 0.066166
O O7 0.228047 0.273120 0.000000
O O8 0.770959 0.500000 0.306262
O O9 0.864693 0.725776 0.305736
O O10 0.752934 0.771622 0.371981
O O11 0.753691 0.777606 0.247440
O O12 0.000000 0.738221 0.715465
O O13 0.923813 0.000000 0.729948
O O14 0.500000 0.738186 0.222416
O O15 0.581938 0.745652 0.314981
O O16 0.635685 0.729094 0.203008
O O17 0.574425 0.000000 0.241543
O O18 0.500000 0.740857 0.592204
O O19 0.362952 0.725707 0.576325
O O20 0.424038 0.000000 0.609267
O O21 0.264628 0.226958 0.500000
O O22 0.270362 0.500000 0.566138
O O23 0.700909 0.000000 0.823502
#
# Coordination Sequence:
#
# PCOD9382198 Si02
#       8
#     8   8   8   8   8   8   8   8
#     4  10  20  33  50  74 103 134 170 210 250 295
#     4  10  21  34  48  71 103 139 176 213 255 303
#     4  11  21  33  53  78 102 130 168 214 253 293
#     4  10  20  34  54  79 105 132 163 202 252 307
#     4   8  14  26  47  74  99 125 163 211 259 301
#     4   9  17  30  49  74 102 132 171 215 255 300
#     4  10  22  37  50  70 104 142 174 207 253 306
#     4  10  18  31  53  74  97 133 172 212 256 303
#
# _framework density 18.726077
#
# number of rings (size 3 to 8) (size 9 to 14) (size 15 to 20)
#    0.000    2.250    2.500    1.875    0.000    3.250 
#    0.000    2.500    0.000    1.125    0.000    5.250 
#    0.000    0.000    0.000    2.250    0.000    2.500 
#
# Total GULP energy -357047.497696 kJ/mol
# GULP energy per Si atom -5578.867151 kJ/mol
# Density = 1.868346 g / cm^3
# Si number density = 18.726077 Si / 1000 Ang^3
#
#
#
# Elastic Constant Matrix: (Units=GPa)
#
#
# Indices 1 2 3 4 5 6 
#
# 1 108.9118 -9.1371 64.1058 0.0000 0.0000 0.0000
# 2 -9.1371 17.9416 -0.6686 0.0000 0.0000 0.0000
# 3 64.1058 -0.6686 122.3515 0.0000 0.0000 0.0000
# 4 0.0000 0.0000 0.0000 11.7718 0.0000 0.0000
# 5 0.0000 0.0000 0.0000 0.0000 16.2861 0.0000
# 6 0.0000 0.0000 0.0000 0.0000 0.0000 8.4819
#
#
#
# Elastic Compliance Matrix: (Units=1/GPa)
#
#
# Indices 1 2 3 4 5 6 
#
# 1 0.014081 0.006897 -0.007340 0.000000 0.000000 0.000000
# 2 0.006897 0.059126 -0.003291 0.000000 0.000000 0.000000
# 3 -0.007340 -0.003291 0.012001 0.000000 0.000000 0.000000
# 4 0.000000 0.000000 0.000000 0.084949 0.000000 0.000000
# 5 0.000000 0.000000 0.000000 0.000000 0.061402 0.000000
# 6 0.000000 0.000000 0.000000 0.000000 0.000000 0.117898
#
#
# Mechanical properties :
#
#
# Convention : Reuss Voigt Hill
#
# Bulk Modulus (GPa) = 12.86320 39.75612 26.30966
# Shear Modulus (GPa) = 13.06041 20.30162 16.68102
#
# Velocity S-wave (km/s) = 2.64378 3.29619 2.98785
# Velocity P-wave (km/s) = 4.02536 5.98022 5.09738
#
# Compressibility (1/GPa) = 0.07774115
#
# Stress axis : x y z
#
# Youngs Moduli (GPa) = 71.01953 16.91299 83.32721
#
# Poissons Ratio (x) = -0.11665 0.61161
# Poissons Ratio (y) = -0.48984 0.27420
# Poissons Ratio (z) = 0.52127 0.05566
#
# Static dielectric constant tensor:
#      x y z
#    x 1.664520 0.000000 0.000000 
#    y 0.000000 1.687900 0.000000 
#    z 0.000000 0.000000 1.657840 
# 
# From -- ./inp_files/30003.got.cif
#   From: 2010.05.17/outbox.cif.g08.bks.cpg/sg47_16_cif.got.tgz:30003.got - 2010.06.03 20:15:42.
