data_PCOD9382242
_publ_section_title
;
Structure prediction by ZEFSAII (Michael W. Deem and Ramdas Pophale) SiO2 
 PCOD9382242
Probable space group: P M M M
;
_chemical_formula_sum "Si O2"
_cell_formula_units_Z 56
_cell_length_a 9.348975
_cell_length_b 20.483435
_cell_length_c 17.388319
_cell_angle_alpha 90.000000
_cell_angle_beta 90.000000
_cell_angle_gamma 90.000000
_cell_volume 3329.847817
_symmetry_space_group_name_H-M "P M M M"
_symmetry_group_IT_number 47
_symmetry_cell_setting 'orthorhombic'
loop_
_space_group_symop_operation_xyz
x,y,z
-x,-y,z
x,-y,-z
-x,y,-z
-x,-y,-z
x,y,-z
-x,y,z
x,-y,z
loop_
_atom_site_type_symbol
_atom_site_label
_atom_site_fract_x
_atom_site_fract_y
_atom_site_fract_z
Si Si1 0.831902 0.107958 0.153801
Si Si2 0.665391 0.105588 0.000000
Si Si3 0.330713 0.422498 0.589369
Si Si4 0.663604 0.264739 0.000000
Si Si5 0.668250 0.072559 0.306941
Si Si6 0.329768 0.197794 0.409409
Si Si7 0.832543 0.734527 0.151497
Si Si8 0.171677 0.686955 0.679718
O O1 0.761197 0.079706 0.230272
O O2 0.817352 0.186928 0.160139
O O3 0.000000 0.092703 0.148156
O O4 0.748517 0.085905 0.077260
O O5 0.666730 0.185188 0.000000
O O6 0.500000 0.084622 0.000000
O O7 0.297625 0.406106 0.500000
O O8 0.500000 0.409452 0.600624
O O9 0.308272 0.500000 0.599030
O O10 0.237425 0.379266 0.646180
O O11 0.742581 0.286045 0.922480
O O12 0.500000 0.285572 0.000000
O O13 0.500000 0.079531 0.286246
O O14 0.702475 0.129794 0.366627
O O15 0.688150 0.000000 0.339846
O O16 0.300854 0.193828 0.500000
O O17 0.500000 0.211067 0.399714
O O18 0.239483 0.254694 0.370063
O O19 0.790161 0.700707 0.231266
O O20 0.000000 0.721855 0.137371
O O21 0.000000 0.687541 0.673676
#
# Coordination Sequence:
#
# PCOD9382242 Si02
#       8
#     8   4   8   4   8   8   8   8
#     4  10  18  32  51  72  99 132 167 205 254 312
#     4   9  17  29  48  74 101 128 162 205 252 303
#     4   9  19  36  55  76 107 146 182 215 256 306
#     4   9  17  27  45  74 101 130 169 208 248 296
#     4  10  21  36  53  72  96 129 170 217 266 313
#     4  10  21  36  54  75 100 132 170 214 264 314
#     4   9  18  31  47  70 104 138 166 203 253 304
#     4  11  21  33  52  81 110 139 174 213 256 303
#
# _framework density 16.817585000000001
#
# number of rings (size 3 to 8) (size 9 to 14) (size 15 to 20)
#    0.000    2.286    1.429    2.143    0.000    6.571 
#    0.000    2.500    0.000    2.143    0.000    2.500 
#    0.000    4.000    0.000    0.000    0.000    0.000 
#
# Total GULP energy -312541.571762 kJ/mol
# GULP energy per Si atom -5581.099496 kJ/mol
# Density = 1.677931 g / cm^3
# Si number density = 16.817585 Si / 1000 Ang^3
#
#
#
# Elastic Constant Matrix: (Units=GPa)
#
#
# Indices 1 2 3 4 5 6 
#
# 1 72.2479 43.1702 74.0766 0.0000 0.0000 0.0000
# 2 43.1702 56.5228 53.0756 0.0000 0.0000 0.0000
# 3 74.0766 53.0756 140.4576 0.0000 0.0000 0.0000
# 4 0.0000 0.0000 0.0000 -84.7107 0.0000 0.0000
# 5 0.0000 0.0000 0.0000 0.0000 31.2697 0.0000
# 6 0.0000 0.0000 0.0000 0.0000 0.0000 15.8194
#
#
#
# Elastic Compliance Matrix: (Units=1/GPa)
#
#
# Indices 1 2 3 4 5 6 
#
# 1 0.037226 -0.015495 -0.013778 0.000000 0.000000 0.000000
# 2 -0.015495 0.033871 -0.004627 0.000000 0.000000 0.000000
# 3 -0.013778 -0.004627 0.016135 0.000000 0.000000 0.000000
# 4 0.000000 0.000000 0.000000 -0.011805 0.000000 0.000000
# 5 0.000000 0.000000 0.000000 0.000000 0.031980 0.000000
# 6 0.000000 0.000000 0.000000 0.000000 0.000000 0.063214
#
#
# Mechanical properties :
#
#
# Convention : Reuss Voigt Hill
#
# Bulk Modulus (GPa) = 51.46029 67.76370 59.61200
# Shear Modulus (GPa) = 20.41661 -0.93059 9.74301
#
# Velocity S-wave (km/s) = 3.48804 -0.74468 2.40955
# Velocity P-wave (km/s) = 6.84744 6.29614 6.57757
#
# Compressibility (1/GPa) = 0.01943246
#
# Stress axis : x y z
#
# Youngs Moduli (GPa) = 26.86266 29.52340 61.97845
#
# Poissons Ratio (x) = 0.45745 0.85394
# Poissons Ratio (y) = 0.41622 0.28680
# Poissons Ratio (z) = 0.37011 0.13662
#
# Static dielectric constant tensor:
#      x y z
#    x 1.559790 0.000000 0.000000 
#    y 0.000000 1.563770 0.000000 
#    z 0.000000 0.000000 1.543380 
# 
# From -- ./inp_files/21651.got.cif
#   From: 2010.05.17/outbox.cif.g08.bks.cpg/sg47_11_cif.got.tgz:21651.got - 2010.06.03 20:15:42.
