data_PCOD9382037
_publ_section_title
;
Structure prediction by ZEFSAII (Michael W. Deem and Ramdas Pophale) SiO2 
 PCOD9382037
Probable space group: P M M M
;
_chemical_formula_sum "Si O2"
_cell_formula_units_Z 52
_cell_length_a 8.170420
_cell_length_b 13.782095
_cell_length_c 22.578884
_cell_angle_alpha 90.000000
_cell_angle_beta 90.000000
_cell_angle_gamma 90.000000
_cell_volume 2542.506627
_symmetry_space_group_name_H-M "P M M M"
_symmetry_group_IT_number 47
_symmetry_cell_setting 'orthorhombic'
loop_
_space_group_symop_operation_xyz
x,y,z
-x,-y,z
x,-y,-z
-x,y,-z
-x,-y,-z
x,y,-z
-x,y,z
x,-y,z
loop_
_atom_site_type_symbol
_atom_site_label
_atom_site_fract_x
_atom_site_fract_y
_atom_site_fract_z
Si Si1 0.196711 0.195841 0.563309
Si Si2 0.198906 0.500000 0.930331
Si Si3 0.188461 0.306965 0.865748
Si Si4 0.802274 0.609690 0.616585
Si Si5 0.804142 0.110804 0.181163
Si Si6 0.311904 0.383599 0.747372
Si Si7 0.315535 0.883893 0.688152
O O1 0.258264 0.156441 0.500000
O O2 0.245345 0.308729 0.569971
O O3 0.247134 0.147700 0.624828
O O4 0.000000 0.190961 0.561830
O O5 0.261427 0.398859 0.901542
O O6 0.000000 0.500000 0.920968
O O7 0.230518 0.500000 0.000000
O O8 0.260078 0.197541 0.861282
O O9 0.196959 0.341908 0.797806
O O10 0.000000 0.297414 0.885752
O O11 0.745083 0.500000 0.604676
O O12 0.738020 0.642594 0.680828
O O13 0.000000 0.607483 0.619438
O O14 0.772474 0.139475 0.249887
O O15 0.000000 0.107694 0.173394
O O16 0.741250 0.000000 0.171937
O O17 0.500000 0.356656 0.759797
O O18 0.300018 0.500000 0.749934
O O19 0.500000 0.846794 0.693048
O O20 0.317126 0.000000 0.686789
#
# Coordination Sequence:
#
# PCOD9382037 Si02
#       7
#     8   4   8   8   8   8   8
#     4  10  21  35  50  69  92 122 163 206 248 297
#     4   9  18  32  51  77 107 141 180 213 240 277
#     4  10  18  30  51  74 100 135 172 208 242 288
#     4   9  18  32  49  68  93 125 159 198 244 297
#     4   9  18  32  51  76 103 130 162 204 255 303
#     4  10  19  29  44  70 101 127 156 200 254 304
#     4  10  21  36  53  73  97 125 158 200 251 303
#
# _framework density 20.452256999999999
#
# number of rings (size 3 to 8) (size 9 to 14) (size 15 to 20)
#    0.000    2.385    0.769    1.846    0.000    7.385 
#    0.000    3.077    0.000    1.385    0.000    6.462 
#    0.000    0.000    0.000    5.231    0.000    5.538 
#
# Total GULP energy -289798.327112 kJ/mol
# GULP energy per Si atom -5573.044752 kJ/mol
# Density = 2.040571 g / cm^3
# Si number density = 20.452257 Si / 1000 Ang^3
#
#
#
# Elastic Constant Matrix: (Units=GPa)
#
#
# Indices 1 2 3 4 5 6 
#
# 1 11.6014 10.1900 0.2536 0.0000 0.0000 0.0000
# 2 10.1900 122.8030 70.0476 0.0000 0.0000 0.0000
# 3 0.2536 70.0476 68.9581 0.0000 0.0000 0.0000
# 4 0.0000 0.0000 0.0000 -27.7321 0.0000 0.0000
# 5 0.0000 0.0000 0.0000 0.0000 -16.3253 0.0000
# 6 0.0000 0.0000 0.0000 0.0000 0.0000 7.7269
#
#
#
# Elastic Compliance Matrix: (Units=1/GPa)
#
#
# Indices 1 2 3 4 5 6 
#
# 1 0.103195 -0.019845 0.019779 0.000000 0.000000 0.000000
# 2 -0.019845 0.023178 -0.023471 0.000000 0.000000 0.000000
# 3 0.019779 -0.023471 0.038271 0.000000 0.000000 0.000000
# 4 0.000000 0.000000 0.000000 -0.036059 0.000000 0.000000
# 5 0.000000 0.000000 0.000000 0.000000 -0.061255 0.000000
# 6 0.000000 0.000000 0.000000 0.000000 0.000000 0.129418
#
#
# Mechanical properties :
#
#
# Convention : Reuss Voigt Hill
#
# Bulk Modulus (GPa) = 8.50561 40.48276 24.49418
# Shear Modulus (GPa) = 17.66710 0.92532 9.29621
#
# Velocity S-wave (km/s) = 2.94227 0.67336 2.13429
# Velocity P-wave (km/s) = 3.96364 4.52121 4.25157
#
# Compressibility (1/GPa) = 0.11756947
#
# Stress axis : x y z
#
# Youngs Moduli (GPa) = 9.69038 43.14466 26.12968
#
# Poissons Ratio (x) = 0.85620 -0.51682
# Poissons Ratio (y) = 0.19231 0.61329
# Poissons Ratio (z) = -0.19167 1.01265
#
# Static dielectric constant tensor:
#      x y z
#    x 1.724830 0.000000 0.000000 
#    y 0.000000 1.819080 0.000000 
#    z 0.000000 0.000000 1.709930 
# 
# From -- ./inp_files/21447.got.cif
#   From: 2010.05.17/outbox.cif.g08.bks.cpg/sg47_11_cif.got.tgz:21447.got - 2010.06.03 20:15:42.
