data_PCOD9382398
_publ_section_title
;
Structure prediction by ZEFSAII (Michael W. Deem and Ramdas Pophale) SiO2 
 PCOD9382398
Probable space group: P M M M
;
_chemical_formula_sum "Si O2"
_cell_formula_units_Z 64
_cell_length_a 19.824135
_cell_length_b 7.422931
_cell_length_c 24.729282
_cell_angle_alpha 90.000000
_cell_angle_beta 90.000000
_cell_angle_gamma 90.000000
_cell_volume 3638.992640
_symmetry_space_group_name_H-M "P M M M"
_symmetry_group_IT_number 47
_symmetry_cell_setting 'orthorhombic'
loop_
_space_group_symop_operation_xyz
x,y,z
-x,-y,z
x,-y,-z
-x,y,-z
-x,-y,-z
x,y,-z
-x,y,z
x,-y,z
loop_
_atom_site_type_symbol
_atom_site_label
_atom_site_fract_x
_atom_site_fract_y
_atom_site_fract_z
Si Si1 0.077487 0.719634 0.938694
Si Si2 0.923572 0.719401 0.271160
Si Si3 0.574488 0.787143 0.730583
Si Si4 0.159000 0.719694 0.835683
Si Si5 0.425207 0.708348 0.393946
Si Si6 0.203934 0.719717 0.664537
Si Si7 0.715522 0.720653 0.439294
Si Si8 0.715779 0.715092 0.229365
O O1 0.078211 0.500000 0.938456
O O2 0.128547 0.781536 0.892417
O O3 0.000000 0.772224 0.926517
O O4 0.093552 0.776323 0.000000
O O5 0.924786 0.500000 0.271352
O O6 0.890571 0.770864 0.213694
O O7 0.871005 0.775123 0.317624
O O8 0.000000 0.782210 0.277081
O O9 0.500000 0.723981 0.748289
O O10 0.587721 0.709660 0.670699
O O11 0.636639 0.753206 0.770304
O O12 0.571302 0.000000 0.722644
O O13 0.159270 0.500000 0.837364
O O14 0.233963 0.779311 0.817804
O O15 0.500000 0.788050 0.402844
O O16 0.429123 0.500000 0.410956
O O17 0.359768 0.784219 0.423429
O O18 0.204794 0.500000 0.664374
O O19 0.232900 0.779323 0.607270
O O20 0.253197 0.778784 0.713365
O O21 0.732973 0.774733 0.500000
O O22 0.714481 0.500000 0.437806
O O23 0.722292 0.500000 0.229890
#
# Coordination Sequence:
#
# PCOD9382398 Si02
#       8
#     8   8   8   8   8   8   8   8
#     4   8  12  17  26  44  77 118 146 160 182 220
#     4   8  12  17  27  43  65  93 121 152 186 218
#     4  10  19  28  39  56  77  99 121 147 185 232
#     4   8  13  19  30  49  72  99 133 165 186 212
#     4   9  16  26  40  55  71  93 121 150 179 218
#     4   8  13  21  32  48  68  88 116 151 186 221
#     4   9  15  22  34  51  69  89 117 155 189 215
#     4   9  15  25  40  55  73  98 127 158 188 219
#
# _framework density 17.587284
#
# number of rings (size 3 to 8) (size 9 to 14) (size 15 to 20)
#    0.000    3.375    1.250    2.625    0.000    2.500 
#    0.000    1.250    0.000    0.750    0.000    4.375 
#    0.000   13.500    0.000    7.625    0.000    7.250 
#
# Total GULP energy -356596.108478 kJ/mol
# GULP energy per Si atom -5571.814195 kJ/mol
# Density = 1.754725 g / cm^3
# Si number density = 17.587284 Si / 1000 Ang^3
#
#
#
# Elastic Constant Matrix: (Units=GPa)
#
#
# Indices 1 2 3 4 5 6 
#
# 1 139.9045 1.2351 79.9686 0.0000 0.0000 0.0000
# 2 1.2351 54.4166 3.8573 0.0000 0.0000 0.0000
# 3 79.9686 3.8573 122.6749 0.0000 0.0000 0.0000
# 4 0.0000 0.0000 0.0000 -47.7418 0.0000 0.0000
# 5 0.0000 0.0000 0.0000 0.0000 27.6744 0.0000
# 6 0.0000 0.0000 0.0000 0.0000 0.0000 -87.5200
#
#
#
# Elastic Compliance Matrix: (Units=1/GPa)
#
#
# Indices 1 2 3 4 5 6 
#
# 1 0.011397 0.000269 -0.007438 0.000000 0.000000 0.000000
# 2 0.000269 0.018424 -0.000754 0.000000 0.000000 0.000000
# 3 -0.007438 -0.000754 0.013024 0.000000 0.000000 0.000000
# 4 0.000000 0.000000 0.000000 -0.020946 0.000000 0.000000
# 5 0.000000 0.000000 0.000000 0.000000 0.036134 0.000000
# 6 0.000000 0.000000 0.000000 0.000000 0.000000 -0.011426
#
#
# Mechanical properties :
#
#
# Convention : Reuss Voigt Hill
#
# Bulk Modulus (GPa) = 37.04031 54.12423 45.58227
# Shear Modulus (GPa) = 69.97586 -6.05514 31.96036
#
# Velocity S-wave (km/s) = 6.31460 -1.85752 4.26754
# Velocity P-wave (km/s) = 8.61812 5.12259 7.08918
#
# Compressibility (1/GPa) = 0.02699762
#
# Stress axis : x y z
#
# Youngs Moduli (GPa) = 87.74483 54.27662 76.78275
#
# Poissons Ratio (x) = -0.01458 0.57108
# Poissons Ratio (y) = -0.02356 0.05792
# Poissons Ratio (z) = 0.65262 0.04094
#
# Static dielectric constant tensor:
#      x y z
#    x 1.631930 0.000000 0.000000 
#    y 0.000000 1.664670 0.000000 
#    z 0.000000 0.000000 1.573200 
# 
# From -- ./inp_files/32947.got.cif
#   From: 2010.05.17/outbox.cif.g08.bks.cpg/sg47_17_cif.got.tgz:32947.got - 2010.06.03 20:15:42.
