data_PCOD9382264
_publ_section_title
;
Structure prediction by ZEFSAII (Michael W. Deem and Ramdas Pophale) SiO2 
 PCOD9382264
Probable space group: P M M M
;
_chemical_formula_sum "Si O2"
_cell_formula_units_Z 52
_cell_length_a 30.311643
_cell_length_b 12.153849
_cell_length_c 7.916343
_cell_angle_alpha 90.000000
_cell_angle_beta 90.000000
_cell_angle_gamma 90.000000
_cell_volume 2916.405555
_symmetry_space_group_name_H-M "P M M M"
_symmetry_group_IT_number 47
_symmetry_cell_setting 'orthorhombic'
loop_
_space_group_symop_operation_xyz
x,y,z
-x,-y,z
x,-y,-z
-x,y,-z
-x,-y,-z
x,y,-z
-x,y,z
x,-y,z
loop_
_atom_site_type_symbol
_atom_site_label
_atom_site_fract_x
_atom_site_fract_y
_atom_site_fract_z
Si Si1 0.200989 0.238475 0.706070
Si Si2 0.114185 0.369606 0.194086
Si Si3 0.550616 0.623921 0.203848
Si Si4 0.287543 0.374836 0.706223
Si Si5 0.769928 0.000000 0.302010
Si Si6 0.631102 0.772248 0.299468
Si Si7 0.329941 0.000000 0.192465
Si Si8 0.050108 0.366891 0.500000
O O1 0.198504 0.239233 0.500000
O O2 0.157408 0.296371 0.775384
O O3 0.243630 0.310104 0.755088
O O4 0.210132 0.113865 0.766073
O O5 0.124730 0.500000 0.221370
O O6 0.077595 0.337149 0.332371
O O7 0.099210 0.358205 0.000000
O O8 0.500000 0.642553 0.258577
O O9 0.563811 0.500000 0.260570
O O10 0.584439 0.716323 0.261965
O O11 0.550775 0.623125 0.000000
O O12 0.288549 0.376457 0.500000
O O13 0.287209 0.500000 0.765313
O O14 0.330681 0.309726 0.764556
O O15 0.716559 0.000000 0.291115
O O16 0.780828 0.000000 0.500000
O O17 0.636035 0.781969 0.500000
O O18 0.641232 0.892040 0.227320
O O19 0.315623 0.000000 0.000000
O O20 0.047844 0.500000 0.500000
O O21 0.000000 0.324850 0.500000
#
# Coordination Sequence:
#
# PCOD9382264 Si02
#       8
#     8   8   8   8   4   8   4   4
#     4  10  18  32  53  75 109 148 185 226 276 332
#     4  10  20  33  52  81 115 148 187 235 283 334
#     4   9  19  37  59  83 113 144 172 211 269 333
#     4   9  17  28  48  77 105 137 173 212 264 324
#     4  10  20  36  56  79 105 145 193 236 275 318
#     4  11  21  36  56  78 107 139 181 229 272 320
#     4  12  24  38  55  75 106 146 185 228 278 330
#     4   9  18  34  56  81 113 153 191 228 282 345
#
# _framework density 17.830166999999999
#
# number of rings (size 3 to 8) (size 9 to 14) (size 15 to 20)
#    0.000    2.077    2.308    2.538    0.000    2.769 
#    0.000    2.692    0.000    5.077    0.000    1.077 
#    0.000    1.231    0.000    0.000    0.000    0.000 
#
# Total GULP energy -290191.162327 kJ/mol
# GULP energy per Si atom -5580.599276 kJ/mol
# Density = 1.778958 g / cm^3
# Si number density = 17.830167 Si / 1000 Ang^3
#
#
#
# Elastic Constant Matrix: (Units=GPa)
#
#
# Indices 1 2 3 4 5 6 
#
# 1 112.8187 68.2475 21.8224 0.0000 0.0000 0.0000
# 2 68.2475 144.4030 26.4490 0.0000 0.0000 0.0000
# 3 21.8224 26.4490 45.4526 0.0000 0.0000 0.0000
# 4 0.0000 0.0000 0.0000 9.9057 0.0000 0.0000
# 5 0.0000 0.0000 0.0000 0.0000 -8.3583 0.0000
# 6 0.0000 0.0000 0.0000 0.0000 0.0000 2.9052
#
#
#
# Elastic Compliance Matrix: (Units=1/GPa)
#
#
# Indices 1 2 3 4 5 6 
#
# 1 0.012751 -0.005490 -0.002927 0.000000 0.000000 0.000000
# 2 -0.005490 0.010115 -0.003250 0.000000 0.000000 0.000000
# 3 -0.002927 -0.003250 0.025298 0.000000 0.000000 0.000000
# 4 0.000000 0.000000 0.000000 0.100952 0.000000 0.000000
# 5 0.000000 0.000000 0.000000 0.000000 -0.119642 0.000000
# 6 0.000000 0.000000 0.000000 0.000000 0.000000 0.344209
#
#
# Mechanical properties :
#
#
# Convention : Reuss Voigt Hill
#
# Bulk Modulus (GPa) = 40.27585 59.52357 49.89971
# Shear Modulus (GPa) = 12.33671 13.30089 12.81880
#
# Velocity S-wave (km/s) = 2.63325 2.73422 2.68421
# Velocity P-wave (km/s) = 5.64650 6.58969 6.13625
#
# Compressibility (1/GPa) = 0.02482877
#
# Stress axis : x y z
#
# Youngs Moduli (GPa) = 78.42369 98.86131 39.52948
#
# Poissons Ratio (x) = 0.54278 0.11571
# Poissons Ratio (y) = 0.43057 0.12847
# Poissons Ratio (z) = 0.22956 0.32131
#
# Static dielectric constant tensor:
#      x y z
#    x 1.578320 0.000000 0.000000 
#    y 0.000000 1.603580 0.000000 
#    z 0.000000 0.000000 1.642480 
# 
# From -- ./inp_files/13330.got.cif
#   From: 2010.05.17/outbox.cif.g08.bks.cpg/sg47_7_cif.got.tgz:13330.got - 2010.06.03 20:15:42.
