data_PCOD9382400
_publ_section_title
;
Structure prediction by ZEFSAII (Michael W. Deem and Ramdas Pophale) SiO2 
 PCOD9382400
Probable space group: P M M M
;
_chemical_formula_sum "Si O2"
_cell_formula_units_Z 56
_cell_length_a 9.411162
_cell_length_b 13.859943
_cell_length_c 29.501061
_cell_angle_alpha 90.000000
_cell_angle_beta 90.000000
_cell_angle_gamma 90.000000
_cell_volume 3848.064377
_symmetry_space_group_name_H-M "P M M M"
_symmetry_group_IT_number 47
_symmetry_cell_setting 'orthorhombic'
loop_
_space_group_symop_operation_xyz
x,y,z
-x,-y,z
x,-y,-z
-x,y,-z
-x,-y,-z
x,y,-z
-x,y,z
x,-y,z
loop_
_atom_site_type_symbol
_atom_site_label
_atom_site_fract_x
_atom_site_fract_y
_atom_site_fract_z
Si Si1 0.331846 0.888656 0.412205
Si Si2 0.663337 0.882483 0.138678
Si Si3 0.165095 0.882708 0.050778
Si Si4 0.332801 0.799871 0.313639
Si Si5 0.167012 0.116083 0.228919
Si Si6 0.831090 0.707374 0.551860
Si Si7 0.668675 0.609811 0.632629
O O1 0.500000 0.873142 0.421582
O O2 0.311035 0.864326 0.358884
O O3 0.238391 0.812323 0.439504
O O4 0.297847 0.000000 0.421418
O O5 0.500000 0.851395 0.141736
O O6 0.737555 0.849582 0.092147
O O7 0.752802 0.854145 0.182871
O O8 0.664043 0.000000 0.137826
O O9 0.000000 0.855921 0.057839
O O10 0.169016 0.000000 0.050910
O O11 0.208684 0.852014 0.000000
O O12 0.500000 0.806374 0.301747
O O13 0.238423 0.835242 0.272354
O O14 0.299896 0.690826 0.329715
O O15 0.000000 0.137532 0.225966
O O16 0.182534 0.000000 0.233336
O O17 0.805678 0.677686 0.500000
O O18 0.756667 0.637607 0.588033
O O19 0.000000 0.711284 0.559607
O O20 0.500000 0.619591 0.622499
O O21 0.696321 0.500000 0.646590
#
# Coordination Sequence:
#
# PCOD9382400 Si02
#       7
#     8   8   8   8   8   8   8
#     4   9  18  32  49  67  87 114 146 176 204 238
#     4   9  16  24  34  49  70  98 134 175 213 245
#     4   8  13  21  32  45  64  93 129 170 214 254
#     4   9  17  30  47  65  84 104 130 166 205 244
#     4  10  19  28  39  57  82 111 140 169 203 245
#     4  10  21  34  47  67  94 118 139 167 204 244
#     4   9  19  36  55  71  86 107 136 169 205 247
#
# _framework density 14.552771
#
# number of rings (size 3 to 8) (size 9 to 14) (size 15 to 20)
#    0.000    2.857    0.000    3.000    0.000    8.000 
#    0.000    4.286    0.000    0.000    0.000    0.000 
#    0.000    0.000    0.000    0.000    0.000    0.714 
#
# Total GULP energy -312015.162566 kJ/mol
# GULP energy per Si atom -5571.699332 kJ/mol
# Density = 1.451965 g / cm^3
# Si number density = 14.552771 Si / 1000 Ang^3
#
#
#
# Elastic Constant Matrix: (Units=GPa)
#
#
# Indices 1 2 3 4 5 6 
#
# 1 82.3880 19.0872 68.9545 0.0000 0.0000 0.0000
# 2 19.0872 33.2331 8.4263 0.0000 0.0000 0.0000
# 3 68.9545 8.4263 93.8749 0.0000 0.0000 0.0000
# 4 0.0000 0.0000 0.0000 7.3823 0.0000 0.0000
# 5 0.0000 0.0000 0.0000 0.0000 33.1707 0.0000
# 6 0.0000 0.0000 0.0000 0.0000 0.0000 9.5907
#
#
#
# Elastic Compliance Matrix: (Units=1/GPa)
#
#
# Indices 1 2 3 4 5 6 
#
# 1 0.037571 -0.014921 -0.026258 0.000000 0.000000 0.000000
# 2 -0.014921 0.036717 0.007664 0.000000 0.000000 0.000000
# 3 -0.026258 0.007664 0.029252 0.000000 0.000000 0.000000
# 4 0.000000 0.000000 0.000000 0.135459 0.000000 0.000000
# 5 0.000000 0.000000 0.000000 0.000000 0.030147 0.000000
# 6 0.000000 0.000000 0.000000 0.000000 0.000000 0.104267
#
#
# Mechanical properties :
#
#
# Convention : Reuss Voigt Hill
#
# Bulk Modulus (GPa) = 27.38934 44.71465 36.05199
# Shear Modulus (GPa) = 11.04698 17.56395 14.30547
#
# Velocity S-wave (km/s) = 2.75816 3.47784 3.13869
# Velocity P-wave (km/s) = 5.38561 6.84980 6.16135
#
# Compressibility (1/GPa) = 0.03651056
#
# Stress axis : x y z
#
# Youngs Moduli (GPa) = 26.61631 27.23544 34.18579
#
# Poissons Ratio (x) = 0.40638 0.89765
# Poissons Ratio (y) = 0.39714 -0.26201
# Poissons Ratio (z) = 0.69889 -0.20874
#
# Static dielectric constant tensor:
#      x y z
#    x 1.484170 0.000000 0.000000 
#    y 0.000000 1.463460 0.000000 
#    z 0.000000 0.000000 1.474570 
# 
# From -- ./inp_files/8139.got.cif
#   From: 2010.05.17/outbox.cif.g08.bks.cpg/sg47_5_cif.got.tgz:8139.got - 2010.06.03 20:15:42.
