data_PCOD9382177
_publ_section_title
;
Structure prediction by ZEFSAII (Michael W. Deem and Ramdas Pophale) SiO2 
 PCOD9382177
Probable space group: P M M M
;
_chemical_formula_sum "Si O2"
_cell_formula_units_Z 48
_cell_length_a 7.466035
_cell_length_b 18.605165
_cell_length_c 15.934215
_cell_angle_alpha 90.000000
_cell_angle_beta 90.000000
_cell_angle_gamma 90.000000
_cell_volume 2213.371024
_symmetry_space_group_name_H-M "P M M M"
_symmetry_group_IT_number 47
_symmetry_cell_setting 'orthorhombic'
loop_
_space_group_symop_operation_xyz
x,y,z
-x,-y,z
x,-y,-z
-x,y,-z
-x,-y,-z
x,y,-z
-x,y,z
x,-y,z
loop_
_atom_site_type_symbol
_atom_site_label
_atom_site_fract_x
_atom_site_fract_y
_atom_site_fract_z
Si Si1 0.715204 0.195807 0.092877
Si Si2 0.218749 0.845574 0.594237
Si Si3 0.781257 0.418242 0.500000
Si Si4 0.291912 0.653284 0.159758
Si Si5 0.214203 0.920335 0.237160
Si Si6 0.783182 0.314873 0.351415
Si Si7 0.282889 0.500000 0.901223
O O1 0.500000 0.200768 0.090248
O O2 0.785341 0.275477 0.115741
O O3 0.753446 0.138858 0.165836
O O4 0.777889 0.173911 0.000000
O O5 0.276959 0.864946 0.500000
O O6 0.280691 0.894324 0.671670
O O7 0.271133 0.763771 0.616240
O O8 0.000000 0.847225 0.593583
O O9 0.720748 0.500000 0.500000
O O10 0.725066 0.374595 0.417877
O O11 0.000000 0.418304 0.500000
O O12 0.500000 0.650206 0.133260
O O13 0.282504 0.668245 0.258639
O O14 0.215288 0.574955 0.137897
O O15 0.000000 0.924605 0.244719
O O16 0.281848 0.000000 0.215574
O O17 0.000000 0.314839 0.348471
O O18 0.500000 0.500000 0.889963
O O19 0.245406 0.500000 0.000000
#
# Coordination Sequence:
#
# PCOD9382177 Si02
#       7
#     8   8   4   8   8   8   4
#     4  10  21  37  57  79 104 140 183 220 259 315
#     4   9  16  30  53  78 104 136 173 211 254 308
#     4   9  18  30  47  75 106 138 177 216 255 308
#     4  10  20  34  54  79 105 133 172 219 264 309
#     4  10  21  36  55  82 112 138 170 219 274 319
#     4  10  18  31  52  75 101 137 176 212 254 306
#     4   9  18  34  55  76 101 134 170 211 259 311
#
# _framework density 21.68638
#
# number of rings (size 3 to 8) (size 9 to 14) (size 15 to 20)
#    0.000    2.333    2.500    0.500    1.167    3.333 
#    0.000    3.750    0.000    4.000    0.000    1.167 
#    0.000    0.000    0.000    0.000    0.000    0.000 
#
# Total GULP energy -268082.807129 kJ/mol
# GULP energy per Si atom -5585.058482 kJ/mol
# Density = 2.163702 g / cm^3
# Si number density = 21.686380 Si / 1000 Ang^3
#
#
#
# Elastic Constant Matrix: (Units=GPa)
#
#
# Indices 1 2 3 4 5 6 
#
# 1 63.0495 11.6438 -1.7177 0.0000 0.0000 0.0000
# 2 11.6438 171.2714 90.1032 0.0000 0.0000 0.0000
# 3 -1.7177 90.1032 165.6143 0.0000 0.0000 0.0000
# 4 0.0000 0.0000 0.0000 11.7569 0.0000 0.0000
# 5 0.0000 0.0000 0.0000 0.0000 15.0664 0.0000
# 6 0.0000 0.0000 0.0000 0.0000 0.0000 -0.6324
#
#
#
# Elastic Compliance Matrix: (Units=1/GPa)
#
#
# Indices 1 2 3 4 5 6 
#
# 1 0.016198 -0.001667 0.001075 0.000000 0.000000 0.000000
# 2 -0.001667 0.008351 -0.004561 0.000000 0.000000 0.000000
# 3 0.001075 -0.004561 0.008531 0.000000 0.000000 0.000000
# 4 0.000000 0.000000 0.000000 0.085056 0.000000 0.000000
# 5 0.000000 0.000000 0.000000 0.000000 0.066373 0.000000
# 6 0.000000 0.000000 0.000000 0.000000 0.000000 -1.581307
#
#
# Mechanical properties :
#
#
# Convention : Reuss Voigt Hill
#
# Bulk Modulus (GPa) = 43.90949 66.66597 55.28773
# Shear Modulus (GPa) = -3.62607 25.23191 10.80292
#
# Velocity S-wave (km/s) = -1.29448 3.41470 2.23433
# Velocity P-wave (km/s) = 4.24938 6.80842 5.67502
#
# Compressibility (1/GPa) = 0.02277412
#
# Stress axis : x y z
#
# Youngs Moduli (GPa) = 61.73751 119.74025 117.22427
#
# Poissons Ratio (x) = 0.19956 -0.12598
# Poissons Ratio (y) = 0.10289 0.53465
# Poissons Ratio (z) = -0.06635 0.54612
#
# Static dielectric constant tensor:
#      x y z
#    x 1.866190 0.000000 0.000000 
#    y 0.000000 1.771160 0.000000 
#    z 0.000000 0.000000 1.743100 
# 
# From -- ./inp_files/21161.got.cif
#   From: 2010.05.17/outbox.cif.g08.bks.cpg/sg47_11_cif.got.tgz:21161.got - 2010.06.03 20:15:42.
