data_PCOD9382202
_publ_section_title
;
Structure prediction by ZEFSAII (Michael W. Deem and Ramdas Pophale) SiO2 
 PCOD9382202
Probable space group: P M M M
;
_chemical_formula_sum "Si O2"
_cell_formula_units_Z 60
_cell_length_a 20.315958
_cell_length_b 7.364858
_cell_length_c 18.513455
_cell_angle_alpha 90.000000
_cell_angle_beta 90.000000
_cell_angle_gamma 90.000000
_cell_volume 2770.059890
_symmetry_space_group_name_H-M "P M M M"
_symmetry_group_IT_number 47
_symmetry_cell_setting 'orthorhombic'
loop_
_space_group_symop_operation_xyz
x,y,z
-x,-y,z
x,-y,-z
-x,y,-z
-x,-y,-z
x,y,-z
-x,y,z
x,-y,z
loop_
_atom_site_type_symbol
_atom_site_label
_atom_site_fract_x
_atom_site_fract_y
_atom_site_fract_z
Si Si1 0.392507 0.720341 0.078205
Si Si2 0.571341 0.278389 0.238923
Si Si3 0.752974 0.719206 0.876208
Si Si4 0.286620 0.283040 0.717187
Si Si5 0.102930 0.791172 0.077473
Si Si6 0.160898 0.784145 0.361498
Si Si7 0.927806 0.220593 0.765906
Si Si8 0.077298 0.777619 0.500000
O O1 0.397888 0.500000 0.078212
O O2 0.422956 0.778361 0.154536
O O3 0.315208 0.766115 0.085084
O O4 0.417784 0.782618 0.000000
O O5 0.500000 0.221258 0.267368
O O6 0.572302 0.500000 0.238983
O O7 0.637544 0.218936 0.280293
O O8 0.757737 0.500000 0.876750
O O9 0.745907 0.781649 0.792872
O O10 0.818155 0.790630 0.913410
O O11 0.289482 0.500000 0.722827
O O12 0.238794 0.243086 0.650215
O O13 0.078297 0.710106 0.152570
O O14 0.080222 0.000000 0.076063
O O15 0.085418 0.709384 0.000000
O O16 0.126612 0.710931 0.288979
O O17 0.120061 0.717879 0.430484
O O18 0.151270 0.000000 0.362235
O O19 0.000000 0.260693 0.736388
O O20 0.921627 0.000000 0.770093
O O21 0.000000 0.721998 0.500000
O O22 0.075935 0.000000 0.500000
#
# Coordination Sequence:
#
# PCOD9382202 Si02
#       8
#     8   8   8   8   8   8   8   4
#     4   8  13  20  32  53  80 111 149 192 238 284
#     4   8  14  24  38  59  88 121 157 196 237 279
#     4   9  16  27  42  59  83 117 154 191 233 280
#     4   9  17  29  47  70  95 124 158 195 232 274
#     4  10  19  28  40  61  86 111 148 198 240 271
#     4  10  18  31  53  76  97 123 153 187 226 277
#     4   9  17  29  45  64  87 117 150 184 227 273
#     4   9  18  32  53  83 110 127 152 192 233 277
#
# _framework density 21.66018
#
# number of rings (size 3 to 8) (size 9 to 14) (size 15 to 20)
#    0.000    3.000    1.333    2.400    0.000    2.933 
#    0.000    3.000    0.000    3.600    0.000    1.400 
#    0.000    3.733    0.000   14.133    0.000   10.667 
#
# Total GULP energy -334686.051269 kJ/mol
# GULP energy per Si atom -5578.100854 kJ/mol
# Density = 2.161088 g / cm^3
# Si number density = 21.660180 Si / 1000 Ang^3
#
#
#
# Elastic Constant Matrix: (Units=GPa)
#
#
# Indices 1 2 3 4 5 6 
#
# 1 162.6818 0.5127 72.4333 0.0000 0.0000 0.0000
# 2 0.5127 79.3438 5.9090 0.0000 0.0000 0.0000
# 3 72.4333 5.9090 109.9133 0.0000 0.0000 0.0000
# 4 0.0000 0.0000 0.0000 76.0318 0.0000 0.0000
# 5 0.0000 0.0000 0.0000 0.0000 -45.4159 0.0000
# 6 0.0000 0.0000 0.0000 0.0000 0.0000 6.8907
#
#
#
# Elastic Compliance Matrix: (Units=1/GPa)
#
#
# Indices 1 2 3 4 5 6 
#
# 1 0.008711 0.000373 -0.005760 0.000000 0.000000 0.000000
# 2 0.000373 0.012670 -0.000927 0.000000 0.000000 0.000000
# 3 -0.005760 -0.000927 0.012944 0.000000 0.000000 0.000000
# 4 0.000000 0.000000 0.000000 0.013152 0.000000 0.000000
# 5 0.000000 0.000000 0.000000 0.000000 -0.022019 0.000000
# 6 0.000000 0.000000 0.000000 0.000000 0.000000 0.145124
#
#
# Mechanical properties :
#
#
# Convention : Reuss Voigt Hill
#
# Bulk Modulus (GPa) = 46.09194 56.62763 51.35979
# Shear Modulus (GPa) = 26.25458 25.70691 25.98075
#
# Velocity S-wave (km/s) = 3.48532 3.44877 3.46709
# Velocity P-wave (km/s) = 6.12555 6.48530 6.30799
#
# Compressibility (1/GPa) = 0.02169577
#
# Stress axis : x y z
#
# Youngs Moduli (GPa) = 114.80330 78.92669 77.25598
#
# Poissons Ratio (x) = -0.02942 0.44502
# Poissons Ratio (y) = -0.04279 0.07160
# Poissons Ratio (z) = 0.66130 0.07315
#
# Static dielectric constant tensor:
#      x y z
#    x 1.807550 0.000000 0.000000 
#    y 0.000000 1.852630 0.000000 
#    z 0.000000 0.000000 1.778160 
# 
# From -- ./inp_files/28668.got.cif
#   From: 2010.05.17/outbox.cif.g08.bks.cpg/sg47_15_cif.got.tgz:28668.got - 2010.06.03 20:15:42.
