data_PCOD9382859
_publ_section_title
;
Structure prediction by ZEFSAII (Michael W. Deem and Ramdas Pophale) SiO2 
 PCOD9382859
Probable space group: P M M M
;
_chemical_formula_sum "Si O2"
_cell_formula_units_Z 56
_cell_length_a 8.960666
_cell_length_b 19.458146
_cell_length_c 18.978151
_cell_angle_alpha 90.000000
_cell_angle_beta 90.000000
_cell_angle_gamma 90.000000
_cell_volume 3308.991452
_symmetry_space_group_name_H-M "P M M M"
_symmetry_group_IT_number 47
_symmetry_cell_setting 'orthorhombic'
loop_
_space_group_symop_operation_xyz
x,y,z
-x,-y,z
x,-y,-z
-x,y,-z
-x,-y,-z
x,y,-z
-x,y,z
x,-y,z
loop_
_atom_site_type_symbol
_atom_site_label
_atom_site_fract_x
_atom_site_fract_y
_atom_site_fract_z
Si Si1 0.822714 0.578587 0.850799
Si Si2 0.677857 0.422058 0.695599
Si Si3 0.679909 0.079115 0.719067
Si Si4 0.822776 0.712545 0.651157
Si Si5 0.678083 0.290855 0.918911
Si Si6 0.679262 0.840363 0.421103
Si Si7 0.177511 0.204721 0.795686
O O1 0.800150 0.500000 0.875334
O O2 0.751603 0.583882 0.773002
O O3 0.747561 0.635229 0.899643
O O4 0.000000 0.591409 0.845621
O O5 0.500000 0.413228 0.701945
O O6 0.707445 0.500000 0.670375
O O7 0.746577 0.361665 0.648878
O O8 0.500000 0.083939 0.725624
O O9 0.720078 0.106327 0.640668
O O10 0.755417 0.131487 0.773297
O O11 0.723387 0.000000 0.728444
O O12 0.754856 0.767938 0.597737
O O13 0.793048 0.744733 0.729043
O O14 0.000000 0.707036 0.642339
O O15 0.500000 0.293667 0.909639
O O16 0.747094 0.236916 0.864205
O O17 0.711025 0.273617 0.000000
O O18 0.719424 0.862813 0.500000
O O19 0.500000 0.831902 0.418126
O O20 0.000000 0.200480 0.804687
#
# Coordination Sequence:
#
# PCOD9382859 Si02
#       7
#     8   8   8   8   8   8   8
#     4  10  20  33  49  71 101 136 173 214 262 313
#     4  10  19  30  48  73  99 130 170 218 267 310
#     4   9  18  33  55  82 110 140 171 206 249 298
#     4  10  19  31  50  74 100 134 174 215 259 306
#     4  11  23  36  52  74 101 136 176 219 266 313
#     4   9  18  32  51  77 109 143 175 207 246 297
#     4  10  20  34  53  76 102 134 172 214 257 306
#
# _framework density 16.923587000000001
#
# number of rings (size 3 to 8) (size 9 to 14) (size 15 to 20)
#    0.000    2.143    1.429    2.143    0.000    5.143 
#    0.000    2.857    0.000    0.857    0.000   10.000 
#    0.000    0.000    0.000    0.000    0.000    0.000 
#
# Total GULP energy -312512.240075 kJ/mol
# GULP energy per Si atom -5580.575716 kJ/mol
# Density = 1.688507 g / cm^3
# Si number density = 16.923587 Si / 1000 Ang^3
#
#
#
# Elastic Constant Matrix: (Units=GPa)
#
#
# Indices 1 2 3 4 5 6 
#
# 1 42.5240 48.1946 25.2866 0.0000 0.0000 0.0000
# 2 48.1946 129.6219 41.2822 0.0000 0.0000 0.0000
# 3 25.2866 41.2822 55.0906 0.0000 0.0000 0.0000
# 4 0.0000 0.0000 0.0000 15.6385 0.0000 0.0000
# 5 0.0000 0.0000 0.0000 0.0000 13.5845 0.0000
# 6 0.0000 0.0000 0.0000 0.0000 0.0000 23.3163
#
#
#
# Elastic Compliance Matrix: (Units=1/GPa)
#
#
# Indices 1 2 3 4 5 6 
#
# 1 0.044943 -0.013319 -0.010648 0.000000 0.000000 0.000000
# 2 -0.013319 0.014080 -0.004438 0.000000 0.000000 0.000000
# 3 -0.010648 -0.004438 0.026365 0.000000 0.000000 0.000000
# 4 0.000000 0.000000 0.000000 0.063945 0.000000 0.000000
# 5 0.000000 0.000000 0.000000 0.000000 0.073613 0.000000
# 6 0.000000 0.000000 0.000000 0.000000 0.000000 0.042889
#
#
# Mechanical properties :
#
#
# Convention : Reuss Voigt Hill
#
# Bulk Modulus (GPa) = 34.99156 50.75148 42.87152
# Shear Modulus (GPa) = 15.05252 18.00606 16.52929
#
# Velocity S-wave (km/s) = 2.98558 3.26538 3.12861
# Velocity P-wave (km/s) = 5.71017 6.65362 6.19987
#
# Compressibility (1/GPa) = 0.02857832
#
# Stress axis : x y z
#
# Youngs Moduli (GPa) = 22.25039 71.02217 37.92938
#
# Poissons Ratio (x) = 0.94594 0.40388
# Poissons Ratio (y) = 0.29635 0.16831
# Poissons Ratio (z) = 0.23693 0.31516
#
# Static dielectric constant tensor:
#      x y z
#    x 1.560650 0.000000 0.000000 
#    y 0.000000 1.565330 0.000000 
#    z 0.000000 0.000000 1.555760 
# 
# From -- ./inp_files/28734.got.cif
#   From: 2010.05.17/outbox.cif.g08.bks.cpg/sg47_15_cif.got.tgz:28734.got - 2010.06.03 20:15:42.
