data_PCOD9382148
_publ_section_title
;
Structure prediction by ZEFSAII (Michael W. Deem and Ramdas Pophale) SiO2 
 PCOD9382148
Probable space group: P M M M
;
_chemical_formula_sum "Si O2"
_cell_formula_units_Z 44
_cell_length_a 10.546904
_cell_length_b 29.389355
_cell_length_c 7.619380
_cell_angle_alpha 90.000000
_cell_angle_beta 90.000000
_cell_angle_gamma 90.000000
_cell_volume 2361.754119
_symmetry_space_group_name_H-M "P M M M"
_symmetry_group_IT_number 47
_symmetry_cell_setting 'orthorhombic'
loop_
_space_group_symop_operation_xyz
x,y,z
-x,-y,z
x,-y,-z
-x,y,-z
-x,-y,-z
x,y,-z
-x,y,z
x,-y,z
loop_
_atom_site_type_symbol
_atom_site_label
_atom_site_fract_x
_atom_site_fract_y
_atom_site_fract_z
Si Si1 0.350265 0.124629 0.289550
Si Si2 0.143120 0.696735 0.208650
Si Si3 0.347181 0.948678 0.000000
Si Si4 0.749704 0.603140 0.292212
Si Si5 0.144013 0.800829 0.709228
Si Si6 0.500000 0.447254 0.284384
Si Si7 0.000000 0.552686 0.284795
O O1 0.337681 0.117009 0.500000
O O2 0.500000 0.135405 0.257321
O O3 0.254108 0.164745 0.233169
O O4 0.315800 0.080671 0.173097
O O5 0.236089 0.657023 0.268356
O O6 0.177749 0.748291 0.255686
O O7 0.000000 0.688231 0.280144
O O8 0.136767 0.694100 0.000000
O O9 0.500000 0.951981 0.000000
O O10 0.295643 0.000000 0.000000
O O11 0.749229 0.594511 0.500000
O O12 0.623929 0.579581 0.222390
O O13 0.875590 0.578895 0.221496
O O14 0.136534 0.806292 0.500000
O O15 0.000000 0.808683 0.779578
O O16 0.500000 0.500000 0.231962
O O17 0.500000 0.446925 0.500000
O O18 0.000000 0.500000 0.233934
O O19 0.000000 0.553825 0.500000
#
# Coordination Sequence:
#
# PCOD9382148 Si02
#       7
#     8   8   4   8   8   4   4
#     4   9  18  33  53  79 110 142 180 229 273 316
#     4  10  20  33  50  73 100 129 164 208 252 302
#     4   9  18  32  53  81 113 149 187 229 270 315
#     4  10  18  31  51  72  97 125 156 201 250 299
#     4   9  18  33  54  77 101 134 175 214 260 315
#     4   9  18  32  51  75  99 123 157 203 251 298
#     4   9  16  26  47  75  93 115 157 201 241 290
#
# _framework density 18.630220000000001
#
# number of rings (size 3 to 8) (size 9 to 14) (size 15 to 20)
#    0.000    2.636    0.909    1.091    1.273    3.273 
#    1.636    2.273    0.000    4.364    0.000    2.545 
#    0.000    0.000    0.000    0.000    0.000    0.000 
#
# Total GULP energy -245302.339311 kJ/mol
# GULP energy per Si atom -5575.053166 kJ/mol
# Density = 1.858782 g / cm^3
# Si number density = 18.630220 Si / 1000 Ang^3
#
#
#
# Elastic Constant Matrix: (Units=GPa)
#
#
# Indices 1 2 3 4 5 6 
#
# 1 131.3797 104.0935 27.3451 0.0000 0.0000 0.0000
# 2 104.0935 169.6590 20.6107 0.0000 0.0000 0.0000
# 3 27.3451 20.6107 44.8135 0.0000 0.0000 0.0000
# 4 0.0000 0.0000 0.0000 44.3155 0.0000 0.0000
# 5 0.0000 0.0000 0.0000 0.0000 1.6470 0.0000
# 6 0.0000 0.0000 0.0000 0.0000 0.0000 33.4998
#
#
#
# Elastic Compliance Matrix: (Units=1/GPa)
#
#
# Indices 1 2 3 4 5 6 
#
# 1 0.016024 -0.009155 -0.005567 0.000000 0.000000 0.000000
# 2 -0.009155 0.011474 0.000309 0.000000 0.000000 0.000000
# 3 -0.005567 0.000309 0.025569 0.000000 0.000000 0.000000
# 4 0.000000 0.000000 0.000000 0.022565 0.000000 0.000000
# 5 0.000000 0.000000 0.000000 0.000000 0.607174 0.000000
# 6 0.000000 0.000000 0.000000 0.000000 0.000000 0.029851
#
#
# Mechanical properties :
#
#
# Convention : Reuss Voigt Hill
#
# Bulk Modulus (GPa) = 41.25167 72.21675 56.73421
# Shear Modulus (GPa) = 6.67055 28.81264 17.74160
#
# Velocity S-wave (km/s) = 1.89427 3.93689 3.08929
# Velocity P-wave (km/s) = 5.19372 7.71446 6.57600
#
# Compressibility (1/GPa) = 0.02424144
#
# Stress axis : x y z
#
# Youngs Moduli (GPa) = 62.40663 87.15620 39.10915
#
# Poissons Ratio (x) = 0.79792 0.21773
# Poissons Ratio (y) = 0.57134 -0.01210
# Poissons Ratio (z) = 0.34743 -0.02697
#
# Static dielectric constant tensor:
#      x y z
#    x 1.656040 0.000000 0.000000 
#    y 0.000000 1.626420 0.000000 
#    z 0.000000 0.000000 1.671740 
# 
# From -- ./inp_files/2372.got.cif
#   From: 2010.05.17/outbox.cif.g08.bks.cpg/sg47_2_cif.got.tgz:2372.got - 2010.06.03 20:15:42.
