data_PCOD9382967
_publ_section_title
;
Structure prediction by ZEFSAII (Michael W. Deem and Ramdas Pophale) SiO2 
 PCOD9382967
Probable space group: P M M M
;
_chemical_formula_sum "Si O2"
_cell_formula_units_Z 64
_cell_length_a 8.974087
_cell_length_b 31.894232
_cell_length_c 14.569533
_cell_angle_alpha 90.000000
_cell_angle_beta 90.000000
_cell_angle_gamma 90.000000
_cell_volume 4170.115233
_symmetry_space_group_name_H-M "P M M M"
_symmetry_group_IT_number 47
_symmetry_cell_setting 'orthorhombic'
loop_
_space_group_symop_operation_xyz
x,y,z
-x,-y,z
x,-y,-z
-x,y,-z
-x,-y,-z
x,y,-z
-x,y,z
x,-y,z
loop_
_atom_site_type_symbol
_atom_site_label
_atom_site_fract_x
_atom_site_fract_y
_atom_site_fract_z
Si Si1 0.679136 0.131956 0.892865
Si Si2 0.677148 0.623702 0.216019
Si Si3 0.824004 0.045872 0.110944
Si Si4 0.322277 0.254157 0.603237
Si Si5 0.822901 0.451173 0.108360
Si Si6 0.679560 0.782620 0.795342
Si Si7 0.177291 0.654641 0.394527
Si Si8 0.177705 0.701854 0.109048
O O1 0.500000 0.129784 0.890656
O O2 0.743049 0.087883 0.857271
O O3 0.726816 0.172585 0.835569
O O4 0.723881 0.137399 0.000000
O O5 0.500000 0.627433 0.215991
O O6 0.730290 0.581134 0.168062
O O7 0.740336 0.627199 0.318859
O O8 0.747241 0.662605 0.159789
O O9 0.000000 0.048708 0.130224
O O10 0.769932 0.000000 0.143803
O O11 0.807467 0.045522 0.000000
O O12 0.289914 0.238515 0.500000
O O13 0.500000 0.263111 0.607721
O O14 0.287037 0.223665 0.687534
O O15 0.235480 0.297696 0.616666
O O16 0.790976 0.500000 0.128211
O O17 0.000000 0.444310 0.123091
O O18 0.794474 0.444188 0.000000
O O19 0.500000 0.779211 0.807013
O O20 0.755617 0.744606 0.849820
O O21 0.208629 0.642433 0.500000
O O22 0.000000 0.653447 0.379997
O O23 0.000000 0.700494 0.124153
O O24 0.205535 0.699734 0.000000
#
# Coordination Sequence:
#
# PCOD9382967 Si02
#       8
#     8   8   8   8   8   8   8   8
#     4   9  17  27  39  58  86 120 155 187 224 277
#     4  12  23  34  52  77 103 131 161 197 240 285
#     4   8  14  25  40  57  78 107 146 190 232 273
#     4   9  17  30  48  69  92 120 156 196 239 284
#     4   9  19  37  59  80 103 132 164 199 239 282
#     4  10  19  31  46  65  92 126 157 191 236 283
#     4  10  20  34  53  75  98 125 160 202 243 283
#     4  11  23  35  47  66  94 129 167 202 233 272
#
# _framework density 15.347299
#
# number of rings (size 3 to 8) (size 9 to 14) (size 15 to 20)
#    0.000    2.250    1.250    3.375    0.000    5.000 
#    0.000    3.125    0.000    0.375    0.000    2.625 
#    0.000    0.500    0.000    6.250    0.000    1.250 
#
# Total GULP energy -356909.108540 kJ/mol
# GULP energy per Si atom -5576.704821 kJ/mol
# Density = 1.531237 g / cm^3
# Si number density = 15.347299 Si / 1000 Ang^3
#
#
#
# Elastic Constant Matrix: (Units=GPa)
#
#
# Indices 1 2 3 4 5 6 
#
# 1 50.5048 52.5637 53.1787 0.0000 0.0000 0.0000
# 2 52.5637 109.1965 66.4371 0.0000 0.0000 0.0000
# 3 53.1787 66.4371 94.5949 0.0000 0.0000 0.0000
# 4 0.0000 0.0000 0.0000 6.7464 0.0000 0.0000
# 5 0.0000 0.0000 0.0000 0.0000 18.6769 0.0000
# 6 0.0000 0.0000 0.0000 0.0000 0.0000 28.1669
#
#
#
# Elastic Compliance Matrix: (Units=1/GPa)
#
#
# Indices 1 2 3 4 5 6 
#
# 1 0.059145 -0.014390 -0.023144 0.000000 0.000000 0.000000
# 2 -0.014390 0.019492 -0.005600 0.000000 0.000000 0.000000
# 3 -0.023144 -0.005600 0.027515 0.000000 0.000000 0.000000
# 4 0.000000 0.000000 0.000000 0.148226 0.000000 0.000000
# 5 0.000000 0.000000 0.000000 0.000000 0.053542 0.000000
# 6 0.000000 0.000000 0.000000 0.000000 0.000000 0.035503
#
#
# Mechanical properties :
#
#
# Convention : Reuss Voigt Hill
#
# Bulk Modulus (GPa) = 50.28800 66.51724 58.40262
# Shear Modulus (GPa) = 11.45950 16.19250 13.82600
#
# Velocity S-wave (km/s) = 2.73551 3.25171 3.00471
# Velocity P-wave (km/s) = 6.54333 7.58509 7.08339
#
# Compressibility (1/GPa) = 0.01988546
#
# Stress axis : x y z
#
# Youngs Moduli (GPa) = 16.90748 51.30356 36.34338
#
# Poissons Ratio (x) = 0.73824 0.84112
# Poissons Ratio (y) = 0.24329 0.20353
# Poissons Ratio (z) = 0.39130 0.28731
#
# Static dielectric constant tensor:
#      x y z
#    x 1.512340 0.000000 0.000000 
#    y 0.000000 1.497510 0.000000 
#    z 0.000000 0.000000 1.512980 
# 
# From -- ./inp_files/22150.got.cif
#   From: 2010.05.17/outbox.cif.g08.bks.cpg/sg47_12_cif.got.tgz:22150.got - 2010.06.03 20:15:42.
