data_PCOD9382088
_publ_section_title
;
Structure prediction by ZEFSAII (Michael W. Deem and Ramdas Pophale) SiO2 
 PCOD9382088
Probable space group: P M M M
;
_chemical_formula_sum "Si O2"
_cell_formula_units_Z 52
_cell_length_a 21.153532
_cell_length_b 15.276650
_cell_length_c 7.526538
_cell_angle_alpha 90.000000
_cell_angle_beta 90.000000
_cell_angle_gamma 90.000000
_cell_volume 2432.239175
_symmetry_space_group_name_H-M "P M M M"
_symmetry_group_IT_number 47
_symmetry_cell_setting 'orthorhombic'
loop_
_space_group_symop_operation_xyz
x,y,z
-x,-y,z
x,-y,-z
-x,y,-z
-x,-y,-z
x,y,-z
-x,y,z
x,-y,z
loop_
_atom_site_type_symbol
_atom_site_label
_atom_site_fract_x
_atom_site_fract_y
_atom_site_fract_z
Si Si1 0.740345 0.399760 0.288711
Si Si2 0.683161 0.225987 0.786010
Si Si3 0.925795 0.500000 0.799425
Si Si4 0.427637 0.900604 0.783224
Si Si5 0.929583 0.145480 0.795807
Si Si6 0.869258 0.678330 0.701789
Si Si7 0.792568 0.096326 0.216806
O O1 0.751419 0.407311 0.500000
O O2 0.732834 0.500000 0.222868
O O3 0.685655 0.328300 0.262568
O O4 0.802048 0.349080 0.214475
O O5 0.622359 0.171636 0.723248
O O6 0.745438 0.172519 0.722306
O O7 0.683794 0.221847 0.000000
O O8 0.904720 0.586767 0.702407
O O9 0.000000 0.500000 0.812475
O O10 0.898828 0.500000 0.000000
O O11 0.500000 0.883789 0.728572
O O12 0.410495 0.000000 0.729747
O O13 0.426885 0.900118 0.000000
O O14 0.911223 0.248311 0.794982
O O15 0.865066 0.104694 0.719309
O O16 0.000000 0.131925 0.717953
O O17 0.933213 0.115314 0.000000
O O18 0.860133 0.709438 0.500000
O O19 0.767708 0.000000 0.261655
O O20 0.794941 0.102244 0.000000
#
# Coordination Sequence:
#
# PCOD9382088 Si02
#       7
#     8   8   4   8   8   8   8
#     4  10  21  37  53  71  98 132 169 212 261 309
#     4  10  18  30  53  81 105 133 170 211 251 295
#     4  11  23  35  49  71  97 123 156 207 268 323
#     4   8  14  26  48  82 120 148 168 198 245 298
#     4  10  20  33  48  68  96 129 166 210 259 304
#     4  11  21  35  52  69  92 126 167 210 260 316
#     4   9  17  29  47  73 101 129 166 210 252 298
#
# _framework density 21.379477000000001
#
# number of rings (size 3 to 8) (size 9 to 14) (size 15 to 20)
#    0.000    2.231    2.308    2.077    0.000    5.846 
#    0.000    1.538    0.000    4.154    0.000    5.385 
#    0.000    0.000    0.000    0.000    0.000    0.000 
#
# Total GULP energy -290093.331660 kJ/mol
# GULP energy per Si atom -5578.717917 kJ/mol
# Density = 2.133082 g / cm^3
# Si number density = 21.379477 Si / 1000 Ang^3
#
#
#
# Elastic Constant Matrix: (Units=GPa)
#
#
# Indices 1 2 3 4 5 6 
#
# 1 115.6094 58.3746 4.7502 0.0000 0.0000 0.0000
# 2 58.3746 125.9413 -0.4627 0.0000 0.0000 0.0000
# 3 4.7502 -0.4627 62.9507 0.0000 0.0000 0.0000
# 4 0.0000 0.0000 0.0000 65.0759 0.0000 0.0000
# 5 0.0000 0.0000 0.0000 0.0000 -0.6502 0.0000
# 6 0.0000 0.0000 0.0000 0.0000 0.0000 33.1461
#
#
#
# Elastic Compliance Matrix: (Units=1/GPa)
#
#
# Indices 1 2 3 4 5 6 
#
# 1 0.011343 -0.005261 -0.000895 0.000000 0.000000 0.000000
# 2 -0.005261 0.010380 0.000473 0.000000 0.000000 0.000000
# 3 -0.000895 0.000473 0.015956 0.000000 0.000000 0.000000
# 4 0.000000 0.000000 0.000000 0.015367 0.000000 0.000000
# 5 0.000000 0.000000 0.000000 0.000000 -1.537994 0.000000
# 6 0.000000 0.000000 0.000000 0.000000 0.000000 0.030169
#
#
# Mechanical properties :
#
#
# Convention : Reuss Voigt Hill
#
# Bulk Modulus (GPa) = 38.00046 47.75839 42.87942
# Shear Modulus (GPa) = -3.48519 35.63699 16.07590
#
# Velocity S-wave (km/s) = -1.27816 4.08717 2.74511
# Velocity P-wave (km/s) = 3.95406 6.68283 5.49067
#
# Compressibility (1/GPa) = 0.02631547
#
# Stress axis : x y z
#
# Youngs Moduli (GPa) = 88.16088 96.33580 62.67064
#
# Poissons Ratio (x) = 0.50680 0.05606
# Poissons Ratio (y) = 0.46380 -0.02966
# Poissons Ratio (z) = 0.07887 -0.04559
#
# Static dielectric constant tensor:
#      x y z
#    x 1.785990 0.000000 0.000000 
#    y 0.000000 1.769340 0.000000 
#    z 0.000000 0.000000 1.853070 
# 
# From -- ./inp_files/10982.got.cif
#   From: 2010.05.17/outbox.cif.g08.bks.cpg/sg47_6_cif.got.tgz:10982.got - 2010.06.03 20:15:42.
