data_PCOD9382338
_publ_section_title
;
Structure prediction by ZEFSAII (Michael W. Deem and Ramdas Pophale) SiO2 
 PCOD9382338
Probable space group: P M M M
;
_chemical_formula_sum "Si O2"
_cell_formula_units_Z 56
_cell_length_a 22.845787
_cell_length_b 7.564316
_cell_length_c 15.740305
_cell_angle_alpha 90.000000
_cell_angle_beta 90.000000
_cell_angle_gamma 90.000000
_cell_volume 2720.125427
_symmetry_space_group_name_H-M "P M M M"
_symmetry_group_IT_number 47
_symmetry_cell_setting 'orthorhombic'
loop_
_space_group_symop_operation_xyz
x,y,z
-x,-y,z
x,-y,-z
-x,y,-z
-x,-y,-z
x,y,-z
-x,y,z
x,-y,z
loop_
_atom_site_type_symbol
_atom_site_label
_atom_site_fract_x
_atom_site_fract_y
_atom_site_fract_z
Si Si1 0.832959 0.789986 0.272973
Si Si2 0.621487 0.708685 0.322750
Si Si3 0.340778 0.205279 0.135325
Si Si4 0.566752 0.783160 0.000000
Si Si5 0.209585 0.783345 0.094948
Si Si6 0.067235 0.287158 0.594499
Si Si7 0.500000 0.716661 0.401568
Si Si8 0.260337 0.787001 0.592638
O O1 0.828690 0.724282 0.176151
O O2 0.891135 0.764138 0.328196
O O3 0.780100 0.717672 0.331317
O O4 0.823553 0.000000 0.266768
O O5 0.615573 0.500000 0.309790
O O6 0.644252 0.784742 0.234120
O O7 0.558976 0.776570 0.354654
O O8 0.672420 0.741407 0.390691
O O9 0.394848 0.276548 0.080673
O O10 0.276497 0.276896 0.113526
O O11 0.336532 0.000000 0.111032
O O12 0.500000 0.720849 0.000000
O O13 0.563599 0.000000 0.000000
O O14 0.208934 0.000000 0.093949
O O15 0.192230 0.726400 0.000000
O O16 0.087146 0.225523 0.500000
O O17 0.066857 0.500000 0.592027
O O18 0.000000 0.228308 0.605934
O O19 0.500000 0.500000 0.401249
O O20 0.500000 0.770669 0.500000
O O21 0.241160 0.722473 0.500000
O O22 0.255619 0.000000 0.592763
#
# Coordination Sequence:
#
# PCOD9382338 Si02
#       8
#     8   8   8   4   8   8   4   8
#     4  10  19  32  53  82 111 137 174 219 262 309
#     4  11  22  35  52  72  97 131 172 213 261 318
#     4  10  18  33  54  74 100 131 166 212 265 315
#     4   9  18  30  51  81 101 125 170 219 266 322
#     4   9  16  30  53  77 102 137 175 211 259 316
#     4   9  19  36  56  79 111 150 186 217 253 303
#     4   9  20  38  53  64  87 128 174 213 251 307
#     4  10  20  34  52  76 106 135 167 214 267 313
#
# _framework density 20.587287
#
# number of rings (size 3 to 8) (size 9 to 14) (size 15 to 20)
#    0.000    2.286    2.143    1.714    1.000    2.571 
#    0.000    2.143    0.000    4.714    0.000    3.000 
#    0.000    0.000    0.000    0.000    0.000    0.000 
#
# Total GULP energy -312561.024570 kJ/mol
# GULP energy per Si atom -5581.446867 kJ/mol
# Density = 2.054043 g / cm^3
# Si number density = 20.587287 Si / 1000 Ang^3
#
#
#
# Elastic Constant Matrix: (Units=GPa)
#
#
# Indices 1 2 3 4 5 6 
#
# 1 105.7643 -4.8836 80.5204 0.0000 0.0000 0.0000
# 2 -4.8836 44.6956 2.0780 0.0000 0.0000 0.0000
# 3 80.5204 2.0780 176.3513 0.0000 0.0000 0.0000
# 4 0.0000 0.0000 0.0000 94.3033 0.0000 0.0000
# 5 0.0000 0.0000 0.0000 0.0000 33.2308 0.0000
# 6 0.0000 0.0000 0.0000 0.0000 0.0000 15.4120
#
#
#
# Elastic Compliance Matrix: (Units=1/GPa)
#
#
# Indices 1 2 3 4 5 6 
#
# 1 0.014655 0.001913 -0.006714 0.000000 0.000000 0.000000
# 2 0.001913 0.022636 -0.001140 0.000000 0.000000 0.000000
# 3 -0.006714 -0.001140 0.008749 0.000000 0.000000 0.000000
# 4 0.000000 0.000000 0.000000 0.010604 0.000000 0.000000
# 5 0.000000 0.000000 0.000000 0.000000 0.030093 0.000000
# 6 0.000000 0.000000 0.000000 0.000000 0.000000 0.064884
#
#
# Mechanical properties :
#
#
# Convention : Reuss Voigt Hill
#
# Bulk Modulus (GPa) = 29.27554 53.58231 41.42892
# Shear Modulus (GPa) = 28.58970 45.19567 36.89269
#
# Velocity S-wave (km/s) = 3.73058 4.69051 4.23781
# Velocity P-wave (km/s) = 5.72777 7.44432 6.64173
#
# Compressibility (1/GPa) = 0.03415821
#
# Stress axis : x y z
#
# Youngs Moduli (GPa) = 68.23794 44.17813 114.29421
#
# Poissons Ratio (x) = -0.08453 0.76734
# Poissons Ratio (y) = -0.13056 0.13034
# Poissons Ratio (z) = 0.45813 0.05038
#
# Static dielectric constant tensor:
#      x y z
#    x 1.708260 0.000000 0.000000 
#    y 0.000000 1.787700 0.000000 
#    z 0.000000 0.000000 1.746980 
# 
# From -- ./inp_files/25222.got.cif
#   From: 2010.05.17/outbox.cif.g08.bks.cpg/sg47_13_cif.got.tgz:25222.got - 2010.06.03 20:15:42.
