data_PCOD9382197
_publ_section_title
;
Structure prediction by ZEFSAII (Michael W. Deem and Ramdas Pophale) SiO2 
 PCOD9382197
Probable space group: P M M M
;
_chemical_formula_sum "Si O2"
_cell_formula_units_Z 52
_cell_length_a 17.695693
_cell_length_b 14.493453
_cell_length_c 12.291715
_cell_angle_alpha 90.000000
_cell_angle_beta 90.000000
_cell_angle_gamma 90.000000
_cell_volume 3152.476978
_symmetry_space_group_name_H-M "P M M M"
_symmetry_group_IT_number 47
_symmetry_cell_setting 'orthorhombic'
loop_
_space_group_symop_operation_xyz
x,y,z
-x,-y,z
x,-y,-z
-x,y,-z
-x,-y,-z
x,y,-z
-x,y,z
x,-y,z
loop_
_atom_site_type_symbol
_atom_site_label
_atom_site_fract_x
_atom_site_fract_y
_atom_site_fract_z
Si Si1 0.089050 0.394613 0.500000
Si Si2 0.699891 0.601422 0.626677
Si Si3 0.859235 0.393068 0.730940
Si Si4 0.914195 0.888461 0.500000
Si Si5 0.500000 0.893445 0.367896
Si Si6 0.088182 0.774115 0.870272
Si Si7 0.656581 0.196255 0.629705
Si Si8 0.812669 0.889105 0.709481
O O1 0.120368 0.500000 0.500000
O O2 0.111883 0.353761 0.384901
O O3 0.000000 0.400417 0.500000
O O4 0.727915 0.606661 0.500000
O O5 0.663723 0.500000 0.637494
O O6 0.769499 0.605859 0.710295
O O7 0.652223 0.693309 0.642365
O O8 0.884533 0.500000 0.743808
O O9 0.887880 0.326179 0.824255
O O10 0.865723 0.864962 0.606160
O O11 0.000000 0.850753 0.500000
O O12 0.920116 0.000000 0.500000
O O13 0.500000 0.887145 0.500000
O O14 0.578215 0.847624 0.331821
O O15 0.500000 0.000000 0.337480
O O16 0.143784 0.846546 0.812226
O O17 0.000000 0.791586 0.841687
O O18 0.095097 0.777371 0.000000
O O19 0.666005 0.176212 0.500000
O O20 0.730690 0.156158 0.688683
O O21 0.805629 0.000000 0.715753
#
# Coordination Sequence:
#
# PCOD9382197 Si02
#       8
#     4   8   8   4   4   8   8   8
#     4   9  16  25  43  73 101 126 161 205 262 323
#     4   9  16  28  48  75 107 138 168 205 254 313
#     4  10  18  32  52  74 102 134 170 218 270 318
#     4   9  18  31  49  76 102 124 163 218 273 319
#     4   9  18  30  47  75 114 150 176 207 251 314
#     4  11  25  40  51  69  99 139 188 230 266 316
#     4  10  18  31  52  80 111 143 174 207 257 322
#     4  11  21  35  55  76 100 134 174 221 274 322
#
# _framework density 16.494966999999999
#
# number of rings (size 3 to 8) (size 9 to 14) (size 15 to 20)
#    0.000    2.077    3.077    1.385    0.000    3.692 
#    0.000    3.462    0.000    2.308    0.000    0.538 
#    0.000    1.846    0.000    3.385    0.000    0.154 
#
# Total GULP energy -289883.041533 kJ/mol
# GULP energy per Si atom -5574.673876 kJ/mol
# Density = 1.645742 g / cm^3
# Si number density = 16.494967 Si / 1000 Ang^3
#
#
#
# Elastic Constant Matrix: (Units=GPa)
#
#
# Indices 1 2 3 4 5 6 
#
# 1 117.0764 65.2357 33.2158 0.0000 0.0000 0.0000
# 2 65.2357 127.4347 31.2291 0.0000 0.0000 0.0000
# 3 33.2158 31.2291 60.7644 0.0000 0.0000 0.0000
# 4 0.0000 0.0000 0.0000 26.4607 0.0000 0.0000
# 5 0.0000 0.0000 0.0000 0.0000 12.4503 0.0000
# 6 0.0000 0.0000 0.0000 0.0000 0.0000 21.7537
#
#
#
# Elastic Compliance Matrix: (Units=1/GPa)
#
#
# Indices 1 2 3 4 5 6 
#
# 1 0.012805 -0.005537 -0.004154 0.000000 0.000000 0.000000
# 2 -0.005537 0.011372 -0.002818 0.000000 0.000000 0.000000
# 3 -0.004154 -0.002818 0.020176 0.000000 0.000000 0.000000
# 4 0.000000 0.000000 0.000000 0.037792 0.000000 0.000000
# 5 0.000000 0.000000 0.000000 0.000000 0.080319 0.000000
# 6 0.000000 0.000000 0.000000 0.000000 0.000000 0.045969
#
#
# Mechanical properties :
#
#
# Convention : Reuss Voigt Hill
#
# Bulk Modulus (GPa) = 51.71863 62.73741 57.22802
# Shear Modulus (GPa) = 20.84224 23.83926 22.34075
#
# Velocity S-wave (km/s) = 3.55850 3.80576 3.68421
# Velocity P-wave (km/s) = 6.95026 7.57817 7.27100
#
# Compressibility (1/GPa) = 0.01933539
#
# Stress axis : x y z
#
# Youngs Moduli (GPa) = 78.09217 87.93301 49.56402
#
# Poissons Ratio (x) = 0.48691 0.20589
# Poissons Ratio (y) = 0.43242 0.13966
# Poissons Ratio (z) = 0.32440 0.24778
#
# Static dielectric constant tensor:
#      x y z
#    x 1.550540 0.000000 0.000000 
#    y 0.000000 1.597790 0.000000 
#    z 0.000000 0.000000 1.535610 
# 
# From -- ./inp_files/18635.got.cif
#   From: 2010.05.17/outbox.cif.g08.bks.cpg/sg47_10_cif.got.tgz:18635.got - 2010.06.03 20:15:42.
