data_PCOD9382105
_publ_section_title
;
Structure prediction by ZEFSAII (Michael W. Deem and Ramdas Pophale) SiO2 
 PCOD9382105
Probable space group: P M M M
;
_chemical_formula_sum "Si O2"
_cell_formula_units_Z 52
_cell_length_a 16.642470
_cell_length_b 9.172082
_cell_length_c 21.042079
_cell_angle_alpha 90.000000
_cell_angle_beta 90.000000
_cell_angle_gamma 90.000000
_cell_volume 3211.991285
_symmetry_space_group_name_H-M "P M M M"
_symmetry_group_IT_number 47
_symmetry_cell_setting 'orthorhombic'
loop_
_space_group_symop_operation_xyz
x,y,z
-x,-y,z
x,-y,-z
-x,y,-z
-x,-y,-z
x,y,-z
-x,y,z
x,-y,z
loop_
_atom_site_type_symbol
_atom_site_label
_atom_site_fract_x
_atom_site_fract_y
_atom_site_fract_z
Si Si1 0.162850 0.672973 0.364510
Si Si2 0.905387 0.825504 0.000000
Si Si3 0.736166 0.324882 0.238519
Si Si4 0.153851 0.671779 0.874488
Si Si5 0.592617 0.173968 0.307600
Si Si6 0.000000 0.332206 0.783594
Si Si7 0.000000 0.172831 0.349324
Si Si8 0.331222 0.325789 0.427223
O O1 0.146014 0.500000 0.366334
O O2 0.198336 0.707368 0.294073
O O3 0.237479 0.703577 0.411194
O O4 0.081895 0.760225 0.377487
O O5 0.862940 0.762406 0.937417
O O6 0.000000 0.780544 0.000000
O O7 0.902799 0.000000 0.000000
O O8 0.725040 0.500000 0.240379
O O9 0.771323 0.284541 0.169910
O O10 0.654906 0.245470 0.258491
O O11 0.161306 0.500000 0.890439
O O12 0.077050 0.686306 0.828190
O O13 0.500000 0.207786 0.293116
O O14 0.616362 0.239812 0.376147
O O15 0.602849 0.000000 0.308513
O O16 0.000000 0.500000 0.759220
O O17 0.000000 0.225360 0.724216
O O18 0.000000 0.000000 0.354097
O O19 0.349571 0.289975 0.500000
O O20 0.342695 0.500000 0.417779
#
# Coordination Sequence:
#
# PCOD9382105 Si02
#       8
#     8   4   8   8   8   4   4   8
#     4   9  17  32  50  68  93 124 162 208 253 294
#     4  11  23  33  43  69 108 143 176 213 247 284
#     4   9  18  33  54  76  96 125 169 214 250 289
#     4  10  19  33  52  71  95 135 178 210 247 291
#     4  10  21  35  52  78 109 135 157 188 242 309
#     4  10  18  31  49  67  94 130 169 211 251 290
#     4  12  22  28  42  70  98 127 166 208 251 296
#     4   9  19  36  56  75  95 125 166 207 246 291
#
# _framework density 16.189335
#
# number of rings (size 3 to 8) (size 9 to 14) (size 15 to 20)
#    0.000    2.231    2.308    2.308    0.000    5.846 
#    0.000    1.923    0.000    2.308    0.000    0.538 
#    0.000    4.308    0.000    0.000    0.000    0.000 
#
# Total GULP energy -290110.901354 kJ/mol
# GULP energy per Si atom -5579.055795 kJ/mol
# Density = 1.615249 g / cm^3
# Si number density = 16.189335 Si / 1000 Ang^3
#
#
#
# Elastic Constant Matrix: (Units=GPa)
#
#
# Indices 1 2 3 4 5 6 
#
# 1 116.6050 53.1803 41.8972 0.0000 0.0000 0.0000
# 2 53.1803 47.8033 30.5520 0.0000 0.0000 0.0000
# 3 41.8972 30.5520 82.0408 0.0000 0.0000 0.0000
# 4 0.0000 0.0000 0.0000 13.7364 0.0000 0.0000
# 5 0.0000 0.0000 0.0000 0.0000 7.5562 0.0000
# 6 0.0000 0.0000 0.0000 0.0000 0.0000 22.4049
#
#
#
# Elastic Compliance Matrix: (Units=1/GPa)
#
#
# Indices 1 2 3 4 5 6 
#
# 1 0.017717 -0.018278 -0.002241 0.000000 0.000000 0.000000
# 2 -0.018278 0.046309 -0.007911 0.000000 0.000000 0.000000
# 3 -0.002241 -0.007911 0.016280 0.000000 0.000000 0.000000
# 4 0.000000 0.000000 0.000000 0.072799 0.000000 0.000000
# 5 0.000000 0.000000 0.000000 0.000000 0.132341 0.000000
# 6 0.000000 0.000000 0.000000 0.000000 0.000000 0.044633
#
#
# Mechanical properties :
#
#
# Convention : Reuss Voigt Hill
#
# Bulk Modulus (GPa) = 42.65230 55.30088 48.97659
# Shear Modulus (GPa) = 12.66609 16.79415 14.73012
#
# Velocity S-wave (km/s) = 2.80013 3.22430 3.01967
# Velocity P-wave (km/s) = 6.07103 6.93502 6.51736
#
# Compressibility (1/GPa) = 0.02344540
#
# Stress axis : x y z
#
# Youngs Moduli (GPa) = 56.44240 21.59421 61.42553
#
# Poissons Ratio (x) = 0.39469 0.13768
# Poissons Ratio (y) = 1.03163 0.48595
# Poissons Ratio (z) = 0.12651 0.17084
#
# Static dielectric constant tensor:
#      x y z
#    x 1.543330 0.000000 0.000000 
#    y 0.000000 1.536330 0.000000 
#    z 0.000000 0.000000 1.532300 
# 
# From -- ./inp_files/11152.got.cif
#   From: 2010.05.17/outbox.cif.g08.bks.cpg/sg47_6_cif.got.tgz:11152.got - 2010.06.03 20:15:42.
