data_PCOD9382761
_publ_section_title
;
Structure prediction by ZEFSAII (Michael W. Deem and Ramdas Pophale) SiO2 
 PCOD9382761
Probable space group: P M M M
;
_chemical_formula_sum "Si O2"
_cell_formula_units_Z 32
_cell_length_a 22.819894
_cell_length_b 7.683797
_cell_length_c 9.288413
_cell_angle_alpha 90.000000
_cell_angle_beta 90.000000
_cell_angle_gamma 90.000000
_cell_volume 1628.662223
_symmetry_space_group_name_H-M "P M M M"
_symmetry_group_IT_number 47
_symmetry_cell_setting 'orthorhombic'
loop_
_space_group_symop_operation_xyz
x,y,z
-x,-y,z
x,-y,-z
-x,y,-z
-x,-y,-z
x,y,-z
-x,y,z
x,-y,z
loop_
_atom_site_type_symbol
_atom_site_label
_atom_site_fract_x
_atom_site_fract_y
_atom_site_fract_z
Si Si1 0.500000 0.787445 0.665577
Si Si2 0.271148 0.203468 0.339211
Si Si3 0.839824 0.301004 0.162433
Si Si4 0.616567 0.213488 0.165438
Si Si5 0.930452 0.500000 0.329583
O O1 0.500000 0.730413 0.500000
O O2 0.558571 0.732782 0.748669
O O3 0.500000 0.000000 0.664841
O O4 0.266359 0.279431 0.500000
O O5 0.209896 0.211296 0.255189
O O6 0.324779 0.275807 0.245783
O O7 0.285091 0.000000 0.355008
O O8 0.817645 0.500000 0.149209
O O9 0.899874 0.334301 0.250868
O O10 0.848027 0.232440 0.000000
O O11 0.616875 0.000000 0.163378
O O12 0.615315 0.270045 0.000000
O O13 0.916778 0.500000 0.500000
O O14 0.000000 0.500000 0.310840
#
# Coordination Sequence:
#
# PCOD9382761 Si02
#       5
#     4   8   8   8   4
#     4   9  15  23  35  53  80 113 152 195 236 281
#     4  10  19  30  46  69  97 128 160 196 240 285
#     4   9  19  32  49  73  98 126 159 193 232 277
#     4   9  16  25  38  57  84 118 154 193 238 284
#     4   9  17  31  53  77  99 124 155 192 231 271
#
# _framework density 19.648026000000002
#
# number of rings (size 3 to 8) (size 9 to 14) (size 15 to 20)
#    0.750    2.000    0.000    2.625    0.000    7.000 
#    0.000    0.000    0.000    0.750    0.000    6.125 
#    0.000    7.000    0.000    0.000    0.000    0.000 
#
# Total GULP energy -178181.896431 kJ/mol
# GULP energy per Si atom -5568.184263 kJ/mol
# Density = 1.960331 g / cm^3
# Si number density = 19.648026 Si / 1000 Ang^3
#
#
#
# Elastic Constant Matrix: (Units=GPa)
#
#
# Indices 1 2 3 4 5 6 
#
# 1 167.1739 -0.5502 119.5868 0.0000 0.0000 0.0000
# 2 -0.5502 24.5299 4.9915 0.0000 0.0000 0.0000
# 3 119.5868 4.9915 230.3731 0.0000 0.0000 0.0000
# 4 0.0000 0.0000 0.0000 8.3236 0.0000 0.0000
# 5 0.0000 0.0000 0.0000 0.0000-2470.5913 0.0000
# 6 0.0000 0.0000 0.0000 0.0000 0.0000 43.7363
#
#
#
# Elastic Compliance Matrix: (Units=1/GPa)
#
#
# Indices 1 2 3 4 5 6 
#
# 1 0.009552 0.001229 -0.004985 0.000000 0.000000 0.000000
# 2 0.001229 0.041105 -0.001528 0.000000 0.000000 0.000000
# 3 -0.004985 -0.001528 0.006962 0.000000 0.000000 0.000000
# 4 0.000000 0.000000 0.000000 0.120140 0.000000 0.000000
# 5 0.000000 0.000000 0.000000 0.000000 -0.000405 0.000000
# 6 0.000000 0.000000 0.000000 0.000000 0.000000 0.022864
#
#
# Mechanical properties :
#
#
# Convention : Reuss Voigt Hill
#
# Bulk Modulus (GPa) = 21.25443 74.45923 47.85683
# Shear Modulus (GPa) = 22.07793 -463.83634 -220.87921
#
# Velocity S-wave (km/s) = 3.35576 -15.38133 -10.61424
# Velocity P-wave (km/s) = 5.08487 16.65738 11.21633
#
# Compressibility (1/GPa) = 0.04704901
#
# Stress axis : x y z
#
# Youngs Moduli (GPa) = 104.69226 24.32787 143.64515
#
# Poissons Ratio (x) = -0.02989 0.71607
# Poissons Ratio (y) = -0.12863 0.21955
# Poissons Ratio (z) = 0.52189 0.03718
#
# Static dielectric constant tensor:
#      x y z
#    x 1.645120 0.000000 0.000000 
#    y 0.000000 1.766850 0.000000 
#    z 0.000000 0.000000 1.708490 
# 
# From -- ./inp_files/10544.got.cif
#   From: 2010.05.17/outbox.cif.g08.bks.cpg/sg47_6_cif.got.tgz:10544.got - 2010.06.03 20:15:42.
