data_PCOD9382548
_publ_section_title
;
Structure prediction by ZEFSAII (Michael W. Deem and Ramdas Pophale) SiO2 
 PCOD9382548
Probable space group: P M M M
;
_chemical_formula_sum "Si O2"
_cell_formula_units_Z 56
_cell_length_a 14.441252
_cell_length_b 16.174314
_cell_length_c 13.287997
_cell_angle_alpha 90.000000
_cell_angle_beta 90.000000
_cell_angle_gamma 90.000000
_cell_volume 3103.775052
_symmetry_space_group_name_H-M "P M M M"
_symmetry_group_IT_number 47
_symmetry_cell_setting 'orthorhombic'
loop_
_space_group_symop_operation_xyz
x,y,z
-x,-y,z
x,-y,-z
-x,y,-z
-x,-y,-z
x,y,-z
-x,y,z
x,-y,z
loop_
_atom_site_type_symbol
_atom_site_label
_atom_site_fract_x
_atom_site_fract_y
_atom_site_fract_z
Si Si1 0.891910 0.328125 0.175914
Si Si2 0.605001 0.093403 0.256751
Si Si3 0.712757 0.590100 0.118175
Si Si4 0.890067 0.862259 0.114016
Si Si5 0.111074 0.739009 0.390582
Si Si6 0.803003 0.908811 0.323544
Si Si7 0.609196 0.750397 0.884838
O O1 0.821637 0.392281 0.128201
O O2 0.880490 0.237273 0.125873
O O3 0.864709 0.314786 0.293033
O O4 0.000000 0.350381 0.168187
O O5 0.500000 0.103740 0.297312
O O6 0.691900 0.098551 0.331210
O O7 0.621075 0.165576 0.176384
O O8 0.609062 0.000000 0.213373
O O9 0.688860 0.500000 0.161096
O O10 0.662489 0.671661 0.160093
O O11 0.687710 0.588437 0.000000
O O12 0.832464 0.901344 0.205261
O O13 0.000000 0.880618 0.128356
O O14 0.864483 0.886374 0.000000
O O15 0.139162 0.706149 0.500000
O O16 0.150208 0.831015 0.375851
O O17 0.000000 0.745458 0.387615
O O18 0.831464 0.000000 0.359187
O O19 0.500000 0.731373 0.886043
O O20 0.640576 0.763399 0.000000
#
# Coordination Sequence:
#
# PCOD9382548 Si02
#       7
#     8   8   8   8   8   8   8
#     4   9  17  30  47  65  88 119 153 189 228 270
#     4   9  18  31  46  66  92 122 158 200 242 282
#     4  10  20  31  45  69  99 129 160 192 227 273
#     4   9  17  28  42  61  87 121 158 193 230 275
#     4   9  18  32  50  71  92 117 153 196 240 285
#     4  10  19  29  43  64  91 123 156 193 239 287
#     4   9  17  29  45  64  89 124 162 199 238 276
#
# _framework density 18.042546000000002
#
# number of rings (size 3 to 8) (size 9 to 14) (size 15 to 20)
#    0.000    2.714    0.000    3.429    0.000    5.143 
#    0.000    6.429    0.000    0.857    0.000    4.000 
#    0.000    0.000    0.000    5.143    0.000    0.143 
#
# Total GULP energy -312012.991744 kJ/mol
# GULP energy per Si atom -5571.660567 kJ/mol
# Density = 1.800148 g / cm^3
# Si number density = 18.042546 Si / 1000 Ang^3
#
#
#
# Elastic Constant Matrix: (Units=GPa)
#
#
# Indices 1 2 3 4 5 6 
#
# 1 29.1891 12.2000 0.6520 0.0000 0.0000 0.0000
# 2 12.2000 59.7770 -7.0203 0.0000 0.0000 0.0000
# 3 0.6520 -7.0203 36.5139 0.0000 0.0000 0.0000
# 4 0.0000 0.0000 0.0000 4.1130 0.0000 0.0000
# 5 0.0000 0.0000 0.0000 0.0000 9.5294 0.0000
# 6 0.0000 0.0000 0.0000 0.0000 0.0000 10.3771
#
#
#
# Elastic Compliance Matrix: (Units=1/GPa)
#
#
# Indices 1 2 3 4 5 6 
#
# 1 0.037626 -0.007937 -0.002198 0.000000 0.000000 0.000000
# 2 -0.007937 0.018790 0.003754 0.000000 0.000000 0.000000
# 3 -0.002198 0.003754 0.028148 0.000000 0.000000 0.000000
# 4 0.000000 0.000000 0.000000 0.243132 0.000000 0.000000
# 5 0.000000 0.000000 0.000000 0.000000 0.104939 0.000000
# 6 0.000000 0.000000 0.000000 0.000000 0.000000 0.096366
#
#
# Mechanical properties :
#
#
# Convention : Reuss Voigt Hill
#
# Bulk Modulus (GPa) = 13.92721 15.23814 14.58268
# Shear Modulus (GPa) = 8.83866 12.78045 10.80956
#
# Velocity S-wave (km/s) = 2.21572 2.66437 2.45034
# Velocity P-wave (km/s) = 3.77912 4.23429 4.01316
#
# Compressibility (1/GPa) = 0.07180187
#
# Stress axis : x y z
#
# Youngs Moduli (GPa) = 26.57737 53.22062 35.52662
#
# Poissons Ratio (x) = 0.42243 0.07808
# Poissons Ratio (y) = 0.21095 -0.13338
# Poissons Ratio (z) = 0.05841 -0.19981
#
# Static dielectric constant tensor:
#      x y z
#    x 1.649410 0.000000 0.000000 
#    y 0.000000 1.634220 0.000000 
#    z 0.000000 0.000000 1.644040 
# 
# From -- ./inp_files/23792.got.cif
#   From: 2010.05.17/outbox.cif.g08.bks.cpg/sg47_12_cif.got.tgz:23792.got - 2010.06.03 20:15:42.
