data_PCOD9382163
_publ_section_title
;
Structure prediction by ZEFSAII (Michael W. Deem and Ramdas Pophale) SiO2 
 PCOD9382163
Probable space group: P M M M
;
_chemical_formula_sum "Si O2"
_cell_formula_units_Z 48
_cell_length_a 13.328143
_cell_length_b 15.701287
_cell_length_c 13.292127
_cell_angle_alpha 90.000000
_cell_angle_beta 90.000000
_cell_angle_gamma 90.000000
_cell_volume 2781.630104
_symmetry_space_group_name_H-M "P M M M"
_symmetry_group_IT_number 47
_symmetry_cell_setting 'orthorhombic'
loop_
_space_group_symop_operation_xyz
x,y,z
-x,-y,z
x,-y,-z
-x,y,-z
-x,-y,-z
x,y,-z
-x,y,z
x,-y,z
loop_
_atom_site_type_symbol
_atom_site_label
_atom_site_fract_x
_atom_site_fract_y
_atom_site_fract_z
Si Si1 0.500000 0.102661 0.110935
Si Si2 0.696650 0.097388 0.236735
Si Si3 0.884258 0.340121 0.790434
Si Si4 0.886886 0.152678 0.120204
Si Si5 0.113578 0.400076 0.000000
Si Si6 0.736221 0.400568 0.381261
Si Si7 0.383876 0.233271 0.619248
O O1 0.602357 0.123077 0.167411
O O2 0.500000 0.000000 0.103987
O O3 0.500000 0.140164 0.000000
O O4 0.796796 0.100546 0.169641
O O5 0.689437 0.167247 0.324634
O O6 0.681852 0.000000 0.272920
O O7 0.885650 0.239910 0.815106
O O8 0.824162 0.370987 0.693783
O O9 0.000000 0.369742 0.782206
O O10 0.838126 0.375935 0.894454
O O11 0.000000 0.116490 0.128742
O O12 0.869971 0.168016 0.000000
O O13 0.102426 0.500000 0.000000
O O14 0.000000 0.359692 0.000000
O O15 0.763736 0.393528 0.500000
O O16 0.710678 0.500000 0.362977
O O17 0.649043 0.331016 0.362687
O O18 0.377082 0.218596 0.500000
O O19 0.500000 0.219593 0.648995
#
# Coordination Sequence:
#
# PCOD9382163 Si02
#       7
#     4   8   8   8   4   8   8
#     4   9  18  32  51  79 110 137 171 221 277 328
#     4  11  21  35  57  83 111 144 184 230 278 330
#     4  10  18  31  51  76 107 143 182 226 272 320
#     4  10  20  35  55  80 113 152 191 228 270 325
#     4   9  16  26  44  72 102 134 173 216 264 314
#     4  10  21  36  55  80 108 140 179 221 270 330
#     4  10  21  38  59  82 108 138 177 227 281 333
#
# _framework density 17.256067999999999
#
# number of rings (size 3 to 8) (size 9 to 14) (size 15 to 20)
#    0.000    2.000    3.333    1.000    0.000    3.333 
#    0.000    4.167    0.000    0.500    0.000    1.167 
#    0.000    4.000    0.000    0.000    0.000    0.000 
#
# Total GULP energy -267224.939317 kJ/mol
# GULP energy per Si atom -5567.186236 kJ/mol
# Density = 1.721679 g / cm^3
# Si number density = 17.256068 Si / 1000 Ang^3
#
#
#
# Elastic Constant Matrix: (Units=GPa)
#
#
# Indices 1 2 3 4 5 6 
#
# 1 84.8940 28.0079 42.0021 0.0000 0.0000 0.0000
# 2 28.0079 83.4814 38.6796 0.0000 0.0000 0.0000
# 3 42.0021 38.6796 75.7519 0.0000 0.0000 0.0000
# 4 0.0000 0.0000 0.0000 22.7234 0.0000 0.0000
# 5 0.0000 0.0000 0.0000 0.0000 22.6823 0.0000
# 6 0.0000 0.0000 0.0000 0.0000 0.0000 15.9943
#
#
#
# Elastic Compliance Matrix: (Units=1/GPa)
#
#
# Indices 1 2 3 4 5 6 
#
# 1 0.016412 -0.001690 -0.008237 0.000000 0.000000 0.000000
# 2 -0.001690 0.015865 -0.007164 0.000000 0.000000 0.000000
# 3 -0.008237 -0.007164 0.021426 0.000000 0.000000 0.000000
# 4 0.000000 0.000000 0.000000 0.044008 0.000000 0.000000
# 5 0.000000 0.000000 0.000000 0.000000 0.044087 0.000000
# 6 0.000000 0.000000 0.000000 0.000000 0.000000 0.062522
#
#
# Mechanical properties :
#
#
# Convention : Reuss Voigt Hill
#
# Bulk Modulus (GPa) = 51.22512 51.27847 51.25180
# Shear Modulus (GPa) = 20.40736 21.30917 20.85826
#
# Velocity S-wave (km/s) = 3.44265 3.51790 3.48048
# Velocity P-wave (km/s) = 6.74924 6.80305 6.77620
#
# Compressibility (1/GPa) = 0.01952167
#
# Stress axis : x y z
#
# Youngs Moduli (GPa) = 60.92964 63.03245 46.67167
#
# Poissons Ratio (x) = 0.10650 0.38445
# Poissons Ratio (y) = 0.10295 0.33435
# Poissons Ratio (z) = 0.50190 0.45155
#
# Static dielectric constant tensor:
#      x y z
#    x 1.594540 0.000000 0.000000 
#    y 0.000000 1.608090 0.000000 
#    z 0.000000 0.000000 1.595320 
# 
# From -- ./inp_files/22702.got.cif
#   From: 2010.05.17/outbox.cif.g08.bks.cpg/sg47_12_cif.got.tgz:22702.got - 2010.06.03 20:15:42.
