data_PCOD9382518
_publ_section_title
;
Structure prediction by ZEFSAII (Michael W. Deem and Ramdas Pophale) SiO2 
 PCOD9382518
Probable space group: P M M M
;
_chemical_formula_sum "Si O2"
_cell_formula_units_Z 52
_cell_length_a 29.338554
_cell_length_b 14.174173
_cell_length_c 7.559987
_cell_angle_alpha 90.000000
_cell_angle_beta 90.000000
_cell_angle_gamma 90.000000
_cell_volume 3143.818628
_symmetry_space_group_name_H-M "P M M M"
_symmetry_group_IT_number 47
_symmetry_cell_setting 'orthorhombic'
loop_
_space_group_symop_operation_xyz
x,y,z
-x,-y,z
x,-y,-z
-x,y,-z
-x,-y,-z
x,y,-z
-x,y,z
x,-y,z
loop_
_atom_site_type_symbol
_atom_site_label
_atom_site_fract_x
_atom_site_fract_y
_atom_site_fract_z
Si Si1 0.735361 0.394237 0.786419
Si Si2 0.124505 0.887131 0.290938
Si Si3 0.780761 0.200311 0.292542
Si Si4 0.642691 0.293386 0.216860
Si Si5 0.686871 0.895629 0.793668
Si Si6 0.948229 0.885670 0.000000
Si Si7 0.550605 0.609558 0.784359
O O1 0.745702 0.500000 0.723864
O O2 0.769451 0.310597 0.732660
O O3 0.684547 0.361553 0.730886
O O4 0.735334 0.395597 0.000000
O O5 0.117111 0.869278 0.500000
O O6 0.169954 0.833127 0.228632
O O7 0.132069 0.000000 0.270220
O O8 0.081333 0.859661 0.172197
O O9 0.779853 0.178793 0.500000
O O10 0.738759 0.141781 0.213091
O O11 0.656148 0.188962 0.280658
O O12 0.593743 0.330344 0.275940
O O13 0.642657 0.292818 0.000000
O O14 0.683009 0.000000 0.715047
O O15 0.674609 0.902467 0.000000
O O16 0.000000 0.849960 0.000000
O O17 0.950579 0.000000 0.000000
O O18 0.500000 0.640771 0.727789
O O19 0.556358 0.500000 0.733479
O O20 0.550879 0.611510 0.000000
#
# Coordination Sequence:
#
# PCOD9382518 Si02
#       7
#     8   8   8   8   8   4   8
#     4   9  17  28  42  60  83 113 144 172 207 255
#     4   9  18  30  44  65  93 123 153 188 227 266
#     4  10  19  29  42  62  87 114 143 175 214 256
#     4   8  13  22  35  51  74 104 136 169 206 251
#     4   9  17  27  40  57  77 106 141 175 210 252
#     4   9  18  30  46  68  91 123 161 191 225 266
#     4   8  12  17  28  48  72  98 129 166 209 257
#
# _framework density 16.540395
#
# number of rings (size 3 to 8) (size 9 to 14) (size 15 to 20)
#    0.000    3.154    0.000    2.769    2.154    3.385 
#    0.000    1.538    0.000    0.462    0.000    3.231 
#    0.000   11.077    0.000   42.769    0.000   37.077 
#
# Total GULP energy -289708.204920 kJ/mol
# GULP energy per Si atom -5571.311633 kJ/mol
# Density = 1.650275 g / cm^3
# Si number density = 16.540395 Si / 1000 Ang^3
#
#
#
# Elastic Constant Matrix: (Units=GPa)
#
#
# Indices 1 2 3 4 5 6 
#
# 1 155.1803 62.6719 25.1091 0.0000 0.0000 0.0000
# 2 62.6719 90.4448 11.4361 0.0000 0.0000 0.0000
# 3 25.1091 11.4361 45.7277 0.0000 0.0000 0.0000
# 4 0.0000 0.0000 0.0000 5.3325 0.0000 0.0000
# 5 0.0000 0.0000 0.0000 0.0000 1042.7974 0.0000
# 6 0.0000 0.0000 0.0000 0.0000 0.0000 20.7699
#
#
#
# Elastic Compliance Matrix: (Units=1/GPa)
#
#
# Indices 1 2 3 4 5 6 
#
# 1 0.009516 -0.006127 -0.003693 0.000000 0.000000 0.000000
# 2 -0.006127 0.015362 -0.000478 0.000000 0.000000 0.000000
# 3 -0.003693 -0.000478 0.024016 0.000000 0.000000 0.000000
# 4 0.000000 0.000000 0.000000 0.187529 0.000000 0.000000
# 5 0.000000 0.000000 0.000000 0.000000 0.000959 0.000000
# 6 0.000000 0.000000 0.000000 0.000000 0.000000 0.048147
#
#
# Mechanical properties :
#
#
# Convention : Reuss Voigt Hill
#
# Bulk Modulus (GPa) = 35.33682 54.42078 44.87880
# Shear Modulus (GPa) = 15.84495 226.58901 121.21698
#
# Velocity S-wave (km/s) = 3.09844 11.71703 8.56998
# Velocity P-wave (km/s) = 5.84900 14.69778 11.18561
#
# Compressibility (1/GPa) = 0.02829909
#
# Stress axis : x y z
#
# Youngs Moduli (GPa) = 105.08409 65.09359 41.63909
#
# Poissons Ratio (x) = 0.39883 0.15377
# Poissons Ratio (y) = 0.64386 0.01989
# Poissons Ratio (z) = 0.38808 0.03109
#
# Static dielectric constant tensor:
#      x y z
#    x 1.543230 0.000000 0.000000 
#    y 0.000000 1.558790 0.000000 
#    z 0.000000 0.000000 1.654090 
# 
# From -- ./inp_files/12466.got.cif
#   From: 2010.05.17/outbox.cif.g08.bks.cpg/sg47_7_cif.got.tgz:12466.got - 2010.06.03 20:15:42.
