data_PCOD9382386
_publ_section_title
;
Structure prediction by ZEFSAII (Michael W. Deem and Ramdas Pophale) SiO2 
 PCOD9382386
Probable space group: P M M M
;
_chemical_formula_sum "Si O2"
_cell_formula_units_Z 48
_cell_length_a 13.613130
_cell_length_b 16.038839
_cell_length_c 15.666215
_cell_angle_alpha 90.000000
_cell_angle_beta 90.000000
_cell_angle_gamma 90.000000
_cell_volume 3420.542589
_symmetry_space_group_name_H-M "P M M M"
_symmetry_group_IT_number 47
_symmetry_cell_setting 'orthorhombic'
loop_
_space_group_symop_operation_xyz
x,y,z
-x,-y,z
x,-y,-z
-x,y,-z
-x,-y,-z
x,y,-z
-x,y,z
x,-y,z
loop_
_atom_site_type_symbol
_atom_site_label
_atom_site_fract_x
_atom_site_fract_y
_atom_site_fract_z
Si Si1 0.881951 0.000000 0.903048
Si Si2 0.386744 0.898343 0.500000
Si Si3 0.387606 0.593951 0.103654
Si Si4 0.616667 0.904706 0.148653
Si Si5 0.254337 0.748086 0.098572
Si Si6 0.116359 0.160903 0.786379
Si Si7 0.722260 0.902415 0.328209
O O1 0.859183 0.080852 0.846819
O O2 0.000000 0.000000 0.910812
O O3 0.842799 0.000000 0.000000
O O4 0.500000 0.870471 0.500000
O O5 0.329439 0.872893 0.585515
O O6 0.388918 0.000000 0.500000
O O7 0.500000 0.609396 0.131301
O O8 0.359342 0.500000 0.130059
O O9 0.315867 0.668095 0.128916
O O10 0.388571 0.594642 0.000000
O O11 0.500000 0.895178 0.137206
O O12 0.675030 0.829584 0.104446
O O13 0.646523 0.898307 0.248620
O O14 0.642807 0.000000 0.121272
O O15 0.161698 0.763964 0.159266
O O16 0.224817 0.737688 0.000000
O O17 0.181035 0.146695 0.701994
O O18 0.000000 0.164851 0.773042
O O19 0.748759 0.000000 0.338849
#
# Coordination Sequence:
#
# PCOD9382386 Si02
#       7
#     4   4   8   8   8   8   8
#     4   9  16  26  40  53  67 100 148 185 211 236
#     4   9  16  26  43  63  79  97 131 174 214 257
#     4   8  14  26  43  60  78 101 131 171 218 261
#     4   9  17  27  37  52  80 113 137 163 206 252
#     4  10  19  27  39  58  78 104 143 183 212 247
#     4  10  19  30  41  54  77 108 140 179 216 243
#     4   9  16  27  41  57  76 102 137 174 209 250
#
# _framework density 14.032861
#
# number of rings (size 3 to 8) (size 9 to 14) (size 15 to 20)
#    0.000    2.833    0.833    2.000    1.167    4.333 
#    0.000    1.250    0.000    2.000    0.000    2.333 
#    0.000    0.000    0.000   12.000    0.000   97.000 
#
# Total GULP energy -267322.518509 kJ/mol
# GULP energy per Si atom -5569.219136 kJ/mol
# Density = 1.400092 g / cm^3
# Si number density = 14.032861 Si / 1000 Ang^3
#
#
#
# Elastic Constant Matrix: (Units=GPa)
#
#
# Indices 1 2 3 4 5 6 
#
# 1 100.3810 33.4141 35.0696 0.0000 0.0000 0.0000
# 2 33.4141 55.4218 13.6057 0.0000 0.0000 0.0000
# 3 35.0696 13.6057 67.6721 0.0000 0.0000 0.0000
# 4 0.0000 0.0000 0.0000 -1.6171 0.0000 0.0000
# 5 0.0000 0.0000 0.0000 0.0000 17.5988 0.0000
# 6 0.0000 0.0000 0.0000 0.0000 0.0000 17.0079
#
#
#
# Elastic Compliance Matrix: (Units=1/GPa)
#
#
# Indices 1 2 3 4 5 6 
#
# 1 0.014490 -0.007250 -0.006051 0.000000 0.000000 0.000000
# 2 -0.007250 0.022608 -0.000788 0.000000 0.000000 0.000000
# 3 -0.006051 -0.000788 0.018071 0.000000 0.000000 0.000000
# 4 0.000000 0.000000 0.000000 -0.618373 0.000000 0.000000
# 5 0.000000 0.000000 0.000000 0.000000 0.056822 0.000000
# 6 0.000000 0.000000 0.000000 0.000000 0.000000 0.058796
#
#
# Mechanical properties :
#
#
# Convention : Reuss Voigt Hill
#
# Bulk Modulus (GPa) = 37.05083 43.07263 40.06173
# Shear Modulus (GPa) = -12.18294 16.02361 1.92034
#
# Velocity S-wave (km/s) = -2.94967 3.38281 1.17108
# Velocity P-wave (km/s) = 3.85480 6.78370 5.51716
#
# Compressibility (1/GPa) = 0.02698995
#
# Stress axis : x y z
#
# Youngs Moduli (GPa) = 69.01529 44.23178 55.33582
#
# Poissons Ratio (x) = 0.32069 0.33485
# Poissons Ratio (y) = 0.50038 0.04361
# Poissons Ratio (z) = 0.41762 0.03486
#
# Static dielectric constant tensor:
#      x y z
#    x 1.479370 0.000000 0.000000 
#    y 0.000000 1.461730 0.000000 
#    z 0.000000 0.000000 1.462660 
# 
# From -- ./inp_files/23708.got.cif
#   From: 2010.05.17/outbox.cif.g08.bks.cpg/sg47_12_cif.got.tgz:23708.got - 2010.06.03 20:15:42.
