data_PCOD9382758
_publ_section_title
;
Structure prediction by ZEFSAII (Michael W. Deem and Ramdas Pophale) SiO2 
 PCOD9382758
Probable space group: P M M M
;
_chemical_formula_sum "Si O2"
_cell_formula_units_Z 52
_cell_length_a 18.925257
_cell_length_b 8.669414
_cell_length_c 19.055810
_cell_angle_alpha 90.000000
_cell_angle_beta 90.000000
_cell_angle_gamma 90.000000
_cell_volume 3126.503668
_symmetry_space_group_name_H-M "P M M M"
_symmetry_group_IT_number 47
_symmetry_cell_setting 'orthorhombic'
loop_
_space_group_symop_operation_xyz
x,y,z
-x,-y,z
x,-y,-z
-x,y,-z
-x,-y,-z
x,y,-z
-x,y,z
x,-y,z
loop_
_atom_site_type_symbol
_atom_site_label
_atom_site_fract_x
_atom_site_fract_y
_atom_site_fract_z
Si Si1 0.500000 0.184613 0.917184
Si Si2 0.141401 0.676639 0.210567
Si Si3 0.783127 0.687183 0.420047
Si Si4 0.294235 0.677066 0.288349
Si Si5 0.785541 0.184845 0.919215
Si Si6 0.079006 0.815939 0.345869
Si Si7 0.642875 0.313397 0.851161
O O1 0.570142 0.254680 0.882902
O O2 0.500000 0.000000 0.908853
O O3 0.500000 0.219628 0.000000
O O4 0.117942 0.500000 0.203530
O O5 0.218347 0.674612 0.248725
O O6 0.156562 0.751945 0.135446
O O7 0.092544 0.766841 0.265157
O O8 0.771150 0.735154 0.500000
O O9 0.782280 0.500000 0.416940
O O10 0.724666 0.746115 0.364071
O O11 0.859536 0.741073 0.392533
O O12 0.316768 0.500000 0.300155
O O13 0.345967 0.743841 0.229388
O O14 0.709612 0.252672 0.895784
O O15 0.782213 0.000000 0.913486
O O16 0.799842 0.226437 0.000000
O O17 0.000000 0.768172 0.367078
O O18 0.084597 0.000000 0.351336
O O19 0.645446 0.500000 0.850971
#
# Coordination Sequence:
#
# PCOD9382758 Si02
#       7
#     4   8   8   8   8   8   8
#     4  11  23  35  45  63  96 131 160 196 243 289
#     4   9  17  30  48  67  87 115 155 199 235 273
#     4   9  17  30  49  72  97 124 154 190 232 278
#     4   7  13  27  45  66  89 113 147 190 230 266
#     4  10  19  30  46  69  96 123 151 188 236 284
#     4  10  20  32  46  65  92 126 158 189 232 286
#     4  10  19  31  48  68  92 125 163 198 230 273
#
# _framework density 16.631997999999999
#
# number of rings (size 3 to 8) (size 9 to 14) (size 15 to 20)
#    0.000    2.692    0.000    4.385    0.000    5.538 
#    0.000    2.308    0.000    0.462    0.000    3.769 
#    0.000    4.308    0.000    0.000    0.000    0.000 
#
# Total GULP energy -289631.621314 kJ/mol
# GULP energy per Si atom -5569.838871 kJ/mol
# Density = 1.659414 g / cm^3
# Si number density = 16.631998 Si / 1000 Ang^3
#
#
#
# Elastic Constant Matrix: (Units=GPa)
#
#
# Indices 1 2 3 4 5 6 
#
# 1 30.3934 7.7146 28.6117 0.0000 0.0000 0.0000
# 2 7.7146 29.6944 28.1872 0.0000 0.0000 0.0000
# 3 28.6117 28.1872 150.8088 0.0000 0.0000 0.0000
# 4 0.0000 0.0000 0.0000 17.3353 0.0000 0.0000
# 5 0.0000 0.0000 0.0000 0.0000 18.2481 0.0000
# 6 0.0000 0.0000 0.0000 0.0000 0.0000 17.0237
#
#
#
# Elastic Compliance Matrix: (Units=1/GPa)
#
#
# Indices 1 2 3 4 5 6 
#
# 1 0.040427 -0.003917 -0.006938 0.000000 0.000000 0.000000
# 2 -0.003917 0.041319 -0.006980 0.000000 0.000000 0.000000
# 3 -0.006938 -0.006980 0.009252 0.000000 0.000000 0.000000
# 4 0.000000 0.000000 0.000000 0.057686 0.000000 0.000000
# 5 0.000000 0.000000 0.000000 0.000000 0.054800 0.000000
# 6 0.000000 0.000000 0.000000 0.000000 0.000000 0.058741
#
#
# Mechanical properties :
#
#
# Convention : Reuss Voigt Hill
#
# Bulk Modulus (GPa) = 18.07378 37.76931 27.92155
# Shear Modulus (GPa) = 15.80585 20.28029 18.04307
#
# Velocity S-wave (km/s) = 3.08608 3.49571 3.29727
# Velocity P-wave (km/s) = 4.85685 6.24912 5.59645
#
# Compressibility (1/GPa) = 0.05532876
#
# Stress axis : x y z
#
# Youngs Moduli (GPa) = 24.73581 24.20165 108.08820
#
# Poissons Ratio (x) = 0.09481 0.74989
# Poissons Ratio (y) = 0.09690 0.75442
# Poissons Ratio (z) = 0.17161 0.16892
#
# Static dielectric constant tensor:
#      x y z
#    x 1.539860 0.000000 0.000000 
#    y 0.000000 1.564870 0.000000 
#    z 0.000000 0.000000 1.595520 
# 
# From -- ./inp_files/28515.got.cif
#   From: 2010.05.17/outbox.cif.g08.bks.cpg/sg47_15_cif.got.tgz:28515.got - 2010.06.03 20:15:42.
