data_PCOD9382925
_publ_section_title
;
Structure prediction by ZEFSAII (Michael W. Deem and Ramdas Pophale) SiO2 
 PCOD9382925
Probable space group: P M M M
;
_chemical_formula_sum "Si O2"
_cell_formula_units_Z 64
_cell_length_a 14.455848
_cell_length_b 9.006194
_cell_length_c 26.973215
_cell_angle_alpha 90.000000
_cell_angle_beta 90.000000
_cell_angle_gamma 90.000000
_cell_volume 3511.701434
_symmetry_space_group_name_H-M "P M M M"
_symmetry_group_IT_number 47
_symmetry_cell_setting 'orthorhombic'
loop_
_space_group_symop_operation_xyz
x,y,z
-x,-y,z
x,-y,-z
-x,y,-z
-x,-y,-z
x,y,-z
-x,y,z
x,-y,z
loop_
_atom_site_type_symbol
_atom_site_label
_atom_site_fract_x
_atom_site_fract_y
_atom_site_fract_z
Si Si1 0.888230 0.674676 0.854520
Si Si2 0.215672 0.321738 0.354063
Si Si3 0.606873 0.677476 0.700113
Si Si4 0.392139 0.323073 0.095197
Si Si5 0.612338 0.168712 0.197733
Si Si6 0.107208 0.178743 0.443436
Si Si7 0.216714 0.177016 0.054705
Si Si8 0.892425 0.319364 0.744918
O O1 0.864263 0.500000 0.858462
O O2 0.843071 0.758713 0.900266
O O3 0.858980 0.729939 0.799512
O O4 0.000000 0.685857 0.855968
O O5 0.205390 0.500000 0.357878
O O6 0.323099 0.287233 0.344036
O O7 0.172014 0.248185 0.402047
O O8 0.162996 0.272733 0.303696
O O9 0.500000 0.715215 0.690096
O O10 0.612068 0.500000 0.709246
O O11 0.638806 0.759051 0.750137
O O12 0.500000 0.283070 0.086633
O O13 0.384188 0.500000 0.091440
O O14 0.365127 0.269567 0.150568
O O15 0.319634 0.243202 0.059925
O O16 0.500000 0.163628 0.198803
O O17 0.646187 0.000000 0.191776
O O18 0.130401 0.222945 0.500000
O O19 0.000000 0.221492 0.434175
O O20 0.111809 0.000000 0.441060
O O21 0.220761 0.000000 0.058703
O O22 0.179327 0.216166 0.000000
O O23 0.889125 0.500000 0.746496
O O24 0.000000 0.276889 0.739552
#
# Coordination Sequence:
#
# PCOD9382925 Si02
#       8
#     8   8   8   8   8   8   8   8
#     4   9  19  37  60  82 106 140 179 219 266 322
#     4  10  19  30  51  81 109 142 183 225 265 308
#     4   9  18  31  46  71 110 150 186 222 262 309
#     4  10  21  37  58  81 105 136 175 219 266 322
#     4   9  17  30  49  74 104 137 174 215 260 312
#     4   9  19  36  55  76 107 144 178 219 274 329
#     4  11  25  41  56  78 107 138 175 223 276 327
#     4   8  15  29  49  76 108 135 162 207 266 317
#
# _framework density 18.224782999999999
#
# number of rings (size 3 to 8) (size 9 to 14) (size 15 to 20)
#    0.000    2.625    0.000    2.625    1.750    5.500 
#    0.000    3.750    0.000    1.125    0.000    2.625 
#    0.000    0.000    0.000    0.000    0.000    0.000 
#
# Total GULP energy -357079.712104 kJ/mol
# GULP energy per Si atom -5579.370502 kJ/mol
# Density = 1.818330 g / cm^3
# Si number density = 18.224783 Si / 1000 Ang^3
#
#
#
# Elastic Constant Matrix: (Units=GPa)
#
#
# Indices 1 2 3 4 5 6 
#
# 1 63.2054 24.1502 59.3375 0.0000 0.0000 0.0000
# 2 24.1502 31.9346 38.5765 0.0000 0.0000 0.0000
# 3 59.3375 38.5765 133.5186 0.0000 0.0000 0.0000
# 4 0.0000 0.0000 0.0000 34.0540 0.0000 0.0000
# 5 0.0000 0.0000 0.0000 0.0000 30.5713 0.0000
# 6 0.0000 0.0000 0.0000 0.0000 0.0000 20.0457
#
#
#
# Elastic Compliance Matrix: (Units=1/GPa)
#
#
# Indices 1 2 3 4 5 6 
#
# 1 0.029008 -0.009776 -0.010067 0.000000 0.000000 0.000000
# 2 -0.009776 0.051397 -0.010505 0.000000 0.000000 0.000000
# 3 -0.010067 -0.010505 0.014999 0.000000 0.000000 0.000000
# 4 0.000000 0.000000 0.000000 0.029365 0.000000 0.000000
# 5 0.000000 0.000000 0.000000 0.000000 0.032710 0.000000
# 6 0.000000 0.000000 0.000000 0.000000 0.000000 0.049886
#
#
# Mechanical properties :
#
#
# Convention : Reuss Voigt Hill
#
# Bulk Modulus (GPa) = 28.81248 52.53188 40.67218
# Shear Modulus (GPa) = 17.88076 24.04048 20.96062
#
# Velocity S-wave (km/s) = 3.13569 3.63589 3.39502
# Velocity P-wave (km/s) = 5.38088 6.82007 6.14277
#
# Compressibility (1/GPa) = 0.03470718
#
# Stress axis : x y z
#
# Youngs Moduli (GPa) = 34.47375 19.45633 66.67290
#
# Poissons Ratio (x) = 0.19021 0.67118
# Poissons Ratio (y) = 0.33702 0.70041
# Poissons Ratio (z) = 0.34704 0.20439
#
# Static dielectric constant tensor:
#      x y z
#    x 1.654840 0.000000 0.000000 
#    y 0.000000 1.614300 0.000000 
#    z 0.000000 0.000000 1.612520 
# 
# From -- ./inp_files/7836.got.cif
#   From: 2010.05.17/outbox.cif.g08.bks.cpg/sg47_4_cif.got.tgz:7836.got - 2010.06.03 20:15:42.
