data_PCOD9382256
_publ_section_title
;
Structure prediction by ZEFSAII (Michael W. Deem and Ramdas Pophale) SiO2 
 PCOD9382256
Probable space group: P M M M
;
_chemical_formula_sum "Si O2"
_cell_formula_units_Z 52
_cell_length_a 7.518892
_cell_length_b 29.376120
_cell_length_c 12.071999
_cell_angle_alpha 90.000000
_cell_angle_beta 90.000000
_cell_angle_gamma 90.000000
_cell_volume 2666.413326
_symmetry_space_group_name_H-M "P M M M"
_symmetry_group_IT_number 47
_symmetry_cell_setting 'orthorhombic'
loop_
_space_group_symop_operation_xyz
x,y,z
-x,-y,z
x,-y,-z
-x,y,-z
-x,-y,-z
x,y,-z
-x,y,z
x,-y,z
loop_
_atom_site_type_symbol
_atom_site_label
_atom_site_fract_x
_atom_site_fract_y
_atom_site_fract_z
Si Si1 0.707776 0.413406 0.266927
Si Si2 0.285141 0.377720 0.500000
Si Si3 0.286132 0.951074 0.128880
Si Si4 0.789343 0.149084 0.126830
Si Si5 0.215246 0.324377 0.873456
Si Si6 0.787082 0.269504 0.500000
Si Si7 0.718441 0.500000 0.871600
Si Si8 0.217835 0.235467 0.262911
O O1 0.500000 0.424005 0.284409
O O2 0.783094 0.401576 0.388038
O O3 0.722278 0.367791 0.194900
O O4 0.779567 0.455468 0.195735
O O5 0.500000 0.380819 0.500000
O O6 0.245983 0.323764 0.500000
O O7 0.500000 0.951790 0.129072
O O8 0.233635 0.901908 0.174009
O O9 0.225597 0.000000 0.176519
O O10 0.226957 0.950477 0.000000
O O11 0.720310 0.188693 0.206519
O O12 0.000000 0.156758 0.117197
O O13 0.716756 0.150999 0.000000
O O14 0.270363 0.277916 0.813893
O O15 0.000000 0.325161 0.873095
O O16 0.275854 0.326170 0.000000
O O17 0.720458 0.246343 0.612785
O O18 0.000000 0.264273 0.500000
O O19 0.500000 0.500000 0.874543
O O20 0.775457 0.500000 0.000000
O O21 0.000000 0.234676 0.265623
#
# Coordination Sequence:
#
# PCOD9382256 Si02
#       8
#     8   4   8   8   8   4   4   8
#     4  10  20  34  52  72  96 125 157 194 235 279
#     4  10  20  33  50  74  98 119 153 202 241 269
#     4   8  14  25  40  59  87 122 155 186 224 273
#     4   9  16  26  41  63  92 120 148 187 230 273
#     4  10  19  31  49  72  97 125 157 191 231 283
#     4  10  18  32  53  69  88 125 164 193 227 282
#     4   9  18  33  52  72  95 125 158 191 232 286
#     4   9  17  29  46  68  91 120 155 190 231 277
#
# _framework density 19.501854000000002
#
# number of rings (size 3 to 8) (size 9 to 14) (size 15 to 20)
#    0.000    2.692    1.538    1.385    0.000    3.385 
#    0.000    5.000    0.000    3.231    0.000    2.154 
#    0.000    4.308    0.000    0.000    0.000    0.000 
#
# Total GULP energy -289989.564715 kJ/mol
# GULP energy per Si atom -5576.722398 kJ/mol
# Density = 1.945747 g / cm^3
# Si number density = 19.501854 Si / 1000 Ang^3
#
#
#
# Elastic Constant Matrix: (Units=GPa)
#
#
# Indices 1 2 3 4 5 6 
#
# 1 47.3078 -3.0484 4.3564 0.0000 0.0000 0.0000
# 2 -3.0484 197.8241 98.9372 0.0000 0.0000 0.0000
# 3 4.3564 98.9372 167.3922 0.0000 0.0000 0.0000
# 4 0.0000 0.0000 0.0000 3.8433 0.0000 0.0000
# 5 0.0000 0.0000 0.0000 0.0000 4.9573 0.0000
# 6 0.0000 0.0000 0.0000 0.0000 0.0000 19.7169
#
#
#
# Elastic Compliance Matrix: (Units=1/GPa)
#
#
# Indices 1 2 3 4 5 6 
#
# 1 0.021291 0.000859 -0.001062 0.000000 0.000000 0.000000
# 2 0.000859 0.007211 -0.004284 0.000000 0.000000 0.000000
# 3 -0.001062 -0.004284 0.008534 0.000000 0.000000 0.000000
# 4 0.000000 0.000000 0.000000 0.260192 0.000000 0.000000
# 5 0.000000 0.000000 0.000000 0.000000 0.201722 0.000000
# 6 0.000000 0.000000 0.000000 0.000000 0.000000 0.050718
#
#
# Mechanical properties :
#
#
# Convention : Reuss Voigt Hill
#
# Bulk Modulus (GPa) = 35.63546 68.11273 51.87410
# Shear Modulus (GPa) = 8.80286 26.52209 17.66248
#
# Velocity S-wave (km/s) = 2.12689 3.69179 3.01272
# Velocity P-wave (km/s) = 4.93397 7.29209 6.22570
#
# Compressibility (1/GPa) = 0.02806193
#
# Stress axis : x y z
#
# Youngs Moduli (GPa) = 46.96747 138.67729 117.17927
#
# Poissons Ratio (x) = -0.11915 0.12444
# Poissons Ratio (y) = -0.04035 0.50204
# Poissons Ratio (z) = 0.04988 0.59415
#
# Static dielectric constant tensor:
#      x y z
#    x 1.769610 0.000000 0.000000 
#    y 0.000000 1.679240 0.000000 
#    z 0.000000 0.000000 1.668540 
# 
# From -- ./inp_files/15547.got.cif
#   From: 2010.05.17/outbox.cif.g08.bks.cpg/sg47_8_cif.got.tgz:15547.got - 2010.06.03 20:15:42.
