data_PCOD9382986
_publ_section_title
;
Structure prediction by ZEFSAII (Michael W. Deem and Ramdas Pophale) SiO2 
 PCOD9382986
Probable space group: P M M M
;
_chemical_formula_sum "Si O2"
_cell_formula_units_Z 52
_cell_length_a 18.425081
_cell_length_b 9.205174
_cell_length_c 18.018581
_cell_angle_alpha 90.000000
_cell_angle_beta 90.000000
_cell_angle_gamma 90.000000
_cell_volume 3056.060829
_symmetry_space_group_name_H-M "P M M M"
_symmetry_group_IT_number 47
_symmetry_cell_setting 'orthorhombic'
loop_
_space_group_symop_operation_xyz
x,y,z
-x,-y,z
x,-y,-z
-x,y,-z
-x,-y,-z
x,y,-z
-x,y,z
x,-y,z
loop_
_atom_site_type_symbol
_atom_site_label
_atom_site_fract_x
_atom_site_fract_y
_atom_site_fract_z
Si Si1 0.081831 0.334344 0.410720
Si Si2 0.370843 0.827335 0.583247
Si Si3 0.000000 0.168507 0.909617
Si Si4 0.419368 0.674900 0.266457
Si Si5 0.148269 0.325626 0.912589
Si Si6 0.783790 0.830242 0.349424
Si Si7 0.730877 0.674772 0.202853
O O1 0.081429 0.333543 0.500000
O O2 0.099575 0.500000 0.387198
O O3 0.141492 0.223736 0.383238
O O4 0.000000 0.300862 0.385408
O O5 0.391770 0.779952 0.500000
O O6 0.406449 0.744683 0.652395
O O7 0.284174 0.808066 0.595011
O O8 0.386174 0.000000 0.589367
O O9 0.074298 0.247941 0.886022
O O10 0.000000 0.000000 0.887404
O O11 0.000000 0.174665 0.000000
O O12 0.500000 0.714080 0.240094
O O13 0.415890 0.500000 0.274203
O O14 0.353586 0.719844 0.211868
O O15 0.139002 0.500000 0.904952
O O16 0.219444 0.279996 0.866490
O O17 0.157733 0.294264 0.000000
O O18 0.767597 0.737598 0.276443
O O19 0.785653 0.000000 0.330993
O O20 0.731963 0.500000 0.203986
#
# Coordination Sequence:
#
# PCOD9382986 Si02
#       7
#     8   8   4   8   8   8   8
#     4   9  18  32  48  65  87 119 159 199 238 282
#     4   9  18  31  46  66  92 121 153 192 239 287
#     4   9  17  29  47  73 103 129 152 185 232 279
#     4   9  18  32  49  69  94 124 158 196 237 283
#     4   9  17  31  52  75  98 127 164 199 231 278
#     4  10  19  31  47  67  92 120 155 198 241 284
#     4   9  18  33  51  70  94 126 160 193 236 287
#
# _framework density 17.015367999999999
#
# number of rings (size 3 to 8) (size 9 to 14) (size 15 to 20)
#    0.000    2.846    0.000    1.615    0.000    4.308 
#    1.385    2.308    0.000    0.462    0.000    3.231 
#    0.000    0.000    0.000   11.538    0.000   12.000 
#
# Total GULP energy -289669.184088 kJ/mol
# GULP energy per Si atom -5570.561232 kJ/mol
# Density = 1.697664 g / cm^3
# Si number density = 17.015368 Si / 1000 Ang^3
#
#
#
# Elastic Constant Matrix: (Units=GPa)
#
#
# Indices 1 2 3 4 5 6 
#
# 1 130.5634 31.6084 48.7612 0.0000 0.0000 0.0000
# 2 31.6084 7.9982 15.8676 0.0000 0.0000 0.0000
# 3 48.7612 15.8676 53.9240 0.0000 0.0000 0.0000
# 4 0.0000 0.0000 0.0000 13.9403 0.0000 0.0000
# 5 0.0000 0.0000 0.0000 0.0000 8.8450 0.0000
# 6 0.0000 0.0000 0.0000 0.0000 0.0000 16.6901
#
#
#
# Elastic Compliance Matrix: (Units=1/GPa)
#
#
# Indices 1 2 3 4 5 6 
#
# 1 -0.331402 1.718230 -0.205932 0.000000 0.000000 0.000000
# 2 1.718230 -8.608174 0.979310 0.000000 0.000000 0.000000
# 3 -0.205932 0.979310 -0.083411 0.000000 0.000000 0.000000
# 4 0.000000 0.000000 0.000000 0.071734 0.000000 0.000000
# 5 0.000000 0.000000 0.000000 0.000000 0.113058 0.000000
# 6 0.000000 0.000000 0.000000 0.000000 0.000000 0.059916
#
#
# Mechanical properties :
#
#
# Convention : Reuss Voigt Hill
#
# Bulk Modulus (GPa) = -0.24754 42.77332 21.26289
# Shear Modulus (GPa) = -0.33095 14.31164 6.99035
#
# Velocity S-wave (km/s) = -0.44150 2.90332 2.02908
# Velocity P-wave (km/s) = 0.63694 6.03586 4.24417
#
# Compressibility (1/GPa) = -4.03977008
#
# Stress axis : x y z
#
# Youngs Moduli (GPa) = -3.01748 -0.11617 -11.98890
#
# Poissons Ratio (x) = 0.19960 -2.46890
# Poissons Ratio (y) = 5.18473 11.74085
# Poissons Ratio (z) = -0.62140 0.11377
#
# Static dielectric constant tensor:
#      x y z
#    x 1.600640 0.000000 0.000000 
#    y 0.000000 1.567920 0.000000 
#    z 0.000000 0.000000 1.558220 
# 
# From -- ./inp_files/9552.got.cif
#   From: 2010.05.17/outbox.cif.g08.bks.cpg/sg47_5_cif.got.tgz:9552.got - 2010.06.03 20:15:42.
