data_PCOD9382194
_publ_section_title
;
Structure prediction by ZEFSAII (Michael W. Deem and Ramdas Pophale) SiO2 
 PCOD9382194
Probable space group: P M M M
;
_chemical_formula_sum "Si O2"
_cell_formula_units_Z 40
_cell_length_a 19.931430
_cell_length_b 13.596875
_cell_length_c 7.547981
_cell_angle_alpha 90.000000
_cell_angle_beta 90.000000
_cell_angle_gamma 90.000000
_cell_volume 2045.541816
_symmetry_space_group_name_H-M "P M M M"
_symmetry_group_IT_number 47
_symmetry_cell_setting 'orthorhombic'
loop_
_space_group_symop_operation_xyz
x,y,z
-x,-y,z
x,-y,-z
-x,y,-z
-x,-y,-z
x,y,-z
-x,y,z
x,-y,z
loop_
_atom_site_type_symbol
_atom_site_label
_atom_site_fract_x
_atom_site_fract_y
_atom_site_fract_z
Si Si1 0.077436 0.000000 0.283094
Si Si2 0.422091 0.766392 0.288734
Si Si3 0.419059 0.390992 0.000000
Si Si4 0.157859 0.806321 0.711781
Si Si5 0.923549 0.610059 0.787447
Si Si6 0.704324 0.111180 0.284365
O O1 0.114426 0.099968 0.223802
O O2 0.078727 0.000000 0.500000
O O3 0.000000 0.000000 0.228577
O O4 0.417071 0.749031 0.500000
O O5 0.500000 0.791361 0.250419
O O6 0.402801 0.671081 0.174854
O O7 0.368824 0.849258 0.236086
O O8 0.390164 0.500000 0.000000
O O9 0.500000 0.398554 0.000000
O O10 0.159840 0.816445 0.500000
O O11 0.124168 0.701420 0.746304
O O12 0.234197 0.820495 0.775922
O O13 0.903337 0.500000 0.725095
O O14 0.000000 0.628925 0.723607
O O15 0.926477 0.605342 0.000000
O O16 0.705293 0.109920 0.500000
O O17 0.716038 0.000000 0.224451
#
# Coordination Sequence:
#
# PCOD9382194 Si02
#       6
#     4   8   4   8   8   8
#     4   9  16  26  45  75 104 130 163 206 259 316
#     4   9  18  33  55  82 109 143 187 227 267 323
#     4   9  18  34  55  79 109 141 176 227 282 323
#     4  10  18  31  52  77 103 133 170 214 263 315
#     4   9  19  36  54  71  98 137 174 212 263 317
#     4   9  17  32  53  76 106 141 171 209 267 323
#
# _framework density 19.554722999999999
#
# number of rings (size 3 to 8) (size 9 to 14) (size 15 to 20)
#    0.000    2.800    1.000    1.200    0.000    2.400 
#    1.800    7.000    0.000    7.200    0.000    0.000 
#    0.000    0.000    0.000    0.000    0.000    0.000 
#
# Total GULP energy -222980.097544 kJ/mol
# GULP energy per Si atom -5574.502439 kJ/mol
# Density = 1.951022 g / cm^3
# Si number density = 19.554723 Si / 1000 Ang^3
#
#
#
# Elastic Constant Matrix: (Units=GPa)
#
#
# Indices 1 2 3 4 5 6 
#
# 1 135.1557 95.2177 18.6562 0.0000 0.0000 0.0000
# 2 95.2177 162.0130 11.1499 0.0000 0.0000 0.0000
# 3 18.6562 11.1499 43.2672 0.0000 0.0000 0.0000
# 4 0.0000 0.0000 0.0000 28.0508 0.0000 0.0000
# 5 0.0000 0.0000 0.0000 0.0000 3.0970 0.0000
# 6 0.0000 0.0000 0.0000 0.0000 0.0000 29.5142
#
#
#
# Elastic Compliance Matrix: (Units=1/GPa)
#
#
# Indices 1 2 3 4 5 6 
#
# 1 0.013202 -0.007500 -0.003760 0.000000 0.000000 0.000000
# 2 -0.007500 0.010545 0.000517 0.000000 0.000000 0.000000
# 3 -0.003760 0.000517 0.024600 0.000000 0.000000 0.000000
# 4 0.000000 0.000000 0.000000 0.035650 0.000000 0.000000
# 5 0.000000 0.000000 0.000000 0.000000 0.322891 0.000000
# 6 0.000000 0.000000 0.000000 0.000000 0.000000 0.033882
#
#
# Mechanical properties :
#
#
# Convention : Reuss Voigt Hill
#
# Bulk Modulus (GPa) = 37.22971 65.60929 51.41950
# Shear Modulus (GPa) = 10.61101 26.49320 18.55210
#
# Velocity S-wave (km/s) = 2.33197 3.68479 3.08348
# Velocity P-wave (km/s) = 5.13136 7.19222 6.24735
#
# Compressibility (1/GPa) = 0.02686027
#
# Stress axis : x y z
#
# Youngs Moduli (GPa) = 75.74788 94.83412 40.65018
#
# Poissons Ratio (x) = 0.71127 0.15283
# Poissons Ratio (y) = 0.56812 -0.02100
# Poissons Ratio (z) = 0.28478 -0.04899
#
# Static dielectric constant tensor:
#      x y z
#    x 1.681680 0.000000 0.000000 
#    y 0.000000 1.673390 0.000000 
#    z 0.000000 0.000000 1.733420 
# 
# From -- ./inp_files/10689.got.cif
#   From: 2010.05.17/outbox.cif.g08.bks.cpg/sg47_6_cif.got.tgz:10689.got - 2010.06.03 20:15:42.
