data_PCOD9382430
_publ_section_title
;
Structure prediction by ZEFSAII (Michael W. Deem and Ramdas Pophale) SiO2 
 PCOD9382430
Probable space group: P M M M
;
_chemical_formula_sum "Si O2"
_cell_formula_units_Z 52
_cell_length_a 8.021301
_cell_length_b 27.575589
_cell_length_c 14.138347
_cell_angle_alpha 90.000000
_cell_angle_beta 90.000000
_cell_angle_gamma 90.000000
_cell_volume 3127.290658
_symmetry_space_group_name_H-M "P M M M"
_symmetry_group_IT_number 47
_symmetry_cell_setting 'orthorhombic'
loop_
_space_group_symop_operation_xyz
x,y,z
-x,-y,z
x,-y,-z
-x,y,-z
-x,-y,-z
x,y,-z
-x,y,z
x,-y,z
loop_
_atom_site_type_symbol
_atom_site_label
_atom_site_fract_x
_atom_site_fract_y
_atom_site_fract_z
Si Si1 0.298166 0.342356 0.609617
Si Si2 0.800873 0.242583 0.701913
Si Si3 0.698946 0.854712 0.395344
Si Si4 0.801012 0.198505 0.104052
Si Si5 0.800514 0.000000 0.108691
Si Si6 0.699160 0.552156 0.385769
Si Si7 0.699416 0.899012 0.799749
O O1 0.244625 0.336407 0.500000
O O2 0.500000 0.343749 0.609261
O O3 0.242652 0.296217 0.668741
O O4 0.237226 0.395160 0.645923
O O5 0.730068 0.201301 0.632378
O O6 0.736651 0.229705 0.807249
O O7 0.000000 0.236837 0.701363
O O8 0.767634 0.865226 0.500000
O O9 0.500000 0.862111 0.399222
O O10 0.762359 0.886304 0.306420
O O11 0.769624 0.142638 0.131688
O O12 0.000000 0.205904 0.100371
O O13 0.731645 0.209246 0.000000
O O14 0.744173 0.951810 0.162967
O O15 0.000000 0.000000 0.105363
O O16 0.737673 0.000000 0.000000
O O17 0.716790 0.552800 0.500000
O O18 0.500000 0.551405 0.367053
O O19 0.768120 0.500000 0.352237
O O20 0.500000 0.893900 0.799268
#
# Coordination Sequence:
#
# PCOD9382430 Si02
#       7
#     8   8   8   8   4   8   8
#     4   9  16  25  38  57  83 114 143 172 208 247
#     4  10  19  28  41  63  87 111 142 177 209 246
#     4   9  18  33  50  66  88 118 146 171 204 246
#     4   9  18  33  49  63  84 114 142 169 209 258
#     4  11  23  37  52  69  92 120 143 167 208 259
#     4   7  10  18  33  52  73 101 140 178 205 236
#     4  10  20  33  51  74  93 110 139 177 210 242
#
# _framework density 16.627811999999999
#
# number of rings (size 3 to 8) (size 9 to 14) (size 15 to 20)
#    0.000    2.846    0.000    3.462    0.000    6.462 
#    0.000    0.385    0.000    2.769    0.000    2.154 
#    0.000    0.615    0.000    7.692    0.000    0.308 
#
# Total GULP energy -289619.919835 kJ/mol
# GULP energy per Si atom -5569.613843 kJ/mol
# Density = 1.658997 g / cm^3
# Si number density = 16.627812 Si / 1000 Ang^3
#
#
#
# Elastic Constant Matrix: (Units=GPa)
#
#
# Indices 1 2 3 4 5 6 
#
# 1 7.2107 -13.8430 1.9923 0.0000 0.0000 0.0000
# 2 -13.8430 123.5993 49.6442 0.0000 0.0000 0.0000
# 3 1.9923 49.6442 100.6797 0.0000 0.0000 0.0000
# 4 0.0000 0.0000 0.0000 13.5797 0.0000 0.0000
# 5 0.0000 0.0000 0.0000 0.0000 25.7950 0.0000
# 6 0.0000 0.0000 0.0000 0.0000 0.0000 -45.0044
#
#
#
# Elastic Compliance Matrix: (Units=1/GPa)
#
#
# Indices 1 2 3 4 5 6 
#
# 1 0.201864 0.030193 -0.018882 0.000000 0.000000 0.000000
# 2 0.030193 0.014605 -0.007799 0.000000 0.000000 0.000000
# 3 -0.018882 -0.007799 0.014152 0.000000 0.000000 0.000000
# 4 0.000000 0.000000 0.000000 0.073639 0.000000 0.000000
# 5 0.000000 0.000000 0.000000 0.000000 0.038767 0.000000
# 6 0.000000 0.000000 0.000000 0.000000 0.000000 -0.022220
#
#
# Mechanical properties :
#
#
# Convention : Reuss Voigt Hill
#
# Bulk Modulus (GPa) = 4.20798 34.11964 19.16381
# Shear Modulus (GPa) = 12.72269 11.78715 12.25492
#
# Velocity S-wave (km/s) = 2.76913 2.66537 2.71774
# Velocity P-wave (km/s) = 3.57215 5.48055 4.62584
#
# Compressibility (1/GPa) = 0.23764371
#
# Stress axis : x y z
#
# Youngs Moduli (GPa) = 4.95382 68.47133 70.66296
#
# Poissons Ratio (x) = -2.06733 1.33428
# Poissons Ratio (y) = -0.14957 0.55109
# Poissons Ratio (z) = 0.09354 0.53400
#
# Static dielectric constant tensor:
#      x y z
#    x 1.594340 0.000000 0.000000 
#    y 0.000000 1.568230 0.000000 
#    z 0.000000 0.000000 1.579210 
# 
# From -- ./inp_files/21744.got.cif
#   From: 2010.05.17/outbox.cif.g08.bks.cpg/sg47_11_cif.got.tgz:21744.got - 2010.06.03 20:15:42.
