data_PCOD9382913
_publ_section_title
;
Structure prediction by ZEFSAII (Michael W. Deem and Ramdas Pophale) SiO2 
 PCOD9382913
Probable space group: P M M M
;
_chemical_formula_sum "Si O2"
_cell_formula_units_Z 44
_cell_length_a 7.749493
_cell_length_b 9.563540
_cell_length_c 32.840597
_cell_angle_alpha 90.000000
_cell_angle_beta 90.000000
_cell_angle_gamma 90.000000
_cell_volume 2433.901579
_symmetry_space_group_name_H-M "P M M M"
_symmetry_group_IT_number 47
_symmetry_cell_setting 'orthorhombic'
loop_
_space_group_symop_operation_xyz
x,y,z
-x,-y,z
x,-y,-z
-x,y,-z
-x,-y,-z
x,y,-z
-x,y,z
x,-y,z
loop_
_atom_site_type_symbol
_atom_site_label
_atom_site_fract_x
_atom_site_fract_y
_atom_site_fract_z
Si Si1 0.500000 0.831534 0.691652
Si Si2 0.500000 0.330208 0.607005
Si Si3 0.803031 0.330187 0.453920
Si Si4 0.288542 0.160560 0.000000
Si Si5 0.193762 0.835093 0.247240
Si Si6 0.289339 0.338465 0.077471
Si Si7 0.291653 0.336290 0.168483
O O1 0.500000 0.747246 0.649888
O O2 0.665609 0.794837 0.719249
O O3 0.500000 0.000000 0.684711
O O4 0.500000 0.500000 0.611982
O O5 0.333426 0.289036 0.580115
O O6 0.755398 0.285883 0.500000
O O7 0.802398 0.500000 0.454429
O O8 0.000000 0.285665 0.445768
O O9 0.231718 0.241581 0.959432
O O10 0.500000 0.162610 0.000000
O O11 0.234106 0.000000 0.000000
O O12 0.218199 0.752360 0.205351
O O13 0.000000 0.813332 0.262653
O O14 0.218137 0.000000 0.238879
O O15 0.500000 0.337799 0.077438
O O16 0.237273 0.500000 0.071245
O O17 0.235836 0.293259 0.122898
O O18 0.500000 0.324960 0.170097
O O19 0.247869 0.500000 0.173151
#
# Coordination Sequence:
#
# PCOD9382913 Si02
#       7
#     4   4   8   4   8   8   8
#     4  10  22  39  53  71 104 141 171 210 262 313
#     4  10  19  30  50  78 102 130 173 217 252 299
#     4   8  14  26  46  74 107 138 169 211 260 303
#     4   9  15  21  31  55  90 125 164 204 237 279
#     4  10  21  37  56  75  96 130 174 213 256 312
#     4   8  14  24  38  58  88 126 159 192 240 298
#     4   9  17  30  50  75 100 126 162 208 259 310
#
# _framework density 18.077970000000001
#
# number of rings (size 3 to 8) (size 9 to 14) (size 15 to 20)
#    0.000    3.000    0.909    2.182    0.000    4.727 
#    0.000    1.818    0.000    1.091    0.000    1.909 
#    0.000    5.091    0.000    0.000    0.000    0.000 
#
# Total GULP energy -245323.175683 kJ/mol
# GULP energy per Si atom -5575.526720 kJ/mol
# Density = 1.803682 g / cm^3
# Si number density = 18.077970 Si / 1000 Ang^3
#
#
#
# Elastic Constant Matrix: (Units=GPa)
#
#
# Indices 1 2 3 4 5 6 
#
# 1 81.8110 40.1346 84.5764 0.0000 0.0000 0.0000
# 2 40.1346 44.7633 73.0248 0.0000 0.0000 0.0000
# 3 84.5764 73.0248 190.7698 0.0000 0.0000 0.0000
# 4 0.0000 0.0000 0.0000 -31.1802 0.0000 0.0000
# 5 0.0000 0.0000 0.0000 0.0000 -23.2120 0.0000
# 6 0.0000 0.0000 0.0000 0.0000 0.0000 7.7112
#
#
#
# Elastic Compliance Matrix: (Units=1/GPa)
#
#
# Indices 1 2 3 4 5 6 
#
# 1 0.024550 -0.011332 -0.006546 0.000000 0.000000 0.000000
# 2 -0.011332 0.064719 -0.019750 0.000000 0.000000 0.000000
# 3 -0.006546 -0.019750 0.015704 0.000000 0.000000 0.000000
# 4 0.000000 0.000000 0.000000 -0.032072 0.000000 0.000000
# 5 0.000000 0.000000 0.000000 0.000000 -0.043081 0.000000
# 6 0.000000 0.000000 0.000000 0.000000 0.000000 0.129681
#
#
# Mechanical properties :
#
#
# Convention : Reuss Voigt Hill
#
# Bulk Modulus (GPa) = 33.65107 79.20173 56.42640
# Shear Modulus (GPa) = 20.43625 -1.36229 9.53698
#
# Velocity S-wave (km/s) = 3.36587 -0.86902 2.29933
# Velocity P-wave (km/s) = 5.81035 6.54976 6.19111
#
# Compressibility (1/GPa) = 0.02971673
#
# Stress axis : x y z
#
# Youngs Moduli (GPa) = 40.73293 15.45145 63.67770
#
# Poissons Ratio (x) = 0.17510 0.41685
# Poissons Ratio (y) = 0.46160 1.25761
# Poissons Ratio (z) = 0.26665 0.30516
#
# Static dielectric constant tensor:
#      x y z
#    x 1.668830 0.000000 0.000000 
#    y 0.000000 1.595170 0.000000 
#    z 0.000000 0.000000 1.590270 
# 
# From -- ./inp_files/33960.got.cif
#   From: 2010.05.17/outbox.cif.g08.bks.cpg/sg47_17_cif.got.tgz:33960.got - 2010.06.03 20:15:42.
