data_PCOD9382208
_publ_section_title
;
Structure prediction by ZEFSAII (Michael W. Deem and Ramdas Pophale) SiO2 
 PCOD9382208
Probable space group: P M M M
;
_chemical_formula_sum "Si O2"
_cell_formula_units_Z 32
_cell_length_a 17.043638
_cell_length_b 8.288671
_cell_length_c 11.467256
_cell_angle_alpha 90.000000
_cell_angle_beta 90.000000
_cell_angle_gamma 90.000000
_cell_volume 1619.969027
_symmetry_space_group_name_H-M "P M M M"
_symmetry_group_IT_number 47
_symmetry_cell_setting 'orthorhombic'
loop_
_space_group_symop_operation_xyz
x,y,z
-x,-y,z
x,-y,-z
-x,y,-z
-x,-y,-z
x,y,-z
-x,y,z
x,-y,z
loop_
_atom_site_type_symbol
_atom_site_label
_atom_site_fract_x
_atom_site_fract_y
_atom_site_fract_z
Si Si1 0.671094 0.182703 0.000000
Si Si2 0.172462 0.697024 0.741541
Si Si3 0.090979 0.303188 0.500000
Si Si4 0.841886 0.313191 0.000000
Si Si5 0.353666 0.690420 0.764980
Si Si6 0.500000 0.818863 0.362789
O O1 0.747019 0.299398 0.000000
O O2 0.624601 0.219966 0.116003
O O3 0.700632 0.000000 0.000000
O O4 0.168611 0.500000 0.744807
O O5 0.130298 0.750210 0.622303
O O6 0.264670 0.742137 0.733752
O O7 0.138827 0.752621 0.869092
O O8 0.095912 0.500000 0.500000
O O9 0.000000 0.257903 0.500000
O O10 0.867089 0.500000 0.000000
O O11 0.351041 0.500000 0.785507
O O12 0.420776 0.730332 0.674524
O O13 0.500000 0.829441 0.500000
O O14 0.500000 0.000000 0.312992
#
# Coordination Sequence:
#
# PCOD9382208 Si02
#       6
#     4   8   4   4   8   4
#     4  10  18  31  53  79 107 132 167 217 273 316
#     4   8  15  27  46  69  98 134 172 212 253 306
#     4   9  16  26  42  71 107 136 164 207 263 315
#     4   8  14  28  46  69 100 135 174 215 255 307
#     4  10  20  35  55  76 101 137 181 218 257 313
#     4  11  25  40  51  72 109 139 173 225 272 309
#
# _framework density 19.753463
#
# number of rings (size 3 to 8) (size 9 to 14) (size 15 to 20)
#    0.000    2.750    0.000    3.750    1.750    1.500 
#    0.000    3.125    0.000    3.750    0.000    0.000 
#    0.000   66.000    0.000    0.000    0.000    0.000 
#
# Total GULP energy -178154.597092 kJ/mol
# GULP energy per Si atom -5567.331159 kJ/mol
# Density = 1.970850 g / cm^3
# Si number density = 19.753463 Si / 1000 Ang^3
#
#
#
# Elastic Constant Matrix: (Units=GPa)
#
#
# Indices 1 2 3 4 5 6 
#
# 1 79.4572 14.2355 79.1823 0.0000 0.0000 0.0000
# 2 14.2355 30.3881 11.5114 0.0000 0.0000 0.0000
# 3 79.1823 11.5114 193.4655 0.0000 0.0000 0.0000
# 4 0.0000 0.0000 0.0000 12.0552 0.0000 0.0000
# 5 0.0000 0.0000 0.0000 0.0000 43.3877 0.0000
# 6 0.0000 0.0000 0.0000 0.0000 0.0000 -1.5705
#
#
#
# Elastic Compliance Matrix: (Units=1/GPa)
#
#
# Indices 1 2 3 4 5 6 
#
# 1 0.022730 -0.007288 -0.008869 0.000000 0.000000 0.000000
# 2 -0.007288 0.036003 0.000841 0.000000 0.000000 0.000000
# 3 -0.008869 0.000841 0.008749 0.000000 0.000000 0.000000
# 4 0.000000 0.000000 0.000000 0.082952 0.000000 0.000000
# 5 0.000000 0.000000 0.000000 0.000000 0.023048 0.000000
# 6 0.000000 0.000000 0.000000 0.000000 0.000000 -0.636721
#
#
# Mechanical properties :
#
#
# Convention : Reuss Voigt Hill
#
# Bulk Modulus (GPa) = 27.13813 57.01883 42.07848
# Shear Modulus (GPa) = -11.89563 23.99990 6.05214
#
# Velocity S-wave (km/s) = -2.45665 3.48943 1.75228
# Velocity P-wave (km/s) = 2.39195 6.72032 5.04401
#
# Compressibility (1/GPa) = 0.03684852
#
# Stress axis : x y z
#
# Youngs Moduli (GPa) = 43.99532 27.77524 114.30004
#
# Poissons Ratio (x) = 0.20243 1.01376
# Poissons Ratio (y) = 0.32064 -0.09609
# Poissons Ratio (z) = 0.39021 -0.02335
#
# Static dielectric constant tensor:
#      x y z
#    x 1.661200 0.000000 0.000000 
#    y 0.000000 1.693660 0.000000 
#    z 0.000000 0.000000 1.752040 
# 
# From -- ./inp_files/18181.got.cif
#   From: 2010.05.17/outbox.cif.g08.bks.cpg/sg47_10_cif.got.tgz:18181.got - 2010.06.03 20:15:42.
