data_PCOD9382658
_publ_section_title
;
Structure prediction by ZEFSAII (Michael W. Deem and Ramdas Pophale) SiO2 
 PCOD9382658
Probable space group: P M M M
;
_chemical_formula_sum "Si O2"
_cell_formula_units_Z 64
_cell_length_a 19.942693
_cell_length_b 24.617394
_cell_length_c 7.379025
_cell_angle_alpha 90.000000
_cell_angle_beta 90.000000
_cell_angle_gamma 90.000000
_cell_volume 3622.637363
_symmetry_space_group_name_H-M "P M M M"
_symmetry_group_IT_number 47
_symmetry_cell_setting 'orthorhombic'
loop_
_space_group_symop_operation_xyz
x,y,z
-x,-y,z
x,-y,-z
-x,y,-z
-x,-y,-z
x,y,-z
-x,y,z
x,-y,z
loop_
_atom_site_type_symbol
_atom_site_label
_atom_site_fract_x
_atom_site_fract_y
_atom_site_fract_z
Si Si1 0.793970 0.837195 0.220964
Si Si2 0.075974 0.776427 0.220768
Si Si3 0.573757 0.247418 0.212663
Si Si4 0.574538 0.119745 0.716792
Si Si5 0.077467 0.561018 0.779211
Si Si6 0.716667 0.272237 0.221116
Si Si7 0.153537 0.332670 0.220863
Si Si8 0.287749 0.939454 0.212834
O O1 0.869286 0.821314 0.276676
O O2 0.747234 0.786289 0.273784
O O3 0.761755 0.893101 0.287287
O O4 0.793300 0.838094 0.000000
O O5 0.105507 0.717566 0.274115
O O6 0.000000 0.784499 0.282414
O O7 0.075168 0.776590 0.000000
O O8 0.500000 0.258964 0.291107
O O9 0.584462 0.182301 0.225198
O O10 0.640429 0.275749 0.286616
O O11 0.570716 0.260797 0.000000
O O12 0.573975 0.119397 0.500000
O O13 0.500000 0.102687 0.779955
O O14 0.636400 0.082887 0.774678
O O15 0.096490 0.500000 0.722127
O O16 0.124472 0.609965 0.717476
O O17 0.000000 0.570655 0.726516
O O18 0.078413 0.561322 0.000000
O O19 0.771185 0.316864 0.277548
O O20 0.715273 0.272622 0.000000
O O21 0.153296 0.333201 0.000000
O O22 0.282297 0.000000 0.290035
O O23 0.272084 0.943157 0.000000
#
# Coordination Sequence:
#
# PCOD9382658 Si02
#       8
#     8   8   8   8   8   8   8   8
#     4   8  13  22  34  49  68  87 112 144 178 215
#     4   8  12  17  28  46  67  90 111 138 182 227
#     4   9  15  24  40  57  73  95 121 147 178 219
#     4  10  20  31  42  57  77  98 118 145 182 220
#     4   8  12  16  21  31  54  92 132 160 178 205
#     4   8  12  19  32  48  64  83 110 148 186 211
#     4   8  12  16  24  40  62  87 118 154 185 213
#     4  10  19  30  44  57  70  94 126 154 179 213
#
# _framework density 17.666688000000001
#
# number of rings (size 3 to 8) (size 9 to 14) (size 15 to 20)
#    0.000    3.375    1.250    2.625    0.000    2.750 
#    0.000    1.250    0.000    0.375    0.000    2.625 
#    0.000    1.000    0.000    8.125    0.000    1.875 
#
# Total GULP energy -356661.508429 kJ/mol
# GULP energy per Si atom -5572.836069 kJ/mol
# Density = 1.762648 g / cm^3
# Si number density = 17.666688 Si / 1000 Ang^3
#
#
#
# Elastic Constant Matrix: (Units=GPa)
#
#
# Indices 1 2 3 4 5 6 
#
# 1 181.1758 98.8207 4.4236 0.0000 0.0000 0.0000
# 2 98.8207 127.1710 2.8386 0.0000 0.0000 0.0000
# 3 4.4236 2.8386 62.2199 0.0000 0.0000 0.0000
# 4 0.0000 0.0000 0.0000 -38.3123 0.0000 0.0000
# 5 0.0000 0.0000 0.0000 0.0000 -30.8335 0.0000
# 6 0.0000 0.0000 0.0000 0.0000 0.0000 27.4857
#
#
#
# Elastic Compliance Matrix: (Units=1/GPa)
#
#
# Indices 1 2 3 4 5 6 
#
# 1 0.009587 -0.007442 -0.000342 0.000000 0.000000 0.000000
# 2 -0.007442 0.013649 -0.000094 0.000000 0.000000 0.000000
# 3 -0.000342 -0.000094 0.016101 0.000000 0.000000 0.000000
# 4 0.000000 0.000000 0.000000 -0.026101 0.000000 0.000000
# 5 0.000000 0.000000 0.000000 0.000000 -0.032432 0.000000
# 6 0.000000 0.000000 0.000000 0.000000 0.000000 0.036383
#
#
# Mechanical properties :
#
#
# Convention : Reuss Voigt Hill
#
# Bulk Modulus (GPa) = 42.40764 64.74805 53.57785
# Shear Modulus (GPa) = 122.54447 9.30023 65.92235
#
# Velocity S-wave (km/s) = 8.33758 2.29689 6.11519
# Velocity P-wave (km/s) = 10.80479 6.61541 8.95843
#
# Compressibility (1/GPa) = 0.02358065
#
# Stress axis : x y z
#
# Youngs Moduli (GPa) = 104.30610 73.26724 62.10941
#
# Poissons Ratio (x) = 0.54527 0.02125
# Poissons Ratio (y) = 0.77627 0.00581
# Poissons Ratio (z) = 0.03568 0.00685
#
# Static dielectric constant tensor:
#      x y z
#    x 1.619890 0.000000 0.000000 
#    y 0.000000 1.577200 0.000000 
#    z 0.000000 0.000000 1.662950 
# 
# From -- ./inp_files/11943.got.cif
#   From: 2010.05.17/outbox.cif.g08.bks.cpg/sg47_6_cif.got.tgz:11943.got - 2010.06.03 20:15:42.
