data_PCOD9382561
_publ_section_title
;
Structure prediction by ZEFSAII (Michael W. Deem and Ramdas Pophale) SiO2 
 PCOD9382561
Probable space group: P M M M
;
_chemical_formula_sum "Si O2"
_cell_formula_units_Z 52
_cell_length_a 7.880665
_cell_length_b 29.163536
_cell_length_c 14.083859
_cell_angle_alpha 90.000000
_cell_angle_beta 90.000000
_cell_angle_gamma 90.000000
_cell_volume 3236.865955
_symmetry_space_group_name_H-M "P M M M"
_symmetry_group_IT_number 47
_symmetry_cell_setting 'orthorhombic'
loop_
_space_group_symop_operation_xyz
x,y,z
-x,-y,z
x,-y,-z
-x,y,-z
-x,-y,-z
x,y,-z
-x,y,z
x,-y,z
loop_
_atom_site_type_symbol
_atom_site_label
_atom_site_fract_x
_atom_site_fract_y
_atom_site_fract_z
Si Si1 0.311563 0.615744 0.884490
Si Si2 0.292363 0.050888 0.299559
Si Si3 0.000000 0.447227 0.115931
Si Si4 0.299315 0.905967 0.894810
Si Si5 0.799138 0.188270 0.198993
Si Si6 0.294471 0.144785 0.605809
Si Si7 0.205221 0.716884 0.888977
O O1 0.500000 0.601390 0.855994
O O2 0.165500 0.581084 0.853162
O O3 0.276712 0.668195 0.855178
O O4 0.304966 0.616429 0.000000
O O5 0.500000 0.051046 0.298896
O O6 0.233177 0.063766 0.192895
O O7 0.240871 0.092912 0.366673
O O8 0.237325 0.000000 0.327117
O O9 0.000000 0.500000 0.146602
O O10 0.000000 0.447399 0.000000
O O11 0.500000 0.915617 0.899959
O O12 0.278931 0.853232 0.862049
O O13 0.226462 0.913254 0.000000
O O14 0.766172 0.176957 0.308948
O O15 0.737111 0.238253 0.167631
O O16 0.000000 0.186842 0.180845
O O17 0.237148 0.156874 0.500000
O O18 0.500000 0.145523 0.607241
O O19 0.000000 0.713724 0.883980
O O20 0.250332 0.722920 0.000000
#
# Coordination Sequence:
#
# PCOD9382561 Si02
#       7
#     8   8   4   8   8   8   8
#     4   9  16  25  38  56  78 109 149 189 229 268
#     4   8  14  25  42  64  84 101 129 169 210 252
#     4   9  16  26  38  52  78 114 151 197 236 259
#     4   9  17  28  41  59  85 111 134 165 203 247
#     4  10  19  29  44  64  83 107 139 171 206 254
#     4   9  18  32  47  62  82 105 130 168 214 257
#     4   9  16  27  41  57  82 111 138 175 219 258
#
# _framework density 16.064920999999998
#
# number of rings (size 3 to 8) (size 9 to 14) (size 15 to 20)
#    0.000    3.000    0.769    1.846    0.000    3.385 
#    0.000    6.154    0.000    7.385    0.000    8.615 
#    0.000    0.000    0.000    0.000    0.000    1.538 
#
# Total GULP energy -289726.352844 kJ/mol
# GULP energy per Si atom -5571.660632 kJ/mol
# Density = 1.602836 g / cm^3
# Si number density = 16.064921 Si / 1000 Ang^3
#
#
#
# Elastic Constant Matrix: (Units=GPa)
#
#
# Indices 1 2 3 4 5 6 
#
# 1 40.1575 24.5725 0.0040 0.0000 0.0000 0.0000
# 2 24.5725 102.9215 7.1215 0.0000 0.0000 0.0000
# 3 0.0040 7.1215 41.0213 0.0000 0.0000 0.0000
# 4 0.0000 0.0000 0.0000 8.4179 0.0000 0.0000
# 5 0.0000 0.0000 0.0000 0.0000 9.0659 0.0000
# 6 0.0000 0.0000 0.0000 0.0000 0.0000 15.5835
#
#
#
# Elastic Compliance Matrix: (Units=1/GPa)
#
#
# Indices 1 2 3 4 5 6 
#
# 1 0.029223 -0.007062 0.001223 0.000000 0.000000 0.000000
# 2 -0.007062 0.011541 -0.002003 0.000000 0.000000 0.000000
# 3 0.001223 -0.002003 0.024725 0.000000 0.000000 0.000000
# 4 0.000000 0.000000 0.000000 0.118794 0.000000 0.000000
# 5 0.000000 0.000000 0.000000 0.000000 0.110304 0.000000
# 6 0.000000 0.000000 0.000000 0.000000 0.000000 0.064170
#
#
# Mechanical properties :
#
#
# Convention : Reuss Voigt Hill
#
# Bulk Modulus (GPa) = 20.07787 27.49956 23.78872
# Shear Modulus (GPa) = 12.78636 16.77362 14.77999
#
# Velocity S-wave (km/s) = 2.82426 3.23478 3.03647
# Velocity P-wave (km/s) = 4.81252 5.57734 5.20898
#
# Compressibility (1/GPa) = 0.04980608
#
# Stress axis : x y z
#
# Youngs Moduli (GPa) = 34.21981 86.65000 40.44459
#
# Poissons Ratio (x) = 0.61189 -0.04947
# Poissons Ratio (y) = 0.24165 0.08100
# Poissons Ratio (z) = -0.04185 0.17354
#
# Static dielectric constant tensor:
#      x y z
#    x 1.589110 0.000000 0.000000 
#    y 0.000000 1.530060 0.000000 
#    z 0.000000 0.000000 1.524200 
# 
# From -- ./inp_files/13410.got.cif
#   From: 2010.05.17/outbox.cif.g08.bks.cpg/sg47_7_cif.got.tgz:13410.got - 2010.06.03 20:15:42.
