data_PCOD9382500
_publ_section_title
;
Structure prediction by ZEFSAII (Michael W. Deem and Ramdas Pophale) SiO2 
 PCOD9382500
Probable space group: P M M M
;
_chemical_formula_sum "Si O2"
_cell_formula_units_Z 64
_cell_length_a 24.701005
_cell_length_b 19.841391
_cell_length_c 7.705779
_cell_angle_alpha 90.000000
_cell_angle_beta 90.000000
_cell_angle_gamma 90.000000
_cell_volume 3776.619998
_symmetry_space_group_name_H-M "P M M M"
_symmetry_group_IT_number 47
_symmetry_cell_setting 'orthorhombic'
loop_
_space_group_symop_operation_xyz
x,y,z
-x,-y,z
x,-y,-z
-x,y,-z
-x,-y,-z
x,y,-z
-x,y,z
x,-y,z
loop_
_atom_site_type_symbol
_atom_site_label
_atom_site_fract_x
_atom_site_fract_y
_atom_site_fract_z
Si Si1 0.774058 0.423745 0.788021
Si Si2 0.560563 0.423797 0.291782
Si Si3 0.760188 0.074116 0.292221
Si Si4 0.884443 0.924307 0.709849
Si Si5 0.727488 0.783601 0.207803
Si Si6 0.164420 0.707408 0.212242
Si Si7 0.939886 0.214332 0.793821
Si Si8 0.667231 0.344891 0.208057
O O1 0.782793 0.500000 0.728397
O O2 0.818660 0.368213 0.736221
O O3 0.715471 0.394771 0.731818
O O4 0.773777 0.424687 0.000000
O O5 0.558045 0.427109 0.500000
O O6 0.500000 0.405610 0.229412
O O7 0.573043 0.500000 0.228474
O O8 0.608501 0.373050 0.249667
O O9 0.763438 0.070874 0.500000
O O10 0.822128 0.085772 0.229911
O O11 0.723668 0.138094 0.250378
O O12 0.742716 0.000000 0.229251
O O13 0.884459 0.923189 0.500000
O O14 0.920983 0.862812 0.770235
O O15 0.901252 0.000000 0.763557
O O16 0.785815 0.755255 0.268979
O O17 0.682804 0.730149 0.271291
O O18 0.728219 0.779136 0.000000
O O19 0.107829 0.737555 0.275550
O O20 0.163795 0.708812 0.000000
O O21 0.000000 0.224676 0.721003
O O22 0.942464 0.226771 0.000000
O O23 0.671157 0.343920 0.000000
#
# Coordination Sequence:
#
# PCOD9382500 Si02
#       8
#     8   8   8   8   8   8   8   8
#     4   8  13  22  39  61  82 105 132 165 207 251
#     4   9  18  31  44  60  88 126 160 184 209 245
#     4   9  17  28  42  61  84 109 138 170 205 251
#     4   9  18  31  44  58  78 104 133 166 204 246
#     4   9  16  27  43  62  84 110 140 173 211 255
#     4   8  14  25  38  54  78 103 129 163 205 250
#     4  10  19  29  42  58  76 102 136 171 206 249
#     4   9  17  27  42  66  90 111 144 184 214 247
#
# _framework density 16.946370999999999
#
# number of rings (size 3 to 8) (size 9 to 14) (size 15 to 20)
#    0.000    3.125    1.250    3.000    0.000    2.500 
#    0.000    3.125    0.000    0.375    0.000    2.625 
#    0.000    0.500    0.000    6.625    0.000    5.250 
#
# Total GULP energy -356504.001699 kJ/mol
# GULP energy per Si atom -5570.375027 kJ/mol
# Density = 1.690780 g / cm^3
# Si number density = 16.946371 Si / 1000 Ang^3
#
#
#
# Elastic Constant Matrix: (Units=GPa)
#
#
# Indices 1 2 3 4 5 6 
#
# 1 120.7783 86.6455 6.0821 0.0000 0.0000 0.0000
# 2 86.6455 153.7566 3.5135 0.0000 0.0000 0.0000
# 3 6.0821 3.5135 24.2419 0.0000 0.0000 0.0000
# 4 0.0000 0.0000 0.0000 24.7230 0.0000 0.0000
# 5 0.0000 0.0000 0.0000 0.0000 4.1840 0.0000
# 6 0.0000 0.0000 0.0000 0.0000 0.0000 24.3717
#
#
#
# Elastic Compliance Matrix: (Units=1/GPa)
#
#
# Indices 1 2 3 4 5 6 
#
# 1 0.014034 -0.007854 -0.002383 0.000000 0.000000 0.000000
# 2 -0.007854 0.010921 0.000388 0.000000 0.000000 0.000000
# 3 -0.002383 0.000388 0.041793 0.000000 0.000000 0.000000
# 4 0.000000 0.000000 0.000000 0.040448 0.000000 0.000000
# 5 0.000000 0.000000 0.000000 0.000000 0.239004 0.000000
# 6 0.000000 0.000000 0.000000 0.000000 0.000000 0.041031
#
#
# Mechanical properties :
#
#
# Convention : Reuss Voigt Hill
#
# Bulk Modulus (GPa) = 21.25427 54.58432 37.91930
# Shear Modulus (GPa) = 11.83118 24.15813 17.99466
#
# Velocity S-wave (km/s) = 2.64513 3.77976 3.26215
# Velocity P-wave (km/s) = 4.67956 7.16441 6.05091
#
# Compressibility (1/GPa) = 0.04704936
#
# Stress axis : x y z
#
# Youngs Moduli (GPa) = 71.25508 91.56761 23.92772
#
# Poissons Ratio (x) = 0.71918 0.05701
# Poissons Ratio (y) = 0.55964 -0.00928
# Poissons Ratio (z) = 0.16978 -0.03550
#
# Static dielectric constant tensor:
#      x y z
#    x 1.568380 0.000000 0.000000 
#    y 0.000000 1.599830 0.000000 
#    z 0.000000 0.000000 1.636130 
# 
# From -- ./inp_files/12852.got.cif
#   From: 2010.05.17/outbox.cif.g08.bks.cpg/sg47_7_cif.got.tgz:12852.got - 2010.06.03 20:15:42.
