data_PCOD9382524
_publ_section_title
;
Structure prediction by ZEFSAII (Michael W. Deem and Ramdas Pophale) SiO2 
 PCOD9382524
Probable space group: P M M M
;
_chemical_formula_sum "Si O2"
_cell_formula_units_Z 44
_cell_length_a 7.768626
_cell_length_b 22.306250
_cell_length_c 14.238429
_cell_angle_alpha 90.000000
_cell_angle_beta 90.000000
_cell_angle_gamma 90.000000
_cell_volume 2467.361894
_symmetry_space_group_name_H-M "P M M M"
_symmetry_group_IT_number 47
_symmetry_cell_setting 'orthorhombic'
loop_
_space_group_symop_operation_xyz
x,y,z
-x,-y,z
x,-y,-z
-x,y,-z
-x,-y,-z
x,y,-z
-x,y,z
x,-y,z
loop_
_atom_site_type_symbol
_atom_site_label
_atom_site_fract_x
_atom_site_fract_y
_atom_site_fract_z
Si Si1 0.289654 0.629008 0.604919
Si Si2 0.290038 0.566579 0.795218
Si Si3 0.796598 0.129716 0.606712
Si Si4 0.294532 0.748506 0.706991
Si Si5 0.704186 0.000000 0.393386
Si Si6 0.710612 0.688028 0.895027
O O1 0.230315 0.614537 0.500000
O O2 0.500000 0.628386 0.603186
O O3 0.238278 0.584898 0.689209
O O4 0.233692 0.695812 0.636723
O O5 0.500000 0.566123 0.796544
O O6 0.230741 0.500000 0.820148
O O7 0.237897 0.620953 0.862937
O O8 0.721575 0.133321 0.500000
O O9 0.741365 0.185861 0.668513
O O10 0.000000 0.133372 0.598419
O O11 0.755227 0.064085 0.648074
O O12 0.500000 0.741784 0.710246
O O13 0.231338 0.732259 0.811606
O O14 0.500000 0.000000 0.399305
O O15 0.778991 0.000000 0.500000
O O16 0.500000 0.688999 0.896195
O O17 0.769730 0.702030 0.000000
#
# Coordination Sequence:
#
# PCOD9382524 Si02
#       6
#     8   8   8   8   4   8
#     4   8  13  20  30  46  70 101 137 175 210 246
#     4   8  13  19  27  44  72 105 138 169 208 261
#     4  10  19  29  42  63  92 120 143 171 206 239
#     4   9  16  26  41  59  79 108 146 180 210 252
#     4   9  17  29  45  65  90 121 152 173 191 228
#     4   8  14  24  37  54  76 102 136 180 224 261
#
# _framework density 17.832812000000001
#
# number of rings (size 3 to 8) (size 9 to 14) (size 15 to 20)
#    0.000    3.364    0.000    3.545    0.000    3.636 
#    0.000    3.636    0.000    0.545    0.000    0.636 
#    0.000   16.727    0.000   46.545    0.000   40.727 
#
# Total GULP energy -245041.130405 kJ/mol
# GULP energy per Si atom -5569.116600 kJ/mol
# Density = 1.779222 g / cm^3
# Si number density = 17.832812 Si / 1000 Ang^3
#
#
#
# Elastic Constant Matrix: (Units=GPa)
#
#
# Indices 1 2 3 4 5 6 
#
# 1 20.9559 -2.0701 6.0591 0.0000 0.0000 0.0000
# 2 -2.0701 115.9879 34.0945 0.0000 0.0000 0.0000
# 3 6.0591 34.0945 87.3043 0.0000 0.0000 0.0000
# 4 0.0000 0.0000 0.0000 14.4416 0.0000 0.0000
# 5 0.0000 0.0000 0.0000 0.0000 -0.1853 0.0000
# 6 0.0000 0.0000 0.0000 0.0000 0.0000 -76.4240
#
#
#
# Elastic Compliance Matrix: (Units=1/GPa)
#
#
# Indices 1 2 3 4 5 6 
#
# 1 0.049155 0.002124 -0.004241 0.000000 0.000000 0.000000
# 2 0.002124 0.009831 -0.003987 0.000000 0.000000 0.000000
# 3 -0.004241 -0.003987 0.013305 0.000000 0.000000 0.000000
# 4 0.000000 0.000000 0.000000 0.069244 0.000000 0.000000
# 5 0.000000 0.000000 0.000000 0.000000 -5.397344 0.000000
# 6 0.000000 0.000000 0.000000 0.000000 0.000000 -0.013085
#
#
# Mechanical properties :
#
#
# Convention : Reuss Voigt Hill
#
# Bulk Modulus (GPa) = 16.64324 33.37945 25.01134
# Shear Modulus (GPa) = -0.95481 -0.02257 -0.48869
#
# Velocity S-wave (km/s) = -0.73252 -0.11261 -0.52405
# Velocity P-wave (km/s) = 2.93900 4.32917 3.69996
#
# Compressibility (1/GPa) = 0.06008447
#
# Stress axis : x y z
#
# Youngs Moduli (GPa) = 20.34372 101.71470 75.15705
#
# Poissons Ratio (x) = -0.21603 0.31873
# Poissons Ratio (y) = -0.04321 0.29964
# Poissons Ratio (z) = 0.08628 0.40552
#
# Static dielectric constant tensor:
#      x y z
#    x 1.652230 0.000000 0.000000 
#    y 0.000000 1.630100 0.000000 
#    z 0.000000 0.000000 1.619500 
# 
# From -- ./inp_files/6797.got.cif
#   From: 2010.05.17/outbox.cif.g08.bks.cpg/sg47_4_cif.got.tgz:6797.got - 2010.06.03 20:15:42.
