data_PCOD9382030
_publ_section_title
;
Structure prediction by ZEFSAII (Michael W. Deem and Ramdas Pophale) SiO2 
 PCOD9382030
Probable space group: P M M M
;
_chemical_formula_sum "Si O2"
_cell_formula_units_Z 64
_cell_length_a 15.819792
_cell_length_b 25.594356
_cell_length_c 8.757209
_cell_angle_alpha 90.000000
_cell_angle_beta 90.000000
_cell_angle_gamma 90.000000
_cell_volume 3545.771053
_symmetry_space_group_name_H-M "P M M M"
_symmetry_group_IT_number 47
_symmetry_cell_setting 'orthorhombic'
loop_
_space_group_symop_operation_xyz
x,y,z
-x,-y,z
x,-y,-z
-x,y,-z
-x,-y,-z
x,y,-z
-x,y,z
x,-y,z
loop_
_atom_site_type_symbol
_atom_site_label
_atom_site_fract_x
_atom_site_fract_y
_atom_site_fract_z
Si Si1 0.129048 0.713928 0.322761
Si Si2 0.735419 0.440930 0.684200
Si Si3 0.722455 0.855126 0.182082
Si Si4 0.594290 0.358754 0.313493
Si Si5 0.676679 0.254482 0.677544
Si Si6 0.596147 0.060484 0.315924
Si Si7 0.906858 0.397576 0.182329
Si Si8 0.907987 0.826165 0.184239
O O1 0.103955 0.710180 0.500000
O O2 0.230804 0.718681 0.318196
O O3 0.100551 0.662778 0.233740
O O4 0.096610 0.767559 0.249797
O O5 0.737614 0.437922 0.500000
O O6 0.711998 0.500000 0.727409
O O7 0.666482 0.398745 0.738721
O O8 0.828150 0.427217 0.744554
O O9 0.683649 0.799290 0.231695
O O10 0.666182 0.901016 0.250840
O O11 0.821208 0.854379 0.234571
O O12 0.721861 0.859096 0.000000
O O13 0.597723 0.358059 0.500000
O O14 0.500000 0.374677 0.268527
O O15 0.613962 0.299334 0.265140
O O16 0.657624 0.242113 0.500000
O O17 0.598475 0.062773 0.500000
O O18 0.500000 0.074873 0.268564
O O19 0.610381 0.000000 0.271323
O O20 0.000000 0.417093 0.229268
O O21 0.900894 0.400800 0.000000
O O22 0.000000 0.848905 0.227661
O O23 0.904992 0.823378 0.000000
#
# Coordination Sequence:
#
# PCOD9382030 Si02
#       8
#     8   8   8   8   8   8   8   8
#     4  10  18  30  50  76 105 135 173 218 258 301
#     4  10  21  38  58  79 102 128 166 218 267 310
#     4  10  20  32  51  81 112 142 179 222 264 307
#     4   9  17  32  55  81 106 133 167 207 256 314
#     4   9  17  31  50  74 108 144 174 206 252 310
#     4   9  19  37  59  80 104 139 182 224 269 322
#     4  11  23  36  52  74 101 135 172 209 256 317
#     4   9  18  32  48  71 109 151 184 213 253 308
#
# _framework density 18.049671
#
# number of rings (size 3 to 8) (size 9 to 14) (size 15 to 20)
#    0.000    2.375    1.250    1.875    0.000    5.500 
#    0.000    4.375    0.000    1.500    0.000    3.500 
#    0.000    0.000    0.000    0.000    0.000    0.000 
#
# Total GULP energy -356958.679084 kJ/mol
# GULP energy per Si atom -5577.479361 kJ/mol
# Density = 1.800859 g / cm^3
# Si number density = 18.049671 Si / 1000 Ang^3
#
#
#
# Elastic Constant Matrix: (Units=GPa)
#
#
# Indices 1 2 3 4 5 6 
#
# 1 132.2082 71.1273 22.6083 0.0000 0.0000 0.0000
# 2 71.1273 85.1396 20.3323 0.0000 0.0000 0.0000
# 3 22.6083 20.3323 11.6573 0.0000 0.0000 0.0000
# 4 0.0000 0.0000 0.0000 1.7972 0.0000 0.0000
# 5 0.0000 0.0000 0.0000 0.0000 18.6172 0.0000
# 6 0.0000 0.0000 0.0000 0.0000 0.0000 5.5632
#
#
#
# Elastic Compliance Matrix: (Units=1/GPa)
#
#
# Indices 1 2 3 4 5 6 
#
# 1 0.014676 -0.009363 -0.012131 0.000000 0.000000 0.000000
# 2 -0.009363 0.026104 -0.027370 0.000000 0.000000 0.000000
# 3 -0.012131 -0.027370 0.157048 0.000000 0.000000 0.000000
# 4 0.000000 0.000000 0.000000 0.556433 0.000000 0.000000
# 5 0.000000 0.000000 0.000000 0.000000 0.053714 0.000000
# 6 0.000000 0.000000 0.000000 0.000000 0.000000 0.179753
#
#
# Mechanical properties :
#
#
# Convention : Reuss Voigt Hill
#
# Bulk Modulus (GPa) = 9.99017 50.79343 30.39180
# Shear Modulus (GPa) = 4.46898 12.85800 8.66349
#
# Velocity S-wave (km/s) = 1.57522 2.67192 2.19322
# Velocity P-wave (km/s) = 2.97578 6.14173 4.82577
#
# Compressibility (1/GPa) = 0.10009837
#
# Stress axis : x y z
#
# Youngs Moduli (GPa) = 68.13971 38.30810 6.36749
#
# Poissons Ratio (x) = 0.35869 0.07724
# Poissons Ratio (y) = 0.63802 0.17428
# Poissons Ratio (z) = 0.82659 1.04851
#
# Static dielectric constant tensor:
#      x y z
#    x 1.657740 0.000000 0.000000 
#    y 0.000000 1.588960 0.000000 
#    z 0.000000 0.000000 1.610090 
# 
# From -- ./inp_files/7848.got.cif
#   From: 2010.05.17/outbox.cif.g08.bks.cpg/sg47_4_cif.got.tgz:7848.got - 2010.06.03 20:15:42.
