data_PCOD9382671
_publ_section_title
;
Structure prediction by ZEFSAII (Michael W. Deem and Ramdas Pophale) SiO2 
 PCOD9382671
Probable space group: P M M M
;
_chemical_formula_sum "Si O2"
_cell_formula_units_Z 64
_cell_length_a 32.198048
_cell_length_b 14.990966
_cell_length_c 7.808848
_cell_angle_alpha 90.000000
_cell_angle_beta 90.000000
_cell_angle_gamma 90.000000
_cell_volume 3769.173525
_symmetry_space_group_name_H-M "P M M M"
_symmetry_group_IT_number 47
_symmetry_cell_setting 'orthorhombic'
loop_
_space_group_symop_operation_xyz
x,y,z
-x,-y,z
x,-y,-z
-x,y,-z
-x,-y,-z
x,y,-z
-x,y,z
x,-y,z
loop_
_atom_site_type_symbol
_atom_site_label
_atom_site_fract_x
_atom_site_fract_y
_atom_site_fract_z
Si Si1 0.455255 0.104247 0.206155
Si Si2 0.635235 0.102147 0.704376
Si Si3 0.714123 0.786374 0.710377
Si Si4 0.793832 0.100870 0.704445
Si Si5 0.874043 0.215123 0.796801
Si Si6 0.842496 0.401280 0.205880
Si Si7 0.046950 0.898817 0.706426
Si Si8 0.254457 0.598842 0.293283
O O1 0.500000 0.142156 0.264337
O O2 0.410832 0.140431 0.263299
O O3 0.454930 0.000000 0.260551
O O4 0.455366 0.105756 0.000000
O O5 0.640304 0.095842 0.500000
O O6 0.672493 0.163881 0.768746
O O7 0.637605 0.000000 0.772925
O O8 0.714049 0.785951 0.500000
O O9 0.754623 0.841962 0.767697
O O10 0.719550 0.684065 0.766737
O O11 0.788454 0.094575 0.500000
O O12 0.836759 0.152117 0.734213
O O13 0.794714 0.000000 0.773613
O O14 0.867316 0.315436 0.727550
O O15 0.918031 0.170634 0.757717
O O16 0.869614 0.220071 0.000000
O O17 0.854025 0.500000 0.272440
O O18 0.793789 0.387288 0.245317
O O19 0.847032 0.404050 0.000000
O O20 0.046237 0.901073 0.500000
O O21 0.000000 0.877731 0.764917
O O22 0.057184 0.000000 0.764929
O O23 0.256512 0.597638 0.500000
O O24 0.266763 0.500000 0.230857
#
# Coordination Sequence:
#
# PCOD9382671 Si02
#       8
#     8   8   8   8   8   8   8   8
#     4   8  14  25  39  54  75 104 137 174 215 254
#     4   9  16  25  38  56  79 110 145 175 205 247
#     4   9  16  27  41  59  85 114 144 178 212 251
#     4  10  19  30  44  61  86 123 156 177 205 251
#     4  11  21  31  47  71  94 115 144 183 222 255
#     4   9  18  32  47  64  89 118 146 178 218 261
#     4   9  19  36  55  72  91 118 149 177 210 257
#     4   9  16  27  45  65  82 106 145 188 222 251
#
# _framework density 16.979849999999999
#
# number of rings (size 3 to 8) (size 9 to 14) (size 15 to 20)
#    0.000    2.750    1.250    1.875    0.000    4.500 
#    0.000    3.125    0.000    1.875    0.000    2.625 
#    0.000    0.500    0.000    6.250    0.000    1.250 
#
# Total GULP energy -356583.872160 kJ/mol
# GULP energy per Si atom -5571.623003 kJ/mol
# Density = 1.694120 g / cm^3
# Si number density = 16.979850 Si / 1000 Ang^3
#
#
#
# Elastic Constant Matrix: (Units=GPa)
#
#
# Indices 1 2 3 4 5 6 
#
# 1 123.8360 86.4849 -3.2250 0.0000 0.0000 0.0000
# 2 86.4849 145.5860 7.0266 0.0000 0.0000 0.0000
# 3 -3.2250 7.0266 16.3462 0.0000 0.0000 0.0000
# 4 0.0000 0.0000 0.0000 10.8201 0.0000 0.0000
# 5 0.0000 0.0000 0.0000 0.0000 38.4275 0.0000
# 6 0.0000 0.0000 0.0000 0.0000 0.0000 -1.9830
#
#
#
# Elastic Compliance Matrix: (Units=1/GPa)
#
#
# Indices 1 2 3 4 5 6 
#
# 1 0.014484 -0.008928 0.006695 0.000000 0.000000 0.000000
# 2 -0.008928 0.012517 -0.007142 0.000000 0.000000 0.000000
# 3 0.006695 -0.007142 0.065567 0.000000 0.000000 0.000000
# 4 0.000000 0.000000 0.000000 0.092420 0.000000 0.000000
# 5 0.000000 0.000000 0.000000 0.000000 0.026023 0.000000
# 6 0.000000 0.000000 0.000000 0.000000 0.000000 -0.504286
#
#
# Mechanical properties :
#
#
# Convention : Reuss Voigt Hill
#
# Bulk Modulus (GPa) = 13.54643 51.81568 32.68106
# Shear Modulus (GPa) = -20.00642 22.48505 1.23931
#
# Velocity S-wave (km/s) = -3.43628 3.64293 0.85525
# Velocity P-wave (km/s) = 2.78366 6.94815 4.50156
#
# Compressibility (1/GPa) = 0.07382019
#
# Stress axis : x y z
#
# Youngs Moduli (GPa) = 69.03981 79.89221 15.25153
#
# Poissons Ratio (x) = 0.71324 -0.10211
# Poissons Ratio (y) = 0.61636 0.10892
# Poissons Ratio (z) = -0.46224 0.57058
#
# Static dielectric constant tensor:
#      x y z
#    x 1.572010 0.000000 0.000000 
#    y 0.000000 1.597390 0.000000 
#    z 0.000000 0.000000 1.622780 
# 
# From -- ./inp_files/14268.got.cif
#   From: 2010.05.17/outbox.cif.g08.bks.cpg/sg47_8_cif.got.tgz:14268.got - 2010.06.03 20:15:42.
