data_PCOD9382473
_publ_section_title
;
Structure prediction by ZEFSAII (Michael W. Deem and Ramdas Pophale) SiO2 
 PCOD9382473
Probable space group: P M M M
;
_chemical_formula_sum "Si O2"
_cell_formula_units_Z 64
_cell_length_a 13.948216
_cell_length_b 34.853706
_cell_length_c 9.254606
_cell_angle_alpha 90.000000
_cell_angle_beta 90.000000
_cell_angle_gamma 90.000000
_cell_volume 4499.099125
_symmetry_space_group_name_H-M "P M M M"
_symmetry_group_IT_number 47
_symmetry_cell_setting 'orthorhombic'
loop_
_space_group_symop_operation_xyz
x,y,z
-x,-y,z
x,-y,-z
-x,y,-z
-x,-y,-z
x,y,-z
-x,y,z
x,-y,z
loop_
_atom_site_type_symbol
_atom_site_label
_atom_site_fract_x
_atom_site_fract_y
_atom_site_fract_z
Si Si1 0.614642 0.303632 0.828300
Si Si2 0.111749 0.806816 0.172416
Si Si3 0.388844 0.847349 0.328217
Si Si4 0.716104 0.233065 0.671901
Si Si5 0.616602 0.381621 0.665679
Si Si6 0.113228 0.044142 0.672623
Si Si7 0.216933 0.113299 0.171814
Si Si8 0.383464 0.457193 0.831619
O O1 0.500000 0.298584 0.804127
O O2 0.671257 0.269697 0.750089
O O3 0.642744 0.344624 0.760223
O O4 0.631059 0.303297 0.000000
O O5 0.181998 0.779088 0.260578
O O6 0.146733 0.850395 0.201780
O O7 0.000000 0.802385 0.208263
O O8 0.123963 0.800372 0.000000
O O9 0.378588 0.854650 0.500000
O O10 0.500000 0.851300 0.288871
O O11 0.352840 0.803794 0.303056
O O12 0.318410 0.874864 0.240426
O O13 0.723045 0.239149 0.500000
O O14 0.647940 0.377649 0.500000
O O15 0.500000 0.382823 0.665441
O O16 0.649983 0.421553 0.736162
O O17 0.125890 0.048804 0.500000
O O18 0.174218 0.075345 0.756949
O O19 0.000000 0.049492 0.703398
O O20 0.137663 0.000000 0.709059
O O21 0.224492 0.109127 0.000000
O O22 0.500000 0.457084 0.826700
O O23 0.352748 0.500000 0.785205
O O24 0.357449 0.451889 0.000000
#
# Coordination Sequence:
#
# PCOD9382473 Si02
#       8
#     8   8   8   8   8   8   8   8
#     4  10  19  29  41  56  77 107 140 173 211 255
#     4   9  18  32  47  64  89 117 142 168 200 243
#     4   9  18  32  48  65  87 116 147 177 210 249
#     4  10  19  30  45  65  86 107 137 176 213 248
#     4   9  16  24  34  49  69  94 127 168 210 248
#     4   9  18  32  49  69  93 120 147 173 204 247
#     4  10  19  30  47  71  95 117 142 174 211 247
#     4   8  13  21  32  45  63  89 122 161 204 249
#
# _framework density 14.225071
#
# number of rings (size 3 to 8) (size 9 to 14) (size 15 to 20)
#    0.000    2.750    0.000    3.000    0.000    5.500 
#    0.000    1.875    0.000    0.375    0.000    2.625 
#    0.000    0.000    0.000    0.000    0.000    0.625 
#
# Total GULP energy -356650.151685 kJ/mol
# GULP energy per Si atom -5572.658620 kJ/mol
# Density = 1.419269 g / cm^3
# Si number density = 14.225071 Si / 1000 Ang^3
#
#
#
# Elastic Constant Matrix: (Units=GPa)
#
#
# Indices 1 2 3 4 5 6 
#
# 1 78.5310 60.6171 54.6666 0.0000 0.0000 0.0000
# 2 60.6171 133.0768 80.5850 0.0000 0.0000 0.0000
# 3 54.6666 80.5850 80.3138 0.0000 0.0000 0.0000
# 4 0.0000 0.0000 0.0000 29.0429 0.0000 0.0000
# 5 0.0000 0.0000 0.0000 0.0000 17.7654 0.0000
# 6 0.0000 0.0000 0.0000 0.0000 0.0000 11.3869
#
#
#
# Elastic Compliance Matrix: (Units=1/GPa)
#
#
# Indices 1 2 3 4 5 6 
#
# 1 0.024579 -0.002714 -0.014007 0.000000 0.000000 0.000000
# 2 -0.002714 0.019450 -0.017668 0.000000 0.000000 0.000000
# 3 -0.014007 -0.017668 0.039713 0.000000 0.000000 0.000000
# 4 0.000000 0.000000 0.000000 0.034432 0.000000 0.000000
# 5 0.000000 0.000000 0.000000 0.000000 0.056289 0.000000
# 6 0.000000 0.000000 0.000000 0.000000 0.000000 0.087820
#
#
# Mechanical properties :
#
#
# Convention : Reuss Voigt Hill
#
# Bulk Modulus (GPa) = 66.82822 75.96209 71.39515
# Shear Modulus (GPa) = 14.87879 18.04255 16.46067
#
# Velocity S-wave (km/s) = 3.23763 3.56527 3.40539
# Velocity P-wave (km/s) = 7.81393 8.39430 8.10931
#
# Compressibility (1/GPa) = 0.01496374
#
# Stress axis : x y z
#
# Youngs Moduli (GPa) = 40.68482 51.41516 25.18080
#
# Poissons Ratio (x) = 0.13954 0.35271
# Poissons Ratio (y) = 0.11042 0.44489
# Poissons Ratio (z) = 0.56987 0.90840
#
# Static dielectric constant tensor:
#      x y z
#    x 1.438710 0.000000 0.000000 
#    y 0.000000 1.460850 0.000000 
#    z 0.000000 0.000000 1.470330 
# 
# From -- ./inp_files/4915.got.cif
#   From: 2010.05.17/outbox.cif.g08.bks.cpg/sg47_3_cif.got.tgz:4915.got - 2010.06.03 20:15:42.
