data_PCOD9382587
_publ_section_title
;
Structure prediction by ZEFSAII (Michael W. Deem and Ramdas Pophale) SiO2 
 PCOD9382587
Probable space group: P M M M
;
_chemical_formula_sum "Si O2"
_cell_formula_units_Z 64
_cell_length_a 19.871981
_cell_length_b 24.406881
_cell_length_c 8.385072
_cell_angle_alpha 90.000000
_cell_angle_beta 90.000000
_cell_angle_gamma 90.000000
_cell_volume 4066.869559
_symmetry_space_group_name_H-M "P M M M"
_symmetry_group_IT_number 47
_symmetry_cell_setting 'orthorhombic'
loop_
_space_group_symop_operation_xyz
x,y,z
-x,-y,z
x,-y,-z
-x,y,-z
-x,-y,-z
x,y,-z
-x,y,z
x,-y,z
loop_
_atom_site_type_symbol
_atom_site_label
_atom_site_fract_x
_atom_site_fract_y
_atom_site_fract_z
Si Si1 0.926127 0.744630 0.692504
Si Si2 0.651941 0.832041 0.309100
Si Si3 0.925105 0.619557 0.192856
Si Si4 0.788436 0.561867 0.192549
Si Si5 0.423453 0.724252 0.808971
Si Si6 0.217425 0.228227 0.694248
Si Si7 0.703652 0.337645 0.690529
Si Si8 0.577545 0.937977 0.807546
O O1 0.926722 0.747400 0.500000
O O2 0.918291 0.681016 0.740527
O O3 0.859428 0.775931 0.750004
O O4 0.000000 0.762969 0.750419
O O5 0.650617 0.829178 0.500000
O O6 0.604019 0.783548 0.245374
O O7 0.727667 0.816526 0.254631
O O8 0.625467 0.890643 0.255011
O O9 0.862056 0.583297 0.246297
O O10 0.000000 0.599173 0.237959
O O11 0.923071 0.622430 0.000000
O O12 0.776061 0.500000 0.248811
O O13 0.733201 0.605795 0.245924
O O14 0.789322 0.561231 0.000000
O O15 0.500000 0.716101 0.752942
O O16 0.370581 0.679450 0.746509
O O17 0.422913 0.722982 0.000000
O O18 0.216499 0.227692 0.500000
O O19 0.247750 0.287347 0.743193
O O20 0.704698 0.338568 0.500000
O O21 0.500000 0.927380 0.757805
O O22 0.595199 0.000000 0.757017
O O23 0.578546 0.936823 0.000000
#
# Coordination Sequence:
#
# PCOD9382587 Si02
#       8
#     8   8   8   8   8   8   8   8
#     4   9  15  25  43  62  83 115 150 180 216 266
#     4  10  19  29  44  68  98 126 154 190 225 261
#     4   9  17  28  42  62  87 114 147 186 222 258
#     4  10  20  32  46  64  87 117 151 184 221 271
#     4  10  20  33  50  71  94 119 146 179 221 270
#     4   8  15  27  41  62  89 114 142 180 224 263
#     4  10  19  32  49  67  89 114 143 183 228 272
#     4   9  18  32  47  63  89 126 163 196 228 264
#
# _framework density 15.73692
#
# number of rings (size 3 to 8) (size 9 to 14) (size 15 to 20)
#    0.000    2.625    1.250    2.625    0.000    3.500 
#    0.000    2.500    0.000    0.375    0.000    5.250 
#    0.000    0.500    0.000    6.250    0.000    1.000 
#
# Total GULP energy -356633.896310 kJ/mol
# GULP energy per Si atom -5572.404630 kJ/mol
# Density = 1.570110 g / cm^3
# Si number density = 15.736920 Si / 1000 Ang^3
#
#
#
# Elastic Constant Matrix: (Units=GPa)
#
#
# Indices 1 2 3 4 5 6 
#
# 1 159.6221 78.2616 17.8014 0.0000 0.0000 0.0000
# 2 78.2616 99.1835 11.9646 0.0000 0.0000 0.0000
# 3 17.8014 11.9646 12.4665 0.0000 0.0000 0.0000
# 4 0.0000 0.0000 0.0000 5.5551 0.0000 0.0000
# 5 0.0000 0.0000 0.0000 0.0000 14.7805 0.0000
# 6 0.0000 0.0000 0.0000 0.0000 0.0000 24.7563
#
#
#
# Elastic Compliance Matrix: (Units=1/GPa)
#
#
# Indices 1 2 3 4 5 6 
#
# 1 0.010926 -0.007621 -0.008287 0.000000 0.000000 0.000000
# 2 -0.007621 0.016719 -0.005163 0.000000 0.000000 0.000000
# 3 -0.008287 -0.005163 0.097003 0.000000 0.000000 0.000000
# 4 0.000000 0.000000 0.000000 0.180013 0.000000 0.000000
# 5 0.000000 0.000000 0.000000 0.000000 0.067656 0.000000
# 6 0.000000 0.000000 0.000000 0.000000 0.000000 0.040394
#
#
# Mechanical properties :
#
#
# Convention : Reuss Voigt Hill
#
# Bulk Modulus (GPa) = 12.12040 54.14747 33.13393
# Shear Modulus (GPa) = 10.36582 19.90137 15.13359
#
# Velocity S-wave (km/s) = 2.56929 3.56002 3.10443
# Velocity P-wave (km/s) = 4.06451 7.16805 5.82671
#
# Compressibility (1/GPa) = 0.08250553
#
# Stress axis : x y z
#
# Youngs Moduli (GPa) = 91.52795 59.81281 10.30898
#
# Poissons Ratio (x) = 0.45585 0.08543
# Poissons Ratio (y) = 0.69757 0.05322
# Poissons Ratio (z) = 0.75846 0.30881
#
# Static dielectric constant tensor:
#      x y z
#    x 1.559900 0.000000 0.000000 
#    y 0.000000 1.498000 0.000000 
#    z 0.000000 0.000000 1.544070 
# 
# From -- ./inp_files/11810.got.cif
#   From: 2010.05.17/outbox.cif.g08.bks.cpg/sg47_6_cif.got.tgz:11810.got - 2010.06.03 20:15:42.
