data_PCOD9382281
_publ_section_title
;
Structure prediction by ZEFSAII (Michael W. Deem and Ramdas Pophale) SiO2 
 PCOD9382281
Probable space group: P M M M
;
_chemical_formula_sum "Si O2"
_cell_formula_units_Z 52
_cell_length_a 17.415493
_cell_length_b 7.403136
_cell_length_c 18.068847
_cell_angle_alpha 90.000000
_cell_angle_beta 90.000000
_cell_angle_gamma 90.000000
_cell_volume 2329.603130
_symmetry_space_group_name_H-M "P M M M"
_symmetry_group_IT_number 47
_symmetry_cell_setting 'orthorhombic'
loop_
_space_group_symop_operation_xyz
x,y,z
-x,-y,z
x,-y,-z
-x,y,-z
-x,-y,-z
x,y,-z
-x,y,z
x,-y,z
loop_
_atom_site_type_symbol
_atom_site_label
_atom_site_fract_x
_atom_site_fract_y
_atom_site_fract_z
Si Si1 0.325429 0.286458 0.351468
Si Si2 0.912573 0.220208 0.163963
Si Si3 0.500000 0.278461 0.085184
Si Si4 0.148140 0.217631 0.323720
Si Si5 0.365107 0.709729 0.190672
Si Si6 0.410262 0.278967 0.500000
Si Si7 0.231623 0.781868 0.080888
Si Si8 0.000000 0.779371 0.584524
O O1 0.341363 0.500000 0.350568
O O2 0.233138 0.267876 0.350047
O O3 0.356780 0.211524 0.273010
O O4 0.366112 0.216860 0.425707
O O5 0.873079 0.277770 0.240843
O O6 0.855581 0.272232 0.098303
O O7 0.000000 0.282636 0.158836
O O8 0.914982 0.000000 0.165361
O O9 0.500000 0.500000 0.082122
O O10 0.572967 0.216184 0.132970
O O11 0.500000 0.218013 0.000000
O O12 0.077880 0.279198 0.375073
O O13 0.146883 0.000000 0.322988
O O14 0.386085 0.500000 0.200591
O O15 0.284936 0.719608 0.147595
O O16 0.408244 0.500000 0.500000
O O17 0.500000 0.227088 0.500000
O O18 0.234824 0.000000 0.081164
O O19 0.257588 0.718524 0.000000
O O20 0.000000 0.722901 0.500000
O O21 0.000000 0.000000 0.586850
#
# Coordination Sequence:
#
# PCOD9382281 Si02
#       8
#     8   8   4   8   8   4   8   4
#     4  10  21  35  54  81 107 134 173 217 261 312
#     4   9  16  29  49  72 100 136 176 214 251 296
#     4   9  18  32  51  76 102 128 165 213 257 301
#     4  10  18  32  54  76 102 138 175 212 257 306
#     4  10  20  34  55  78 102 135 174 214 258 311
#     4   9  20  38  59  80 107 140 172 213 263 313
#     4  10  20  33  51  77 107 137 172 217 266 312
#     4   9  18  30  49  79 106 132 173 218 257 308
#
# _framework density 22.321397999999999
#
# number of rings (size 3 to 8) (size 9 to 14) (size 15 to 20)
#    0.000    2.385    2.308    0.462    2.154    1.231 
#    0.000    2.308    0.000    4.154    0.000    1.077 
#    0.000    0.000    0.000    0.000    0.000    0.000 
#
# Total GULP energy -290396.885242 kJ/mol
# GULP energy per Si atom -5584.555485 kJ/mol
# Density = 2.227059 g / cm^3
# Si number density = 22.321398 Si / 1000 Ang^3
#
#
#
# Elastic Constant Matrix: (Units=GPa)
#
#
# Indices 1 2 3 4 5 6 
#
# 1 151.8102 -5.7038 82.6301 0.0000 0.0000 0.0000
# 2 -5.7038 74.2012 7.6333 0.0000 0.0000 0.0000
# 3 82.6301 7.6333 192.9929 0.0000 0.0000 0.0000
# 4 0.0000 0.0000 0.0000 0.8163 0.0000 0.0000
# 5 0.0000 0.0000 0.0000 0.0000 32.9691 0.0000
# 6 0.0000 0.0000 0.0000 0.0000 0.0000 6.2583
#
#
#
# Elastic Compliance Matrix: (Units=1/GPa)
#
#
# Indices 1 2 3 4 5 6 
#
# 1 0.008670 0.001053 -0.003754 0.000000 0.000000 0.000000
# 2 0.001053 0.013660 -0.000991 0.000000 0.000000 0.000000
# 3 -0.003754 -0.000991 0.006828 0.000000 0.000000 0.000000
# 4 0.000000 0.000000 0.000000 1.225004 0.000000 0.000000
# 5 0.000000 0.000000 0.000000 0.000000 0.030331 0.000000
# 6 0.000000 0.000000 0.000000 0.000000 0.000000 0.159788
#
#
# Mechanical properties :
#
#
# Convention : Reuss Voigt Hill
#
# Bulk Modulus (GPa) = 45.92749 65.34703 55.63726
# Shear Modulus (GPa) = 3.42719 30.30506 16.86612
#
# Velocity S-wave (km/s) = 1.24045 3.68865 2.75181
# Velocity P-wave (km/s) = 4.76149 6.89062 5.92252
#
# Compressibility (1/GPa) = 0.02177345
#
# Stress axis : x y z
#
# Youngs Moduli (GPa) = 115.34281 73.20789 146.45905
#
# Poissons Ratio (x) = -0.07706 0.54975
# Poissons Ratio (y) = -0.12141 0.14513
# Poissons Ratio (z) = 0.43295 0.07254
#
# Static dielectric constant tensor:
#      x y z
#    x 1.801860 0.000000 0.000000 
#    y 0.000000 1.892400 0.000000 
#    z 0.000000 0.000000 1.798860 
# 
# From -- ./inp_files/28586.got.cif
#   From: 2010.05.17/outbox.cif.g08.bks.cpg/sg47_15_cif.got.tgz:28586.got - 2010.06.03 20:15:42.
