data_PCOD9382790
_publ_section_title
;
Structure prediction by ZEFSAII (Michael W. Deem and Ramdas Pophale) SiO2 
 PCOD9382790
Probable space group: P M M M
;
_chemical_formula_sum "Si O2"
_cell_formula_units_Z 60
_cell_length_a 21.534631
_cell_length_b 19.559328
_cell_length_c 8.663995
_cell_angle_alpha 90.000000
_cell_angle_beta 90.000000
_cell_angle_gamma 90.000000
_cell_volume 3649.299916
_symmetry_space_group_name_H-M "P M M M"
_symmetry_group_IT_number 47
_symmetry_cell_setting 'orthorhombic'
loop_
_space_group_symop_operation_xyz
x,y,z
-x,-y,z
x,-y,-z
-x,y,-z
-x,-y,-z
x,y,-z
-x,y,z
x,-y,z
loop_
_atom_site_type_symbol
_atom_site_label
_atom_site_fract_x
_atom_site_fract_y
_atom_site_fract_z
Si Si1 0.633819 0.075498 0.187676
Si Si2 0.878475 0.346624 0.184758
Si Si3 0.778990 0.077321 0.813853
Si Si4 0.812148 0.781659 0.684754
Si Si5 0.429830 0.786002 0.813298
Si Si6 0.314978 0.294415 0.684065
Si Si7 0.750289 0.578339 0.814144
Si Si8 0.000000 0.579727 0.685126
O O1 0.706135 0.084661 0.231396
O O2 0.592308 0.138606 0.239598
O O3 0.613415 0.000000 0.239093
O O4 0.632614 0.075352 0.000000
O O5 0.862296 0.270987 0.246751
O O6 0.818667 0.393184 0.226451
O O7 0.939424 0.380930 0.254198
O O8 0.883452 0.344523 0.000000
O O9 0.815781 0.140629 0.742575
O O10 0.798369 0.000000 0.769813
O O11 0.781751 0.081693 0.000000
O O12 0.815124 0.779317 0.500000
O O13 0.744292 0.752028 0.734411
O O14 0.500000 0.771478 0.762397
O O15 0.378065 0.733947 0.754809
O O16 0.429049 0.785756 0.000000
O O17 0.318162 0.291357 0.500000
O O18 0.298614 0.370395 0.739072
O O19 0.743410 0.500000 0.766174
O O20 0.744813 0.582088 0.000000
O O21 0.000000 0.500000 0.736438
O O22 0.000000 0.580376 0.500000
#
# Coordination Sequence:
#
# PCOD9382790 Si02
#       8
#     8   8   8   8   8   8   8   4
#     4   8  14  25  42  65  92 121 157 202 248 292
#     4  10  20  34  54  78 105 139 176 208 238 283
#     4   9  16  27  46  70  96 129 167 209 257 302
#     4  10  19  31  48  72 101 132 169 210 254 299
#     4  10  19  30  47  68  90 122 164 205 246 296
#     4  10  20  32  47  68  95 127 158 196 246 298
#     4   9  18  33  54  78 100 123 156 200 244 286
#     4  11  23  37  53  77 114 151 176 203 241 285
#
# _framework density 16.441510000000001
#
# number of rings (size 3 to 8) (size 9 to 14) (size 15 to 20)
#    0.000    2.467    1.333    2.600    0.000    3.733 
#    0.000    1.333    0.000    0.800    0.000    4.200 
#    0.000    3.733    0.000    0.000    0.000    0.000 
#
# Total GULP energy -334579.595008 kJ/mol
# GULP energy per Si atom -5576.326583 kJ/mol
# Density = 1.640409 g / cm^3
# Si number density = 16.441510 Si / 1000 Ang^3
#
#
#
# Elastic Constant Matrix: (Units=GPa)
#
#
# Indices 1 2 3 4 5 6 
#
# 1 106.5830 78.5956 31.3034 0.0000 0.0000 0.0000
# 2 78.5956 155.2795 38.7597 0.0000 0.0000 0.0000
# 3 31.3034 38.7597 25.2213 0.0000 0.0000 0.0000
# 4 0.0000 0.0000 0.0000 17.5024 0.0000 0.0000
# 5 0.0000 0.0000 0.0000 0.0000 18.1427 0.0000
# 6 0.0000 0.0000 0.0000 0.0000 0.0000 23.4893
#
#
#
# Elastic Compliance Matrix: (Units=1/GPa)
#
#
# Indices 1 2 3 4 5 6 
#
# 1 0.017236 -0.005490 -0.012955 0.000000 0.000000 0.000000
# 2 -0.005490 0.012197 -0.011929 0.000000 0.000000 0.000000
# 3 -0.012955 -0.011929 0.074061 0.000000 0.000000 0.000000
# 4 0.000000 0.000000 0.000000 0.057135 0.000000 0.000000
# 5 0.000000 0.000000 0.000000 0.000000 0.055119 0.000000
# 6 0.000000 0.000000 0.000000 0.000000 0.000000 0.042573
#
#
# Mechanical properties :
#
#
# Convention : Reuss Voigt Hill
#
# Bulk Modulus (GPa) = 23.39491 64.93348 44.16420
# Shear Modulus (GPa) = 15.00075 21.05522 18.02799
#
# Velocity S-wave (km/s) = 3.02382 3.58245 3.31492
# Velocity P-wave (km/s) = 5.14309 7.52936 6.44758
#
# Compressibility (1/GPa) = 0.04274434
#
# Stress axis : x y z
#
# Youngs Moduli (GPa) = 58.01871 81.98954 13.50242
#
# Poissons Ratio (x) = 0.45015 0.17492
# Poissons Ratio (y) = 0.31854 0.16108
# Poissons Ratio (z) = 0.75162 0.97808
#
# Static dielectric constant tensor:
#      x y z
#    x 1.530070 0.000000 0.000000 
#    y 0.000000 1.558640 0.000000 
#    z 0.000000 0.000000 1.551510 
# 
# From -- ./inp_files/11596.got.cif
#   From: 2010.05.17/outbox.cif.g08.bks.cpg/sg47_6_cif.got.tgz:11596.got - 2010.06.03 20:15:42.
