data_PCOD9382592
_publ_section_title
;
Structure prediction by ZEFSAII (Michael W. Deem and Ramdas Pophale) SiO2 
 PCOD9382592
Probable space group: P M M M
;
_chemical_formula_sum "Si O2"
_cell_formula_units_Z 52
_cell_length_a 7.669828
_cell_length_b 22.051390
_cell_length_c 14.830700
_cell_angle_alpha 90.000000
_cell_angle_beta 90.000000
_cell_angle_gamma 90.000000
_cell_volume 2508.321756
_symmetry_space_group_name_H-M "P M M M"
_symmetry_group_IT_number 47
_symmetry_cell_setting 'orthorhombic'
loop_
_space_group_symop_operation_xyz
x,y,z
-x,-y,z
x,-y,-z
-x,y,-z
-x,-y,-z
x,y,-z
-x,y,z
x,-y,z
loop_
_atom_site_type_symbol
_atom_site_label
_atom_site_fract_x
_atom_site_fract_y
_atom_site_fract_z
Si Si1 0.713339 0.000000 0.399207
Si Si2 0.209006 0.244965 0.901484
Si Si3 0.287628 0.428959 0.102437
Si Si4 0.701710 0.105535 0.903887
Si Si5 0.205353 0.758913 0.396913
Si Si6 0.696474 0.336183 0.249961
Si Si7 0.709725 0.883391 0.292261
O O1 0.769576 0.062807 0.355970
O O2 0.500000 0.000000 0.395830
O O3 0.772277 0.000000 0.500000
O O4 0.289787 0.178585 0.905960
O O5 0.295916 0.282212 0.822950
O O6 0.000000 0.240198 0.885928
O O7 0.235818 0.273453 0.000000
O O8 0.500000 0.422287 0.101492
O O9 0.248798 0.500000 0.114976
O O10 0.220695 0.389669 0.187821
O O11 0.228100 0.412644 0.000000
O O12 0.500000 0.084958 0.903220
O O13 0.782258 0.096746 0.805834
O O14 0.779036 0.084461 0.000000
O O15 0.279787 0.760212 0.500000
O O16 0.238343 0.696595 0.341052
O O17 0.255597 0.817374 0.335472
O O18 0.000000 0.763680 0.405775
O O19 0.500000 0.355571 0.269977
O O20 0.500000 0.885315 0.282879
#
# Coordination Sequence:
#
# PCOD9382592 Si02
#       7
#     4   8   8   8   8   8   8
#     4   9  18  32  52  78 104 131 173 227 275 320
#     4  10  19  29  44  70 105 141 172 204 247 300
#     4   8  15  29  50  79 114 146 174 208 253 305
#     4   9  17  29  46  71 102 134 169 208 250 303
#     4  11  24  39  54  74 103 137 175 224 277 325
#     4  11  20  31  52  80 106 137 176 218 263 314
#     4  10  19  34  56  79 103 137 175 216 267 322
#
# _framework density 20.730993000000002
#
# number of rings (size 3 to 8) (size 9 to 14) (size 15 to 20)
#    0.000    2.231    1.538    2.769    0.000    3.385 
#    0.000    0.769    0.000    6.000    0.000    8.615 
#    0.000    3.692    0.000    0.000    0.000    0.000 
#
# Total GULP energy -289510.014625 kJ/mol
# GULP energy per Si atom -5567.500281 kJ/mol
# Density = 2.068381 g / cm^3
# Si number density = 20.730993 Si / 1000 Ang^3
#
#
#
# Elastic Constant Matrix: (Units=GPa)
#
#
# Indices 1 2 3 4 5 6 
#
# 1 46.7153 -1.7756 12.7753 0.0000 0.0000 0.0000
# 2 -1.7756 85.5970 58.1515 0.0000 0.0000 0.0000
# 3 12.7753 58.1515 190.0099 0.0000 0.0000 0.0000
# 4 0.0000 0.0000 0.0000 74.7429 0.0000 0.0000
# 5 0.0000 0.0000 0.0000 0.0000 67.8113 0.0000
# 6 0.0000 0.0000 0.0000 0.0000 0.0000 20.1812
#
#
#
# Elastic Compliance Matrix: (Units=1/GPa)
#
#
# Indices 1 2 3 4 5 6 
#
# 1 0.022036 0.001848 -0.002047 0.000000 0.000000 0.000000
# 2 0.001848 0.014904 -0.004686 0.000000 0.000000 0.000000
# 3 -0.002047 -0.004686 0.006835 0.000000 0.000000 0.000000
# 4 0.000000 0.000000 0.000000 0.013379 0.000000 0.000000
# 5 0.000000 0.000000 0.000000 0.000000 0.014747 0.000000
# 6 0.000000 0.000000 0.000000 0.000000 0.000000 0.049551
#
#
# Mechanical properties :
#
#
# Convention : Reuss Voigt Hill
#
# Bulk Modulus (GPa) = 29.40716 51.18050 40.29383
# Shear Modulus (GPa) = 35.07368 49.42515 42.24941
#
# Velocity S-wave (km/s) = 4.11767 4.88804 4.51930
# Velocity P-wave (km/s) = 6.06818 7.52322 6.83453
#
# Compressibility (1/GPa) = 0.03400532
#
# Stress axis : x y z
#
# Youngs Moduli (GPa) = 45.37959 67.09519 146.31611
#
# Poissons Ratio (x) = -0.12398 0.29953
# Poissons Ratio (y) = -0.08385 0.68558
# Poissons Ratio (z) = 0.09290 0.31438
#
# Static dielectric constant tensor:
#      x y z
#    x 1.767030 0.000000 0.000000 
#    y 0.000000 1.731470 0.000000 
#    z 0.000000 0.000000 1.848400 
# 
# From -- ./inp_files/21413.got.cif
#   From: 2010.05.17/outbox.cif.g08.bks.cpg/sg47_11_cif.got.tgz:21413.got - 2010.06.03 20:15:42.
