data_PCOD9382684
_publ_section_title
;
Structure prediction by ZEFSAII (Michael W. Deem and Ramdas Pophale) SiO2 
 PCOD9382684
Probable space group: P M M M
;
_chemical_formula_sum "Si O2"
_cell_formula_units_Z 64
_cell_length_a 19.987759
_cell_length_b 7.549042
_cell_length_c 24.516838
_cell_angle_alpha 90.000000
_cell_angle_beta 90.000000
_cell_angle_gamma 90.000000
_cell_volume 3699.307248
_symmetry_space_group_name_H-M "P M M M"
_symmetry_group_IT_number 47
_symmetry_cell_setting 'orthorhombic'
loop_
_space_group_symop_operation_xyz
x,y,z
-x,-y,z
x,-y,-z
-x,y,-z
-x,-y,-z
x,y,-z
-x,y,z
x,-y,z
loop_
_atom_site_type_symbol
_atom_site_label
_atom_site_fract_x
_atom_site_fract_y
_atom_site_fract_z
Si Si1 0.075663 0.212562 0.561045
Si Si2 0.924221 0.716536 0.775595
Si Si3 0.711875 0.290292 0.939191
Si Si4 0.715734 0.283569 0.273029
Si Si5 0.845210 0.288935 0.668834
Si Si6 0.426523 0.709462 0.247058
Si Si7 0.574447 0.212266 0.119264
Si Si8 0.794008 0.284109 0.163295
O O1 0.093641 0.275673 0.500000
O O2 0.126076 0.255505 0.609319
O O3 0.000000 0.276576 0.573618
O O4 0.072527 0.000000 0.558639
O O5 0.925252 0.500000 0.775430
O O6 0.895243 0.774933 0.716675
O O7 0.869084 0.770467 0.820409
O O8 0.000000 0.776691 0.784234
O O9 0.725283 0.500000 0.942371
O O10 0.636160 0.271265 0.917432
O O11 0.761882 0.218565 0.892818
O O12 0.718880 0.215622 0.000000
O O13 0.713205 0.500000 0.274065
O O14 0.770435 0.224058 0.317298
O O15 0.639726 0.218488 0.276144
O O16 0.746833 0.234057 0.214262
O O17 0.842713 0.500000 0.675811
O O18 0.500000 0.785530 0.259679
O O19 0.429380 0.500000 0.258748
O O20 0.416097 0.727909 0.181854
O O21 0.500000 0.272798 0.101742
O O22 0.574410 0.000000 0.119273
O O23 0.793710 0.500000 0.162068
#
# Coordination Sequence:
#
# PCOD9382684 Si02
#       8
#     8   8   8   8   8   8   8   8
#     4   9  18  31  43  56  82 120 151 173 203 240
#     4   8  13  21  37  61  84 106 130 158 199 247
#     4  10  19  30  45  60  73  98 138 174 201 240
#     4   8  13  23  40  61  84 106 130 166 208 240
#     4   9  16  25  41  64  86 108 139 175 204 236
#     4   9  15  25  44  64  82 109 141 165 190 236
#     4  10  20  31  42  58  81 106 130 161 203 245
#     4   8  13  23  38  55  78 102 126 161 202 240
#
# _framework density 17.300536000000001
#
# number of rings (size 3 to 8) (size 9 to 14) (size 15 to 20)
#    0.000    3.125    1.250    2.625    0.000    2.250 
#    0.000    2.500    0.000    0.375    0.000    2.625 
#    0.000    0.500    0.000    7.375    0.000    2.250 
#
# Total GULP energy -356564.359492 kJ/mol
# GULP energy per Si atom -5571.318117 kJ/mol
# Density = 1.726116 g / cm^3
# Si number density = 17.300536 Si / 1000 Ang^3
#
#
#
# Elastic Constant Matrix: (Units=GPa)
#
#
# Indices 1 2 3 4 5 6 
#
# 1 179.0484 4.7617 93.4425 0.0000 0.0000 0.0000
# 2 4.7617 39.9208 -0.0887 0.0000 0.0000 0.0000
# 3 93.4425 -0.0887 112.9878 0.0000 0.0000 0.0000
# 4 0.0000 0.0000 0.0000 36.6881 0.0000 0.0000
# 5 0.0000 0.0000 0.0000 0.0000 26.1790 0.0000
# 6 0.0000 0.0000 0.0000 0.0000 0.0000 -23.8137
#
#
#
# Elastic Compliance Matrix: (Units=1/GPa)
#
#
# Indices 1 2 3 4 5 6 
#
# 1 0.009883 -0.001197 -0.008174 0.000000 0.000000 0.000000
# 2 -0.001197 0.025195 0.001010 0.000000 0.000000 0.000000
# 3 -0.008174 0.001010 0.015612 0.000000 0.000000 0.000000
# 4 0.000000 0.000000 0.000000 0.027257 0.000000 0.000000
# 5 0.000000 0.000000 0.000000 0.000000 0.038199 0.000000
# 6 0.000000 0.000000 0.000000 0.000000 0.000000 -0.041993
#
#
# Mechanical properties :
#
#
# Convention : Reuss Voigt Hill
#
# Bulk Modulus (GPa) = 29.44119 58.68756 44.06438
# Shear Modulus (GPa) = 48.92510 23.40011 36.16260
#
# Velocity S-wave (km/s) = 5.32362 3.68171 4.57690
# Velocity P-wave (km/s) = 7.40556 7.21591 7.31135
#
# Compressibility (1/GPa) = 0.03396601
#
# Stress axis : x y z
#
# Youngs Moduli (GPa) = 101.18449 39.69101 64.05514
#
# Poissons Ratio (x) = 0.04751 0.52360
# Poissons Ratio (y) = 0.12112 -0.06468
# Poissons Ratio (z) = 0.82711 -0.04008
#
# Static dielectric constant tensor:
#      x y z
#    x 1.617080 0.000000 0.000000 
#    y 0.000000 1.653420 0.000000 
#    z 0.000000 0.000000 1.571300 
# 
# From -- ./inp_files/32906.got.cif
#   From: 2010.05.17/outbox.cif.g08.bks.cpg/sg47_17_cif.got.tgz:32906.got - 2010.06.03 20:15:42.
