data_PCOD9382437
_publ_section_title
;
Structure prediction by ZEFSAII (Michael W. Deem and Ramdas Pophale) SiO2 
 PCOD9382437
Probable space group: P M M M
;
_chemical_formula_sum "Si O2"
_cell_formula_units_Z 56
_cell_length_a 8.668966
_cell_length_b 22.040987
_cell_length_c 18.994105
_cell_angle_alpha 90.000000
_cell_angle_beta 90.000000
_cell_angle_gamma 90.000000
_cell_volume 3629.252398
_symmetry_space_group_name_H-M "P M M M"
_symmetry_group_IT_number 47
_symmetry_cell_setting 'orthorhombic'
loop_
_space_group_symop_operation_xyz
x,y,z
-x,-y,z
x,-y,-z
-x,y,-z
-x,-y,-z
x,y,-z
-x,y,z
x,-y,z
loop_
_atom_site_type_symbol
_atom_site_label
_atom_site_fract_x
_atom_site_fract_y
_atom_site_fract_z
Si Si1 0.813388 0.697552 0.580794
Si Si2 0.817421 0.626349 0.287844
Si Si3 0.683962 0.567760 0.157765
Si Si4 0.316279 0.256765 0.789607
Si Si5 0.185969 0.931149 0.418749
Si Si6 0.184468 0.313642 0.081799
Si Si7 0.683252 0.183569 0.658651
O O1 0.764917 0.690208 0.500000
O O2 0.768587 0.641840 0.632338
O O3 0.749729 0.760219 0.613151
O O4 0.000000 0.701049 0.582976
O O5 0.730973 0.577895 0.239451
O O6 0.778177 0.689352 0.248122
O O7 0.000000 0.614384 0.285886
O O8 0.500000 0.573657 0.151462
O O9 0.729982 0.500000 0.135419
O O10 0.761094 0.621256 0.112561
O O11 0.500000 0.269524 0.785317
O O12 0.262804 0.262013 0.869842
O O13 0.284756 0.198626 0.740872
O O14 0.232816 0.919133 0.500000
O O15 0.249296 0.879203 0.368726
O O16 0.000000 0.929551 0.417104
O O17 0.234401 0.000000 0.400869
O O18 0.000000 0.309781 0.088764
O O19 0.226206 0.308861 0.000000
O O20 0.500000 0.183311 0.649395
#
# Coordination Sequence:
#
# PCOD9382437 Si02
#       7
#     8   8   8   8   8   8   8
#     4   9  17  28  42  61  84 109 138 174 217 262
#     4   9  16  27  44  62  80 105 137 174 214 251
#     4  10  20  32  46  63  83 110 142 171 202 248
#     4   9  17  29  44  62  86 114 141 170 207 253
#     4   9  18  31  44  59  84 121 160 191 220 255
#     4  10  20  32  47  68  91 112 136 169 207 246
#     4  10  19  28  41  64  89 113 146 183 215 250
#
# _framework density 15.430175
#
# number of rings (size 3 to 8) (size 9 to 14) (size 15 to 20)
#    0.000    2.571    0.000    4.714    0.000    7.429 
#    0.000    2.143    0.000    0.429    0.000    3.000 
#    0.000    0.571    0.000    6.286    0.000    4.571 
#
# Total GULP energy -311865.408963 kJ/mol
# GULP energy per Si atom -5569.025160 kJ/mol
# Density = 1.539506 g / cm^3
# Si number density = 15.430175 Si / 1000 Ang^3
#
#
#
# Elastic Constant Matrix: (Units=GPa)
#
#
# Indices 1 2 3 4 5 6 
#
# 1 21.0627 9.7109 21.0690 0.0000 0.0000 0.0000
# 2 9.7109 47.7041 36.4743 0.0000 0.0000 0.0000
# 3 21.0690 36.4743 118.1599 0.0000 0.0000 0.0000
# 4 0.0000 0.0000 0.0000 18.9274 0.0000 0.0000
# 5 0.0000 0.0000 0.0000 0.0000 14.3173 0.0000
# 6 0.0000 0.0000 0.0000 0.0000 0.0000 20.6189
#
#
#
# Elastic Compliance Matrix: (Units=1/GPa)
#
#
# Indices 1 2 3 4 5 6 
#
# 1 0.058742 -0.005169 -0.008878 0.000000 0.000000 0.000000
# 2 -0.005169 0.027894 -0.007689 0.000000 0.000000 0.000000
# 3 -0.008878 -0.007689 0.012420 0.000000 0.000000 0.000000
# 4 0.000000 0.000000 0.000000 0.052833 0.000000 0.000000
# 5 0.000000 0.000000 0.000000 0.000000 0.069846 0.000000
# 6 0.000000 0.000000 0.000000 0.000000 0.000000 0.048499
#
#
# Mechanical properties :
#
#
# Convention : Reuss Voigt Hill
#
# Bulk Modulus (GPa) = 17.99147 35.71501 26.85324
# Shear Modulus (GPa) = 15.04967 18.75088 16.90028
#
# Velocity S-wave (km/s) = 3.12643 3.48977 3.31308
# Velocity P-wave (km/s) = 4.97172 6.27968 5.66359
#
# Compressibility (1/GPa) = 0.05558189
#
# Stress axis : x y z
#
# Youngs Moduli (GPa) = 17.02371 35.85061 80.51801
#
# Poissons Ratio (x) = 0.18532 0.71487
# Poissons Ratio (y) = 0.08800 0.61907
# Poissons Ratio (z) = 0.15114 0.27564
#
# Static dielectric constant tensor:
#      x y z
#    x 1.519390 0.000000 0.000000 
#    y 0.000000 1.501470 0.000000 
#    z 0.000000 0.000000 1.552340 
# 
# From -- ./inp_files/26942.got.cif
#   From: 2010.05.17/outbox.cif.g08.bks.cpg/sg47_14_cif.got.tgz:26942.got - 2010.06.03 20:15:42.
