data_PCOD9382372
_publ_section_title
;
Structure prediction by ZEFSAII (Michael W. Deem and Ramdas Pophale) SiO2 
 PCOD9382372
Probable space group: P M M M
;
_chemical_formula_sum "Si O2"
_cell_formula_units_Z 64
_cell_length_a 24.610507
_cell_length_b 16.042387
_cell_length_c 7.964302
_cell_angle_alpha 90.000000
_cell_angle_beta 90.000000
_cell_angle_gamma 90.000000
_cell_volume 3144.396247
_symmetry_space_group_name_H-M "P M M M"
_symmetry_group_IT_number 47
_symmetry_cell_setting 'orthorhombic'
loop_
_space_group_symop_operation_xyz
x,y,z
-x,-y,z
x,-y,-z
-x,y,-z
-x,-y,-z
x,y,-z
-x,y,z
x,-y,z
loop_
_atom_site_type_symbol
_atom_site_label
_atom_site_fract_x
_atom_site_fract_y
_atom_site_fract_z
Si Si1 0.752422 0.651393 0.203388
Si Si2 0.867226 0.092566 0.794430
Si Si3 0.438672 0.749044 0.300105
Si Si4 0.061351 0.247833 0.200744
Si Si5 0.634348 0.408126 0.797548
Si Si6 0.250197 0.845541 0.795285
Si Si7 0.870424 0.408290 0.698812
Si Si8 0.632516 0.092308 0.202529
O O1 0.696010 0.610333 0.259890
O O2 0.751938 0.748543 0.253479
O O3 0.806893 0.608511 0.267228
O O4 0.754003 0.648288 0.000000
O O5 0.905254 0.167833 0.734665
O O6 0.805100 0.109810 0.741659
O O7 0.884612 0.000000 0.742964
O O8 0.867375 0.094387 0.000000
O O9 0.441789 0.749199 0.500000
O O10 0.500000 0.746858 0.230541
O O11 0.404542 0.667658 0.249873
O O12 0.407241 0.832733 0.248576
O O13 0.094770 0.332096 0.230824
O O14 0.000000 0.252481 0.267796
O O15 0.057978 0.237314 0.000000
O O16 0.616808 0.500000 0.738562
O O17 0.636065 0.409574 0.000000
O O18 0.306384 0.886397 0.737577
O O19 0.250867 0.847818 0.000000
O O20 0.879076 0.408863 0.500000
O O21 0.885014 0.500000 0.766900
O O22 0.616059 0.000000 0.261668
O O23 0.634614 0.090233 0.000000
#
# Coordination Sequence:
#
# PCOD9382372 Si02
#       8
#     8   8   8   8   8   8   8   8
#     4  10  18  34  61  88 116 147 180 224 279 338
#     4   9  16  28  51  84 117 144 173 217 273 329
#     4  11  25  42  58  79 113 157 199 239 285 340
#     4  10  21  37  57  82 110 144 191 240 283 330
#     4  10  21  38  62  90 116 146 187 236 290 345
#     4   9  15  28  54  86 116 143 174 220 278 334
#     4  11  24  39  56  81 113 149 188 230 280 338
#     4  10  20  36  61  90 116 145 188 241 291 340
#
# _framework density 20.353669
#
# number of rings (size 3 to 8) (size 9 to 14) (size 15 to 20)
#    0.000    2.000    2.500    1.500    0.000    6.250 
#    0.000    5.000    0.000    0.375    0.000    0.875 
#    0.000    0.000    0.000    0.000    0.000    0.000 
#
# Total GULP energy -357437.853456 kJ/mol
# GULP energy per Si atom -5584.966460 kJ/mol
# Density = 2.030734 g / cm^3
# Si number density = 20.353669 Si / 1000 Ang^3
#
#
#
# Elastic Constant Matrix: (Units=GPa)
#
#
# Indices 1 2 3 4 5 6 
#
# 1 166.4990 98.7094 6.2662 0.0000 0.0000 0.0000
# 2 98.7094 209.9093 9.2733 0.0000 0.0000 0.0000
# 3 6.2662 9.2733 16.5011 0.0000 0.0000 0.0000
# 4 0.0000 0.0000 0.0000 -341.0938 0.0000 0.0000
# 5 0.0000 0.0000 0.0000 0.0000 83.2231 0.0000
# 6 0.0000 0.0000 0.0000 0.0000 0.0000 -5.0118
#
#
#
# Elastic Compliance Matrix: (Units=1/GPa)
#
#
# Indices 1 2 3 4 5 6 
#
# 1 0.008343 -0.003880 -0.000988 0.000000 0.000000 0.000000
# 2 -0.003880 0.006689 -0.002286 0.000000 0.000000 0.000000
# 3 -0.000988 -0.002286 0.062262 0.000000 0.000000 0.000000
# 4 0.000000 0.000000 0.000000 -0.002932 0.000000 0.000000
# 5 0.000000 0.000000 0.000000 0.000000 0.012016 0.000000
# 6 0.000000 0.000000 0.000000 0.000000 0.000000 -0.199530
#
#
# Mechanical properties :
#
#
# Convention : Reuss Voigt Hill
#
# Bulk Modulus (GPa) = 15.87625 69.04524 42.46074
# Shear Modulus (GPa) = -64.22747 -33.99912 -49.11330
#
# Velocity S-wave (km/s) = -5.62354 -4.09151 -4.91755
# Velocity P-wave (km/s) = 5.86076 3.41699 3.36695
#
# Compressibility (1/GPa) = 0.06298717
#
# Stress axis : x y z
#
# Youngs Moduli (GPa) = 119.85550 149.48973 16.06118
#
# Poissons Ratio (x) = 0.57999 0.01587
# Poissons Ratio (y) = 0.46502 0.03672
# Poissons Ratio (z) = 0.11842 0.34173
#
# Static dielectric constant tensor:
#      x y z
#    x 1.703520 0.000000 0.000000 
#    y 0.000000 1.732210 0.000000 
#    z 0.000000 0.000000 1.737980 
# 
# From -- ./inp_files/7818.got.cif
#   From: 2010.05.17/outbox.cif.g08.bks.cpg/sg47_4_cif.got.tgz:7818.got - 2010.06.03 20:15:42.
