data_PCOD9382941
_publ_section_title
;
Structure prediction by ZEFSAII (Michael W. Deem and Ramdas Pophale) SiO2 
 PCOD9382941
Probable space group: P M M M
;
_chemical_formula_sum "Si O2"
_cell_formula_units_Z 40
_cell_length_a 8.251803
_cell_length_b 19.480608
_cell_length_c 18.705447
_cell_angle_alpha 90.000000
_cell_angle_beta 90.000000
_cell_angle_gamma 90.000000
_cell_volume 3006.903215
_symmetry_space_group_name_H-M "P M M M"
_symmetry_group_IT_number 47
_symmetry_cell_setting 'orthorhombic'
loop_
_space_group_symop_operation_xyz
x,y,z
-x,-y,z
x,-y,-z
-x,y,-z
-x,-y,-z
x,y,-z
-x,y,z
x,-y,z
loop_
_atom_site_type_symbol
_atom_site_label
_atom_site_fract_x
_atom_site_fract_y
_atom_site_fract_z
Si Si1 0.500000 0.579746 0.087144
Si Si2 0.306486 0.920238 0.349176
Si Si3 0.819266 0.337632 0.913202
Si Si4 0.691654 0.188976 0.917388
Si Si5 0.193271 0.920395 0.804287
Si Si6 0.193334 0.920597 0.500000
O O1 0.500000 0.500000 0.107530
O O2 0.665314 0.617488 0.111138
O O3 0.500000 0.582868 0.000000
O O4 0.500000 0.919466 0.346064
O O5 0.238276 0.892617 0.274650
O O6 0.251690 0.889313 0.424944
O O7 0.248847 0.000000 0.350475
O O8 0.785833 0.258002 0.895624
O O9 0.000000 0.358611 0.889140
O O10 0.818859 0.341439 0.000000
O O11 0.500000 0.204539 0.915416
O O12 0.730782 0.126605 0.865249
O O13 0.733972 0.172791 0.000000
O O14 0.000000 0.920084 0.811846
O O15 0.249951 0.000000 0.809210
O O16 0.000000 0.922305 0.500000
O O17 0.256470 0.000000 0.500000
#
# Coordination Sequence:
#
# PCOD9382941 Si02
#       6
#     4   8   8   8   8   4
#     4   9  16  26  40  60  83 101 121 152 190 231
#     4   9  16  26  39  54  72  93 118 150 191 237
#     4   9  16  27  42  58  77 101 128 157 191 233
#     4  10  19  31  45  57  72  98 133 170 207 247
#     4  10  20  31  41  55  75  97 126 169 214 248
#     4   9  15  23  37  55  73  93 115 141 181 234
#
# _framework density 13.302721999999999
#
# number of rings (size 3 to 8) (size 9 to 14) (size 15 to 20)
#    0.000    2.600    1.000    2.100    0.000    6.800 
#    0.000    4.000    0.000    0.000    0.000    0.000 
#    0.000    0.000    0.000    0.000    0.000    0.000 
#
# Total GULP energy -222685.704209 kJ/mol
# GULP energy per Si atom -5567.142605 kJ/mol
# Density = 1.327244 g / cm^3
# Si number density = 13.302722 Si / 1000 Ang^3
#
#
#
# Elastic Constant Matrix: (Units=GPa)
#
#
# Indices 1 2 3 4 5 6 
#
# 1 69.9349 29.0389 19.8023 0.0000 0.0000 0.0000
# 2 29.0389 49.0522 26.0112 0.0000 0.0000 0.0000
# 3 19.8023 26.0112 60.2437 0.0000 0.0000 0.0000
# 4 0.0000 0.0000 0.0000 -0.4543 0.0000 0.0000
# 5 0.0000 0.0000 0.0000 0.0000 18.8601 0.0000
# 6 0.0000 0.0000 0.0000 0.0000 0.0000 10.9854
#
#
#
# Elastic Compliance Matrix: (Units=1/GPa)
#
#
# Indices 1 2 3 4 5 6 
#
# 1 0.019111 -0.010353 -0.001812 0.000000 0.000000 0.000000
# 2 -0.010353 0.032049 -0.010434 0.000000 0.000000 0.000000
# 3 -0.001812 -0.010434 0.021700 0.000000 0.000000 0.000000
# 4 0.000000 0.000000 0.000000 -2.201105 0.000000 0.000000
# 5 0.000000 0.000000 0.000000 0.000000 0.053022 0.000000
# 6 0.000000 0.000000 0.000000 0.000000 0.000000 0.091030
#
#
# Mechanical properties :
#
#
# Convention : Reuss Voigt Hill
#
# Bulk Modulus (GPa) = 36.15178 36.54843 36.35011
# Shear Modulus (GPa) = -2.59098 12.83679 5.12291
#
# Velocity S-wave (km/s) = -1.39712 3.10977 1.96453
# Velocity P-wave (km/s) = 4.96313 6.35833 5.70355
#
# Compressibility (1/GPa) = 0.02766115
#
# Stress axis : x y z
#
# Youngs Moduli (GPa) = 52.32640 31.20268 46.08289
#
# Poissons Ratio (x) = 0.32304 0.08349
# Poissons Ratio (y) = 0.54173 0.48085
# Poissons Ratio (z) = 0.09480 0.32558
#
# Static dielectric constant tensor:
#      x y z
#    x 1.463100 0.000000 0.000000 
#    y 0.000000 1.418750 0.000000 
#    z 0.000000 0.000000 1.436910 
# 
# From -- ./inp_files/9352.got.cif
#   From: 2010.05.17/outbox.cif.g08.bks.cpg/sg47_5_cif.got.tgz:9352.got - 2010.06.03 20:15:42.
