data_PCOD9382580
_publ_section_title
;
Structure prediction by ZEFSAII (Michael W. Deem and Ramdas Pophale) SiO2 
 PCOD9382580
Probable space group: P M M M
;
_chemical_formula_sum "Si O2"
_cell_formula_units_Z 64
_cell_length_a 24.225005
_cell_length_b 8.988682
_cell_length_c 19.574285
_cell_angle_alpha 90.000000
_cell_angle_beta 90.000000
_cell_angle_gamma 90.000000
_cell_volume 4262.317518
_symmetry_space_group_name_H-M "P M M M"
_symmetry_group_IT_number 47
_symmetry_cell_setting 'orthorhombic'
loop_
_space_group_symop_operation_xyz
x,y,z
-x,-y,z
x,-y,-z
-x,y,-z
-x,-y,-z
x,y,-z
-x,y,z
x,-y,z
loop_
_atom_site_type_symbol
_atom_site_label
_atom_site_fract_x
_atom_site_fract_y
_atom_site_fract_z
Si Si1 0.225596 0.681159 0.422646
Si Si2 0.936953 0.822485 0.791582
Si Si3 0.763533 0.823260 0.922622
Si Si4 0.273347 0.322538 0.790952
Si Si5 0.663611 0.679462 0.343190
Si Si6 0.160127 0.321897 0.292030
Si Si7 0.436429 0.820892 0.421034
Si Si8 0.884584 0.322819 0.078030
O O1 0.217699 0.733054 0.500000
O O2 0.225319 0.500000 0.422940
O O3 0.285253 0.724686 0.392299
O O4 0.179270 0.725843 0.367745
O O5 0.892756 0.758727 0.738234
O O6 0.922153 0.751778 0.864868
O O7 0.000000 0.786044 0.773134
O O8 0.931334 0.000000 0.795966
O O9 0.725329 0.761511 0.862507
O O10 0.823004 0.743775 0.915629
O O11 0.771136 0.000000 0.915235
O O12 0.743640 0.793365 0.000000
O O13 0.277172 0.500000 0.801791
O O14 0.318178 0.279088 0.733727
O O15 0.213451 0.294054 0.756172
O O16 0.660304 0.500000 0.345461
O O17 0.607691 0.749017 0.370871
O O18 0.151078 0.500000 0.291874
O O19 0.424540 0.777824 0.500000
O O20 0.500000 0.779034 0.406323
O O21 0.432938 0.000000 0.417413
O O22 0.882118 0.500000 0.089077
O O23 0.903250 0.295316 0.000000
#
# Coordination Sequence:
#
# PCOD9382580 Si02
#       8
#     8   8   8   8   8   8   8   8
#     4   8  14  26  46  71  95 115 138 179 230 269
#     4  11  23  35  47  64  86 112 144 184 225 266
#     4  10  19  29  44  67  93 121 151 181 217 263
#     4   9  17  29  45  67  93 119 148 185 228 268
#     4   9  17  28  45  70  96 121 154 193 228 266
#     4   9  17  30  48  67  86 112 145 177 217 272
#     4   9  18  31  44  61  92 133 170 200 229 263
#     4  10  20  33  49  67  87 113 145 180 217 261
#
# _framework density 15.015305
#
# number of rings (size 3 to 8) (size 9 to 14) (size 15 to 20)
#    0.000    2.625    1.250    3.375    0.000    4.250 
#    0.000    3.750    0.000    1.500    0.000    2.625 
#    0.000    0.500    0.000    5.500    0.000    4.000 
#
# Total GULP energy -356737.910080 kJ/mol
# GULP energy per Si atom -5574.029845 kJ/mol
# Density = 1.498113 g / cm^3
# Si number density = 15.015305 Si / 1000 Ang^3
#
#
#
# Elastic Constant Matrix: (Units=GPa)
#
#
# Indices 1 2 3 4 5 6 
#
# 1 97.1979 38.9797 64.2420 0.0000 0.0000 0.0000
# 2 38.9797 31.7469 43.3191 0.0000 0.0000 0.0000
# 3 64.2420 43.3191 119.0722 0.0000 0.0000 0.0000
# 4 0.0000 0.0000 0.0000 19.2796 0.0000 0.0000
# 5 0.0000 0.0000 0.0000 0.0000 25.5307 0.0000
# 6 0.0000 0.0000 0.0000 0.0000 0.0000 24.8513
#
#
#
# Elastic Compliance Matrix: (Units=1/GPa)
#
#
# Indices 1 2 3 4 5 6 
#
# 1 0.021142 -0.020640 -0.003897 0.000000 0.000000 0.000000
# 2 -0.020640 0.082701 -0.018951 0.000000 0.000000 0.000000
# 3 -0.003897 -0.018951 0.017395 0.000000 0.000000 0.000000
# 4 0.000000 0.000000 0.000000 0.051868 0.000000 0.000000
# 5 0.000000 0.000000 0.000000 0.000000 0.039169 0.000000
# 6 0.000000 0.000000 0.000000 0.000000 0.000000 0.040239
#
#
# Mechanical properties :
#
#
# Convention : Reuss Voigt Hill
#
# Bulk Modulus (GPa) = 29.18816 60.12205 44.65510
# Shear Modulus (GPa) = 14.24859 20.69739 17.47299
#
# Velocity S-wave (km/s) = 3.08383 3.71674 3.41497
# Velocity P-wave (km/s) = 5.67108 7.65155 6.73451
#
# Compressibility (1/GPa) = 0.03426047
#
# Stress axis : x y z
#
# Youngs Moduli (GPa) = 47.29998 12.09177 57.48625
#
# Poissons Ratio (x) = 0.24958 0.22404
# Poissons Ratio (y) = 0.97629 1.08943
# Poissons Ratio (z) = 0.18434 0.22915
#
# Static dielectric constant tensor:
#      x y z
#    x 1.472980 0.000000 0.000000 
#    y 0.000000 1.498690 0.000000 
#    z 0.000000 0.000000 1.514110 
# 
# From -- ./inp_files/31514.got.cif
#   From: 2010.05.17/outbox.cif.g08.bks.cpg/sg47_16_cif.got.tgz:31514.got - 2010.06.03 20:15:42.
