data_PCOD9382265
_publ_section_title
;
Structure prediction by ZEFSAII (Michael W. Deem and Ramdas Pophale) SiO2 
 PCOD9382265
Probable space group: P M M M
;
_chemical_formula_sum "Si O2"
_cell_formula_units_Z 40
_cell_length_a 7.470587
_cell_length_b 13.624809
_cell_length_c 19.849606
_cell_angle_alpha 90.000000
_cell_angle_beta 90.000000
_cell_angle_gamma 90.000000
_cell_volume 2020.398518
_symmetry_space_group_name_H-M "P M M M"
_symmetry_group_IT_number 47
_symmetry_cell_setting 'orthorhombic'
loop_
_space_group_symop_operation_xyz
x,y,z
-x,-y,z
x,-y,-z
-x,y,-z
-x,-y,-z
x,y,-z
-x,y,z
x,-y,z
loop_
_atom_site_type_symbol
_atom_site_label
_atom_site_fract_x
_atom_site_fract_y
_atom_site_fract_z
Si Si1 0.500000 0.608784 0.581314
Si Si2 0.786651 0.232144 0.422026
Si Si3 0.787999 0.200146 0.158230
Si Si4 0.781539 0.610033 0.921792
Si Si5 0.218134 0.889323 0.705629
Si Si6 0.286168 0.000000 0.923000
O O1 0.500000 0.500000 0.610178
O O2 0.500000 0.601161 0.500000
O O3 0.675505 0.671590 0.597664
O O4 0.744808 0.207118 0.500000
O O5 0.735224 0.149941 0.368049
O O6 0.000000 0.248540 0.417899
O O7 0.716562 0.297157 0.121302
O O8 0.717493 0.178331 0.233101
O O9 0.000000 0.216577 0.165033
O O10 0.767342 0.099843 0.115361
O O11 0.727064 0.500000 0.899693
O O12 0.000000 0.611142 0.920836
O O13 0.729036 0.622274 0.000000
O O14 0.000000 0.890549 0.708383
O O15 0.279816 0.000000 0.716760
O O16 0.500000 0.000000 0.925145
O O17 0.218177 0.000000 0.000000
#
# Coordination Sequence:
#
# PCOD9382265 Si02
#       6
#     4   8   8   8   8   4
#     4   9  18  34  55  79 107 137 176 229 278 321
#     4   9  18  33  53  78 108 143 182 223 271 325
#     4  10  18  32  53  75  98 129 173 216 257 313
#     4   8  14  25  44  72 100 123 154 202 256 304
#     4   9  17  31  50  75 105 134 169 216 267 319
#     4  11  23  35  47  71 106 137 170 214 262 316
#
# _framework density 19.798075000000001
#
# number of rings (size 3 to 8) (size 9 to 14) (size 15 to 20)
#    0.000    2.800    1.000    1.500    0.000    2.400 
#    1.800    5.500    0.000    6.000    0.000    2.800 
#    0.000    0.000    0.000    0.000    0.000    0.000 
#
# Total GULP energy -223051.114250 kJ/mol
# GULP energy per Si atom -5576.277856 kJ/mol
# Density = 1.975301 g / cm^3
# Si number density = 19.798075 Si / 1000 Ang^3
#
#
#
# Elastic Constant Matrix: (Units=GPa)
#
#
# Indices 1 2 3 4 5 6 
#
# 1 54.6397 11.4077 13.7656 0.0000 0.0000 0.0000
# 2 11.4077 172.8727 88.6959 0.0000 0.0000 0.0000
# 3 13.7656 88.6959 127.1589 0.0000 0.0000 0.0000
# 4 0.0000 0.0000 0.0000 12.1633 0.0000 0.0000
# 5 0.0000 0.0000 0.0000 0.0000 -9.5522 0.0000
# 6 0.0000 0.0000 0.0000 0.0000 0.0000 7.9221
#
#
#
# Elastic Compliance Matrix: (Units=1/GPa)
#
#
# Indices 1 2 3 4 5 6 
#
# 1 0.018825 -0.000306 -0.001824 0.000000 0.000000 0.000000
# 2 -0.000306 0.009014 -0.006254 0.000000 0.000000 0.000000
# 3 -0.001824 -0.006254 0.012424 0.000000 0.000000 0.000000
# 4 0.000000 0.000000 0.000000 0.082214 0.000000 0.000000
# 5 0.000000 0.000000 0.000000 0.000000 -0.104688 0.000000
# 6 0.000000 0.000000 0.000000 0.000000 0.000000 0.126229
#
#
# Mechanical properties :
#
#
# Convention : Reuss Voigt Hill
#
# Bulk Modulus (GPa) = 42.56468 64.71221 53.63845
# Shear Modulus (GPa) = 29.65270 18.16011 23.90640
#
# Velocity S-wave (km/s) = 3.87428 3.03193 3.47870
# Velocity P-wave (km/s) = 6.44667 6.70924 6.57926
#
# Compressibility (1/GPa) = 0.02349366
#
# Stress axis : x y z
#
# Youngs Moduli (GPa) = 53.12009 110.94413 80.48969
#
# Poissons Ratio (x) = 0.03398 0.14684
# Poissons Ratio (y) = 0.01627 0.50338
# Poissons Ratio (z) = 0.09691 0.69384
#
# Static dielectric constant tensor:
#      x y z
#    x 1.715850 0.000000 0.000000 
#    y 0.000000 1.684410 0.000000 
#    z 0.000000 0.000000 1.688660 
# 
# From -- ./inp_files/29329.got.cif
#   From: 2010.05.17/outbox.cif.g08.bks.cpg/sg47_15_cif.got.tgz:29329.got - 2010.06.03 20:15:42.
