data_PCOD9382512
_publ_section_title
;
Structure prediction by ZEFSAII (Michael W. Deem and Ramdas Pophale) SiO2 
 PCOD9382512
Probable space group: P M M M
;
_chemical_formula_sum "Si O2"
_cell_formula_units_Z 52
_cell_length_a 7.898246
_cell_length_b 27.754140
_cell_length_c 14.158073
_cell_angle_alpha 90.000000
_cell_angle_beta 90.000000
_cell_angle_gamma 90.000000
_cell_volume 3103.577382
_symmetry_space_group_name_H-M "P M M M"
_symmetry_group_IT_number 47
_symmetry_cell_setting 'orthorhombic'
loop_
_space_group_symop_operation_xyz
x,y,z
-x,-y,z
x,-y,-z
-x,y,-z
-x,-y,-z
x,y,-z
-x,y,z
x,-y,z
loop_
_atom_site_type_symbol
_atom_site_label
_atom_site_fract_x
_atom_site_fract_y
_atom_site_fract_z
Si Si1 0.203602 0.901655 0.707280
Si Si2 0.207558 0.000000 0.609923
Si Si3 0.704358 0.149468 0.106756
Si Si4 0.700973 0.246529 0.791185
Si Si5 0.798948 0.551858 0.114420
Si Si6 0.204135 0.804212 0.393906
Si Si7 0.203354 0.656080 0.892272
O O1 0.264763 0.951822 0.663888
O O2 0.247530 0.890355 0.815734
O O3 0.266019 0.855685 0.646749
O O4 0.000000 0.902010 0.699934
O O5 0.258481 0.000000 0.500000
O O6 0.000000 0.000000 0.610570
O O7 0.500000 0.151442 0.104323
O O8 0.767825 0.201149 0.146897
O O9 0.764831 0.141110 0.000000
O O10 0.500000 0.245267 0.799456
O O11 0.748305 0.235408 0.683384
O O12 0.759033 0.297676 0.829825
O O13 0.726715 0.500000 0.146150
O O14 0.731008 0.604144 0.144717
O O15 0.000000 0.550751 0.136547
O O16 0.786247 0.552785 0.000000
O O17 0.265937 0.795728 0.500000
O O18 0.000000 0.806526 0.396820
O O19 0.000000 0.651484 0.897705
O O20 0.265922 0.663891 0.000000
#
# Coordination Sequence:
#
# PCOD9382512 Si02
#       7
#     8   4   8   8   8   8   8
#     4   9  17  29  47  70  89 107 135 168 203 246
#     4   9  16  28  48  71  92 110 129 161 208 257
#     4   9  18  32  46  59  81 115 148 174 204 242
#     4  10  19  29  42  61  85 112 142 175 210 251
#     4   7  10  18  33  53  77 106 140 175 208 241
#     4   9  17  30  47  65  85 108 135 169 208 249
#     4   9  16  25  39  60  85 113 145 179 211 243
#
# _framework density 16.754859
#
# number of rings (size 3 to 8) (size 9 to 14) (size 15 to 20)
#    0.000    3.154    0.000    2.769    0.000    4.000 
#    0.000    0.769    0.000    4.615    0.000    2.154 
#    0.000    0.615    0.000    7.077    0.000    2.308 
#
# Total GULP energy -289549.188491 kJ/mol
# GULP energy per Si atom -5568.253625 kJ/mol
# Density = 1.671672 g / cm^3
# Si number density = 16.754859 Si / 1000 Ang^3
#
#
#
# Elastic Constant Matrix: (Units=GPa)
#
#
# Indices 1 2 3 4 5 6 
#
# 1 15.3429 8.2809 5.3909 0.0000 0.0000 0.0000
# 2 8.2809 164.8210 89.7868 0.0000 0.0000 0.0000
# 3 5.3909 89.7868 126.9880 0.0000 0.0000 0.0000
# 4 0.0000 0.0000 0.0000 17.4139 0.0000 0.0000
# 5 0.0000 0.0000 0.0000 0.0000 -3.4988 0.0000
# 6 0.0000 0.0000 0.0000 0.0000 0.0000 -0.1191
#
#
#
# Elastic Compliance Matrix: (Units=1/GPa)
#
#
# Indices 1 2 3 4 5 6 
#
# 1 0.067038 -0.002957 -0.000755 0.000000 0.000000 0.000000
# 2 -0.002957 0.009998 -0.006944 0.000000 0.000000 0.000000
# 3 -0.000755 -0.006944 0.012816 0.000000 0.000000 0.000000
# 4 0.000000 0.000000 0.000000 0.057425 0.000000 0.000000
# 5 0.000000 0.000000 0.000000 0.000000 -0.285812 0.000000
# 6 0.000000 0.000000 0.000000 0.000000 0.000000 -8.394026
#
#
# Mechanical properties :
#
#
# Convention : Reuss Voigt Hill
#
# Bulk Modulus (GPa) = 14.58981 57.11880 35.85430
# Shear Modulus (GPa) = -0.58904 16.33875 7.87485
#
# Velocity S-wave (km/s) = -0.59357 3.12615 2.17031
# Velocity P-wave (km/s) = 2.87349 6.86988 5.26556
#
# Compressibility (1/GPa) = 0.06854100
#
# Stress axis : x y z
#
# Youngs Moduli (GPa) = 14.91694 100.01571 78.02451
#
# Poissons Ratio (x) = 0.29571 0.05894
# Poissons Ratio (y) = 0.04410 0.54179
# Poissons Ratio (z) = 0.01127 0.69450
#
# Static dielectric constant tensor:
#      x y z
#    x 1.603290 0.000000 0.000000 
#    y 0.000000 1.600570 0.000000 
#    z 0.000000 0.000000 1.550700 
# 
# From -- ./inp_files/21736.got.cif
#   From: 2010.05.17/outbox.cif.g08.bks.cpg/sg47_11_cif.got.tgz:21736.got - 2010.06.03 20:15:42.
