data_PCOD9382891
_publ_section_title
;
Structure prediction by ZEFSAII (Michael W. Deem and Ramdas Pophale) SiO2 
 PCOD9382891
Probable space group: P M M M
;
_chemical_formula_sum "Si O2"
_cell_formula_units_Z 52
_cell_length_a 7.364538
_cell_length_b 19.769595
_cell_length_c 16.325198
_cell_angle_alpha 90.000000
_cell_angle_beta 90.000000
_cell_angle_gamma 90.000000
_cell_volume 2376.849794
_symmetry_space_group_name_H-M "P M M M"
_symmetry_group_IT_number 47
_symmetry_cell_setting 'orthorhombic'
loop_
_space_group_symop_operation_xyz
x,y,z
-x,-y,z
x,-y,-z
-x,y,-z
-x,-y,-z
x,y,-z
-x,y,z
x,-y,z
loop_
_atom_site_type_symbol
_atom_site_label
_atom_site_fract_x
_atom_site_fract_y
_atom_site_fract_z
Si Si1 0.279249 0.927486 0.405298
Si Si2 0.277574 0.920655 0.000000
Si Si3 0.211915 0.652635 0.592779
Si Si4 0.286225 0.187497 0.866838
Si Si5 0.720270 0.792691 0.682763
Si Si6 0.218258 0.660924 0.911970
Si Si7 0.778079 0.422181 0.246497
O O1 0.225793 0.924771 0.500000
O O2 0.500000 0.926654 0.403485
O O3 0.217944 0.861261 0.359955
O O4 0.221663 0.000000 0.370346
O O5 0.218006 0.875400 0.921349
O O6 0.500000 0.920626 0.000000
O O7 0.222759 0.000000 0.000000
O O8 0.287588 0.649471 0.500000
O O9 0.222286 0.727851 0.630682
O O10 0.287025 0.605600 0.665590
O O11 0.000000 0.634736 0.585709
O O12 0.500000 0.173757 0.856849
O O13 0.213065 0.202006 0.775944
O O14 0.264404 0.259785 0.909896
O O15 0.500000 0.790166 0.683685
O O16 0.284372 0.623755 0.829882
O O17 0.000000 0.655471 0.910436
O O18 0.280624 0.632639 0.000000
O O19 0.727844 0.500000 0.234585
O O20 0.000000 0.418588 0.247406
#
# Coordination Sequence:
#
# PCOD9382891 Si02
#       7
#     8   4   8   8   8   8   8
#     4   8  14  25  41  63  92 122 153 196 246 287
#     4   9  18  32  49  73 106 139 172 212 255 301
#     4  10  20  33  51  75 102 135 171 207 253 306
#     4  10  19  31  50  74 100 135 170 203 248 300
#     4  10  19  30  49  75  99 128 169 212 252 296
#     4  10  19  32  54  79 101 130 165 203 251 302
#     4   9  18  33  52  76 105 132 163 208 254 299
#
# _framework density 21.877699
#
# number of rings (size 3 to 8) (size 9 to 14) (size 15 to 20)
#    0.000    2.538    2.308    0.923    0.000    2.154 
#    0.000    6.154    0.000    3.231    0.000    6.462 
#    0.000    0.000    0.000    0.000    0.000    0.000 
#
# Total GULP energy -290128.049102 kJ/mol
# GULP energy per Si atom -5579.385560 kJ/mol
# Density = 2.182790 g / cm^3
# Si number density = 21.877699 Si / 1000 Ang^3
#
#
#
# Elastic Constant Matrix: (Units=GPa)
#
#
# Indices 1 2 3 4 5 6 
#
# 1 75.9369 -16.3390 -6.3643 0.0000 0.0000 0.0000
# 2 -16.3390 137.0958 64.8618 0.0000 0.0000 0.0000
# 3 -6.3643 64.8618 157.2365 0.0000 0.0000 0.0000
# 4 0.0000 0.0000 0.0000 54.4634 0.0000 0.0000
# 5 0.0000 0.0000 0.0000 0.0000 6.1895 0.0000
# 6 0.0000 0.0000 0.0000 0.0000 0.0000 15.2600
#
#
#
# Elastic Compliance Matrix: (Units=1/GPa)
#
#
# Indices 1 2 3 4 5 6 
#
# 1 0.013518 0.001680 -0.000146 0.000000 0.000000 0.000000
# 2 0.001680 0.009272 -0.003757 0.000000 0.000000 0.000000
# 3 -0.000146 -0.003757 0.007904 0.000000 0.000000 0.000000
# 4 0.000000 0.000000 0.000000 0.018361 0.000000 0.000000
# 5 0.000000 0.000000 0.000000 0.000000 0.161563 0.000000
# 6 0.000000 0.000000 0.000000 0.000000 0.000000 0.065531
#
#
# Mechanical properties :
#
#
# Convention : Reuss Voigt Hill
#
# Bulk Modulus (GPa) = 38.09745 50.50959 44.30352
# Shear Modulus (GPa) = 17.28054 37.05661 27.16858
#
# Velocity S-wave (km/s) = 2.81351 4.12005 3.52780
# Velocity P-wave (km/s) = 5.29208 6.76539 6.07357
#
# Compressibility (1/GPa) = 0.02624848
#
# Stress axis : x y z
#
# Youngs Moduli (GPa) = 73.97487 107.85455 126.52430
#
# Poissons Ratio (x) = -0.18121 0.01846
# Poissons Ratio (y) = -0.12429 0.47531
# Poissons Ratio (z) = 0.01079 0.40518
#
# Static dielectric constant tensor:
#      x y z
#    x 1.898010 0.000000 0.000000 
#    y 0.000000 1.747850 0.000000 
#    z 0.000000 0.000000 1.821300 
# 
# From -- ./inp_files/22876.got.cif
#   From: 2010.05.17/outbox.cif.g08.bks.cpg/sg47_12_cif.got.tgz:22876.got - 2010.06.03 20:15:42.
