data_PCOD9382866
_publ_section_title
;
Structure prediction by ZEFSAII (Michael W. Deem and Ramdas Pophale) SiO2 
 PCOD9382866
Probable space group: P M M M
;
_chemical_formula_sum "Si O2"
_cell_formula_units_Z 64
_cell_length_a 26.129200
_cell_length_b 7.568301
_cell_length_c 15.098319
_cell_angle_alpha 90.000000
_cell_angle_beta 90.000000
_cell_angle_gamma 90.000000
_cell_volume 2985.747699
_symmetry_space_group_name_H-M "P M M M"
_symmetry_group_IT_number 47
_symmetry_cell_setting 'orthorhombic'
loop_
_space_group_symop_operation_xyz
x,y,z
-x,-y,z
x,-y,-z
-x,y,-z
-x,-y,-z
x,y,-z
-x,y,z
x,-y,z
loop_
_atom_site_type_symbol
_atom_site_label
_atom_site_fract_x
_atom_site_fract_y
_atom_site_fract_z
Si Si1 0.748876 0.199879 0.221058
Si Si2 0.200294 0.287601 0.403093
Si Si3 0.842485 0.783402 0.103638
Si Si4 0.944807 0.207338 0.796968
Si Si5 0.556826 0.284223 0.899287
Si Si6 0.632022 0.291155 0.247738
Si Si7 0.557676 0.284239 0.398545
Si Si8 0.920986 0.288138 0.597070
O O1 0.773914 0.204961 0.318232
O O2 0.791114 0.279884 0.154198
O O3 0.692210 0.273056 0.233631
O O4 0.741561 0.000000 0.190660
O O5 0.219774 0.231073 0.500000
O O6 0.206689 0.500000 0.397241
O O7 0.139745 0.251795 0.400669
O O8 0.893384 0.721656 0.156531
O O9 0.842160 0.000000 0.108250
O O10 0.843741 0.735072 0.000000
O O11 0.941730 0.220634 0.690198
O O12 0.000000 0.283825 0.824758
O O13 0.945613 0.000000 0.819457
O O14 0.500000 0.234750 0.868078
O O15 0.558010 0.500000 0.900763
O O16 0.600801 0.218596 0.835490
O O17 0.563278 0.225493 0.000000
O O18 0.622319 0.500000 0.250141
O O19 0.603731 0.222005 0.335800
O O20 0.564091 0.226599 0.500000
O O21 0.500000 0.233941 0.368442
O O22 0.558071 0.500000 0.399659
O O23 0.939678 0.224795 0.500000
O O24 0.928329 0.500000 0.597867
#
# Coordination Sequence:
#
# PCOD9382866 Si02
#       8
#     8   8   8   8   8   8   8   8
#     4  11  22  35  52  75 104 139 175 212 258 312
#     4   9  18  34  56  78 100 131 171 211 250 297
#     4   9  19  37  57  75  99 134 176 220 266 315
#     4  10  20  34  55  83 109 134 172 222 267 308
#     4   8  14  26  46  72  99 126 161 210 264 310
#     4  10  19  30  48  74 102 131 166 210 256 304
#     4   8  14  26  46  72  99 128 166 209 249 290
#     4   9  18  33  54  79 108 142 173 202 247 308
#
# _framework density 21.435168999999998
#
# number of rings (size 3 to 8) (size 9 to 14) (size 15 to 20)
#    0.000    2.750    1.250    2.250    0.000    3.750 
#    0.000    5.000    0.000    4.500    0.000    2.625 
#    0.000    0.000    0.000    0.000    0.000    0.000 
#
# Total GULP energy -356918.350821 kJ/mol
# GULP energy per Si atom -5576.849232 kJ/mol
# Density = 2.138638 g / cm^3
# Si number density = 21.435169 Si / 1000 Ang^3
#
#
#
# Elastic Constant Matrix: (Units=GPa)
#
#
# Indices 1 2 3 4 5 6 
#
# 1 163.0871 8.8136 97.8097 0.0000 0.0000 0.0000
# 2 8.8136 38.8416 1.6322 0.0000 0.0000 0.0000
# 3 97.8097 1.6322 138.9985 0.0000 0.0000 0.0000
# 4 0.0000 0.0000 0.0000 20.6725 0.0000 0.0000
# 5 0.0000 0.0000 0.0000 0.0000 0.1604 0.0000
# 6 0.0000 0.0000 0.0000 0.0000 0.0000 5.1904
#
#
#
# Elastic Compliance Matrix: (Units=1/GPa)
#
#
# Indices 1 2 3 4 5 6 
#
# 1 0.010782 -0.002129 -0.007562 0.000000 0.000000 0.000000
# 2 -0.002129 0.026179 0.001191 0.000000 0.000000 0.000000
# 3 -0.007562 0.001191 0.012502 0.000000 0.000000 0.000000
# 4 0.000000 0.000000 0.000000 0.048373 0.000000 0.000000
# 5 0.000000 0.000000 0.000000 0.000000 6.233425 0.000000
# 6 0.000000 0.000000 0.000000 0.000000 0.000000 0.192662
#
#
# Mechanical properties :
#
#
# Convention : Reuss Voigt Hill
#
# Bulk Modulus (GPa) = 30.80558 61.93756 46.37157
# Shear Modulus (GPa) = 0.76316 20.71612 10.73964
#
# Velocity S-wave (km/s) = 0.59733 3.11216 2.24080
# Velocity P-wave (km/s) = 3.85726 6.47086 5.32684
#
# Compressibility (1/GPa) = 0.03246165
#
# Stress axis : x y z
#
# Youngs Moduli (GPa) = 92.74755 38.19918 79.99027
#
# Poissons Ratio (x) = 0.08132 0.60489
# Poissons Ratio (y) = 0.19744 -0.09523
# Poissons Ratio (z) = 0.70136 -0.04548
#
# Static dielectric constant tensor:
#      x y z
#    x 1.778140 0.000000 0.000000 
#    y 0.000000 1.832790 0.000000 
#    z 0.000000 0.000000 1.762980 
# 
# From -- ./inp_files/25565.got.cif
#   From: 2010.05.17/outbox.cif.g08.bks.cpg/sg47_13_cif.got.tgz:25565.got - 2010.06.03 20:15:42.
