data_PCOD9382098
_publ_section_title
;
Structure prediction by ZEFSAII (Michael W. Deem and Ramdas Pophale) SiO2 
 PCOD9382098
Probable space group: P M M M
;
_chemical_formula_sum "Si O2"
_cell_formula_units_Z 52
_cell_length_a 16.978928
_cell_length_b 21.411294
_cell_length_c 8.373324
_cell_angle_alpha 90.000000
_cell_angle_beta 90.000000
_cell_angle_gamma 90.000000
_cell_volume 3044.045066
_symmetry_space_group_name_H-M "P M M M"
_symmetry_group_IT_number 47
_symmetry_cell_setting 'orthorhombic'
loop_
_space_group_symop_operation_xyz
x,y,z
-x,-y,z
x,-y,-z
-x,y,-z
-x,-y,-z
x,y,-z
-x,y,z
x,-y,z
loop_
_atom_site_type_symbol
_atom_site_label
_atom_site_fract_x
_atom_site_fract_y
_atom_site_fract_z
Si Si1 0.912257 0.807325 0.307526
Si Si2 0.668748 0.137004 0.809252
Si Si3 0.500000 0.145303 0.309123
Si Si4 0.828898 0.929619 0.193079
Si Si5 0.244340 0.259299 0.693000
Si Si6 0.651191 0.631142 0.307076
Si Si7 0.500000 0.711404 0.694158
Si Si8 0.591241 0.500000 0.809751
O O1 0.912886 0.803473 0.500000
O O2 0.887039 0.877249 0.260079
O O3 0.841605 0.762540 0.249111
O O4 0.000000 0.792630 0.248767
O O5 0.582716 0.117697 0.749147
O O6 0.740141 0.091189 0.760883
O O7 0.694379 0.205139 0.743774
O O8 0.667326 0.140075 0.000000
O O9 0.500000 0.145296 0.500000
O O10 0.500000 0.217478 0.249539
O O11 0.845847 0.000000 0.245934
O O12 0.833017 0.927752 0.000000
O O13 0.243804 0.259224 0.500000
O O14 0.273979 0.327448 0.745100
O O15 0.651723 0.628113 0.500000
O O16 0.576305 0.672799 0.256382
O O17 0.636777 0.561967 0.244712
O O18 0.500000 0.713722 0.500000
O O19 0.500000 0.500000 0.747260
O O20 0.586705 0.500000 0.000000
#
# Coordination Sequence:
#
# PCOD9382098 Si02
#       8
#     8   8   4   8   8   8   4   4
#     4   9  18  32  51  77 104 124 147 189 243 292
#     4  10  19  30  46  69  92 118 158 204 245 279
#     4  11  19  31  47  67  93 123 159 199 242 287
#     4   9  19  35  51  67  93 129 163 194 232 284
#     4   9  17  31  50  70  94 125 158 192 236 289
#     4  10  18  31  48  65  88 126 166 192 223 276
#     4   9  16  26  44  66  87 116 155 192 227 270
#     4  11  23  33  41  63  98 131 160 196 237 269
#
# _framework density 17.082533000000002
#
# number of rings (size 3 to 8) (size 9 to 14) (size 15 to 20)
#    0.000    2.385    2.308    0.923    0.000    2.462 
#    0.000    1.923    0.000    2.308    0.000    0.538 
#    0.000    4.308    0.000    0.000    0.000    0.000 
#
# Total GULP energy -289912.474547 kJ/mol
# GULP energy per Si atom -5575.239895 kJ/mol
# Density = 1.704365 g / cm^3
# Si number density = 17.082533 Si / 1000 Ang^3
#
#
#
# Elastic Constant Matrix: (Units=GPa)
#
#
# Indices 1 2 3 4 5 6 
#
# 1 124.5647 40.2318 14.8234 0.0000 0.0000 0.0000
# 2 40.2318 86.6856 11.8687 0.0000 0.0000 0.0000
# 3 14.8234 11.8687 9.2617 0.0000 0.0000 0.0000
# 4 0.0000 0.0000 0.0000 -456.0220 0.0000 0.0000
# 5 0.0000 0.0000 0.0000 0.0000 17.2144 0.0000
# 6 0.0000 0.0000 0.0000 0.0000 0.0000 13.3072
#
#
#
# Elastic Compliance Matrix: (Units=1/GPa)
#
#
# Indices 1 2 3 4 5 6 
#
# 1 0.010579 -0.003143 -0.012903 0.000000 0.000000 0.000000
# 2 -0.003143 0.014924 -0.014095 0.000000 0.000000 0.000000
# 3 -0.012903 -0.014095 0.146686 0.000000 0.000000 0.000000
# 4 0.000000 0.000000 0.000000 -0.002193 0.000000 0.000000
# 5 0.000000 0.000000 0.000000 0.000000 0.058091 0.000000
# 6 0.000000 0.000000 0.000000 0.000000 0.000000 0.075147
#
#
# Mechanical properties :
#
#
# Convention : Reuss Voigt Hill
#
# Bulk Modulus (GPa) = 8.93609 39.37330 24.15469
# Shear Modulus (GPa) = 12.47446 -74.86087 -31.19320
#
# Velocity S-wave (km/s) = 2.70524 -6.62708 -4.27784
# Velocity P-wave (km/s) = 3.87301 5.95472 3.19831
#
# Compressibility (1/GPa) = 0.11190578
#
# Stress axis : x y z
#
# Youngs Moduli (GPa) = 94.53059 67.00394 6.81730
#
# Poissons Ratio (x) = 0.21059 0.08797
# Poissons Ratio (y) = 0.29711 0.09609
# Poissons Ratio (z) = 1.21976 0.94443
#
# Static dielectric constant tensor:
#      x y z
#    x 1.602090 0.000000 0.000000 
#    y 0.000000 1.567810 0.000000 
#    z 0.000000 0.000000 1.588870 
# 
# From -- ./inp_files/7108.got.cif
#   From: 2010.05.17/outbox.cif.g08.bks.cpg/sg47_4_cif.got.tgz:7108.got - 2010.06.03 20:15:42.
