data_PCOD9382349
_publ_section_title
;
Structure prediction by ZEFSAII (Michael W. Deem and Ramdas Pophale) SiO2 
 PCOD9382349
Probable space group: P M M M
;
_chemical_formula_sum "Si O2"
_cell_formula_units_Z 52
_cell_length_a 13.981239
_cell_length_b 8.350456
_cell_length_c 25.099591
_cell_angle_alpha 90.000000
_cell_angle_beta 90.000000
_cell_angle_gamma 90.000000
_cell_volume 2930.370249
_symmetry_space_group_name_H-M "P M M M"
_symmetry_group_IT_number 47
_symmetry_cell_setting 'orthorhombic'
loop_
_space_group_symop_operation_xyz
x,y,z
-x,-y,z
x,-y,-z
-x,y,-z
-x,-y,-z
x,y,-z
-x,y,z
x,-y,z
loop_
_atom_site_type_symbol
_atom_site_label
_atom_site_fract_x
_atom_site_fract_y
_atom_site_fract_z
Si Si1 0.107506 0.304741 0.146324
Si Si2 0.610249 0.195635 0.560300
Si Si3 0.105307 0.307913 0.270115
Si Si4 0.387456 0.314444 0.759776
Si Si5 0.314209 0.693796 0.874519
Si Si6 0.280853 0.812686 0.662573
Si Si7 0.500000 0.191646 0.060995
O O1 0.106667 0.500000 0.145225
O O2 0.120207 0.256331 0.208537
O O3 0.203963 0.254903 0.115042
O O4 0.000000 0.253021 0.129385
O O5 0.635490 0.244383 0.500000
O O6 0.500000 0.243425 0.570752
O O7 0.680040 0.254627 0.606759
O O8 0.611134 0.000000 0.561316
O O9 0.104609 0.500000 0.268166
O O10 0.186027 0.257568 0.311062
O O11 0.000000 0.251000 0.286429
O O12 0.500000 0.311594 0.769465
O O13 0.357832 0.500000 0.750667
O O14 0.337237 0.257447 0.813634
O O15 0.360458 0.216409 0.707827
O O16 0.317125 0.500000 0.876148
O O17 0.402123 0.753015 0.910295
O O18 0.265233 0.000000 0.655118
O O19 0.500000 0.000000 0.061433
O O20 0.500000 0.249614 0.000000
#
# Coordination Sequence:
#
# PCOD9382349 Si02
#       7
#     8   8   8   8   8   8   4
#     4   8  14  27  50  77 102 130 165 205 247 293
#     4   8  15  29  46  63  88 125 166 204 244 294
#     4   9  17  31  49  67  95 135 168 194 238 302
#     4  10  19  31  46  69 103 137 164 195 243 301
#     4  10  18  33  56  78 102 134 175 212 242 293
#     4  11  20  28  45  73 100 124 159 208 257 303
#     4  11  25  41  55  75 107 143 176 213 258 301
#
# _framework density 17.745199
#
# number of rings (size 3 to 8) (size 9 to 14) (size 15 to 20)
#    0.000    2.538    2.308    2.538    0.000    2.462 
#    0.000    0.000    0.000    3.231    0.000   11.846 
#    0.000    0.000    0.000    0.000    0.000    0.000 
#
# Total GULP energy -289646.428166 kJ/mol
# GULP energy per Si atom -5570.123619 kJ/mol
# Density = 1.770481 g / cm^3
# Si number density = 17.745199 Si / 1000 Ang^3
#
#
#
# Elastic Constant Matrix: (Units=GPa)
#
#
# Indices 1 2 3 4 5 6 
#
# 1 155.3177 12.9652 54.6246 0.0000 0.0000 0.0000
# 2 12.9652 4.8050 6.2301 0.0000 0.0000 0.0000
# 3 54.6246 6.2301 63.5283 0.0000 0.0000 0.0000
# 4 0.0000 0.0000 0.0000 21.4951 0.0000 0.0000
# 5 0.0000 0.0000 0.0000 0.0000 12.6067 0.0000
# 6 0.0000 0.0000 0.0000 0.0000 0.0000 10.4130
#
#
#
# Elastic Compliance Matrix: (Units=1/GPa)
#
#
# Indices 1 2 3 4 5 6 
#
# 1 0.010577 -0.019187 -0.007213 0.000000 0.000000 0.000000
# 2 -0.019187 0.273238 -0.010298 0.000000 0.000000 0.000000
# 3 -0.007213 -0.010298 0.022953 0.000000 0.000000 0.000000
# 4 0.000000 0.000000 0.000000 0.046522 0.000000 0.000000
# 5 0.000000 0.000000 0.000000 0.000000 0.079323 0.000000
# 6 0.000000 0.000000 0.000000 0.000000 0.000000 0.096034
#
#
# Mechanical properties :
#
#
# Convention : Reuss Voigt Hill
#
# Bulk Modulus (GPa) = 4.28500 41.25454 22.76977
# Shear Modulus (GPa) = 7.35474 18.89169 13.12321
#
# Velocity S-wave (km/s) = 2.03805 3.26637 2.72239
# Velocity P-wave (km/s) = 2.82102 6.12571 4.76878
#
# Compressibility (1/GPa) = 0.23337236
#
# Stress axis : x y z
#
# Youngs Moduli (GPa) = 94.54713 3.65981 43.56759
#
# Poissons Ratio (x) = 0.07022 0.31424
# Poissons Ratio (y) = 1.81405 0.44867
# Poissons Ratio (z) = 0.68195 0.03769
#
# Static dielectric constant tensor:
#      x y z
#    x 1.648540 0.000000 0.000000 
#    y 0.000000 1.629160 0.000000 
#    z 0.000000 0.000000 1.592680 
# 
# From -- ./inp_files/32676.got.cif
#   From: 2010.05.17/outbox.cif.g08.bks.cpg/sg47_17_cif.got.tgz:32676.got - 2010.06.03 20:15:42.
