data_PCOD9382955
_publ_section_title
;
Structure prediction by ZEFSAII (Michael W. Deem and Ramdas Pophale) SiO2 
 PCOD9382955
Probable space group: P M M M
;
_chemical_formula_sum "Si O2"
_cell_formula_units_Z 52
_cell_length_a 29.008855
_cell_length_b 9.165819
_cell_length_c 12.636827
_cell_angle_alpha 90.000000
_cell_angle_beta 90.000000
_cell_angle_gamma 90.000000
_cell_volume 3360.004848
_symmetry_space_group_name_H-M "P M M M"
_symmetry_group_IT_number 47
_symmetry_cell_setting 'orthorhombic'
loop_
_space_group_symop_operation_xyz
x,y,z
-x,-y,z
x,-y,-z
-x,y,-z
-x,-y,-z
x,y,-z
-x,y,z
x,-y,z
loop_
_atom_site_type_symbol
_atom_site_label
_atom_site_fract_x
_atom_site_fract_y
_atom_site_fract_z
Si Si1 0.094464 0.673841 0.124579
Si Si2 0.000000 0.835296 0.126997
Si Si3 0.945945 0.176851 0.500000
Si Si4 0.686451 0.831627 0.629278
Si Si5 0.500000 0.831517 0.371012
Si Si6 0.223163 0.664064 0.375349
Si Si7 0.870345 0.175275 0.323644
Si Si8 0.593097 0.331680 0.628892
O O1 0.095116 0.500000 0.140571
O O2 0.044742 0.742114 0.151926
O O3 0.126253 0.757963 0.206571
O O4 0.103609 0.701623 0.000000
O O5 0.000000 0.000000 0.173252
O O6 0.000000 0.850877 0.000000
O O7 0.914338 0.218652 0.397918
O O8 0.000000 0.226915 0.500000
O O9 0.947872 0.000000 0.500000
O O10 0.686920 0.831488 0.500000
O O11 0.731861 0.746577 0.667895
O O12 0.639418 0.751741 0.661924
O O13 0.687138 0.000000 0.662438
O O14 0.500000 0.830144 0.500000
O O15 0.546472 0.749461 0.337055
O O16 0.500000 0.000000 0.338051
O O17 0.232155 0.648695 0.500000
O O18 0.216990 0.500000 0.331422
O O19 0.177009 0.758900 0.367110
O O20 0.869221 0.000000 0.321917
O O21 0.592912 0.330902 0.500000
O O22 0.593565 0.500000 0.662383
#
# Coordination Sequence:
#
# PCOD9382955 Si02
#       8
#     8   4   4   8   4   8   8   8
#     4  10  21  36  52  72  98 123 147 181 224 265
#     4   9  17  31  51  72  91 114 145 175 207 250
#     4   9  20  36  51  71  97 123 150 183 222 265
#     4   9  16  25  38  54  73  97 131 172 214 258
#     4   9  15  21  29  41  61  89 123 163 208 255
#     4  10  19  31  46  63  86 113 143 179 221 267
#     4  11  21  34  54  73  94 121 153 188 224 269
#     4   9  15  22  31  45  65  91 124 163 211 259
#
# _framework density 15.476167999999999
#
# number of rings (size 3 to 8) (size 9 to 14) (size 15 to 20)
#    0.000    2.385    0.769    2.769    1.077    7.077 
#    0.000    0.000    0.000    1.846    0.000    0.000 
#    0.000    0.000    0.000    0.000    0.000    0.000 
#
# Total GULP energy -289572.159148 kJ/mol
# GULP energy per Si atom -5568.695368 kJ/mol
# Density = 1.544094 g / cm^3
# Si number density = 15.476168 Si / 1000 Ang^3
#
#
#
# Elastic Constant Matrix: (Units=GPa)
#
#
# Indices 1 2 3 4 5 6 
#
# 1 130.4257 66.7387 20.1545 0.0000 0.0000 0.0000
# 2 66.7387 125.6935 28.4661 0.0000 0.0000 0.0000
# 3 20.1545 28.4661 31.4274 0.0000 0.0000 0.0000
# 4 0.0000 0.0000 0.0000 13.1831 0.0000 0.0000
# 5 0.0000 0.0000 0.0000 0.0000 -0.1686 0.0000
# 6 0.0000 0.0000 0.0000 0.0000 0.0000 50.1209
#
#
#
# Elastic Compliance Matrix: (Units=1/GPa)
#
#
# Indices 1 2 3 4 5 6 
#
# 1 0.010641 -0.005164 -0.002147 0.000000 0.000000 0.000000
# 2 -0.005164 0.012515 -0.008024 0.000000 0.000000 0.000000
# 3 -0.002147 -0.008024 0.040464 0.000000 0.000000 0.000000
# 4 0.000000 0.000000 0.000000 0.075855 0.000000 0.000000
# 5 0.000000 0.000000 0.000000 0.000000 -5.929584 0.000000
# 6 0.000000 0.000000 0.000000 0.000000 0.000000 0.019952
#
#
# Mechanical properties :
#
#
# Convention : Reuss Voigt Hill
#
# Bulk Modulus (GPa) = 30.34850 57.58503 43.96676
# Shear Modulus (GPa) = -0.87283 24.10621 11.61669
#
# Velocity S-wave (km/s) = -0.75180 3.95097 2.74271
# Velocity P-wave (km/s) = 4.34727 7.62254 6.20492
#
# Compressibility (1/GPa) = 0.03295056
#
# Stress axis : x y z
#
# Youngs Moduli (GPa) = 93.97302 79.90444 24.71319
#
# Poissons Ratio (x) = 0.41262 0.05306
# Poissons Ratio (y) = 0.48527 0.19830
# Poissons Ratio (z) = 0.20176 0.64116
#
# Static dielectric constant tensor:
#      x y z
#    x 1.592650 0.000000 0.000000 
#    y 0.000000 1.525690 0.000000 
#    z 0.000000 0.000000 1.515710 
# 
# From -- ./inp_files/8072.got.cif
#   From: 2010.05.17/outbox.cif.g08.bks.cpg/sg47_5_cif.got.tgz:8072.got - 2010.06.03 20:15:42.
