data_PCOD9382054
_publ_section_title
;
Structure prediction by ZEFSAII (Michael W. Deem and Ramdas Pophale) SiO2 
 PCOD9382054
Probable space group: P M M M
;
_chemical_formula_sum "Si O2"
_cell_formula_units_Z 56
_cell_length_a 7.576332
_cell_length_b 16.265653
_cell_length_c 20.447306
_cell_angle_alpha 90.000000
_cell_angle_beta 90.000000
_cell_angle_gamma 90.000000
_cell_volume 2519.803048
_symmetry_space_group_name_H-M "P M M M"
_symmetry_group_IT_number 47
_symmetry_cell_setting 'orthorhombic'
loop_
_space_group_symop_operation_xyz
x,y,z
-x,-y,z
x,-y,-z
-x,y,-z
-x,-y,-z
x,y,-z
-x,y,z
x,-y,z
loop_
_atom_site_type_symbol
_atom_site_label
_atom_site_fract_x
_atom_site_fract_y
_atom_site_fract_z
Si Si1 0.216369 0.590434 0.649715
Si Si2 0.293601 0.177657 0.208735
Si Si3 0.213073 0.095551 0.927571
Si Si4 0.287946 0.090159 0.337083
Si Si5 0.799279 0.639519 0.209967
Si Si6 0.792298 0.401071 0.929876
Si Si7 0.211084 0.247583 0.426159
O O1 0.265447 0.500000 0.624383
O O2 0.277694 0.599975 0.724870
O O3 0.277807 0.669457 0.609016
O O4 0.000000 0.593691 0.651094
O O5 0.500000 0.193569 0.220645
O O6 0.272701 0.146319 0.134986
O O7 0.232108 0.112386 0.262973
O O8 0.196828 0.263110 0.220484
O O9 0.000000 0.097362 0.927463
O O10 0.267485 0.000000 0.920476
O O11 0.271005 0.124197 0.000000
O O12 0.500000 0.085574 0.336751
O O13 0.242858 0.166081 0.383735
O O14 0.220151 0.000000 0.356773
O O15 0.713602 0.626495 0.139026
O O16 0.000000 0.606763 0.204552
O O17 0.786877 0.500000 0.929819
O O18 0.000000 0.375891 0.930075
O O19 0.717680 0.372780 0.000000
O O20 0.279766 0.239330 0.500000
O O21 0.000000 0.256888 0.429962
#
# Coordination Sequence:
#
# PCOD9382054 Si02
#       7
#     8   8   8   8   8   8   8
#     4   9  17  31  54  83 113 146 185 228 275 329
#     4  11  22  35  53  78 110 145 185 231 279 331
#     4   9  19  36  56  78 105 139 182 231 281 333
#     4  10  22  40  60  81 109 149 193 232 276 334
#     4  10  18  30  51  76 104 140 184 228 274 327
#     4   8  14  25  43  70 101 131 170 223 274 317
#     4  10  21  37  58  87 119 146 179 227 282 338
#
# _framework density 22.223960999999999
#
# number of rings (size 3 to 8) (size 9 to 14) (size 15 to 20)
#    0.000    2.429    1.429    2.143    0.000    5.143 
#    0.000    5.000    0.000    3.000    0.000    2.000 
#    0.000    0.000    0.000    0.000    0.000    0.000 
#
# Total GULP energy -312568.375053 kJ/mol
# GULP energy per Si atom -5581.578126 kJ/mol
# Density = 2.217338 g / cm^3
# Si number density = 22.223961 Si / 1000 Ang^3
#
#
#
# Elastic Constant Matrix: (Units=GPa)
#
#
# Indices 1 2 3 4 5 6 
#
# 1 53.0728 2.4979 5.2663 0.0000 0.0000 0.0000
# 2 2.4979 143.0661 74.2550 0.0000 0.0000 0.0000
# 3 5.2663 74.2550 156.0195 0.0000 0.0000 0.0000
# 4 0.0000 0.0000 0.0000 -13.6640 0.0000 0.0000
# 5 0.0000 0.0000 0.0000 0.0000 18.3157 0.0000
# 6 0.0000 0.0000 0.0000 0.0000 0.0000-1907.5765
#
#
#
# Elastic Compliance Matrix: (Units=1/GPa)
#
#
# Indices 1 2 3 4 5 6 
#
# 1 0.018905 0.000001 -0.000639 0.000000 0.000000 0.000000
# 2 0.000001 0.009283 -0.004418 0.000000 0.000000 0.000000
# 3 -0.000639 -0.004418 0.008534 0.000000 0.000000 0.000000
# 4 0.000000 0.000000 0.000000 -0.073185 0.000000 0.000000
# 5 0.000000 0.000000 0.000000 0.000000 0.054598 0.000000
# 6 0.000000 0.000000 0.000000 0.000000 0.000000 -0.000524
#
#
# Mechanical properties :
#
#
# Convention : Reuss Voigt Hill
#
# Bulk Modulus (GPa) = 37.57833 57.35518 47.46676
# Shear Modulus (GPa) = 136.64297 -362.57568 -112.96636
#
# Velocity S-wave (km/s) = 7.84971 -12.78673 -7.13731
# Velocity P-wave (km/s) = 9.95505 13.86134 6.82033
#
# Compressibility (1/GPa) = 0.02661108
#
# Stress axis : x y z
#
# Youngs Moduli (GPa) = 52.89508 107.72563 117.18207
#
# Poissons Ratio (x) = -0.00016 0.07486
# Poissons Ratio (y) = -0.00008 0.51772
# Poissons Ratio (z) = 0.03379 0.47594
#
# Static dielectric constant tensor:
#      x y z
#    x 1.900830 0.000000 0.000000 
#    y 0.000000 1.798030 0.000000 
#    z 0.000000 0.000000 1.837690 
# 
# From -- ./inp_files/7322.got.cif
#   From: 2010.05.17/outbox.cif.g08.bks.cpg/sg47_4_cif.got.tgz:7322.got - 2010.06.03 20:15:42.
