data_PCOD9382388
_publ_section_title
;
Structure prediction by ZEFSAII (Michael W. Deem and Ramdas Pophale) SiO2 
 PCOD9382388
Probable space group: P M M M
;
_chemical_formula_sum "Si O2"
_cell_formula_units_Z 64
_cell_length_a 20.389342
_cell_length_b 18.913026
_cell_length_c 7.745311
_cell_angle_alpha 90.000000
_cell_angle_beta 90.000000
_cell_angle_gamma 90.000000
_cell_volume 2986.779012
_symmetry_space_group_name_H-M "P M M M"
_symmetry_group_IT_number 47
_symmetry_cell_setting 'orthorhombic'
loop_
_space_group_symop_operation_xyz
x,y,z
-x,-y,z
x,-y,-z
-x,y,-z
-x,-y,-z
x,y,-z
-x,y,z
x,-y,z
loop_
_atom_site_type_symbol
_atom_site_label
_atom_site_fract_x
_atom_site_fract_y
_atom_site_fract_z
Si Si1 0.784015 0.722413 0.700217
Si Si2 0.422165 0.222637 0.805173
Si Si3 0.070714 0.235763 0.797831
Si Si4 0.613582 0.074978 0.200147
Si Si5 0.750629 0.877545 0.291261
Si Si6 0.575033 0.622499 0.787744
Si Si7 0.284796 0.424477 0.206737
Si Si8 0.897864 0.922244 0.292373
O O1 0.768909 0.726388 0.500000
O O2 0.862582 0.731901 0.721675
O O3 0.753447 0.795756 0.773564
O O4 0.755103 0.647401 0.757673
O O5 0.500000 0.224550 0.823003
O O6 0.406474 0.148987 0.715852
O O7 0.406881 0.298118 0.726024
O O8 0.393006 0.221758 0.000000
O O9 0.072911 0.150482 0.778183
O O10 0.000000 0.259689 0.725962
O O11 0.072488 0.252461 0.000000
O O12 0.691790 0.080429 0.206663
O O13 0.591951 0.000000 0.275469
O O14 0.590527 0.076418 0.000000
O O15 0.741836 0.878398 0.500000
O O16 0.820467 0.913157 0.257420
O O17 0.500000 0.603809 0.734585
O O18 0.639050 0.579616 0.734324
O O19 0.572921 0.623422 0.000000
O O20 0.256528 0.500000 0.269189
O O21 0.287614 0.427263 0.000000
O O22 0.907360 0.920304 0.500000
O O23 0.919923 0.000000 0.231728
#
# Coordination Sequence:
#
# PCOD9382388 Si02
#       8
#     8   8   8   8   8   8   8   8
#     4  10  21  37  57  78 102 137 178 217 258 311
#     4   8  14  25  40  58  84 120 160 202 247 294
#     4  10  21  36  55  80 108 138 175 222 274 322
#     4  10  19  27  39  63  90 118 158 208 260 309
#     4   9  18  32  48  66  90 124 166 207 249 296
#     4   8  14  26  46  73 105 141 178 212 249 300
#     4  10  20  33  53  83 115 143 170 206 256 310
#     4   9  18  32  49  71 103 143 182 217 256 307
#
# _framework density 21.427765000000001
#
# number of rings (size 3 to 8) (size 9 to 14) (size 15 to 20)
#    0.000    2.750    0.000    3.375    0.000    6.500 
#    0.000    3.750    0.000    1.125    0.000    7.875 
#    0.000    0.000    0.000    0.000    0.000    0.000 
#
# Total GULP energy -356646.817925 kJ/mol
# GULP energy per Si atom -5572.606530 kJ/mol
# Density = 2.137899 g / cm^3
# Si number density = 21.427765 Si / 1000 Ang^3
#
#
#
# Elastic Constant Matrix: (Units=GPa)
#
#
# Indices 1 2 3 4 5 6 
#
# 1 54.4632 57.1410 -1.1122 0.0000 0.0000 0.0000
# 2 57.1410 149.9280 8.1628 0.0000 0.0000 0.0000
# 3 -1.1122 8.1628 27.3700 0.0000 0.0000 0.0000
# 4 0.0000 0.0000 0.0000 10.9743 0.0000 0.0000
# 5 0.0000 0.0000 0.0000 0.0000 33.6754 0.0000
# 6 0.0000 0.0000 0.0000 0.0000 0.0000 -4.1992
#
#
#
# Elastic Compliance Matrix: (Units=1/GPa)
#
#
# Indices 1 2 3 4 5 6 
#
# 1 0.031228 -0.012168 0.004898 0.000000 0.000000 0.000000
# 2 -0.012168 0.011521 -0.003931 0.000000 0.000000 0.000000
# 3 0.004898 -0.003931 0.037908 0.000000 0.000000 0.000000
# 4 0.000000 0.000000 0.000000 0.091122 0.000000 0.000000
# 5 0.000000 0.000000 0.000000 0.000000 0.029695 0.000000
# 6 0.000000 0.000000 0.000000 0.000000 0.000000 -0.238140
#
#
# Mechanical properties :
#
#
# Convention : Reuss Voigt Hill
#
# Bulk Modulus (GPa) = 17.16588 40.01604 28.59096
# Shear Modulus (GPa) = 970.02760 19.26139 494.64450
#
# Velocity S-wave (km/s) = 21.29975 3.00142 15.20999
# Velocity P-wave (km/s) = 24.75751 5.54317 17.93963
#
# Compressibility (1/GPa) = 0.05825508
#
# Stress axis : x y z
#
# Youngs Moduli (GPa) = 32.02298 86.79453 26.37988
#
# Poissons Ratio (x) = 1.05614 -0.12921
# Poissons Ratio (y) = 0.38966 0.10369
# Poissons Ratio (z) = -0.15685 0.34116
#
# Static dielectric constant tensor:
#      x y z
#    x 1.797640 0.000000 0.000000 
#    y 0.000000 1.859020 0.000000 
#    z 0.000000 0.000000 1.796830 
# 
# From -- ./inp_files/10017.got.cif
#   From: 2010.05.17/outbox.cif.g08.bks.cpg/sg47_6_cif.got.tgz:10017.got - 2010.06.03 20:15:42.
