data_PCOD9382419
_publ_section_title
;
Structure prediction by ZEFSAII (Michael W. Deem and Ramdas Pophale) SiO2 
 PCOD9382419
Probable space group: P M M M
;
_chemical_formula_sum "Si O2"
_cell_formula_units_Z 64
_cell_length_a 13.988204
_cell_length_b 35.598216
_cell_length_c 9.045721
_cell_angle_alpha 90.000000
_cell_angle_beta 90.000000
_cell_angle_gamma 90.000000
_cell_volume 4504.362972
_symmetry_space_group_name_H-M "P M M M"
_symmetry_group_IT_number 47
_symmetry_cell_setting 'orthorhombic'
loop_
_space_group_symop_operation_xyz
x,y,z
-x,-y,z
x,-y,-z
-x,y,-z
-x,-y,-z
x,y,-z
-x,y,z
x,-y,z
loop_
_atom_site_type_symbol
_atom_site_label
_atom_site_fract_x
_atom_site_fract_y
_atom_site_fract_z
Si Si1 0.889595 0.267262 0.677276
Si Si2 0.115888 0.041546 0.672768
Si Si3 0.384876 0.540376 0.323182
Si Si4 0.113281 0.118417 0.176050
Si Si5 0.786108 0.189074 0.323632
Si Si6 0.613387 0.377064 0.321416
Si Si7 0.713930 0.693755 0.176399
Si Si8 0.389570 0.228092 0.822675
O O1 0.880961 0.272243 0.500000
O O2 0.854496 0.224823 0.710730
O O3 0.816943 0.295035 0.758582
O O4 0.000000 0.272174 0.719006
O O5 0.141302 0.046129 0.500000
O O6 0.146262 0.077668 0.765299
O O7 0.000000 0.040904 0.679797
O O8 0.148720 0.000000 0.722440
O O9 0.367625 0.540076 0.500000
O O10 0.500000 0.540461 0.305283
O O11 0.349367 0.500000 0.263359
O O12 0.352793 0.581350 0.269408
O O13 0.170910 0.151851 0.251981
O O14 0.000000 0.122406 0.212410
O O15 0.122970 0.120301 0.000000
O O16 0.781477 0.185173 0.500000
O O17 0.683141 0.200289 0.258451
O O18 0.622182 0.375531 0.500000
O O19 0.500000 0.373335 0.287722
O O20 0.671304 0.343515 0.248459
O O21 0.645503 0.729477 0.211238
O O22 0.718368 0.690009 0.000000
O O23 0.500000 0.223148 0.781036
O O24 0.380898 0.223214 0.000000
#
# Coordination Sequence:
#
# PCOD9382419 Si02
#       8
#     8   8   8   8   8   8   8   8
#     4   9  18  32  47  61  79 105 137 173 210 244
#     4   8  14  25  40  57  79 109 142 173 206 243
#     4   7  10  18  33  53  76 102 133 167 200 233
#     4  10  19  28  40  60  86 115 144 173 205 244
#     4  10  19  30  45  64  84 106 136 173 209 246
#     4   9  16  25  39  59  82 109 140 172 203 236
#     4  10  19  29  42  61  84 109 137 168 203 245
#     4   9  18  32  46  59  80 110 140 170 205 243
#
# _framework density 14.208446
#
# number of rings (size 3 to 8) (size 9 to 14) (size 15 to 20)
#    0.000    3.000    0.000    3.375    0.000    3.750 
#    0.000    1.250    0.000    0.375    0.000    1.750 
#    0.000    1.000    0.000   11.000    0.000    4.375 
#
# Total GULP energy -356299.797416 kJ/mol
# GULP energy per Si atom -5567.184335 kJ/mol
# Density = 1.417611 g / cm^3
# Si number density = 14.208446 Si / 1000 Ang^3
#
#
#
# Elastic Constant Matrix: (Units=GPa)
#
#
# Indices 1 2 3 4 5 6 
#
# 1 82.9662 62.0918 37.7655 0.0000 0.0000 0.0000
# 2 62.0918 152.4123 54.1486 0.0000 0.0000 0.0000
# 3 37.7655 54.1486 32.0319 0.0000 0.0000 0.0000
# 4 0.0000 0.0000 0.0000 14.9860 0.0000 0.0000
# 5 0.0000 0.0000 0.0000 0.0000 16.6066 0.0000
# 6 0.0000 0.0000 0.0000 0.0000 0.0000 19.5907
#
#
#
# Elastic Compliance Matrix: (Units=1/GPa)
#
#
# Indices 1 2 3 4 5 6 
#
# 1 0.026048 0.000748 -0.031976 0.000000 0.000000 0.000000
# 2 0.000748 0.016448 -0.028688 0.000000 0.000000 0.000000
# 3 -0.031976 -0.028688 0.117414 0.000000 0.000000 0.000000
# 4 0.000000 0.000000 0.000000 0.066729 0.000000 0.000000
# 5 0.000000 0.000000 0.000000 0.000000 0.060217 0.000000
# 6 0.000000 0.000000 0.000000 0.000000 0.000000 0.051045
#
#
# Mechanical properties :
#
#
# Convention : Reuss Voigt Hill
#
# Bulk Modulus (GPa) = 24.95013 63.93579 44.44296
# Shear Modulus (GPa) = 10.61367 17.79696 14.20532
#
# Velocity S-wave (km/s) = 2.73609 3.54300 3.16536
# Velocity P-wave (km/s) = 5.25165 7.86341 6.68629
#
# Compressibility (1/GPa) = 0.04007995
#
# Stress axis : x y z
#
# Youngs Moduli (GPa) = 38.39045 60.79679 8.51690
#
# Poissons Ratio (x) = -0.04550 0.27234
# Poissons Ratio (y) = -0.02873 0.24433
# Poissons Ratio (z) = 1.22757 1.74411
#
# Static dielectric constant tensor:
#      x y z
#    x 1.440280 0.000000 0.000000 
#    y 0.000000 1.483930 0.000000 
#    z 0.000000 0.000000 1.467110 
# 
# From -- ./inp_files/8198.got.cif
#   From: 2010.05.17/outbox.cif.g08.bks.cpg/sg47_5_cif.got.tgz:8198.got - 2010.06.03 20:15:42.
