data_PCOD9382687
_publ_section_title
;
Structure prediction by ZEFSAII (Michael W. Deem and Ramdas Pophale) SiO2 
 PCOD9382687
Probable space group: P M M M
;
_chemical_formula_sum "Si O2"
_cell_formula_units_Z 52
_cell_length_a 9.064097
_cell_length_b 14.016849
_cell_length_c 27.508203
_cell_angle_alpha 90.000000
_cell_angle_beta 90.000000
_cell_angle_gamma 90.000000
_cell_volume 3494.919363
_symmetry_space_group_name_H-M "P M M M"
_symmetry_group_IT_number 47
_symmetry_cell_setting 'orthorhombic'
loop_
_space_group_symop_operation_xyz
x,y,z
-x,-y,z
x,-y,-z
-x,y,-z
-x,-y,-z
x,y,-z
-x,y,z
x,-y,z
loop_
_atom_site_type_symbol
_atom_site_label
_atom_site_fract_x
_atom_site_fract_y
_atom_site_fract_z
Si Si1 0.177411 0.108591 0.610191
Si Si2 0.670163 0.116308 0.000000
Si Si3 0.323072 0.888284 0.801498
Si Si4 0.821375 0.703805 0.553834
Si Si5 0.178098 0.609511 0.654172
Si Si6 0.170032 0.116097 0.901358
Si Si7 0.677291 0.210292 0.299186
O O1 0.216341 0.188210 0.570072
O O2 0.256860 0.140134 0.659739
O O3 0.000000 0.114785 0.617438
O O4 0.213611 0.000000 0.596939
O O5 0.749510 0.148063 0.049436
O O6 0.500000 0.144815 0.000000
O O7 0.674582 0.000000 0.000000
O O8 0.500000 0.883988 0.807184
O O9 0.248489 0.854831 0.851405
O O10 0.281619 0.828148 0.754065
O O11 0.284063 0.000000 0.793569
O O12 0.765054 0.680640 0.500000
O O13 0.777184 0.636625 0.598727
O O14 0.000000 0.698544 0.551882
O O15 0.213931 0.500000 0.664812
O O16 0.255684 0.686370 0.688586
O O17 0.000000 0.621331 0.657263
O O18 0.000000 0.145096 0.901772
O O19 0.174946 0.000000 0.901808
O O20 0.500000 0.211847 0.302827
#
# Coordination Sequence:
#
# PCOD9382687 Si02
#       7
#     8   4   8   8   8   8   8
#     4   9  17  28  42  61  85 112 140 169 203 244
#     4   9  15  23  35  49  71 107 146 181 214 245
#     4   9  17  28  40  56  80 109 140 172 207 246
#     4   8  14  25  42  65  88 106 130 167 207 246
#     4   9  18  32  48  65  84 105 131 166 210 258
#     4   9  16  24  35  53  76 104 141 181 214 243
#     4  10  19  30  45  63  83 108 139 174 209 250
#
# _framework density 14.878741
#
# number of rings (size 3 to 8) (size 9 to 14) (size 15 to 20)
#    0.000    3.000    0.000    2.538    0.000    5.846 
#    0.000    4.615    0.000    7.385    0.000    8.615 
#    0.000    0.000    0.000    0.692    0.000   13.000 
#
# Total GULP energy -289575.524603 kJ/mol
# GULP energy per Si atom -5568.760089 kJ/mol
# Density = 1.484488 g / cm^3
# Si number density = 14.878741 Si / 1000 Ang^3
#
#
#
# Elastic Constant Matrix: (Units=GPa)
#
#
# Indices 1 2 3 4 5 6 
#
# 1 34.2539 18.2556 41.5932 0.0000 0.0000 0.0000
# 2 18.2556 55.3023 25.8057 0.0000 0.0000 0.0000
# 3 41.5932 25.8057 125.7874 0.0000 0.0000 0.0000
# 4 0.0000 0.0000 0.0000 10.6272 0.0000 0.0000
# 5 0.0000 0.0000 0.0000 0.0000 29.2938 0.0000
# 6 0.0000 0.0000 0.0000 0.0000 0.0000 13.9415
#
#
#
# Elastic Compliance Matrix: (Units=1/GPa)
#
#
# Indices 1 2 3 4 5 6 
#
# 1 0.053734 -0.010447 -0.015625 0.000000 0.000000 0.000000
# 2 -0.010447 0.022028 -0.001065 0.000000 0.000000 0.000000
# 3 -0.015625 -0.001065 0.013335 0.000000 0.000000 0.000000
# 4 0.000000 0.000000 0.000000 0.094098 0.000000 0.000000
# 5 0.000000 0.000000 0.000000 0.000000 0.034137 0.000000
# 6 0.000000 0.000000 0.000000 0.000000 0.000000 0.071728
#
#
# Mechanical properties :
#
#
# Convention : Reuss Voigt Hill
#
# Bulk Modulus (GPa) = 28.71574 42.96139 35.83856
# Shear Modulus (GPa) = 14.08689 19.41844 16.75266
#
# Velocity S-wave (km/s) = 3.08032 3.61655 3.35915
# Velocity P-wave (km/s) = 5.65622 6.81002 6.25976
#
# Compressibility (1/GPa) = 0.03482411
#
# Stress axis : x y z
#
# Youngs Moduli (GPa) = 18.61025 45.39708 74.99180
#
# Poissons Ratio (x) = 0.47426 1.17171
# Poissons Ratio (y) = 0.19442 0.07984
# Poissons Ratio (z) = 0.29078 0.04833
#
# Static dielectric constant tensor:
#      x y z
#    x 1.499210 0.000000 0.000000 
#    y 0.000000 1.475770 0.000000 
#    z 0.000000 0.000000 1.489310 
# 
# From -- ./inp_files/8026.got.cif
#   From: 2010.05.17/outbox.cif.g08.bks.cpg/sg47_5_cif.got.tgz:8026.got - 2010.06.03 20:15:42.
