data_PCOD9382130
_publ_section_title
;
Structure prediction by ZEFSAII (Michael W. Deem and Ramdas Pophale) SiO2 
 PCOD9382130
Probable space group: P M M M
;
_chemical_formula_sum "Si O2"
_cell_formula_units_Z 52
_cell_length_a 20.525419
_cell_length_b 7.319160
_cell_length_c 15.276179
_cell_angle_alpha 90.000000
_cell_angle_beta 90.000000
_cell_angle_gamma 90.000000
_cell_volume 2294.922433
_symmetry_space_group_name_H-M "P M M M"
_symmetry_group_IT_number 47
_symmetry_cell_setting 'orthorhombic'
loop_
_space_group_symop_operation_xyz
x,y,z
-x,-y,z
x,-y,-z
-x,y,-z
-x,-y,-z
x,y,-z
-x,y,z
x,-y,z
loop_
_atom_site_type_symbol
_atom_site_label
_atom_site_fract_x
_atom_site_fract_y
_atom_site_fract_z
Si Si1 0.500000 0.723730 0.601593
Si Si2 0.000000 0.786277 0.395390
Si Si3 0.139164 0.790639 0.348452
Si Si4 0.385891 0.707805 0.271691
Si Si5 0.075009 0.722483 0.000000
Si Si6 0.321121 0.276781 0.901158
Si Si7 0.174349 0.721149 0.849514
Si Si8 0.723640 0.778525 0.594946
O O1 0.500000 0.500000 0.597499
O O2 0.500000 0.784188 0.500000
O O3 0.561968 0.784958 0.659537
O O4 0.931763 0.706829 0.362370
O O5 0.000000 0.778295 0.500000
O O6 0.000000 0.000000 0.366843
O O7 0.158026 0.787970 0.246957
O O8 0.202100 0.713594 0.397108
O O9 0.133952 0.000000 0.380527
O O10 0.407712 0.500000 0.255546
O O11 0.368779 0.787415 0.176605
O O12 0.318481 0.707509 0.325137
O O13 0.117681 0.778250 0.083776
O O14 0.073641 0.500000 0.000000
O O15 0.000000 0.783680 0.000000
O O16 0.321538 0.500000 0.898567
O O17 0.246456 0.221836 0.880371
O O18 0.338258 0.222211 0.000000
O O19 0.174833 0.500000 0.847732
O O20 0.696068 0.726801 0.500000
O O21 0.723311 0.000000 0.600737
#
# Coordination Sequence:
#
# PCOD9382130 Si02
#       8
#     4   4   8   8   4   8   8   8
#     4   9  18  32  50  76 110 141 167 203 252 305
#     4   9  18  34  53  68  89 130 172 199 241 309
#     4  10  20  33  50  72  98 126 164 210 254 298
#     4  10  19  33  54  78 103 135 173 207 248 302
#     4   9  18  30  47  71  97 130 168 201 246 313
#     4   9  16  29  50  75 100 129 166 208 251 294
#     4  10  18  31  50  71  96 127 164 205 249 299
#     4  10  20  33  50  74 103 132 166 212 258 298
#
# _framework density 22.658716999999999
#
# number of rings (size 3 to 8) (size 9 to 14) (size 15 to 20)
#    0.000    2.385    2.308    0.923    1.077    2.769 
#    0.000    1.154    0.000    7.385    0.000    0.000 
#    0.000    1.231    0.000    0.000    0.000    0.000 
#
# Total GULP energy -290401.709554 kJ/mol
# GULP energy per Si atom -5584.648261 kJ/mol
# Density = 2.260714 g / cm^3
# Si number density = 22.658717 Si / 1000 Ang^3
#
#
#
# Elastic Constant Matrix: (Units=GPa)
#
#
# Indices 1 2 3 4 5 6 
#
# 1 132.8893 3.0795 68.4534 0.0000 0.0000 0.0000
# 2 3.0795 91.9349 -0.8664 0.0000 0.0000 0.0000
# 3 68.4534 -0.8664 177.1866 0.0000 0.0000 0.0000
# 4 0.0000 0.0000 0.0000 5.4486 0.0000 0.0000
# 5 0.0000 0.0000 0.0000 0.0000 41.2277 0.0000
# 6 0.0000 0.0000 0.0000 0.0000 0.0000 10.0744
#
#
#
# Elastic Compliance Matrix: (Units=1/GPa)
#
#
# Indices 1 2 3 4 5 6 
#
# 1 0.009406 -0.000349 -0.003636 0.000000 0.000000 0.000000
# 2 -0.000349 0.010891 0.000188 0.000000 0.000000 0.000000
# 3 -0.003636 0.000188 0.007049 0.000000 0.000000 0.000000
# 4 0.000000 0.000000 0.000000 0.183532 0.000000 0.000000
# 5 0.000000 0.000000 0.000000 0.000000 0.024256 0.000000
# 6 0.000000 0.000000 0.000000 0.000000 0.000000 0.099262
#
#
# Mechanical properties :
#
#
# Convention : Reuss Voigt Hill
#
# Bulk Modulus (GPa) = 50.62639 60.37154 55.49897
# Shear Modulus (GPa) = 14.34420 33.43977 23.89198
#
# Velocity S-wave (km/s) = 2.51879 3.84578 3.25072
# Velocity P-wave (km/s) = 5.55433 6.81335 6.21580
#
# Compressibility (1/GPa) = 0.01975254
#
# Stress axis : x y z
#
# Youngs Moduli (GPa) = 106.31654 91.82116 141.85970
#
# Poissons Ratio (x) = 0.03208 0.51573
# Poissons Ratio (y) = 0.03714 -0.02670
# Poissons Ratio (z) = 0.38652 -0.01728
#
# Static dielectric constant tensor:
#      x y z
#    x 1.830710 0.000000 0.000000 
#    y 0.000000 1.873870 0.000000 
#    z 0.000000 0.000000 1.809050 
# 
# From -- ./inp_files/25069.got.cif
#   From: 2010.05.17/outbox.cif.g08.bks.cpg/sg47_13_cif.got.tgz:25069.got - 2010.06.03 20:15:42.
