data_PCOD9382272
_publ_section_title
;
Structure prediction by ZEFSAII (Michael W. Deem and Ramdas Pophale) SiO2 
 PCOD9382272
Probable space group: P M M M
;
_chemical_formula_sum "Si O2"
_cell_formula_units_Z 48
_cell_length_a 16.283805
_cell_length_b 7.586998
_cell_length_c 17.556396
_cell_angle_alpha 90.000000
_cell_angle_beta 90.000000
_cell_angle_gamma 90.000000
_cell_volume 2169.008384
_symmetry_space_group_name_H-M "P M M M"
_symmetry_group_IT_number 47
_symmetry_cell_setting 'orthorhombic'
loop_
_space_group_symop_operation_xyz
x,y,z
-x,-y,z
x,-y,-z
-x,y,-z
-x,-y,-z
x,y,-z
-x,y,z
x,-y,z
loop_
_atom_site_type_symbol
_atom_site_label
_atom_site_fract_x
_atom_site_fract_y
_atom_site_fract_z
Si Si1 0.909409 0.284134 0.674627
Si Si2 0.405888 0.288674 0.000000
Si Si3 0.325615 0.796226 0.161102
Si Si4 0.254384 0.715672 0.412238
Si Si5 0.590348 0.710424 0.314239
Si Si6 0.857071 0.299483 0.162206
Si Si7 0.098071 0.703968 0.000000
O O1 0.906853 0.500000 0.675812
O O2 0.831553 0.226881 0.625136
O O3 0.896604 0.222826 0.761774
O O4 0.000000 0.232898 0.647011
O O5 0.360290 0.231432 0.923284
O O6 0.407011 0.500000 0.000000
O O7 0.500000 0.224467 0.000000
O O8 0.390242 0.742454 0.225544
O O9 0.240567 0.695454 0.173647
O O10 0.305849 0.000000 0.171806
O O11 0.260531 0.768702 0.500000
O O12 0.254444 0.500000 0.410125
O O13 0.332743 0.777300 0.363391
O O14 0.500000 0.780723 0.334006
O O15 0.588226 0.500000 0.325872
O O16 0.889922 0.500000 0.156603
O O17 0.873231 0.215096 0.079866
O O18 0.130057 0.500000 0.000000
O O19 0.000000 0.701450 0.000000
#
# Coordination Sequence:
#
# PCOD9382272 Si02
#       7
#     8   4   8   8   8   8   4
#     4   9  16  27  48  78 111 146 184 231 285 337
#     4  11  24  41  60  82 110 147 190 232 277 329
#     4  12  24  37  56  82 114 149 188 232 280 330
#     4   9  17  30  50  80 116 147 180 231 289 341
#     4  10  20  36  58  82 110 147 189 231 281 340
#     4  10  18  32  53  76 108 147 188 231 277 334
#     4   9  17  28  48  80 108 135 180 232 275 321
#
# _framework density 22.129929000000001
#
# number of rings (size 3 to 8) (size 9 to 14) (size 15 to 20)
#    0.000    2.000    1.667    3.250    0.000    6.333 
#    0.000    3.333    0.000    3.000    0.000    1.167 
#    0.000    1.333    0.000    0.000    0.000    0.000 
#
# Total GULP energy -268198.483181 kJ/mol
# GULP energy per Si atom -5587.468400 kJ/mol
# Density = 2.207956 g / cm^3
# Si number density = 22.129929 Si / 1000 Ang^3
#
#
#
# Elastic Constant Matrix: (Units=GPa)
#
#
# Indices 1 2 3 4 5 6 
#
# 1 174.8355 6.0157 83.4340 0.0000 0.0000 0.0000
# 2 6.0157 56.7135 -5.7065 0.0000 0.0000 0.0000
# 3 83.4340 -5.7065 147.5710 0.0000 0.0000 0.0000
# 4 0.0000 0.0000 0.0000 3.3891 0.0000 0.0000
# 5 0.0000 0.0000 0.0000 0.0000 16.9790 0.0000
# 6 0.0000 0.0000 0.0000 0.0000 0.0000 -24.2095
#
#
#
# Elastic Compliance Matrix: (Units=1/GPa)
#
#
# Indices 1 2 3 4 5 6 
#
# 1 0.007927 -0.001297 -0.004532 0.000000 0.000000 0.000000
# 2 -0.001297 0.017914 0.001426 0.000000 0.000000 0.000000
# 3 -0.004532 0.001426 0.009394 0.000000 0.000000 0.000000
# 4 0.000000 0.000000 0.000000 0.295065 0.000000 0.000000
# 5 0.000000 0.000000 0.000000 0.000000 0.058896 0.000000
# 6 0.000000 0.000000 0.000000 0.000000 0.000000 -0.041306
#
#
# Mechanical properties :
#
#
# Convention : Reuss Voigt Hill
#
# Bulk Modulus (GPa) = 37.83775 60.73404 49.28589
# Shear Modulus (GPa) = 13.67971 18.92349 16.30160
#
# Velocity S-wave (km/s) = 2.48897 2.92740 2.71704
# Velocity P-wave (km/s) = 5.03935 6.23940 5.67121
#
# Compressibility (1/GPa) = 0.02642863
#
# Stress axis : x y z
#
# Youngs Moduli (GPa) = 126.15141 55.82376 106.45313
#
# Poissons Ratio (x) = 0.07239 0.48244
# Poissons Ratio (y) = 0.16360 -0.15179
# Poissons Ratio (z) = 0.57171 -0.07960
#
# Static dielectric constant tensor:
#      x y z
#    x 1.796900 0.000000 0.000000 
#    y 0.000000 1.840460 0.000000 
#    z 0.000000 0.000000 1.788080 
# 
# From -- ./inp_files/9232.got.cif
#   From: 2010.05.17/outbox.cif.g08.bks.cpg/sg47_5_cif.got.tgz:9232.got - 2010.06.03 20:15:42.
