data_PCOD9382774
_publ_section_title
;
Structure prediction by ZEFSAII (Michael W. Deem and Ramdas Pophale) SiO2 
 PCOD9382774
Probable space group: P M M M
;
_chemical_formula_sum "Si O2"
_cell_formula_units_Z 33
_cell_length_a 8.521886
_cell_length_b 7.330022
_cell_length_c 24.347190
_cell_angle_alpha 90.000000
_cell_angle_beta 90.000000
_cell_angle_gamma 90.000000
_cell_volume 1520.862120
_symmetry_space_group_name_H-M "P M M M"
_symmetry_group_IT_number 47
_symmetry_cell_setting 'orthorhombic'
loop_
_space_group_symop_operation_xyz
x,y,z
-x,-y,z
x,-y,-z
-x,y,-z
-x,-y,-z
x,y,-z
-x,y,z
x,-y,z
loop_
_atom_site_type_symbol
_atom_site_label
_atom_site_fract_x
_atom_site_fract_y
_atom_site_fract_z
Si Si1 0.322461 0.220576 0.730017
Si Si2 0.681184 0.777645 0.500000
Si Si3 0.173646 0.711050 0.157608
Si Si4 0.500000 0.500000 0.000000
Si Si5 0.500000 0.296229 0.113341
Si Si6 0.179686 0.222253 0.615895
O O1 0.500000 0.276116 0.743482
O O2 0.204290 0.283094 0.777137
O O3 0.277900 0.280986 0.668816
O O4 0.317543 0.000000 0.730429
O O5 0.500000 0.726151 0.500000
O O6 0.759881 0.716480 0.556590
O O7 0.689170 0.000000 0.500000
O O8 0.168653 0.500000 0.139009
O O9 0.334171 0.790182 0.131456
O O10 0.000000 0.788282 0.145478
O O11 0.500000 0.343302 0.049046
O O12 0.500000 0.500000 0.140773
O O13 0.000000 0.275106 0.623571
O O14 0.186446 0.000000 0.615137
#
# Coordination Sequence:
#
# PCOD9382774 Si02
#       6
#     8   4   8   1   4   8
#     4  10  19  30  46  70  99 132 167 205 251 302
#     4   9  15  23  35  51  76 113 154 199 248 297
#     4  10  19  32  51  74 103 135 166 203 246 293
#     4   8  16  32  58  76 110 142 156 206 248 276
#     4   8  16  32  49  75 105 130 158 198 236 279
#     4   9  16  25  37  56  84 117 156 201 249 298
#
# _framework density 21.698219999999999
#
# number of rings (size 3 to 8) (size 9 to 14) (size 15 to 20)
#    0.364    2.303    1.212    1.818    0.000    5.818 
#    0.000    1.212    0.000    0.000    0.000    2.545 
#    0.000    8.727    0.000    0.000    0.000    0.000 
#
# Total GULP energy -183818.291030 kJ/mol
# GULP energy per Si atom -5570.251243 kJ/mol
# Density = 2.164883 g / cm^3
# Si number density = 21.698220 Si / 1000 Ang^3
#
#
#
# Elastic Constant Matrix: (Units=GPa)
#
#
# Indices 1 2 3 4 5 6 
#
# 1 180.2208 10.7946 53.2172 0.0000 0.0000 0.0000
# 2 10.7946 81.9543 2.4013 0.0000 0.0000 0.0000
# 3 53.2172 2.4013 135.2944 0.0000 0.0000 0.0000
# 4 0.0000 0.0000 0.0000 -0.2471 0.0000 0.0000
# 5 0.0000 0.0000 0.0000 0.0000 3.1737 0.0000
# 6 0.0000 0.0000 0.0000 0.0000 0.0000 -3.2368
#
#
#
# Elastic Compliance Matrix: (Units=1/GPa)
#
#
# Indices 1 2 3 4 5 6 
#
# 1 0.006325 -0.000761 -0.002474 0.000000 0.000000 0.000000
# 2 -0.000761 0.012300 0.000081 0.000000 0.000000 0.000000
# 3 -0.002474 0.000081 0.008363 0.000000 0.000000 0.000000
# 4 0.000000 0.000000 0.000000 -4.047022 0.000000 0.000000
# 5 0.000000 0.000000 0.000000 0.000000 0.315085 0.000000
# 6 0.000000 0.000000 0.000000 0.000000 0.000000 -0.308945
#
#
# Mechanical properties :
#
#
# Convention : Reuss Voigt Hill
#
# Bulk Modulus (GPa) = 48.35680 58.92176 53.63928
# Shear Modulus (GPa) = -1.24978 22.00839 10.37930
#
# Velocity S-wave (km/s) = -0.75976 3.18825 2.18949
# Velocity P-wave (km/s) = 4.64379 6.38493 5.58266
#
# Compressibility (1/GPa) = 0.02067961
#
# Stress axis : x y z
#
# Youngs Moduli (GPa) = 158.10367 81.30258 119.57233
#
# Poissons Ratio (x) = 0.06184 0.29587
# Poissons Ratio (y) = 0.12025 -0.00967
# Poissons Ratio (z) = 0.39121 -0.00657
#
# Static dielectric constant tensor:
#      x y z
#    x 1.807340 0.000000 0.000000 
#    y 0.000000 1.878800 0.000000 
#    z 0.000000 0.000000 1.743700 
# 
# From -- ./inp_files/29258.got.cif
#   From: 2010.05.17/outbox.cif.g08.bks.cpg/sg47_15_cif.got.tgz:29258.got - 2010.06.03 20:15:42.
