data_PCOD9382666
_publ_section_title
;
Structure prediction by ZEFSAII (Michael W. Deem and Ramdas Pophale) SiO2 
 PCOD9382666
Probable space group: P M M M
;
_chemical_formula_sum "Si O2"
_cell_formula_units_Z 56
_cell_length_a 13.949121
_cell_length_b 30.111036
_cell_length_c 8.982724
_cell_angle_alpha 90.000000
_cell_angle_beta 90.000000
_cell_angle_gamma 90.000000
_cell_volume 3772.946053
_symmetry_space_group_name_H-M "P M M M"
_symmetry_group_IT_number 47
_symmetry_cell_setting 'orthorhombic'
loop_
_space_group_symop_operation_xyz
x,y,z
-x,-y,z
x,-y,-z
-x,y,-z
-x,-y,-z
x,y,-z
-x,y,z
x,-y,z
loop_
_atom_site_type_symbol
_atom_site_label
_atom_site_fract_x
_atom_site_fract_y
_atom_site_fract_z
Si Si1 0.385418 0.269318 0.676121
Si Si2 0.391213 0.900584 0.320964
Si Si3 0.201168 0.950902 0.680263
Si Si4 0.616415 0.549058 0.674514
Si Si5 0.383398 0.639025 0.170590
Si Si6 0.890161 0.858622 0.320285
Si Si7 0.707131 0.183940 0.822361
O O1 0.369255 0.265163 0.500000
O O2 0.500000 0.264557 0.702790
O O3 0.356238 0.318155 0.732878
O O4 0.330612 0.230779 0.762657
O O5 0.385277 0.893758 0.500000
O O6 0.500000 0.913377 0.284751
O O7 0.310056 0.936613 0.281719
O O8 0.361503 0.854869 0.242123
O O9 0.195859 0.952657 0.500000
O O10 0.134798 0.909524 0.724771
O O11 0.177088 0.000000 0.737057
O O12 0.640561 0.553487 0.500000
O O13 0.500000 0.549062 0.682737
O O14 0.648036 0.500000 0.726827
O O15 0.650525 0.592000 0.763790
O O16 0.500000 0.637616 0.173124
O O17 0.353493 0.644634 0.000000
O O18 0.877514 0.855808 0.500000
O O19 0.812014 0.827792 0.241945
O O20 0.000000 0.848148 0.285139
O O21 0.707143 0.182769 0.000000
#
# Coordination Sequence:
#
# PCOD9382666 Si02
#       7
#     8   8   8   8   8   8   8
#     4  10  19  30  44  60  81 110 141 173 210 252
#     4   9  17  29  44  62  86 115 144 171 200 238
#     4   8  14  25  43  69  94 110 131 167 206 240
#     4   8  13  21  32  45  64  95 136 178 216 252
#     4   9  16  24  34  51  75 101 133 174 216 254
#     4   9  18  33  51  68  86 108 134 165 202 246
#     4  11  21  31  45  64  85 107 135 171 208 248
#
# _framework density 14.842513
#
# number of rings (size 3 to 8) (size 9 to 14) (size 15 to 20)
#    0.000    2.857    0.000    3.857    0.000    5.714 
#    0.000    4.286    0.000    6.857    0.000    8.000 
#    0.000    0.000    0.000    0.000    0.000    0.714 
#
# Total GULP energy -311902.126034 kJ/mol
# GULP energy per Si atom -5569.680822 kJ/mol
# Density = 1.480873 g / cm^3
# Si number density = 14.842513 Si / 1000 Ang^3
#
#
#
# Elastic Constant Matrix: (Units=GPa)
#
#
# Indices 1 2 3 4 5 6 
#
# 1 39.4897 10.5211 21.2643 0.0000 0.0000 0.0000
# 2 10.5211 90.0548 33.3490 0.0000 0.0000 0.0000
# 3 21.2643 33.3490 46.4455 0.0000 0.0000 0.0000
# 4 0.0000 0.0000 0.0000 -7.2816 0.0000 0.0000
# 5 0.0000 0.0000 0.0000 0.0000 9.3354 0.0000
# 6 0.0000 0.0000 0.0000 0.0000 0.0000 8.2127
#
#
#
# Elastic Compliance Matrix: (Units=1/GPa)
#
#
# Indices 1 2 3 4 5 6 
#
# 1 0.033998 0.002441 -0.017319 0.000000 0.000000 0.000000
# 2 0.002441 0.015302 -0.012105 0.000000 0.000000 0.000000
# 3 -0.017319 -0.012105 0.038151 0.000000 0.000000 0.000000
# 4 0.000000 0.000000 0.000000 -0.137332 0.000000 0.000000
# 5 0.000000 0.000000 0.000000 0.000000 0.107119 0.000000
# 6 0.000000 0.000000 0.000000 0.000000 0.000000 0.121763
#
#
# Mechanical properties :
#
#
# Convention : Reuss Voigt Hill
#
# Bulk Modulus (GPa) = 29.86207 34.02876 31.94542
# Shear Modulus (GPa) = 20.48113 9.44367 14.96240
#
# Velocity S-wave (km/s) = 3.71873 2.52515 3.17847
# Velocity P-wave (km/s) = 6.21301 5.61054 5.91945
#
# Compressibility (1/GPa) = 0.03348729
#
# Stress axis : x y z
#
# Youngs Moduli (GPa) = 29.41330 65.35204 26.21154
#
# Poissons Ratio (x) = -0.15955 0.45394
# Poissons Ratio (y) = -0.07181 0.31728
# Poissons Ratio (z) = 0.50939 0.79107
#
# Static dielectric constant tensor:
#      x y z
#    x 1.472660 0.000000 0.000000 
#    y 0.000000 1.498950 0.000000 
#    z 0.000000 0.000000 1.494430 
# 
# From -- ./inp_files/8108.got.cif
#   From: 2010.05.17/outbox.cif.g08.bks.cpg/sg47_5_cif.got.tgz:8108.got - 2010.06.03 20:15:42.
