data_PCOD9382668
_publ_section_title
;
Structure prediction by ZEFSAII (Michael W. Deem and Ramdas Pophale) SiO2 
 PCOD9382668
Probable space group: P M M M
;
_chemical_formula_sum "Si O2"
_cell_formula_units_Z 64
_cell_length_a 19.607818
_cell_length_b 7.444365
_cell_length_c 24.717311
_cell_angle_alpha 90.000000
_cell_angle_beta 90.000000
_cell_angle_gamma 90.000000
_cell_volume 3607.930373
_symmetry_space_group_name_H-M "P M M M"
_symmetry_group_IT_number 47
_symmetry_cell_setting 'orthorhombic'
loop_
_space_group_symop_operation_xyz
x,y,z
-x,-y,z
x,-y,-z
-x,y,-z
-x,-y,-z
x,y,-z
-x,y,z
x,-y,z
loop_
_atom_site_type_symbol
_atom_site_label
_atom_site_fract_x
_atom_site_fract_y
_atom_site_fract_z
Si Si1 0.654661 0.279800 0.332417
Si Si2 0.285817 0.789577 0.831095
Si Si3 0.211645 0.295329 0.278749
Si Si4 0.421114 0.281140 0.439491
Si Si5 0.076243 0.716996 0.104608
Si Si6 0.778737 0.789965 0.940995
Si Si7 0.923665 0.719528 0.230079
Si Si8 0.422947 0.716822 0.776301
O O1 0.655833 0.500000 0.331911
O O2 0.730858 0.216021 0.317896
O O3 0.625212 0.221175 0.389782
O O4 0.605753 0.226101 0.282546
O O5 0.247877 0.701172 0.780217
O O6 0.259592 0.715293 0.888222
O O7 0.366268 0.771723 0.820008
O O8 0.267670 0.000000 0.828377
O O9 0.200559 0.500000 0.297008
O O10 0.137627 0.214098 0.267534
O O11 0.400498 0.224348 0.500000
O O12 0.500000 0.228396 0.430937
O O13 0.420216 0.500000 0.439110
O O14 0.076578 0.500000 0.103534
O O15 0.140328 0.778602 0.070096
O O16 0.086695 0.772720 0.167314
O O17 0.000000 0.775047 0.087812
O O18 0.760082 0.000000 0.942906
O O19 0.763323 0.711451 0.000000
O O20 0.921369 0.500000 0.230073
O O21 0.000000 0.772806 0.246131
O O22 0.500000 0.780055 0.785388
O O23 0.424059 0.500000 0.775858
#
# Coordination Sequence:
#
# PCOD9382668 Si02
#       8
#     8   8   8   8   8   8   8   8
#     4   8  13  20  33  55  79 103 132 163 192 227
#     4  10  19  30  44  61  81 102 127 160 195 235
#     4   9  15  25  42  59  78 103 130 162 201 240
#     4   8  12  17  26  43  73 111 140 160 187 224
#     4   9  17  29  45  63  81 102 131 166 198 230
#     4  10  21  34  45  58  79 107 135 162 193 234
#     4   8  13  22  38  58  78 100 126 158 195 234
#     4   9  17  29  46  65  83 103 126 158 200 242
#
# _framework density 17.738700999999999
#
# number of rings (size 3 to 8) (size 9 to 14) (size 15 to 20)
#    0.000    3.125    1.250    2.625    0.000    3.000 
#    0.000    1.250    0.000    0.750    0.000    2.625 
#    0.000    8.500    0.000   34.500    0.000   25.000 
#
# Total GULP energy -356724.058154 kJ/mol
# GULP energy per Si atom -5573.813409 kJ/mol
# Density = 1.769833 g / cm^3
# Si number density = 17.738701 Si / 1000 Ang^3
#
#
#
# Elastic Constant Matrix: (Units=GPa)
#
#
# Indices 1 2 3 4 5 6 
#
# 1 116.4212 -5.8357 64.6570 0.0000 0.0000 0.0000
# 2 -5.8357 55.5314 -0.1164 0.0000 0.0000 0.0000
# 3 64.6570 -0.1164 121.6494 0.0000 0.0000 0.0000
# 4 0.0000 0.0000 0.0000 7.8161 0.0000 0.0000
# 5 0.0000 0.0000 0.0000 0.0000 24.4140 0.0000
# 6 0.0000 0.0000 0.0000 0.0000 0.0000 121.6117
#
#
#
# Elastic Compliance Matrix: (Units=1/GPa)
#
#
# Indices 1 2 3 4 5 6 
#
# 1 0.012277 0.001276 -0.006524 0.000000 0.000000 0.000000
# 2 0.001276 0.018141 -0.000661 0.000000 0.000000 0.000000
# 3 -0.006524 -0.000661 0.011687 0.000000 0.000000 0.000000
# 4 0.000000 0.000000 0.000000 0.127941 0.000000 0.000000
# 5 0.000000 0.000000 0.000000 0.000000 0.040960 0.000000
# 6 0.000000 0.000000 0.000000 0.000000 0.000000 0.008223
#
#
# Mechanical properties :
#
#
# Convention : Reuss Voigt Hill
#
# Bulk Modulus (GPa) = 33.01702 45.66799 39.34251
# Shear Modulus (GPa) = 20.73476 46.42816 33.58146
#
# Velocity S-wave (km/s) = 3.42263 5.12154 4.35572
# Velocity P-wave (km/s) = 5.85428 7.79579 6.89372
#
# Compressibility (1/GPa) = 0.03028741
#
# Stress axis : x y z
#
# Youngs Moduli (GPa) = 81.45546 55.12506 85.56402
#
# Poissons Ratio (x) = -0.07036 0.55821
# Poissons Ratio (y) = -0.10397 0.05656
# Poissons Ratio (z) = 0.53140 0.03644
#
# Static dielectric constant tensor:
#      x y z
#    x 1.621420 0.000000 0.000000 
#    y 0.000000 1.708970 0.000000 
#    z 0.000000 0.000000 1.592490 
# 
# From -- ./inp_files/11925.got.cif
#   From: 2010.05.17/outbox.cif.g08.bks.cpg/sg47_6_cif.got.tgz:11925.got - 2010.06.03 20:15:42.
