data_PCOD9382003
_publ_section_title
;
Structure prediction by ZEFSAII (Michael W. Deem and Ramdas Pophale) SiO2 
 PCOD9382003
Probable space group: P M M M
;
_chemical_formula_sum "Si O2"
_cell_formula_units_Z 56
_cell_length_a 8.657417
_cell_length_b 19.676834
_cell_length_c 19.095361
_cell_angle_alpha 90.000000
_cell_angle_beta 90.000000
_cell_angle_gamma 90.000000
_cell_volume 3252.905386
_symmetry_space_group_name_H-M "P M M M"
_symmetry_group_IT_number 47
_symmetry_cell_setting 'orthorhombic'
loop_
_space_group_symop_operation_xyz
x,y,z
-x,-y,z
x,-y,-z
-x,y,-z
-x,-y,-z
x,y,-z
-x,y,z
x,-y,z
loop_
_atom_site_type_symbol
_atom_site_label
_atom_site_fract_x
_atom_site_fract_y
_atom_site_fract_z
Si Si1 0.816226 0.707763 0.791804
Si Si2 0.685449 0.075903 0.840165
Si Si3 0.315246 0.215648 0.343022
Si Si4 0.184439 0.924244 0.683269
Si Si5 0.687685 0.650176 0.422306
Si Si6 0.687018 0.577694 0.280467
Si Si7 0.313250 0.211817 0.080188
O O1 0.748426 0.756977 0.731238
O O2 0.757538 0.632677 0.772047
O O3 0.755587 0.734010 0.866041
O O4 0.000000 0.710692 0.789172
O O5 0.500000 0.080213 0.829754
O O6 0.763469 0.082590 0.764319
O O7 0.731068 0.137110 0.890840
O O8 0.720169 0.000000 0.867441
O O9 0.500000 0.214481 0.338623
O O10 0.254518 0.140202 0.356320
O O11 0.269749 0.273197 0.399238
O O12 0.000000 0.920996 0.679814
O O13 0.234418 0.000000 0.659991
O O14 0.744190 0.633302 0.500000
O O15 0.500000 0.647741 0.423952
O O16 0.735004 0.600960 0.358933
O O17 0.500000 0.582821 0.277224
O O18 0.730891 0.500000 0.267013
O O19 0.500000 0.215871 0.082771
O O20 0.264438 0.220963 0.000000
#
# Coordination Sequence:
#
# PCOD9382003 Si02
#       7
#     8   8   8   8   8   8   8
#     4  11  21  33  51  73 100 133 168 207 247 290
#     4   9  17  29  46  68  96 130 165 203 249 300
#     4  10  18  30  50  72  96 129 170 210 249 294
#     4  10  19  29  44  68  96 126 164 212 261 302
#     4   8  15  28  48  77 108 133 160 198 241 286
#     4   9  18  33  55  81 106 133 163 197 239 289
#     4  10  20  33  50  72 100 134 170 210 254 300
#
# _framework density 17.21538
#
# number of rings (size 3 to 8) (size 9 to 14) (size 15 to 20)
#    0.000    2.429    1.429    3.000    0.000    2.000 
#    0.000    2.857    0.000   11.571    0.000   13.000 
#    0.000    0.000    0.000    0.000    0.000    0.000 
#
# Total GULP energy -312265.285779 kJ/mol
# GULP energy per Si atom -5576.165817 kJ/mol
# Density = 1.717620 g / cm^3
# Si number density = 17.215380 Si / 1000 Ang^3
#
#
#
# Elastic Constant Matrix: (Units=GPa)
#
#
# Indices 1 2 3 4 5 6 
#
# 1 29.1977 29.4470 10.8661 0.0000 0.0000 0.0000
# 2 29.4470 132.6513 28.6670 0.0000 0.0000 0.0000
# 3 10.8661 28.6670 46.7300 0.0000 0.0000 0.0000
# 4 0.0000 0.0000 0.0000 14.7767 0.0000 0.0000
# 5 0.0000 0.0000 0.0000 0.0000 -30.5164 0.0000
# 6 0.0000 0.0000 0.0000 0.0000 0.0000 17.4364
#
#
#
# Elastic Compliance Matrix: (Units=1/GPa)
#
#
# Indices 1 2 3 4 5 6 
#
# 1 0.045125 -0.008934 -0.005012 0.000000 0.000000 0.000000
# 2 -0.008934 0.010460 -0.004339 0.000000 0.000000 0.000000
# 3 -0.005012 -0.004339 0.025227 0.000000 0.000000 0.000000
# 4 0.000000 0.000000 0.000000 0.067674 0.000000 0.000000
# 5 0.000000 0.000000 0.000000 0.000000 -0.032769 0.000000
# 6 0.000000 0.000000 0.000000 0.000000 0.000000 0.057351
#
#
# Mechanical properties :
#
#
# Convention : Reuss Voigt Hill
#
# Bulk Modulus (GPa) = 22.60361 38.50437 30.55399
# Shear Modulus (GPa) = 22.28318 9.64595 15.96457
#
# Velocity S-wave (km/s) = 3.60165 2.36966 3.04853
# Velocity P-wave (km/s) = 5.51853 5.46826 5.49345
#
# Compressibility (1/GPa) = 0.04424072
#
# Stress axis : x y z
#
# Youngs Moduli (GPa) = 22.16074 95.60664 39.64031
#
# Poissons Ratio (x) = 0.85415 0.19868
# Poissons Ratio (y) = 0.19798 0.17200
# Poissons Ratio (z) = 0.11107 0.41485
#
# Static dielectric constant tensor:
#      x y z
#    x 1.577690 0.000000 0.000000 
#    y 0.000000 1.600790 0.000000 
#    z 0.000000 0.000000 1.562380 
# 
# From -- ./inp_files/9807.got.cif
#   From: 2010.05.17/outbox.cif.g08.bks.cpg/sg47_5_cif.got.tgz:9807.got - 2010.06.03 20:15:42.
