data_PCOD9382661
_publ_section_title
;
Structure prediction by ZEFSAII (Michael W. Deem and Ramdas Pophale) SiO2 
 PCOD9382661
Probable space group: P M M M
;
_chemical_formula_sum "Si O2"
_cell_formula_units_Z 48
_cell_length_a 21.129042
_cell_length_b 19.779887
_cell_length_c 9.028616
_cell_angle_alpha 90.000000
_cell_angle_beta 90.000000
_cell_angle_gamma 90.000000
_cell_volume 3773.330055
_symmetry_space_group_name_H-M "P M M M"
_symmetry_group_IT_number 47
_symmetry_cell_setting 'orthorhombic'
loop_
_space_group_symop_operation_xyz
x,y,z
-x,-y,z
x,-y,-z
-x,y,-z
-x,-y,-z
x,y,-z
-x,y,z
x,-y,z
loop_
_atom_site_type_symbol
_atom_site_label
_atom_site_fract_x
_atom_site_fract_y
_atom_site_fract_z
Si Si1 0.500000 0.417557 0.671399
Si Si2 0.119983 0.348107 0.823016
Si Si3 0.076197 0.213208 0.325491
Si Si4 0.000000 0.418980 0.326921
Si Si5 0.370830 0.417844 0.829555
Si Si6 0.923238 0.924872 0.827473
Si Si7 0.760572 0.580961 0.324236
O O1 0.500000 0.500000 0.673871
O O2 0.500000 0.397082 0.500000
O O3 0.436057 0.395311 0.753526
O O4 0.110013 0.271728 0.766646
O O5 0.061814 0.389938 0.752712
O O6 0.184417 0.379812 0.760588
O O7 0.117959 0.351525 0.000000
O O8 0.087841 0.221486 0.500000
O O9 0.096222 0.138895 0.270173
O O10 0.000000 0.219676 0.301762
O O11 0.000000 0.500000 0.321175
O O12 0.000000 0.397945 0.500000
O O13 0.372505 0.500000 0.830163
O O14 0.308260 0.399235 0.738348
O O15 0.366778 0.395653 0.000000
O O16 0.000000 0.925925 0.822865
O O17 0.901850 0.000000 0.779963
O O18 0.905687 0.915150 0.000000
O O19 0.764449 0.593114 0.500000
O O20 0.768381 0.500000 0.300569
#
# Coordination Sequence:
#
# PCOD9382661 Si02
#       7
#     4   8   8   4   8   8   8
#     4   9  15  23  37  57  79 101 123 147 182 227
#     4  12  23  33  46  60  75  97 126 162 201 242
#     4  10  19  30  44  59  78 100 124 156 192 232
#     4  11  23  37  49  59  72  91 120 161 207 249
#     4   9  16  26  40  58  78  98 122 153 188 228
#     4   8  14  25  41  60  81 101 120 145 180 223
#     4  10  20  33  46  58  75  99 126 160 202 244
#
# _framework density 12.720859000000001
#
# number of rings (size 3 to 8) (size 9 to 14) (size 15 to 20)
#    0.000    2.167    0.833    4.500    0.000    7.667 
#    0.000    1.667    0.000    0.000    0.000    0.000 
#    0.000    0.000    0.000    0.000    0.000    0.000 
#
# Total GULP energy -267661.199421 kJ/mol
# GULP energy per Si atom -5576.274988 kJ/mol
# Density = 1.269191 g / cm^3
# Si number density = 12.720859 Si / 1000 Ang^3
#
#
#
# Elastic Constant Matrix: (Units=GPa)
#
#
# Indices 1 2 3 4 5 6 
#
# 1 90.1249 35.0537 57.3969 0.0000 0.0000 0.0000
# 2 35.0537 60.4722 50.1494 0.0000 0.0000 0.0000
# 3 57.3969 50.1494 117.2331 0.0000 0.0000 0.0000
# 4 0.0000 0.0000 0.0000 18.4761 0.0000 0.0000
# 5 0.0000 0.0000 0.0000 0.0000 21.5386 0.0000
# 6 0.0000 0.0000 0.0000 0.0000 0.0000 -0.5974
#
#
#
# Elastic Compliance Matrix: (Units=1/GPa)
#
#
# Indices 1 2 3 4 5 6 
#
# 1 0.016893 -0.004546 -0.006326 0.000000 0.000000 0.000000
# 2 -0.004546 0.026852 -0.009261 0.000000 0.000000 0.000000
# 3 -0.006326 -0.009261 0.015589 0.000000 0.000000 0.000000
# 4 0.000000 0.000000 0.000000 0.054124 0.000000 0.000000
# 5 0.000000 0.000000 0.000000 0.000000 0.046428 0.000000
# 6 0.000000 0.000000 0.000000 0.000000 0.000000 -1.673982
#
#
# Mechanical properties :
#
#
# Convention : Reuss Voigt Hill
#
# Bulk Modulus (GPa) = 52.44512 61.44782 56.94647
# Shear Modulus (GPa) = -3.40721 16.23215 6.41247
#
# Velocity S-wave (km/s) = -1.63837 3.57603 2.24763
# Velocity P-wave (km/s) = 6.14314 8.09075 7.18326
#
# Compressibility (1/GPa) = 0.01906755
#
# Stress axis : x y z
#
# Youngs Moduli (GPa) = 59.19772 37.24176 64.14940
#
# Poissons Ratio (x) = 0.16930 0.40580
# Poissons Ratio (y) = 0.26912 0.59407
# Poissons Ratio (z) = 0.37448 0.34488
#
# Static dielectric constant tensor:
#      x y z
#    x 1.394780 0.000000 0.000000 
#    y 0.000000 1.407090 0.000000 
#    z 0.000000 0.000000 1.423100 
# 
# From -- ./inp_files/11415.got.cif
#   From: 2010.05.17/outbox.cif.g08.bks.cpg/sg47_6_cif.got.tgz:11415.got - 2010.06.03 20:15:42.
