data_PCOD9382147
_publ_section_title
;
Structure prediction by ZEFSAII (Michael W. Deem and Ramdas Pophale) SiO2 
 PCOD9382147
Probable space group: P M M M
;
_chemical_formula_sum "Si O2"
_cell_formula_units_Z 60
_cell_length_a 19.629111
_cell_length_b 7.437297
_cell_length_c 20.309310
_cell_angle_alpha 90.000000
_cell_angle_beta 90.000000
_cell_angle_gamma 90.000000
_cell_volume 2964.905969
_symmetry_space_group_name_H-M "P M M M"
_symmetry_group_IT_number 47
_symmetry_cell_setting 'orthorhombic'
loop_
_space_group_symop_operation_xyz
x,y,z
-x,-y,z
x,-y,-z
-x,y,-z
-x,-y,-z
x,y,-z
-x,y,z
x,-y,z
loop_
_atom_site_type_symbol
_atom_site_label
_atom_site_fract_x
_atom_site_fract_y
_atom_site_fract_z
Si Si1 0.723836 0.718984 0.301932
Si Si2 0.923694 0.000000 0.579699
Si Si3 0.278019 0.206249 0.930062
Si Si4 0.185528 0.298405 0.182902
Si Si5 0.425102 0.717838 0.740164
Si Si6 0.573720 0.716417 0.104457
Si Si7 0.920588 0.281044 0.925215
Si Si8 0.812904 0.286655 0.423425
O O1 0.722436 0.500000 0.294882
O O2 0.779490 0.783958 0.247832
O O3 0.646454 0.781813 0.289968
O O4 0.752198 0.760990 0.374005
O O5 0.879257 0.825815 0.597026
O O6 0.928500 0.000000 0.500000
O O7 0.000000 0.000000 0.606625
O O8 0.248425 0.307286 0.868028
O O9 0.359188 0.208993 0.927885
O O10 0.255389 0.000000 0.925362
O O11 0.255092 0.282928 0.000000
O O12 0.162445 0.500000 0.201249
O O13 0.126465 0.218493 0.135709
O O14 0.500000 0.779382 0.715353
O O15 0.425420 0.500000 0.734353
O O16 0.422736 0.759023 0.817880
O O17 0.500000 0.776734 0.079767
O O18 0.576248 0.500000 0.097771
O O19 0.915316 0.500000 0.925718
O O20 0.000000 0.235448 0.915296
O O21 0.901844 0.221561 0.000000
O O22 0.797773 0.245556 0.500000
O O23 0.825427 0.500000 0.418312
#
# Coordination Sequence:
#
# PCOD9382147 Si02
#       8
#     8   4   8   8   8   8   8   8
#     4   9  16  28  48  75 102 130 168 211 259 312
#     4   9  18  34  56  82 111 145 186 220 250 307
#     4  11  23  34  43  62  95 129 158 195 249 307
#     4  10  18  31  51  72  91 117 163 212 247 291
#     4   8  13  24  45  71  97 124 158 207 259 302
#     4   9  17  31  50  68  85 112 156 204 246 293
#     4   8  14  25  43  68  93 115 145 193 252 300
#     4   9  18  33  53  80 114 147 179 220 268 314
#
# _framework density 20.236730000000001
#
# number of rings (size 3 to 8) (size 9 to 14) (size 15 to 20)
#    0.000    2.867    1.333    2.000    0.000    2.400 
#    1.200    3.333    0.000    3.200    0.000    4.667 
#    0.000    1.600    0.000    0.133    0.000    0.000 
#
# Total GULP energy -334465.094755 kJ/mol
# GULP energy per Si atom -5574.418246 kJ/mol
# Density = 2.019067 g / cm^3
# Si number density = 20.236730 Si / 1000 Ang^3
#
#
#
# Elastic Constant Matrix: (Units=GPa)
#
#
# Indices 1 2 3 4 5 6 
#
# 1 167.6099 13.4937 67.1333 0.0000 0.0000 0.0000
# 2 13.4937 61.5555 17.5653 0.0000 0.0000 0.0000
# 3 67.1333 17.5653 98.2661 0.0000 0.0000 0.0000
# 4 0.0000 0.0000 0.0000 -3.8198 0.0000 0.0000
# 5 0.0000 0.0000 0.0000 0.0000 28.7919 0.0000
# 6 0.0000 0.0000 0.0000 0.0000 0.0000 -21.0530
#
#
#
# Elastic Compliance Matrix: (Units=1/GPa)
#
#
# Indices 1 2 3 4 5 6 
#
# 1 0.008216 -0.000210 -0.005576 0.000000 0.000000 0.000000
# 2 -0.000210 0.017124 -0.002917 0.000000 0.000000 0.000000
# 3 -0.005576 -0.002917 0.014507 0.000000 0.000000 0.000000
# 4 0.000000 0.000000 0.000000 -0.261797 0.000000 0.000000
# 5 0.000000 0.000000 0.000000 0.000000 0.034732 0.000000
# 6 0.000000 0.000000 0.000000 0.000000 0.000000 -0.047499
#
#
# Mechanical properties :
#
#
# Convention : Reuss Voigt Hill
#
# Bulk Modulus (GPa) = 44.56098 58.20178 51.38138
# Shear Modulus (GPa) = -23.82888 16.06645 -3.88121
#
# Velocity S-wave (km/s) = -3.43520 2.82072 -1.38639
# Velocity P-wave (km/s) = 2.51664 6.27946 4.78357
#
# Compressibility (1/GPa) = 0.02244116
#
# Stress axis : x y z
#
# Youngs Moduli (GPa) = 121.70778 58.39734 68.93151
#
# Poissons Ratio (x) = 0.01227 0.38434
# Poissons Ratio (y) = 0.02557 0.20110
# Poissons Ratio (z) = 0.67861 0.17037
#
# Static dielectric constant tensor:
#      x y z
#    x 1.737950 0.000000 0.000000 
#    y 0.000000 1.770250 0.000000 
#    z 0.000000 0.000000 1.697660 
# 
# From -- ./inp_files/28824.got.cif
#   From: 2010.05.17/outbox.cif.g08.bks.cpg/sg47_15_cif.got.tgz:28824.got - 2010.06.03 20:15:42.
