data_PCOD9382921
_publ_section_title
;
Structure prediction by ZEFSAII (Michael W. Deem and Ramdas Pophale) SiO2 
 PCOD9382921
Probable space group: P M M M
;
_chemical_formula_sum "Si O2"
_cell_formula_units_Z 64
_cell_length_a 23.926062
_cell_length_b 9.746322
_cell_length_c 15.232380
_cell_angle_alpha 90.000000
_cell_angle_beta 90.000000
_cell_angle_gamma 90.000000
_cell_volume 3552.055516
_symmetry_space_group_name_H-M "P M M M"
_symmetry_group_IT_number 47
_symmetry_cell_setting 'orthorhombic'
loop_
_space_group_symop_operation_xyz
x,y,z
-x,-y,z
x,-y,-z
-x,y,-z
-x,-y,-z
x,y,-z
-x,y,z
x,-y,z
loop_
_atom_site_type_symbol
_atom_site_label
_atom_site_fract_x
_atom_site_fract_y
_atom_site_fract_z
Si Si1 0.567936 0.155816 0.400004
Si Si2 0.863093 0.343255 0.400830
Si Si3 0.272801 0.342222 0.402399
Si Si4 0.732070 0.160215 0.238121
Si Si5 0.933770 0.342525 0.104219
Si Si6 0.135877 0.837221 0.764174
Si Si7 0.567417 0.658303 0.236457
Si Si8 0.635658 0.162210 0.896610
O O1 0.584616 0.188914 0.500000
O O2 0.500000 0.152895 0.399795
O O3 0.584236 0.264510 0.326381
O O4 0.586719 0.000000 0.378836
O O5 0.881818 0.310846 0.500000
O O6 0.880059 0.500000 0.379661
O O7 0.795225 0.342382 0.402510
O O8 0.880595 0.236112 0.327114
O O9 0.289929 0.294553 0.500000
O O10 0.290898 0.500000 0.391400
O O11 0.288470 0.249162 0.320416
O O12 0.797648 0.187643 0.222514
O O13 0.694678 0.185438 0.152509
O O14 0.726895 0.000000 0.261215
O O15 0.918694 0.500000 0.127633
O O16 0.898395 0.235461 0.159274
O O17 0.000000 0.325870 0.120495
O O18 0.924877 0.326398 0.000000
O O19 0.126833 0.000000 0.761104
O O20 0.500000 0.660266 0.232260
O O21 0.585822 0.500000 0.235620
O O22 0.592193 0.743717 0.155588
O O23 0.621809 0.000000 0.886250
O O24 0.638030 0.192062 0.000000
#
# Coordination Sequence:
#
# PCOD9382921 Si02
#       8
#     8   8   8   8   8   8   8   8
#     4   8  14  27  50  79 108 137 168 200 236 287
#     4   8  14  26  45  69  99 137 177 211 244 289
#     4   8  14  26  46  72 101 133 168 205 244 289
#     4   9  19  34  51  75 105 135 168 206 250 300
#     4   9  19  36  55  74  99 133 173 215 255 298
#     4  10  19  30  50  80 109 136 166 206 257 307
#     4  10  21  36  55  80 107 132 162 207 260 309
#     4  10  22  40  58  73  95 132 175 216 256 301
#
# _framework density 18.017734999999998
#
# number of rings (size 3 to 8) (size 9 to 14) (size 15 to 20)
#    0.000    3.000    0.000    2.250    0.000    4.000 
#    0.000    7.500    0.000    1.125    0.000    2.625 
#    0.000    0.000    0.000    0.000    0.000    0.000 
#
# Total GULP energy -356897.738531 kJ/mol
# GULP energy per Si atom -5576.527165 kJ/mol
# Density = 1.797673 g / cm^3
# Si number density = 18.017735 Si / 1000 Ang^3
#
#
#
# Elastic Constant Matrix: (Units=GPa)
#
#
# Indices 1 2 3 4 5 6 
#
# 1 43.2509 51.7389 42.8388 0.0000 0.0000 0.0000
# 2 51.7389 117.5401 103.5234 0.0000 0.0000 0.0000
# 3 42.8388 103.5234 146.7855 0.0000 0.0000 0.0000
# 4 0.0000 0.0000 0.0000 24.8358 0.0000 0.0000
# 5 0.0000 0.0000 0.0000 0.0000 75.5899 0.0000
# 6 0.0000 0.0000 0.0000 0.0000 0.0000 20.3639
#
#
#
# Elastic Compliance Matrix: (Units=1/GPa)
#
#
# Indices 1 2 3 4 5 6 
#
# 1 0.049158 -0.023764 0.002414 0.000000 0.000000 0.000000
# 2 -0.023764 0.033946 -0.017006 0.000000 0.000000 0.000000
# 3 0.002414 -0.017006 0.018102 0.000000 0.000000 0.000000
# 4 0.000000 0.000000 0.000000 0.040264 0.000000 0.000000
# 5 0.000000 0.000000 0.000000 0.000000 0.013229 0.000000
# 6 0.000000 0.000000 0.000000 0.000000 0.000000 0.049106
#
#
# Mechanical properties :
#
#
# Convention : Reuss Voigt Hill
#
# Bulk Modulus (GPa) = 40.82709 78.19766 59.51237
# Shear Modulus (GPa) = 17.31999 31.45626 24.38812
#
# Velocity S-wave (km/s) = 3.10381 4.18287 3.68307
# Velocity P-wave (km/s) = 5.96267 8.17454 7.15460
#
# Compressibility (1/GPa) = 0.02449354
#
# Stress axis : x y z
#
# Youngs Moduli (GPa) = 20.34237 29.45852 55.24316
#
# Poissons Ratio (x) = 0.70006 -0.13334
# Poissons Ratio (y) = 0.48342 0.93944
# Poissons Ratio (z) = -0.04910 0.50096
#
# Static dielectric constant tensor:
#      x y z
#    x 1.634270 0.000000 0.000000 
#    y 0.000000 1.605730 0.000000 
#    z 0.000000 0.000000 1.598570 
# 
# From -- ./inp_files/25581.got.cif
#   From: 2010.05.17/outbox.cif.g08.bks.cpg/sg47_13_cif.got.tgz:25581.got - 2010.06.03 20:15:42.
