data_PCOD9382924
_publ_section_title
;
Structure prediction by ZEFSAII (Michael W. Deem and Ramdas Pophale) SiO2 
 PCOD9382924
Probable space group: P M M M
;
_chemical_formula_sum "Si O2"
_cell_formula_units_Z 64
_cell_length_a 7.463370
_cell_length_b 16.012999
_cell_length_c 24.813021
_cell_angle_alpha 90.000000
_cell_angle_beta 90.000000
_cell_angle_gamma 90.000000
_cell_volume 2965.427373
_symmetry_space_group_name_H-M "P M M M"
_symmetry_group_IT_number 47
_symmetry_cell_setting 'orthorhombic'
loop_
_space_group_symop_operation_xyz
x,y,z
-x,-y,z
x,-y,-z
-x,y,-z
-x,-y,-z
x,y,-z
-x,y,z
x,-y,z
loop_
_atom_site_type_symbol
_atom_site_label
_atom_site_fract_x
_atom_site_fract_y
_atom_site_fract_z
Si Si1 0.709440 0.362253 0.941297
Si Si2 0.281338 0.905941 0.437897
Si Si3 0.281039 0.409196 0.824637
Si Si4 0.214893 0.166071 0.059268
Si Si5 0.287975 0.246415 0.634572
Si Si6 0.710996 0.091703 0.174148
Si Si7 0.720094 0.249046 0.242840
Si Si8 0.215723 0.594350 0.438542
O O1 0.500000 0.385656 0.943027
O O2 0.783208 0.399436 0.886242
O O3 0.720672 0.261751 0.935738
O O4 0.787384 0.384210 0.000000
O O5 0.226875 0.892454 0.500000
O O6 0.500000 0.904786 0.437635
O O7 0.216168 0.831443 0.400049
O O8 0.227704 0.000000 0.421632
O O9 0.500000 0.405891 0.826172
O O10 0.229868 0.500000 0.803291
O O11 0.221918 0.331758 0.788850
O O12 0.272906 0.114651 0.111146
O O13 0.000000 0.167884 0.059594
O O14 0.273228 0.134953 0.000000
O O15 0.500000 0.231666 0.639529
O O16 0.218801 0.249912 0.695449
O O17 0.266458 0.332764 0.602292
O O18 0.500000 0.087776 0.186379
O O19 0.782086 0.167472 0.210198
O O20 0.788342 0.000000 0.184345
O O21 0.500000 0.249510 0.242118
O O22 0.276732 0.612526 0.500000
O O23 0.276306 0.500000 0.424304
O O24 0.000000 0.592431 0.439766
#
# Coordination Sequence:
#
# PCOD9382924 Si02
#       8
#     8   8   8   8   8   8   8   8
#     4   9  16  28  49  73  96 123 159 203 247 297
#     4   8  14  25  42  68 102 132 157 194 247 299
#     4   9  16  27  46  70  97 127 157 197 248 296
#     4  10  20  33  51  75 102 130 161 204 261 314
#     4  10  19  30  51  79 104 133 172 215 253 297
#     4  10  20  35  55  75  98 133 174 211 249 299
#     4   9  18  32  47  72 106 132 161 205 252 292
#     4   9  19  36  55  75 104 141 175 210 258 311
#
# _framework density 21.582048
#
# number of rings (size 3 to 8) (size 9 to 14) (size 15 to 20)
#    0.000    2.750    1.250    1.500    0.000    3.500 
#    0.000    7.500    0.000    0.750    0.000    3.500 
#    0.000    0.000    0.000    0.000    0.000    0.000 
#
# Total GULP energy -357274.220514 kJ/mol
# GULP energy per Si atom -5582.409696 kJ/mol
# Density = 2.153293 g / cm^3
# Si number density = 21.582048 Si / 1000 Ang^3
#
#
#
# Elastic Constant Matrix: (Units=GPa)
#
#
# Indices 1 2 3 4 5 6 
#
# 1 63.5590 0.7561 1.6050 0.0000 0.0000 0.0000
# 2 0.7561 195.9923 131.7179 0.0000 0.0000 0.0000
# 3 1.6050 131.7179 174.6384 0.0000 0.0000 0.0000
# 4 0.0000 0.0000 0.0000 -7.5404 0.0000 0.0000
# 5 0.0000 0.0000 0.0000 0.0000 2.9793 0.0000
# 6 0.0000 0.0000 0.0000 0.0000 0.0000 10.3120
#
#
#
# Elastic Compliance Matrix: (Units=1/GPa)
#
#
# Indices 1 2 3 4 5 6 
#
# 1 0.015738 0.000074 -0.000200 0.000000 0.000000 0.000000
# 2 0.000074 0.010347 -0.007805 0.000000 0.000000 0.000000
# 3 -0.000200 -0.007805 0.011615 0.000000 0.000000 0.000000
# 4 0.000000 0.000000 0.000000 -0.132618 0.000000 0.000000
# 5 0.000000 0.000000 0.000000 0.000000 0.335650 0.000000
# 6 0.000000 0.000000 0.000000 0.000000 0.000000 0.096975
#
#
# Mechanical properties :
#
#
# Convention : Reuss Voigt Hill
#
# Bulk Modulus (GPa) = 45.79424 78.03865 61.91645
# Shear Modulus (GPa) = 13.85627 21.15754 17.50690
#
# Velocity S-wave (km/s) = 2.53657 3.13442 2.85121
# Velocity P-wave (km/s) = 5.46294 7.02403 6.29209
#
# Compressibility (1/GPa) = 0.02183681
#
# Stress axis : x y z
#
# Youngs Moduli (GPa) = 63.54209 96.64318 86.09760
#
# Poissons Ratio (x) = -0.00715 0.01726
# Poissons Ratio (y) = -0.00470 0.67199
# Poissons Ratio (z) = 0.01274 0.75430
#
# Static dielectric constant tensor:
#      x y z
#    x 1.854410 0.000000 0.000000 
#    y 0.000000 1.763850 0.000000 
#    z 0.000000 0.000000 1.689910 
# 
# From -- ./inp_files/32106.got.cif
#   From: 2010.05.17/outbox.cif.g08.bks.cpg/sg47_17_cif.got.tgz:32106.got - 2010.06.03 20:15:42.
