data_PCOD9382273
_publ_section_title
;
Structure prediction by ZEFSAII (Michael W. Deem and Ramdas Pophale) SiO2 
 PCOD9382273
Probable space group: P M M M
;
_chemical_formula_sum "Si O2"
_cell_formula_units_Z 52
_cell_length_a 20.100029
_cell_length_b 15.461808
_cell_length_c 8.826924
_cell_angle_alpha 90.000000
_cell_angle_beta 90.000000
_cell_angle_gamma 90.000000
_cell_volume 2743.256061
_symmetry_space_group_name_H-M "P M M M"
_symmetry_group_IT_number 47
_symmetry_cell_setting 'orthorhombic'
loop_
_space_group_symop_operation_xyz
x,y,z
-x,-y,z
x,-y,-z
-x,y,-z
-x,-y,-z
x,y,-z
-x,y,z
x,-y,z
loop_
_atom_site_type_symbol
_atom_site_label
_atom_site_fract_x
_atom_site_fract_y
_atom_site_fract_z
Si Si1 0.727527 0.600436 0.318674
Si Si2 0.684884 0.225864 0.820255
Si Si3 0.000000 0.400254 0.830025
Si Si4 0.420964 0.900374 0.679910
Si Si5 0.921527 0.145399 0.826210
Si Si6 0.865218 0.660414 0.823665
Si Si7 0.790603 0.095662 0.320616
O O1 0.723098 0.603395 0.500000
O O2 0.715269 0.500000 0.271456
O O3 0.682979 0.677683 0.249531
O O4 0.800811 0.630324 0.264834
O O5 0.622139 0.168505 0.770324
O O6 0.748480 0.170859 0.760042
O O7 0.690652 0.233255 0.000000
O O8 0.931350 0.379733 0.752123
O O9 0.000000 0.500000 0.855575
O O10 0.000000 0.355762 0.000000
O O11 0.406363 0.891813 0.500000
O O12 0.500000 0.887831 0.700117
O O13 0.405756 0.000000 0.722696
O O14 0.887448 0.240010 0.826808
O O15 0.868599 0.096371 0.722720
O O16 0.000000 0.148007 0.781555
O O17 0.919670 0.113098 0.000000
O O18 0.856804 0.632290 0.000000
O O19 0.783475 0.107788 0.500000
O O20 0.763993 0.000000 0.279845
#
# Coordination Sequence:
#
# PCOD9382273 Si02
#       7
#     8   8   4   8   8   8   8
#     4  11  24  40  58  82 113 150 194 243 294 349
#     4  12  24  38  61  91 123 158 196 242 294 344
#     4   9  16  26  45  73 102 133 172 222 284 356
#     4   9  19  38  65  97 133 170 202 232 275 336
#     4  10  20  35  55  79 108 144 189 241 299 361
#     4  10  18  32  53  77 103 136 181 233 292 354
#     4  11  24  40  58  81 111 150 197 246 297 355
#
# _framework density 18.955576000000001
#
# number of rings (size 3 to 8) (size 9 to 14) (size 15 to 20)
#    0.000    1.615    2.308    3.692    0.000    6.154 
#    0.000    2.692    0.000    1.846    0.000    3.231 
#    0.000    0.000    0.000    0.000    0.000    0.000 
#
# Total GULP energy -289946.067600 kJ/mol
# GULP energy per Si atom -5575.885915 kJ/mol
# Density = 1.891243 g / cm^3
# Si number density = 18.955576 Si / 1000 Ang^3
#
#
#
# Elastic Constant Matrix: (Units=GPa)
#
#
# Indices 1 2 3 4 5 6 
#
# 1 70.9303 42.5261 30.1952 0.0000 0.0000 0.0000
# 2 42.5261 139.2577 55.9717 0.0000 0.0000 0.0000
# 3 30.1952 55.9717 68.6570 0.0000 0.0000 0.0000
# 4 0.0000 0.0000 0.0000 -7.7154 0.0000 0.0000
# 5 0.0000 0.0000 0.0000 0.0000 33.2040 0.0000
# 6 0.0000 0.0000 0.0000 0.0000 0.0000 -52.7219
#
#
#
# Elastic Compliance Matrix: (Units=1/GPa)
#
#
# Indices 1 2 3 4 5 6 
#
# 1 0.018442 -0.003528 -0.005235 0.000000 0.000000 0.000000
# 2 -0.003528 0.011355 -0.007706 0.000000 0.000000 0.000000
# 3 -0.005235 -0.007706 0.023149 0.000000 0.000000 0.000000
# 4 0.000000 0.000000 0.000000 -0.129610 0.000000 0.000000
# 5 0.000000 0.000000 0.000000 0.000000 0.030117 0.000000
# 6 0.000000 0.000000 0.000000 0.000000 0.000000 -0.018967
#
#
# Mechanical properties :
#
#
# Convention : Reuss Voigt Hill
#
# Bulk Modulus (GPa) = 49.97485 59.58124 54.77804
# Shear Modulus (GPa) = -192.99471 4.56347 -94.21562
#
# Velocity S-wave (km/s) = -10.10125 1.55328 -7.05771
# Velocity P-wave (km/s) = 10.47022 5.89213 6.11998
#
# Compressibility (1/GPa) = 0.02001007
#
# Stress axis : x y z
#
# Youngs Moduli (GPa) = 54.22461 88.06355 43.19748
#
# Poissons Ratio (x) = 0.31066 0.22613
# Poissons Ratio (y) = 0.19129 0.33287
# Poissons Ratio (z) = 0.28385 0.67861
#
# Static dielectric constant tensor:
#      x y z
#    x 1.660790 0.000000 0.000000 
#    y 0.000000 1.711900 0.000000 
#    z 0.000000 0.000000 1.663300 
# 
# From -- ./inp_files/10980.got.cif
#   From: 2010.05.17/outbox.cif.g08.bks.cpg/sg47_6_cif.got.tgz:10980.got - 2010.06.03 20:15:42.
