data_PCOD9382029
_publ_section_title
;
Structure prediction by ZEFSAII (Michael W. Deem and Ramdas Pophale) SiO2 
 PCOD9382029
Probable space group: P M M M
;
_chemical_formula_sum "Si O2"
_cell_formula_units_Z 64
_cell_length_a 20.797051
_cell_length_b 7.602558
_cell_length_c 20.961071
_cell_angle_alpha 90.000000
_cell_angle_beta 90.000000
_cell_angle_gamma 90.000000
_cell_volume 3314.171421
_symmetry_space_group_name_H-M "P M M M"
_symmetry_group_IT_number 47
_symmetry_cell_setting 'orthorhombic'
loop_
_space_group_symop_operation_xyz
x,y,z
-x,-y,z
x,-y,-z
-x,y,-z
-x,-y,-z
x,y,-z
-x,y,z
x,-y,z
loop_
_atom_site_type_symbol
_atom_site_label
_atom_site_fract_x
_atom_site_fract_y
_atom_site_fract_z
Si Si1 0.928001 0.293059 0.805164
Si Si2 0.569810 0.710071 0.099762
Si Si3 0.568618 0.710533 0.253909
Si Si4 0.851888 0.206066 0.068612
Si Si5 0.292608 0.715049 0.257588
Si Si6 0.840789 0.709813 0.309052
Si Si7 0.927856 0.788282 0.572570
Si Si8 0.290147 0.287002 0.108130
O O1 0.934514 0.500000 0.791538
O O2 0.888041 0.280405 0.870258
O O3 0.886909 0.216832 0.746663
O O4 0.000000 0.218987 0.810682
O O5 0.500000 0.779653 0.077295
O O6 0.569064 0.500000 0.086345
O O7 0.570152 0.730691 0.176847
O O8 0.640796 0.775760 0.080699
O O9 0.500000 0.782868 0.276605
O O10 0.567568 0.500000 0.265008
O O11 0.636797 0.778144 0.278750
O O12 0.775145 0.228131 0.075331
O O13 0.866333 0.000000 0.068702
O O14 0.871970 0.281490 0.000000
O O15 0.294547 0.500000 0.258663
O O16 0.231570 0.776499 0.297889
O O17 0.284417 0.763257 0.182968
O O18 0.836293 0.500000 0.299591
O O19 0.874251 0.738335 0.376627
O O20 0.915744 0.727462 0.500000
O O21 0.000000 0.727533 0.591661
O O22 0.929762 0.000000 0.571013
O O23 0.291678 0.500000 0.105740
#
# Coordination Sequence:
#
# PCOD9382029 Si02
#       8
#     8   8   8   8   8   8   8   8
#     4  10  21  37  56  76  95 117 149 189 236 292
#     4   7  10  17  35  65  92 112 141 184 230 273
#     4   7   9  14  27  52  87 122 149 173 211 265
#     4  11  24  38  50  66  90 120 156 199 243 288
#     4   8  13  22  39  64  94 122 147 183 228 270
#     4  10  18  30  50  76 103 125 150 188 232 277
#     4   9  19  35  51  68  95 131 166 195 224 265
#     4   9  15  28  49  68  90 120 153 191 235 282
#
# _framework density 19.311011000000001
#
# number of rings (size 3 to 8) (size 9 to 14) (size 15 to 20)
#    0.000    3.125    1.250    3.375    0.000    3.000 
#    0.000    1.875    0.000    0.750    0.000    2.625 
#    0.000    1.000    0.000    6.250    0.000    1.250 
#
# Total GULP energy -356583.752617 kJ/mol
# GULP energy per Si atom -5571.621135 kJ/mol
# Density = 1.926706 g / cm^3
# Si number density = 19.311011 Si / 1000 Ang^3
#
#
#
# Elastic Constant Matrix: (Units=GPa)
#
#
# Indices 1 2 3 4 5 6 
#
# 1 185.0987 4.7137 69.1482 0.0000 0.0000 0.0000
# 2 4.7137 37.2721 -2.4483 0.0000 0.0000 0.0000
# 3 69.1482 -2.4483 74.7807 0.0000 0.0000 0.0000
# 4 0.0000 0.0000 0.0000 7.5314 0.0000 0.0000
# 5 0.0000 0.0000 0.0000 0.0000 66.4530 0.0000
# 6 0.0000 0.0000 0.0000 0.0000 0.0000 -30.0617
#
#
#
# Elastic Compliance Matrix: (Units=1/GPa)
#
#
# Indices 1 2 3 4 5 6 
#
# 1 0.008344 -0.001565 -0.007767 0.000000 0.000000 0.000000
# 2 -0.001565 0.027181 0.002337 0.000000 0.000000 0.000000
# 3 -0.007767 0.002337 0.020631 0.000000 0.000000 0.000000
# 4 0.000000 0.000000 0.000000 0.132778 0.000000 0.000000
# 5 0.000000 0.000000 0.000000 0.000000 0.015048 0.000000
# 6 0.000000 0.000000 0.000000 0.000000 0.000000 -0.033265
#
#
# Mechanical properties :
#
#
# Convention : Reuss Voigt Hill
#
# Bulk Modulus (GPa) = 23.71559 48.88651 36.30105
# Shear Modulus (GPa) = 25.15582 23.83374 24.49478
#
# Velocity S-wave (km/s) = 3.61316 3.51694 3.56537
# Velocity P-wave (km/s) = 5.45107 6.47009 5.98232
#
# Compressibility (1/GPa) = 0.04216635
#
# Stress axis : x y z
#
# Youngs Moduli (GPa) = 119.84973 36.79015 48.47181
#
# Poissons Ratio (x) = 0.05759 0.37646
# Poissons Ratio (y) = 0.18761 -0.11330
# Poissons Ratio (z) = 0.93082 -0.08599
#
# Static dielectric constant tensor:
#      x y z
#    x 1.739670 0.000000 0.000000 
#    y 0.000000 1.716990 0.000000 
#    z 0.000000 0.000000 1.651540 
# 
# From -- ./inp_files/31542.got.cif
#   From: 2010.05.17/outbox.cif.g08.bks.cpg/sg47_16_cif.got.tgz:31542.got - 2010.06.03 20:15:42.
