data_PCOD9382178
_publ_section_title
;
Structure prediction by ZEFSAII (Michael W. Deem and Ramdas Pophale) SiO2 
 PCOD9382178
Probable space group: P M M M
;
_chemical_formula_sum "Si O2"
_cell_formula_units_Z 64
_cell_length_a 21.788212
_cell_length_b 20.015322
_cell_length_c 7.580417
_cell_angle_alpha 90.000000
_cell_angle_beta 90.000000
_cell_angle_gamma 90.000000
_cell_volume 3305.805292
_symmetry_space_group_name_H-M "P M M M"
_symmetry_group_IT_number 47
_symmetry_cell_setting 'orthorhombic'
loop_
_space_group_symop_operation_xyz
x,y,z
-x,-y,z
x,-y,-z
-x,y,-z
-x,-y,-z
x,y,-z
-x,y,z
x,-y,z
loop_
_atom_site_type_symbol
_atom_site_label
_atom_site_fract_x
_atom_site_fract_y
_atom_site_fract_z
Si Si1 0.566813 0.216822 0.794366
Si Si2 0.188661 0.787927 0.216465
Si Si3 0.264628 0.425310 0.712949
Si Si4 0.067243 0.285384 0.792006
Si Si5 0.613574 0.074545 0.707723
Si Si6 0.757430 0.925892 0.213106
Si Si7 0.122822 0.425259 0.713166
Si Si8 0.688442 0.714971 0.207205
O O1 0.500000 0.231399 0.715350
O O2 0.579239 0.137515 0.787779
O O3 0.626397 0.253598 0.715765
O O4 0.564156 0.236543 0.000000
O O5 0.125590 0.755085 0.280537
O O6 0.200620 0.864341 0.270028
O O7 0.248330 0.746456 0.278262
O O8 0.187742 0.785258 0.000000
O O9 0.264536 0.424600 0.500000
O O10 0.282768 0.500000 0.769979
O O11 0.193730 0.414386 0.770035
O O12 0.306032 0.364428 0.775053
O O13 0.082144 0.363914 0.774629
O O14 0.000000 0.270778 0.716127
O O15 0.064847 0.270056 0.000000
O O16 0.600220 0.074635 0.500000
O O17 0.686695 0.085065 0.732503
O O18 0.599248 0.000000 0.777355
O O19 0.775697 0.000000 0.274326
O O20 0.757684 0.926009 0.000000
O O21 0.122330 0.424851 0.500000
O O22 0.104216 0.500000 0.770031
O O23 0.688439 0.732785 0.000000
#
# Coordination Sequence:
#
# PCOD9382178 Si02
#       8
#     8   8   8   8   8   8   8   8
#     4  10  21  36  52  71  97 129 164 201 240 284
#     4   9  16  29  48  71  95 120 157 201 237 275
#     4   9  18  32  50  74 101 126 156 196 240 285
#     4  10  20  32  46  66  95 129 159 192 236 282
#     4  10  20  32  47  71 103 133 161 196 238 284
#     4   9  16  29  51  73  94 124 162 201 240 282
#     4   9  18  32  48  67  94 126 158 193 232 275
#     4  10  18  31  52  75  96 122 159 201 241 281
#
# _framework density 19.359881999999999
#
# number of rings (size 3 to 8) (size 9 to 14) (size 15 to 20)
#    0.000    2.500    2.500    1.125    0.000    2.750 
#    0.000    4.375    0.000    0.750    0.000    5.250 
#    0.000    0.000    0.000    4.250    0.000    4.500 
#
# Total GULP energy -357048.236088 kJ/mol
# GULP energy per Si atom -5578.878689 kJ/mol
# Density = 1.931582 g / cm^3
# Si number density = 19.359882 Si / 1000 Ang^3
#
#
#
# Elastic Constant Matrix: (Units=GPa)
#
#
# Indices 1 2 3 4 5 6 
#
# 1 148.1720 78.1650 7.2142 0.0000 0.0000 0.0000
# 2 78.1650 107.2622 -6.1051 0.0000 0.0000 0.0000
# 3 7.2142 -6.1051 42.4189 0.0000 0.0000 0.0000
# 4 0.0000 0.0000 0.0000 28.5008 0.0000 0.0000
# 5 0.0000 0.0000 0.0000 0.0000 -6.3989 0.0000
# 6 0.0000 0.0000 0.0000 0.0000 0.0000 16.1610
#
#
#
# Elastic Compliance Matrix: (Units=1/GPa)
#
#
# Indices 1 2 3 4 5 6 
#
# 1 0.011367 -0.008462 -0.003151 0.000000 0.000000 0.000000
# 2 -0.008462 0.015700 0.003699 0.000000 0.000000 0.000000
# 3 -0.003151 0.003699 0.024643 0.000000 0.000000 0.000000
# 4 0.000000 0.000000 0.000000 0.035087 0.000000 0.000000
# 5 0.000000 0.000000 0.000000 0.000000 -0.156276 0.000000
# 6 0.000000 0.000000 0.000000 0.000000 0.000000 0.061878
#
#
# Mechanical properties :
#
#
# Convention : Reuss Voigt Hill
#
# Bulk Modulus (GPa) = 27.87052 50.71126 39.29089
# Shear Modulus (GPa) = 247.68832 22.22451 134.95641
#
# Velocity S-wave (km/s) = 11.32328 3.39184 8.35827
# Velocity P-wave (km/s) = 13.61554 6.44906 10.65301
#
# Compressibility (1/GPa) = 0.03588021
#
# Stress axis : x y z
#
# Youngs Moduli (GPa) = 87.97765 63.69300 40.58001
#
# Poissons Ratio (x) = 0.53900 0.12787
# Poissons Ratio (y) = 0.74451 -0.15010
# Poissons Ratio (z) = 0.27722 -0.23559
#
# Static dielectric constant tensor:
#      x y z
#    x 1.681480 0.000000 0.000000 
#    y 0.000000 1.680120 0.000000 
#    z 0.000000 0.000000 1.775140 
# 
# From -- ./inp_files/9927.got.cif
#   From: 2010.05.17/outbox.cif.g08.bks.cpg/sg47_5_cif.got.tgz:9927.got - 2010.06.03 20:15:42.
