data_PCOD9382963
_publ_section_title
;
Structure prediction by ZEFSAII (Michael W. Deem and Ramdas Pophale) SiO2 
 PCOD9382963
Probable space group: P M M M
;
_chemical_formula_sum "Si O2"
_cell_formula_units_Z 40
_cell_length_a 17.312806
_cell_length_b 8.925540
_cell_length_c 18.616315
_cell_angle_alpha 90.000000
_cell_angle_beta 90.000000
_cell_angle_gamma 90.000000
_cell_volume 2876.707344
_symmetry_space_group_name_H-M "P M M M"
_symmetry_group_IT_number 47
_symmetry_cell_setting 'orthorhombic'
loop_
_space_group_symop_operation_xyz
x,y,z
-x,-y,z
x,-y,-z
-x,y,-z
-x,-y,-z
x,y,-z
-x,y,z
x,-y,z
loop_
_atom_site_type_symbol
_atom_site_label
_atom_site_fract_x
_atom_site_fract_y
_atom_site_fract_z
Si Si1 0.661547 0.179087 0.085272
Si Si2 0.091293 0.821527 0.728131
Si Si3 0.911870 0.317971 0.000000
Si Si4 0.500000 0.672627 0.087167
Si Si5 0.906411 0.325199 0.420597
Si Si6 0.816086 0.680173 0.858978
O O1 0.578592 0.243952 0.108406
O O2 0.731308 0.252777 0.128750
O O3 0.662456 0.000000 0.092260
O O4 0.672010 0.215164 0.000000
O O5 0.116750 0.769380 0.648626
O O6 0.141591 0.740823 0.788512
O O7 0.000000 0.781888 0.736825
O O8 0.097977 0.000000 0.734798
O O9 0.866669 0.272397 0.071546
O O10 0.913579 0.500000 0.000000
O O11 0.000000 0.264205 0.000000
O O12 0.500000 0.500000 0.110804
O O13 0.500000 0.673323 0.000000
O O14 0.879741 0.274922 0.500000
O O15 0.885111 0.500000 0.411428
O O16 0.000000 0.319731 0.422177
O O17 0.812523 0.500000 0.857433
#
# Coordination Sequence:
#
# PCOD9382963 Si02
#       6
#     8   8   4   4   8   8
#     4  10  19  31  46  64  87 110 136 173 221 266
#     4  10  20  31  42  60  86 114 145 181 223 265
#     4   9  18  30  43  58  75 102 145 191 226 253
#     4   9  17  29  47  67  85 105 136 171 208 257
#     4   8  14  26  44  63  81 104 137 175 214 258
#     4  11  20  31  46  61  82 111 148 187 221 257
#
# _framework density 13.904787000000001
#
# number of rings (size 3 to 8) (size 9 to 14) (size 15 to 20)
#    0.000    2.400    1.000    3.300    0.000    4.400 
#    0.000    2.000    0.000    2.400    0.000    0.000 
#    0.000    0.000    0.000    0.900    0.000   16.600 
#
# Total GULP energy -222963.534484 kJ/mol
# GULP energy per Si atom -5574.088362 kJ/mol
# Density = 1.387314 g / cm^3
# Si number density = 13.904787 Si / 1000 Ang^3
#
#
#
# Elastic Constant Matrix: (Units=GPa)
#
#
# Indices 1 2 3 4 5 6 
#
# 1 101.3864 44.0809 51.3073 0.0000 0.0000 0.0000
# 2 44.0809 59.4028 44.2450 0.0000 0.0000 0.0000
# 3 51.3073 44.2450 98.1607 0.0000 0.0000 0.0000
# 4 0.0000 0.0000 0.0000 17.7470 0.0000 0.0000
# 5 0.0000 0.0000 0.0000 0.0000 2.3606 0.0000
# 6 0.0000 0.0000 0.0000 0.0000 0.0000 21.4140
#
#
#
# Elastic Compliance Matrix: (Units=1/GPa)
#
#
# Indices 1 2 3 4 5 6 
#
# 1 0.015763 -0.008371 -0.004466 0.000000 0.000000 0.000000
# 2 -0.008371 0.029787 -0.009051 0.000000 0.000000 0.000000
# 3 -0.004466 -0.009051 0.016601 0.000000 0.000000 0.000000
# 4 0.000000 0.000000 0.000000 0.056348 0.000000 0.000000
# 5 0.000000 0.000000 0.000000 0.000000 0.423619 0.000000
# 6 0.000000 0.000000 0.000000 0.000000 0.000000 0.046698
#
#
# Mechanical properties :
#
#
# Convention : Reuss Voigt Hill
#
# Bulk Modulus (GPa) = 54.41890 59.80182 57.11036
# Shear Modulus (GPa) = 7.82819 16.25876 12.04348
#
# Velocity S-wave (km/s) = 2.37531 3.42320 2.94622
# Velocity P-wave (km/s) = 6.83700 7.66328 7.26190
#
# Compressibility (1/GPa) = 0.01837597
#
# Stress axis : x y z
#
# Youngs Moduli (GPa) = 63.44114 33.57134 60.23573
#
# Poissons Ratio (x) = 0.28101 0.26901
# Poissons Ratio (y) = 0.53104 0.54521
# Poissons Ratio (z) = 0.28333 0.30386
#
# Static dielectric constant tensor:
#      x y z
#    x 1.438010 0.000000 0.000000 
#    y 0.000000 1.460040 0.000000 
#    z 0.000000 0.000000 1.451140 
# 
# From -- ./inp_files/9363.got.cif
#   From: 2010.05.17/outbox.cif.g08.bks.cpg/sg47_5_cif.got.tgz:9363.got - 2010.06.03 20:15:42.
