data_PCOD9382594
_publ_section_title
;
Structure prediction by ZEFSAII (Michael W. Deem and Ramdas Pophale) SiO2 
 PCOD9382594
Probable space group: P M M M
;
_chemical_formula_sum "Si O2"
_cell_formula_units_Z 52
_cell_length_a 19.361345
_cell_length_b 7.834882
_cell_length_c 19.421904
_cell_angle_alpha 90.000000
_cell_angle_beta 90.000000
_cell_angle_gamma 90.000000
_cell_volume 2946.183459
_symmetry_space_group_name_H-M "P M M M"
_symmetry_group_IT_number 47
_symmetry_cell_setting 'orthorhombic'
loop_
_space_group_symop_operation_xyz
x,y,z
-x,-y,z
x,-y,-z
-x,y,-z
-x,-y,-z
x,y,-z
-x,y,z
x,-y,z
loop_
_atom_site_type_symbol
_atom_site_label
_atom_site_fract_x
_atom_site_fract_y
_atom_site_fract_z
Si Si1 0.500000 0.195527 0.916274
Si Si2 0.283019 0.802650 0.212209
Si Si3 0.786499 0.697968 0.348372
Si Si4 0.076843 0.203892 0.577648
Si Si5 0.423239 0.293143 0.284872
Si Si6 0.351544 0.708414 0.577612
Si Si7 0.651449 0.210068 0.920952
O O1 0.574504 0.273091 0.899403
O O2 0.500000 0.000000 0.890908
O O3 0.500000 0.187875 0.000000
O O4 0.233492 0.719225 0.268483
O O5 0.360410 0.786676 0.243011
O O6 0.292284 0.734008 0.134863
O O7 0.263153 0.000000 0.208479
O O8 0.786689 0.500000 0.364826
O O9 0.860972 0.761808 0.370751
O O10 0.722375 0.772096 0.392779
O O11 0.093075 0.268037 0.500000
O O12 0.000000 0.268017 0.596866
O O13 0.072128 0.000000 0.573100
O O14 0.500000 0.240915 0.263503
O O15 0.418097 0.500000 0.278769
O O16 0.408223 0.248643 0.364798
O O17 0.363876 0.767502 0.500000
O O18 0.349556 0.500000 0.576078
O O19 0.648655 0.000000 0.919468
O O20 0.664467 0.259096 0.000000
#
# Coordination Sequence:
#
# PCOD9382594 Si02
#       7
#     4   8   8   8   8   8   8
#     4   7  10  18  32  52  79 105 130 171 228 279
#     4  10  19  29  45  65  85 113 150 189 232 278
#     4  10  19  31  46  65  93 124 155 185 216 262
#     4   9  18  32  50  74 103 129 151 182 225 264
#     4   9  18  30  41  56  81 110 140 182 235 282
#     4   8  14  25  41  59  76 100 140 184 220 252
#     4   8  14  24  39  61  86 109 140 187 237 282
#
# _framework density 17.649951999999999
#
# number of rings (size 3 to 8) (size 9 to 14) (size 15 to 20)
#    0.000    3.154    0.000    3.692    1.077    1.846 
#    0.000    2.308    0.000    6.000    0.000    5.385 
#    0.000    0.615    0.000    7.077    0.000    2.000 
#
# Total GULP energy -289661.740189 kJ/mol
# GULP energy per Si atom -5570.418081 kJ/mol
# Density = 1.760978 g / cm^3
# Si number density = 17.649952 Si / 1000 Ang^3
#
#
#
# Elastic Constant Matrix: (Units=GPa)
#
#
# Indices 1 2 3 4 5 6 
#
# 1 84.1649 1.9214 25.1474 0.0000 0.0000 0.0000
# 2 1.9214 17.6814 -7.6789 0.0000 0.0000 0.0000
# 3 25.1474 -7.6789 78.4923 0.0000 0.0000 0.0000
# 4 0.0000 0.0000 0.0000 -16.8844 0.0000 0.0000
# 5 0.0000 0.0000 0.0000 0.0000 17.7956 0.0000
# 6 0.0000 0.0000 0.0000 0.0000 0.0000 12.8939
#
#
#
# Elastic Compliance Matrix: (Units=1/GPa)
#
#
# Indices 1 2 3 4 5 6 
#
# 1 0.013338 -0.003452 -0.004611 0.000000 0.000000 0.000000
# 2 -0.003452 0.059959 0.006972 0.000000 0.000000 0.000000
# 3 -0.004611 0.006972 0.014899 0.000000 0.000000 0.000000
# 4 0.000000 0.000000 0.000000 -0.059226 0.000000 0.000000
# 5 0.000000 0.000000 0.000000 0.000000 0.056194 0.000000
# 6 0.000000 0.000000 0.000000 0.000000 0.000000 0.077556
#
#
# Mechanical properties :
#
#
# Convention : Reuss Voigt Hill
#
# Bulk Modulus (GPa) = 11.62593 24.34650 17.98622
# Shear Modulus (GPa) = 25.82994 13.49094 19.66044
#
# Velocity S-wave (km/s) = 3.82967 2.76771 3.34115
# Velocity P-wave (km/s) = 5.11433 4.90282 5.00969
#
# Compressibility (1/GPa) = 0.08601463
#
# Stress axis : x y z
#
# Youngs Moduli (GPa) = 74.97422 16.67796 67.11679
#
# Poissons Ratio (x) = 0.05757 0.30947
# Poissons Ratio (y) = 0.25880 -0.46792
# Poissons Ratio (z) = 0.34570 -0.11627
#
# Static dielectric constant tensor:
#      x y z
#    x 1.601570 0.000000 0.000000 
#    y 0.000000 1.642120 0.000000 
#    z 0.000000 0.000000 1.636830 
# 
# From -- ./inp_files/31292.got.cif
#   From: 2010.05.17/outbox.cif.g08.bks.cpg/sg47_16_cif.got.tgz:31292.got - 2010.06.03 20:15:42.
