data_PCOD9382479
_publ_section_title
;
Structure prediction by ZEFSAII (Michael W. Deem and Ramdas Pophale) SiO2 
 PCOD9382479
Probable space group: P M M M
;
_chemical_formula_sum "Si O2"
_cell_formula_units_Z 48
_cell_length_a 21.134132
_cell_length_b 19.809520
_cell_length_c 9.231671
_cell_angle_alpha 90.000000
_cell_angle_beta 90.000000
_cell_angle_gamma 90.000000
_cell_volume 3864.903783
_symmetry_space_group_name_H-M "P M M M"
_symmetry_group_IT_number 47
_symmetry_cell_setting 'orthorhombic'
loop_
_space_group_symop_operation_xyz
x,y,z
-x,-y,z
x,-y,-z
-x,y,-z
-x,-y,-z
x,y,-z
-x,y,z
x,-y,z
loop_
_atom_site_type_symbol
_atom_site_label
_atom_site_fract_x
_atom_site_fract_y
_atom_site_fract_z
Si Si1 0.115294 0.344864 0.826357
Si Si2 0.000000 0.580883 0.330183
Si Si3 0.500000 0.582319 0.832986
Si Si4 0.923224 0.075453 0.168079
Si Si5 0.373580 0.582157 0.666722
Si Si6 0.076466 0.789419 0.670367
Si Si7 0.754307 0.579181 0.827650
O O1 0.108072 0.270190 0.761596
O O2 0.183528 0.377535 0.795230
O O3 0.061248 0.389196 0.749352
O O4 0.105796 0.344632 0.000000
O O5 0.000000 0.500000 0.322123
O O6 0.000000 0.601071 0.500000
O O7 0.500000 0.500000 0.830906
O O8 0.436220 0.604391 0.751968
O O9 0.500000 0.603250 0.000000
O O10 0.903760 0.137512 0.268348
O O11 0.000000 0.074554 0.171231
O O12 0.902157 0.000000 0.211790
O O13 0.905146 0.086674 0.000000
O O14 0.375671 0.603522 0.500000
O O15 0.374277 0.500000 0.669155
O O16 0.308212 0.602068 0.743178
O O17 0.089975 0.783144 0.500000
O O18 0.000000 0.783170 0.688531
O O19 0.766348 0.500000 0.792886
O O20 0.742125 0.582855 0.000000
#
# Coordination Sequence:
#
# PCOD9382479 Si02
#       7
#     8   4   4   8   8   8   8
#     4  11  21  32  46  58  71  95 126 160 195 235
#     4  11  23  35  45  57  72  89 116 159 207 247
#     4   9  15  23  37  55  75  97 117 141 174 213
#     4   8  14  25  41  59  77  96 118 143 174 217
#     4   9  16  25  38  56  75  94 116 144 181 224
#     4  10  19  29  41  57  78  98 119 151 190 230
#     4   9  18  31  43  55  71  92 122 158 195 234
#
# _framework density 12.419456
#
# number of rings (size 3 to 8) (size 9 to 14) (size 15 to 20)
#    0.000    2.500    0.833    3.000    0.000    6.667 
#    0.000    3.333    0.000    0.000    0.000    0.000 
#    0.000    0.000    0.000    0.000    0.000    0.000 
#
# Total GULP energy -267487.189271 kJ/mol
# GULP energy per Si atom -5572.649776 kJ/mol
# Density = 1.239119 g / cm^3
# Si number density = 12.419456 Si / 1000 Ang^3
#
#
#
# Elastic Constant Matrix: (Units=GPa)
#
#
# Indices 1 2 3 4 5 6 
#
# 1 92.4852 36.6650 67.1442 0.0000 0.0000 0.0000
# 2 36.6650 65.2368 46.3944 0.0000 0.0000 0.0000
# 3 67.1442 46.3944 91.6332 0.0000 0.0000 0.0000
# 4 0.0000 0.0000 0.0000 16.1949 0.0000 0.0000
# 5 0.0000 0.0000 0.0000 0.0000 9.3676 0.0000
# 6 0.0000 0.0000 0.0000 0.0000 0.0000 1.1145
#
#
#
# Elastic Compliance Matrix: (Units=1/GPa)
#
#
# Indices 1 2 3 4 5 6 
#
# 1 0.023194 -0.001483 -0.016244 0.000000 0.000000 0.000000
# 2 -0.001483 0.024049 -0.011089 0.000000 0.000000 0.000000
# 3 -0.016244 -0.011089 0.028431 0.000000 0.000000 0.000000
# 4 0.000000 0.000000 0.000000 0.061748 0.000000 0.000000
# 5 0.000000 0.000000 0.000000 0.000000 0.106751 0.000000
# 6 0.000000 0.000000 0.000000 0.000000 0.000000 0.897295
#
#
# Mechanical properties :
#
#
# Convention : Reuss Voigt Hill
#
# Bulk Modulus (GPa) = 55.43315 61.08473 58.25894
# Shear Modulus (GPa) = 4.14898 11.94550 8.04724
#
# Velocity S-wave (km/s) = 1.82974 3.10472 2.54826
# Velocity P-wave (km/s) = 7.01391 7.88314 7.46119
#
# Compressibility (1/GPa) = 0.01803975
#
# Stress axis : x y z
#
# Youngs Moduli (GPa) = 43.11457 41.58243 35.17325
#
# Poissons Ratio (x) = 0.06167 0.57137
# Poissons Ratio (y) = 0.06395 0.39004
# Poissons Ratio (z) = 0.70037 0.46111
#
# Static dielectric constant tensor:
#      x y z
#    x 1.382460 0.000000 0.000000 
#    y 0.000000 1.392580 0.000000 
#    z 0.000000 0.000000 1.414520 
# 
# From -- ./inp_files/9713.got.cif
#   From: 2010.05.17/outbox.cif.g08.bks.cpg/sg47_5_cif.got.tgz:9713.got - 2010.06.03 20:15:42.
