data_PCOD9382319
_publ_section_title
;
Structure prediction by ZEFSAII (Michael W. Deem and Ramdas Pophale) SiO2 
 PCOD9382319
Probable space group: P M M M
;
_chemical_formula_sum "Si O2"
_cell_formula_units_Z 56
_cell_length_a 9.216751
_cell_length_b 21.211602
_cell_length_c 15.506213
_cell_angle_alpha 90.000000
_cell_angle_beta 90.000000
_cell_angle_gamma 90.000000
_cell_volume 3031.496490
_symmetry_space_group_name_H-M "P M M M"
_symmetry_group_IT_number 47
_symmetry_cell_setting 'orthorhombic'
loop_
_space_group_symop_operation_xyz
x,y,z
-x,-y,z
x,-y,-z
-x,y,-z
-x,-y,-z
x,y,-z
-x,y,z
x,-y,z
loop_
_atom_site_type_symbol
_atom_site_label
_atom_site_fract_x
_atom_site_fract_y
_atom_site_fract_z
Si Si1 0.172949 0.071323 0.646662
Si Si2 0.676401 0.500000 0.099749
Si Si3 0.169199 0.742111 0.243195
Si Si4 0.671106 0.198563 0.597837
Si Si5 0.675759 0.380752 0.782558
Si Si6 0.672207 0.928040 0.000000
Si Si7 0.324694 0.574813 0.593835
Si Si8 0.834013 0.880379 0.163715
O O1 0.262211 0.128125 0.604729
O O2 0.195494 0.079753 0.749520
O O3 0.000000 0.080766 0.630909
O O4 0.210714 0.000000 0.620090
O O5 0.500000 0.500000 0.098372
O O6 0.718431 0.562270 0.153863
O O7 0.725598 0.500000 0.000000
O O8 0.246735 0.757858 0.333851
O O9 0.251312 0.685542 0.196084
O O10 0.177787 0.807565 0.191265
O O11 0.000000 0.727250 0.256157
O O12 0.688287 0.221249 0.500000
O O13 0.500000 0.196805 0.618364
O O14 0.500000 0.376337 0.783912
O O15 0.723708 0.395577 0.683888
O O16 0.730283 0.895864 0.914098
O O17 0.500000 0.927694 0.000000
O O18 0.725174 0.000000 0.000000
O O19 0.271690 0.598525 0.500000
O O20 0.500000 0.581401 0.593150
O O21 0.294509 0.500000 0.597796
O O22 0.000000 0.893266 0.137826
#
# Coordination Sequence:
#
# PCOD9382319 Si02
#       8
#     8   4   8   8   8   4   8   8
#     4   9  18  33  54  79 107 143 185 226 273 328
#     4   9  18  34  56  84 116 145 179 224 272 327
#     4  10  22  39  57  78 107 145 185 226 275 328
#     4  10  21  36  54  78 109 145 187 232 273 319
#     4  10  18  32  56  82 109 143 182 226 274 325
#     4  11  23  35  53  85 115 134 163 216 279 333
#     4   8  13  23  43  73 105 135 169 211 260 313
#     4   9  19  37  56  73 101 143 185 220 261 322
#
# _framework density 18.472723999999999
#
# number of rings (size 3 to 8) (size 9 to 14) (size 15 to 20)
#    0.000    2.571    0.714    2.786    0.000    6.286 
#    1.286    3.214    0.000    0.429    0.000    1.000 
#    0.000    0.000    0.000    0.000    0.000    0.000 
#
# Total GULP energy -312323.635452 kJ/mol
# GULP energy per Si atom -5577.207776 kJ/mol
# Density = 1.843068 g / cm^3
# Si number density = 18.472724 Si / 1000 Ang^3
#
#
#
# Elastic Constant Matrix: (Units=GPa)
#
#
# Indices 1 2 3 4 5 6 
#
# 1 51.5925 30.7609 39.9593 0.0000 0.0000 0.0000
# 2 30.7609 86.3131 28.9401 0.0000 0.0000 0.0000
# 3 39.9593 28.9401 80.7238 0.0000 0.0000 0.0000
# 4 0.0000 0.0000 0.0000 -4.5493 0.0000 0.0000
# 5 0.0000 0.0000 0.0000 0.0000 20.2599 0.0000
# 6 0.0000 0.0000 0.0000 0.0000 0.0000 16.7309
#
#
#
# Elastic Compliance Matrix: (Units=1/GPa)
#
#
# Indices 1 2 3 4 5 6 
#
# 1 0.035392 -0.007660 -0.014773 0.000000 0.000000 0.000000
# 2 -0.007660 0.014826 -0.001524 0.000000 0.000000 0.000000
# 3 -0.014773 -0.001524 0.020247 0.000000 0.000000 0.000000
# 4 0.000000 0.000000 0.000000 -0.219813 0.000000 0.000000
# 5 0.000000 0.000000 0.000000 0.000000 0.049359 0.000000
# 6 0.000000 0.000000 0.000000 0.000000 0.000000 0.059770
#
#
# Mechanical properties :
#
#
# Convention : Reuss Voigt Hill
#
# Bulk Modulus (GPa) = 44.34232 46.43888 45.39060
# Shear Modulus (GPa) = 328.68598 14.41956 171.55277
#
# Velocity S-wave (km/s) = 13.35353 2.79693 9.64727
# Velocity P-wave (km/s) = 16.18060 5.96860 12.19500
#
# Compressibility (1/GPa) = 0.02255182
#
# Stress axis : x y z
#
# Youngs Moduli (GPa) = 28.25506 67.44692 49.38967
#
# Poissons Ratio (x) = 0.51663 0.72965
# Poissons Ratio (y) = 0.21643 0.07525
# Poissons Ratio (z) = 0.41742 0.10277
#
# Static dielectric constant tensor:
#      x y z
#    x 1.608280 0.000000 0.000000 
#    y 0.000000 1.638220 0.000000 
#    z 0.000000 0.000000 1.641010 
# 
# From -- ./inp_files/21610.got.cif
#   From: 2010.05.17/outbox.cif.g08.bks.cpg/sg47_11_cif.got.tgz:21610.got - 2010.06.03 20:15:42.
