data_PCOD9382211
_publ_section_title
;
Structure prediction by ZEFSAII (Michael W. Deem and Ramdas Pophale) SiO2 
 PCOD9382211
Probable space group: P M M M
;
_chemical_formula_sum "Si O2"
_cell_formula_units_Z 52
_cell_length_a 8.505449
_cell_length_b 27.993958
_cell_length_c 12.530433
_cell_angle_alpha 90.000000
_cell_angle_beta 90.000000
_cell_angle_gamma 90.000000
_cell_volume 2983.510909
_symmetry_space_group_name_H-M "P M M M"
_symmetry_group_IT_number 47
_symmetry_cell_setting 'orthorhombic'
loop_
_space_group_symop_operation_xyz
x,y,z
-x,-y,z
x,-y,-z
-x,y,-z
-x,-y,-z
x,y,-z
-x,y,z
x,-y,z
loop_
_atom_site_type_symbol
_atom_site_label
_atom_site_fract_x
_atom_site_fract_y
_atom_site_fract_z
Si Si1 0.189848 0.909806 0.266470
Si Si2 0.687250 0.175121 0.122956
Si Si3 0.188980 0.555705 0.000000
Si Si4 0.311211 0.379947 0.805685
Si Si5 0.185092 0.279367 0.873450
Si Si6 0.691458 0.447333 0.621810
Si Si7 0.808179 0.056059 0.500000
Si Si8 0.191783 0.000000 0.123284
O O1 0.244352 0.861811 0.208198
O O2 0.242843 0.919260 0.388742
O O3 0.241292 0.953558 0.190129
O O4 0.000000 0.910189 0.268642
O O5 0.500000 0.170387 0.121356
O O6 0.732389 0.229349 0.152181
O O7 0.745257 0.166346 0.000000
O O8 0.250559 0.585359 0.101070
O O9 0.240379 0.500000 0.000000
O O10 0.000000 0.556476 0.000000
O O11 0.500000 0.379060 0.810243
O O12 0.249835 0.326387 0.817347
O O13 0.256709 0.404875 0.696871
O O14 0.000000 0.274384 0.853854
O O15 0.208984 0.287497 0.000000
O O16 0.743045 0.442344 0.500000
O O17 0.500000 0.447180 0.621653
O O18 0.740014 0.500000 0.661731
O O19 0.000000 0.056640 0.500000
O O20 0.762246 0.000000 0.500000
O O21 0.000000 0.000000 0.121261
O O22 0.244944 0.000000 0.000000
#
# Coordination Sequence:
#
# PCOD9382211 Si02
#       8
#     8   8   4   8   8   8   4   4
#     4  10  18  31  53  79 108 141 179 219 261 310
#     4  10  21  36  54  77 106 136 173 219 267 314
#     4  11  23  35  47  71 111 151 181 214 261 314
#     4  11  20  31  53  80 106 136 174 218 264 315
#     4  10  20  35  55  77 104 138 174 211 261 321
#     4   8  15  29  49  74 103 134 169 209 254 305
#     4   9  16  30  53  81 109 143 183 221 258 307
#     4   9  16  25  44  76 109 139 174 213 252 306
#
# _framework density 17.429131000000002
#
# number of rings (size 3 to 8) (size 9 to 14) (size 15 to 20)
#    0.000    2.231    1.538    3.000    0.000    3.385 
#    0.000    0.769    1.692    3.692    0.000    5.385 
#    0.000    0.000    0.000    0.000    0.000    0.000 
#
# Total GULP energy -290029.096953 kJ/mol
# GULP energy per Si atom -5577.482634 kJ/mol
# Density = 1.738946 g / cm^3
# Si number density = 17.429131 Si / 1000 Ang^3
#
#
#
# Elastic Constant Matrix: (Units=GPa)
#
#
# Indices 1 2 3 4 5 6 
#
# 1 8.9807 32.4630 24.3620 0.0000 0.0000 0.0000
# 2 32.4630 125.9803 80.0350 0.0000 0.0000 0.0000
# 3 24.3620 80.0350 122.9029 0.0000 0.0000 0.0000
# 4 0.0000 0.0000 0.0000 34.1472 0.0000 0.0000
# 5 0.0000 0.0000 0.0000 0.0000 7.5867 0.0000
# 6 0.0000 0.0000 0.0000 0.0000 0.0000 -10.2209
#
#
#
# Elastic Compliance Matrix: (Units=1/GPa)
#
#
# Indices 1 2 3 4 5 6 
#
# 1 2.371860 -0.533013 -0.123052 0.000000 0.000000 0.000000
# 2 -0.533013 0.133319 0.018836 0.000000 0.000000 0.000000
# 3 -0.123052 0.018836 0.020262 0.000000 0.000000 0.000000
# 4 0.000000 0.000000 0.000000 0.029285 0.000000 0.000000
# 5 0.000000 0.000000 0.000000 0.000000 0.131809 0.000000
# 6 0.000000 0.000000 0.000000 0.000000 0.000000 -0.097839
#
#
# Mechanical properties :
#
#
# Convention : Reuss Voigt Hill
#
# Bulk Modulus (GPa) = 0.79937 59.06485 29.93211
# Shear Modulus (GPa) = 1.16818 14.36953 7.76886
#
# Velocity S-wave (km/s) = 0.81957 2.87445 2.11355
# Velocity P-wave (km/s) = 1.16415 6.70662 4.81321
#
# Compressibility (1/GPa) = 1.25098300
#
# Stress axis : x y z
#
# Youngs Moduli (GPa) = 0.42161 7.50078 49.35368
#
# Poissons Ratio (x) = 3.99801 6.07309
# Poissons Ratio (y) = 0.22472 -0.92963
# Poissons Ratio (z) = 0.05188 -0.14129
#
# Static dielectric constant tensor:
#      x y z
#    x 1.600250 0.000000 0.000000 
#    y 0.000000 1.663690 0.000000 
#    z 0.000000 0.000000 1.595530 
# 
# From -- ./inp_files/15497.got.cif
#   From: 2010.05.17/outbox.cif.g08.bks.cpg/sg47_8_cif.got.tgz:15497.got - 2010.06.03 20:15:42.
