data_PCOD9382794
_publ_section_title
;
Structure prediction by ZEFSAII (Michael W. Deem and Ramdas Pophale) SiO2 
 PCOD9382794
Probable space group: P M M M
;
_chemical_formula_sum "Si O2"
_cell_formula_units_Z 56
_cell_length_a 8.665863
_cell_length_b 14.192645
_cell_length_c 30.222002
_cell_angle_alpha 90.000000
_cell_angle_beta 90.000000
_cell_angle_gamma 90.000000
_cell_volume 3717.049878
_symmetry_space_group_name_H-M "P M M M"
_symmetry_group_IT_number 47
_symmetry_cell_setting 'orthorhombic'
loop_
_space_group_symop_operation_xyz
x,y,z
-x,-y,z
x,-y,-z
-x,y,-z
-x,-y,-z
x,y,-z
-x,y,z
x,-y,z
loop_
_atom_site_type_symbol
_atom_site_label
_atom_site_fract_x
_atom_site_fract_y
_atom_site_fract_z
Si Si1 0.187594 0.606092 0.221472
Si Si2 0.184675 0.282777 0.133340
Si Si3 0.684972 0.107869 0.817344
Si Si4 0.187054 0.207634 0.730766
Si Si5 0.683976 0.113037 0.451870
Si Si6 0.686061 0.390972 0.050659
Si Si7 0.814245 0.109399 0.359045
O O1 0.244058 0.500000 0.228812
O O2 0.232154 0.646130 0.173192
O O3 0.234860 0.685766 0.256772
O O4 0.000000 0.603332 0.222177
O O5 0.252134 0.181582 0.146734
O O6 0.242719 0.323328 0.087144
O O7 0.000000 0.277453 0.133725
O O8 0.500000 0.113264 0.816136
O O9 0.750693 0.141891 0.770077
O O10 0.730715 0.000000 0.825912
O O11 0.238023 0.169745 0.683116
O O12 0.000000 0.204056 0.732192
O O13 0.739080 0.149162 0.500000
O O14 0.500000 0.126953 0.449808
O O15 0.758506 0.147432 0.406460
O O16 0.711293 0.000000 0.452262
O O17 0.500000 0.386399 0.053105
O O18 0.731005 0.500000 0.059354
O O19 0.730649 0.368492 0.000000
O O20 0.000000 0.108667 0.359197
O O21 0.762573 0.000000 0.354076
#
# Coordination Sequence:
#
# PCOD9382794 Si02
#       7
#     8   8   8   8   8   8   8
#     4   8  14  25  41  61  84 109 137 168 202 242
#     4  10  19  30  47  69  91 116 146 181 217 254
#     4  10  20  32  46  64  86 114 148 182 215 255
#     4   9  17  28  42  61  85 112 141 174 211 249
#     4   8  14  24  36  50  70  98 132 167 202 242
#     4   9  18  32  49  70  97 125 148 174 213 258
#     4   9  16  24  35  53  78 107 136 166 202 245
#
# _framework density 15.065712
#
# number of rings (size 3 to 8) (size 9 to 14) (size 15 to 20)
#    0.000    3.000    0.000    3.429    0.000    3.714 
#    0.000    3.571    0.000    4.286    0.000    3.000 
#    0.000    0.571    0.000    7.143    0.000    1.429 
#
# Total GULP energy -311845.855201 kJ/mol
# GULP energy per Si atom -5568.675986 kJ/mol
# Density = 1.503142 g / cm^3
# Si number density = 15.065712 Si / 1000 Ang^3
#
#
#
# Elastic Constant Matrix: (Units=GPa)
#
#
# Indices 1 2 3 4 5 6 
#
# 1 13.3711 24.2632 28.1526 0.0000 0.0000 0.0000
# 2 24.2632 112.8147 78.5618 0.0000 0.0000 0.0000
# 3 28.1526 78.5618 144.1539 0.0000 0.0000 0.0000
# 4 0.0000 0.0000 0.0000 20.3562 0.0000 0.0000
# 5 0.0000 0.0000 0.0000 0.0000 22.5643 0.0000
# 6 0.0000 0.0000 0.0000 0.0000 0.0000 13.1384
#
#
#
# Elastic Compliance Matrix: (Units=1/GPa)
#
#
# Indices 1 2 3 4 5 6 
#
# 1 0.148451 -0.018918 -0.018682 0.000000 0.000000 0.000000
# 2 -0.018918 0.016697 -0.005405 0.000000 0.000000 0.000000
# 3 -0.018682 -0.005405 0.013531 0.000000 0.000000 0.000000
# 4 0.000000 0.000000 0.000000 0.049125 0.000000 0.000000
# 5 0.000000 0.000000 0.000000 0.000000 0.044318 0.000000
# 6 0.000000 0.000000 0.000000 0.000000 0.000000 0.076113
#
#
# Mechanical properties :
#
#
# Convention : Reuss Voigt Hill
#
# Bulk Modulus (GPa) = 10.79106 59.14389 34.96747
# Shear Modulus (GPa) = 10.74962 20.50257 15.62610
#
# Velocity S-wave (km/s) = 2.67407 3.69301 3.22405
# Velocity P-wave (km/s) = 4.08808 7.58465 6.09259
#
# Compressibility (1/GPa) = 0.09266932
#
# Stress axis : x y z
#
# Youngs Moduli (GPa) = 6.73625 59.89260 73.90395
#
# Poissons Ratio (x) = 1.13303 1.38066
# Poissons Ratio (y) = 0.12743 0.39944
# Poissons Ratio (z) = 0.12585 0.32371
#
# Static dielectric constant tensor:
#      x y z
#    x 1.508050 0.000000 0.000000 
#    y 0.000000 1.491790 0.000000 
#    z 0.000000 0.000000 1.532270 
# 
# From -- ./inp_files/14222.got.cif
#   From: 2010.05.17/outbox.cif.g08.bks.cpg/sg47_8_cif.got.tgz:14222.got - 2010.06.03 20:15:42.
