data_PCOD9382124
_publ_section_title
;
Structure prediction by ZEFSAII (Michael W. Deem and Ramdas Pophale) SiO2 
 PCOD9382124
Probable space group: P M M M
;
_chemical_formula_sum "Si O2"
_cell_formula_units_Z 48
_cell_length_a 7.378598
_cell_length_b 15.339651
_cell_length_c 18.354088
_cell_angle_alpha 90.000000
_cell_angle_beta 90.000000
_cell_angle_gamma 90.000000
_cell_volume 2077.409620
_symmetry_space_group_name_H-M "P M M M"
_symmetry_group_IT_number 47
_symmetry_cell_setting 'orthorhombic'
loop_
_space_group_symop_operation_xyz
x,y,z
-x,-y,z
x,-y,-z
-x,y,-z
-x,-y,-z
x,y,-z
-x,y,z
x,-y,z
loop_
_atom_site_type_symbol
_atom_site_label
_atom_site_fract_x
_atom_site_fract_y
_atom_site_fract_z
Si Si1 0.780453 0.828166 0.336375
Si Si2 0.214991 0.899824 0.182012
Si Si3 0.282743 0.281993 0.864151
Si Si4 0.278366 0.600827 0.000000
Si Si5 0.278979 0.405077 0.736400
Si Si6 0.291291 0.350218 0.417115
Si Si7 0.779799 0.000000 0.580571
O O1 0.714125 0.852460 0.255352
O O2 0.711963 0.746827 0.382922
O O3 0.726264 0.913578 0.379548
O O4 0.000000 0.819607 0.334304
O O5 0.239580 0.820466 0.125299
O O6 0.000000 0.909371 0.192108
O O7 0.282672 0.000000 0.170520
O O8 0.500000 0.287231 0.862116
O O9 0.220903 0.344431 0.929275
O O10 0.215936 0.326733 0.788473
O O11 0.220381 0.500000 0.000000
O O12 0.500000 0.599502 0.000000
O O13 0.500000 0.399334 0.733338
O O14 0.234315 0.500000 0.767875
O O15 0.211967 0.400219 0.652961
O O16 0.215749 0.354173 0.500000
O O17 0.500000 0.378788 0.423590
O O18 0.711754 0.000000 0.500000
O O19 0.000000 0.000000 0.580036
#
# Coordination Sequence:
#
# PCOD9382124 Si02
#       7
#     8   8   8   4   8   8   4
#     4  10  18  31  50  70  94 130 176 223 267 311
#     4  10  20  35  55  79 108 143 182 221 263 314
#     4  10  19  34  58  85 111 139 173 217 266 314
#     4   9  18  34  60  93 120 140 171 219 268 313
#     4   9  17  30  50  75 102 135 174 213 259 317
#     4  10  20  32  46  69 102 135 171 218 267 313
#     4   9  16  26  43  67  91 120 167 220 264 309
#
# _framework density 23.105698
#
# number of rings (size 3 to 8) (size 9 to 14) (size 15 to 20)
#    0.000    2.333    2.500    1.000    0.000    3.667 
#    0.000    2.917    0.000    8.000    0.000    1.167 
#    0.000    0.000    0.000    0.000    0.000    0.000 
#
# Total GULP energy -267609.677596 kJ/mol
# GULP energy per Si atom -5575.201617 kJ/mol
# Density = 2.305311 g / cm^3
# Si number density = 23.105698 Si / 1000 Ang^3
#
#
#
# Elastic Constant Matrix: (Units=GPa)
#
#
# Indices 1 2 3 4 5 6 
#
# 1 85.2116 -5.5394 6.4016 0.0000 0.0000 0.0000
# 2 -5.5394 197.3794 70.8581 0.0000 0.0000 0.0000
# 3 6.4016 70.8581 113.0141 0.0000 0.0000 0.0000
# 4 0.0000 0.0000 0.0000 35.1486 0.0000 0.0000
# 5 0.0000 0.0000 0.0000 0.0000 -0.6956 0.0000
# 6 0.0000 0.0000 0.0000 0.0000 0.0000 21.3741
#
#
#
# Elastic Compliance Matrix: (Units=1/GPa)
#
#
# Indices 1 2 3 4 5 6 
#
# 1 0.011869 0.000741 -0.001137 0.000000 0.000000 0.000000
# 2 0.000741 0.006584 -0.004170 0.000000 0.000000 0.000000
# 3 -0.001137 -0.004170 0.011528 0.000000 0.000000 0.000000
# 4 0.000000 0.000000 0.000000 0.028451 0.000000 0.000000
# 5 0.000000 0.000000 0.000000 0.000000 -1.437707 0.000000
# 6 0.000000 0.000000 0.000000 0.000000 0.000000 0.046786
#
#
# Mechanical properties :
#
#
# Convention : Reuss Voigt Hill
#
# Bulk Modulus (GPa) = 47.96421 59.89395 53.92908
# Shear Modulus (GPa) = -3.79821 32.75775 14.47977
#
# Velocity S-wave (km/s) = -1.28352 3.76937 2.50606
# Velocity P-wave (km/s) = 4.31360 6.70240 5.63601
#
# Compressibility (1/GPa) = 0.02084888
#
# Stress axis : x y z
#
# Youngs Moduli (GPa) = 84.25235 151.87680 86.74874
#
# Poissons Ratio (x) = -0.11259 0.09864
# Poissons Ratio (y) = -0.06246 0.36176
# Poissons Ratio (z) = 0.09580 0.63336
#
# Static dielectric constant tensor:
#      x y z
#    x 1.900970 0.000000 0.000000 
#    y 0.000000 1.886640 0.000000 
#    z 0.000000 0.000000 1.891610 
# 
# From -- ./inp_files/21064.got.cif
#   From: 2010.05.17/outbox.cif.g08.bks.cpg/sg47_11_cif.got.tgz:21064.got - 2010.06.03 20:15:42.
