data_PCOD9382584
_publ_section_title
;
Structure prediction by ZEFSAII (Michael W. Deem and Ramdas Pophale) SiO2 
 PCOD9382584
Probable space group: P M M M
;
_chemical_formula_sum "Si O2"
_cell_formula_units_Z 44
_cell_length_a 13.097852
_cell_length_b 22.563446
_cell_length_c 9.527276
_cell_angle_alpha 90.000000
_cell_angle_beta 90.000000
_cell_angle_gamma 90.000000
_cell_volume 2815.621374
_symmetry_space_group_name_H-M "P M M M"
_symmetry_group_IT_number 47
_symmetry_cell_setting 'orthorhombic'
loop_
_space_group_symop_operation_xyz
x,y,z
-x,-y,z
x,-y,-z
-x,y,-z
-x,-y,-z
x,y,-z
-x,y,z
x,-y,z
loop_
_atom_site_type_symbol
_atom_site_label
_atom_site_fract_x
_atom_site_fract_y
_atom_site_fract_z
Si Si1 0.801870 0.822371 0.666507
Si Si2 0.122698 0.933930 0.838792
Si Si3 0.117369 0.308537 0.668601
Si Si4 0.500000 0.431259 0.829112
Si Si5 0.308544 0.647054 0.836060
Si Si6 0.618989 0.782271 0.158682
O O1 0.804793 0.828787 0.500000
O O2 0.844769 0.880260 0.741251
O O3 0.861671 0.761120 0.702463
O O4 0.688639 0.812501 0.725789
O O5 0.000000 0.935078 0.840166
O O6 0.157549 0.000000 0.794522
O O7 0.156584 0.924325 0.000000
O O8 0.129176 0.314784 0.500000
O O9 0.204289 0.346309 0.747867
O O10 0.000000 0.323192 0.705353
O O11 0.500000 0.500000 0.789309
O O12 0.604536 0.398491 0.784158
O O13 0.500000 0.427181 0.000000
O O14 0.361177 0.711827 0.831760
O O15 0.285076 0.634045 0.000000
O O16 0.500000 0.794284 0.176101
O O17 0.650061 0.800100 0.000000
#
# Coordination Sequence:
#
# PCOD9382584 Si02
#       6
#     8   8   8   4   8   8
#     4  10  19  29  44  68  94 120 150 187 232 280
#     4   9  18  32  48  65  87 117 152 188 225 269
#     4   9  18  31  45  65  96 129 156 188 234 281
#     4   9  16  28  49  75 101 125 150 191 242 279
#     4   9  16  28  47  71  95 121 156 193 230 276
#     4   9  16  28  46  66  91 121 151 186 227 273
#
# _framework density 15.627101
#
# number of rings (size 3 to 8) (size 9 to 14) (size 15 to 20)
#    0.000    2.818    0.909    1.636    0.000    2.909 
#    0.000    1.364    0.000    2.182    0.000    7.636 
#    0.000    0.000    0.000    0.000    0.000    0.000 
#
# Total GULP energy -245005.360709 kJ/mol
# GULP energy per Si atom -5568.303652 kJ/mol
# Density = 1.559153 g / cm^3
# Si number density = 15.627101 Si / 1000 Ang^3
#
#
#
# Elastic Constant Matrix: (Units=GPa)
#
#
# Indices 1 2 3 4 5 6 
#
# 1 108.2768 53.1645 45.3505 0.0000 0.0000 0.0000
# 2 53.1645 83.8950 42.3375 0.0000 0.0000 0.0000
# 3 45.3505 42.3375 46.3705 0.0000 0.0000 0.0000
# 4 0.0000 0.0000 0.0000 15.0765 0.0000 0.0000
# 5 0.0000 0.0000 0.0000 0.0000 18.5341 0.0000
# 6 0.0000 0.0000 0.0000 0.0000 0.0000 22.9473
#
#
#
# Elastic Compliance Matrix: (Units=1/GPa)
#
#
# Indices 1 2 3 4 5 6 
#
# 1 0.016429 -0.004270 -0.012169 0.000000 0.000000 0.000000
# 2 -0.004270 0.023214 -0.017019 0.000000 0.000000 0.000000
# 3 -0.012169 -0.017019 0.049006 0.000000 0.000000 0.000000
# 4 0.000000 0.000000 0.000000 0.066328 0.000000 0.000000
# 5 0.000000 0.000000 0.000000 0.000000 0.053955 0.000000
# 6 0.000000 0.000000 0.000000 0.000000 0.000000 0.043578
#
#
# Mechanical properties :
#
#
# Convention : Reuss Voigt Hill
#
# Bulk Modulus (GPa) = 46.01374 57.80527 51.90951
# Shear Modulus (GPa) = 15.30594 17.82422 16.56508
#
# Velocity S-wave (km/s) = 3.13301 3.38094 3.25933
# Velocity P-wave (km/s) = 6.52659 7.23268 6.88869
#
# Compressibility (1/GPa) = 0.02173264
#
# Stress axis : x y z
#
# Youngs Moduli (GPa) = 60.86769 43.07695 20.40586
#
# Poissons Ratio (x) = 0.18394 0.24832
# Poissons Ratio (y) = 0.25991 0.34729
# Poissons Ratio (z) = 0.74070 0.73313
#
# Static dielectric constant tensor:
#      x y z
#    x 1.517470 0.000000 0.000000 
#    y 0.000000 1.513100 0.000000 
#    z 0.000000 0.000000 1.523170 
# 
# From -- ./inp_files/4305.got.cif
#   From: 2010.05.17/outbox.cif.g08.bks.cpg/sg47_3_cif.got.tgz:4305.got - 2010.06.03 20:15:42.
