data_PCOD9382453
_publ_section_title
;
Structure prediction by ZEFSAII (Michael W. Deem and Ramdas Pophale) SiO2 
 PCOD9382453
Probable space group: P M M M
;
_chemical_formula_sum "Si O2"
_cell_formula_units_Z 52
_cell_length_a 14.215260
_cell_length_b 27.713756
_cell_length_c 7.849552
_cell_angle_alpha 90.000000
_cell_angle_beta 90.000000
_cell_angle_gamma 90.000000
_cell_volume 3092.395747
_symmetry_space_group_name_H-M "P M M M"
_symmetry_group_IT_number 47
_symmetry_cell_setting 'orthorhombic'
loop_
_space_group_symop_operation_xyz
x,y,z
-x,-y,z
x,-y,-z
-x,y,-z
-x,-y,-z
x,y,-z
-x,y,z
x,-y,z
loop_
_atom_site_type_symbol
_atom_site_label
_atom_site_fract_x
_atom_site_fract_y
_atom_site_fract_z
Si Si1 0.105769 0.252778 0.708568
Si Si2 0.392182 0.895268 0.205777
Si Si3 0.109480 0.553953 0.292074
Si Si4 0.385523 0.000000 0.197720
Si Si5 0.604917 0.700043 0.799005
Si Si6 0.205543 0.350009 0.297615
Si Si7 0.707024 0.202831 0.703061
O O1 0.104682 0.253058 0.500000
O O2 0.141440 0.305599 0.766437
O O3 0.187306 0.215691 0.762263
O O4 0.000000 0.242618 0.765909
O O5 0.500000 0.887024 0.264374
O O6 0.328737 0.849975 0.251408
O O7 0.358776 0.947842 0.271694
O O8 0.395449 0.898645 0.000000
O O9 0.113178 0.553199 0.500000
O O10 0.136204 0.500000 0.234362
O O11 0.173218 0.598151 0.229802
O O12 0.000000 0.562388 0.247135
O O13 0.500000 0.000000 0.197533
O O14 0.354643 0.000000 0.000000
O O15 0.500000 0.693054 0.727402
O O16 0.686830 0.665644 0.729085
O O17 0.638755 0.755126 0.771222
O O18 0.601392 0.691663 0.000000
O O19 0.189578 0.351562 0.500000
O O20 0.705864 0.207880 0.500000
#
# Coordination Sequence:
#
# PCOD9382453 Si02
#       7
#     8   8   8   4   8   8   8
#     4   8  14  25  40  58  81 108 136 164 198 243
#     4   9  16  27  43  61  84 114 143 170 202 243
#     4   8  13  22  40  68  96 116 136 166 206 253
#     4   7  12  24  41  59  78 107 146 174 195 237
#     4  10  20  32  44  58  80 112 145 173 205 248
#     4   9  16  26  44  67  86 107 137 173 209 242
#     4  10  19  28  42  65  87 108 136 171 209 246
#
# _framework density 16.815442000000001
#
# number of rings (size 3 to 8) (size 9 to 14) (size 15 to 20)
#    0.000    3.154    0.000    4.154    0.000    5.231 
#    0.000    0.385    0.000   18.000    0.000    4.846 
#    0.000    4.308    0.000    0.000    0.000    0.000 
#
# Total GULP energy -289576.324369 kJ/mol
# GULP energy per Si atom -5568.775469 kJ/mol
# Density = 1.677717 g / cm^3
# Si number density = 16.815442 Si / 1000 Ang^3
#
#
#
# Elastic Constant Matrix: (Units=GPa)
#
#
# Indices 1 2 3 4 5 6 
#
# 1 105.9458 72.3154 -8.0360 0.0000 0.0000 0.0000
# 2 72.3154 153.9109 -3.3962 0.0000 0.0000 0.0000
# 3 -8.0360 -3.3962 12.9473 0.0000 0.0000 0.0000
# 4 0.0000 0.0000 0.0000 18.4198 0.0000 0.0000
# 5 0.0000 0.0000 0.0000 0.0000 22.0103 0.0000
# 6 0.0000 0.0000 0.0000 0.0000 0.0000 21.0149
#
#
#
# Elastic Compliance Matrix: (Units=1/GPa)
#
#
# Indices 1 2 3 4 5 6 
#
# 1 0.014546 -0.006674 0.007278 0.000000 0.000000 0.000000
# 2 -0.006674 0.009597 -0.001625 0.000000 0.000000 0.000000
# 3 0.007278 -0.001625 0.081327 0.000000 0.000000 0.000000
# 4 0.000000 0.000000 0.000000 0.054289 0.000000 0.000000
# 5 0.000000 0.000000 0.000000 0.000000 0.045433 0.000000
# 6 0.000000 0.000000 0.000000 0.000000 0.000000 0.047585
#
#
# Mechanical properties :
#
#
# Convention : Reuss Voigt Hill
#
# Bulk Modulus (GPa) = 9.66851 43.84114 26.75482
# Shear Modulus (GPa) = 17.28326 26.41705 21.85016
#
# Velocity S-wave (km/s) = 3.20944 3.96788 3.60864
# Velocity P-wave (km/s) = 4.41546 6.86445 5.77135
#
# Compressibility (1/GPa) = 0.10342853
#
# Stress axis : x y z
#
# Youngs Moduli (GPa) = 68.74601 104.19689 12.29599
#
# Poissons Ratio (x) = 0.69541 -0.08949
# Poissons Ratio (y) = 0.45881 0.01998
# Poissons Ratio (z) = -0.50032 0.16931
#
# Static dielectric constant tensor:
#      x y z
#    x 1.574520 0.000000 0.000000 
#    y 0.000000 1.589580 0.000000 
#    z 0.000000 0.000000 1.625640 
# 
# From -- ./inp_files/8044.got.cif
#   From: 2010.05.17/outbox.cif.g08.bks.cpg/sg47_5_cif.got.tgz:8044.got - 2010.06.03 20:15:42.
