data_PCOD9382849
_publ_section_title
;
Structure prediction by ZEFSAII (Michael W. Deem and Ramdas Pophale) SiO2 
 PCOD9382849
Probable space group: P M M M
;
_chemical_formula_sum "Si O2"
_cell_formula_units_Z 64
_cell_length_a 8.769451
_cell_length_b 20.362435
_cell_length_c 20.203228
_cell_angle_alpha 90.000000
_cell_angle_beta 90.000000
_cell_angle_gamma 90.000000
_cell_volume 3607.637410
_symmetry_space_group_name_H-M "P M M M"
_symmetry_group_IT_number 47
_symmetry_cell_setting 'orthorhombic'
loop_
_space_group_symop_operation_xyz
x,y,z
-x,-y,z
x,-y,-z
-x,y,-z
-x,-y,-z
x,y,-z
-x,y,z
x,-y,z
loop_
_atom_site_type_symbol
_atom_site_label
_atom_site_fract_x
_atom_site_fract_y
_atom_site_fract_z
Si Si1 0.183741 0.425414 0.682375
Si Si2 0.817812 0.310884 0.216148
Si Si3 0.323429 0.307113 0.926562
Si Si4 0.673568 0.149297 0.926132
Si Si5 0.829009 0.926333 0.814955
Si Si6 0.319897 0.072316 0.323558
Si Si7 0.316138 0.334155 0.575963
Si Si8 0.684631 0.781986 0.675893
O O1 0.233777 0.500000 0.694609
O O2 0.228916 0.373970 0.739650
O O3 0.249186 0.396442 0.614389
O O4 0.000000 0.424622 0.679274
O O5 0.764463 0.322583 0.140975
O O6 0.747672 0.247505 0.254663
O O7 0.000000 0.304063 0.217690
O O8 0.500000 0.328680 0.920903
O O9 0.324595 0.227867 0.927902
O O10 0.266165 0.328580 0.000000
O O11 0.500000 0.128511 0.909997
O O12 0.787398 0.123742 0.871591
O O13 0.710455 0.125423 0.000000
O O14 0.711112 0.924268 0.754934
O O15 0.000000 0.915290 0.788465
O O16 0.823664 0.000000 0.843071
O O17 0.500000 0.070938 0.337749
O O18 0.262204 0.144631 0.344370
O O19 0.257383 0.000000 0.345238
O O20 0.266314 0.329832 0.500000
O O21 0.500000 0.337732 0.577146
O O22 0.272182 0.270338 0.619306
O O23 0.500000 0.783634 0.681506
#
# Coordination Sequence:
#
# PCOD9382849 Si02
#       8
#     8   8   8   8   8   8   8   8
#     4   9  19  35  52  72 101 134 163 191 227 272
#     4  10  19  30  48  73  96 120 156 199 237 278
#     4   9  18  32  48  66  90 119 150 188 236 285
#     4   9  18  31  44  57  75 104 142 179 218 271
#     4  10  20  30  39  55  80 107 136 177 231 282
#     4   9  17  29  45  63  83 112 152 192 227 271
#     4   9  18  32  50  74 103 132 161 193 230 273
#     4   9  17  30  48  68  93 126 159 193 237 284
#
# _framework density 17.740143
#
# number of rings (size 3 to 8) (size 9 to 14) (size 15 to 20)
#    0.000    2.750    0.000    2.250    0.000    6.750 
#    0.000    3.750    0.000    0.750    0.000    5.250 
#    0.000    0.000    0.000    9.375    0.000    9.750 
#
# Total GULP energy -356295.153004 kJ/mol
# GULP energy per Si atom -5567.111766 kJ/mol
# Density = 1.769977 g / cm^3
# Si number density = 17.740143 Si / 1000 Ang^3
#
#
#
# Elastic Constant Matrix: (Units=GPa)
#
#
# Indices 1 2 3 4 5 6 
#
# 1 6.3457 10.1492 13.7592 0.0000 0.0000 0.0000
# 2 10.1492 94.1819 22.0998 0.0000 0.0000 0.0000
# 3 13.7592 22.0998 86.7968 0.0000 0.0000 0.0000
# 4 0.0000 0.0000 0.0000 12.8412 0.0000 0.0000
# 5 0.0000 0.0000 0.0000 0.0000 14.1870 0.0000
# 6 0.0000 0.0000 0.0000 0.0000 0.0000 19.0701
#
#
#
# Elastic Compliance Matrix: (Units=1/GPa)
#
#
# Indices 1 2 3 4 5 6 
#
# 1 0.272790 -0.020472 -0.038031 0.000000 0.000000 0.000000
# 2 -0.020472 0.012829 -0.000021 0.000000 0.000000 0.000000
# 3 -0.038031 -0.000021 0.017555 0.000000 0.000000 0.000000
# 4 0.000000 0.000000 0.000000 0.077874 0.000000 0.000000
# 5 0.000000 0.000000 0.000000 0.000000 0.070487 0.000000
# 6 0.000000 0.000000 0.000000 0.000000 0.000000 0.052438
#
#
# Mechanical properties :
#
#
# Convention : Reuss Voigt Hill
#
# Bulk Modulus (GPa) = 5.37270 31.03786 18.20528
# Shear Modulus (GPa) = 7.31995 18.64074 12.98035
#
# Velocity S-wave (km/s) = 2.03351 3.24507 2.70792
# Velocity P-wave (km/s) = 2.92381 5.61911 4.47901
#
# Compressibility (1/GPa) = 0.18612614
#
# Stress axis : x y z
#
# Youngs Moduli (GPa) = 3.66582 77.94933 56.96316
#
# Poissons Ratio (x) = 1.59582 2.16634
# Poissons Ratio (y) = 0.07505 0.00120
# Poissons Ratio (z) = 0.13941 0.00164
#
# Static dielectric constant tensor:
#      x y z
#    x 1.624870 0.000000 0.000000 
#    y 0.000000 1.641210 0.000000 
#    z 0.000000 0.000000 1.593640 
# 
# From -- ./inp_files/9932.got.cif
#   From: 2010.05.17/outbox.cif.g08.bks.cpg/sg47_5_cif.got.tgz:9932.got - 2010.06.03 20:15:42.
