data_PCOD9382598
_publ_section_title
;
Structure prediction by ZEFSAII (Michael W. Deem and Ramdas Pophale) SiO2 
 PCOD9382598
Probable space group: P M M M
;
_chemical_formula_sum "Si O2"
_cell_formula_units_Z 60
_cell_length_a 25.604000
_cell_length_b 7.270117
_cell_length_c 13.802109
_cell_angle_alpha 90.000000
_cell_angle_beta 90.000000
_cell_angle_gamma 90.000000
_cell_volume 2569.180822
_symmetry_space_group_name_H-M "P M M M"
_symmetry_group_IT_number 47
_symmetry_cell_setting 'orthorhombic'
loop_
_space_group_symop_operation_xyz
x,y,z
-x,-y,z
x,-y,-z
-x,y,-z
-x,-y,-z
x,y,-z
-x,y,z
x,-y,z
loop_
_atom_site_type_symbol
_atom_site_label
_atom_site_fract_x
_atom_site_fract_y
_atom_site_fract_z
Si Si1 0.722978 0.723588 0.606991
Si Si2 0.169026 0.222403 0.891967
Si Si3 0.439201 0.276417 0.891694
Si Si4 0.058550 0.278370 0.614610
Si Si5 0.054376 0.789000 0.883609
Si Si6 0.829225 0.286399 0.682342
Si Si7 0.560628 0.723819 0.500000
Si Si8 0.380764 0.275633 0.697844
O O1 0.703532 0.770777 0.500000
O O2 0.725447 0.500000 0.611974
O O3 0.782004 0.791534 0.619595
O O4 0.679328 0.781686 0.683382
O O5 0.110511 0.296421 0.870227
O O6 0.194685 0.273457 0.791188
O O7 0.166352 0.000000 0.895777
O O8 0.185707 0.281913 0.000000
O O9 0.500000 0.224003 0.880460
O O10 0.437884 0.500000 0.891382
O O11 0.406313 0.214770 0.798772
O O12 0.421715 0.218998 0.000000
O O13 0.064846 0.242468 0.500000
O O14 0.056519 0.500000 0.627636
O O15 0.111853 0.210665 0.666593
O O16 0.000000 0.210346 0.641699
O O17 0.000000 0.703081 0.849993
O O18 0.055436 0.000000 0.849152
O O19 0.051670 0.797977 0.000000
O O20 0.834799 0.500000 0.656351
O O21 0.562891 0.500000 0.500000
O O22 0.500000 0.777274 0.500000
O O23 0.587943 0.781035 0.600752
O O24 0.381997 0.500000 0.698629
#
# Coordination Sequence:
#
# PCOD9382598 Si02
#       8
#     8   8   8   8   8   8   4   8
#     4   9  16  27  41  57  79 107 140 179 224 273
#     4   9  18  32  47  62  84 115 147 178 216 265
#     4   8  13  20  29  42  64  97 136 175 213 255
#     4   8  14  26  44  65  88 113 143 181 225 276
#     4   7  10  19  37  58  76  97 129 165 199 243
#     4  10  19  29  45  68  88 111 145 185 227 269
#     4   9  14  18  28  48  72  98 132 180 226 253
#     4   9  14  21  32  48  70  99 137 180 220 257
#
# _framework density 23.353748
#
# number of rings (size 3 to 8) (size 9 to 14) (size 15 to 20)
#    0.000    3.400    0.667    2.800    0.000    4.000 
#    0.000    0.667    0.000    4.000    0.000    4.667 
#    0.000    0.000    0.000    0.000    0.000    3.333 
#
# Total GULP energy -334337.752668 kJ/mol
# GULP energy per Si atom -5572.295878 kJ/mol
# Density = 2.330059 g / cm^3
# Si number density = 23.353748 Si / 1000 Ang^3
#
#
#
# Elastic Constant Matrix: (Units=GPa)
#
#
# Indices 1 2 3 4 5 6 
#
# 1 130.1139 8.5144 80.6287 0.0000 0.0000 0.0000
# 2 8.5144 104.9340 -0.6680 0.0000 0.0000 0.0000
# 3 80.6287 -0.6680 173.1176 0.0000 0.0000 0.0000
# 4 0.0000 0.0000 0.0000 -1.3350 0.0000 0.0000
# 5 0.0000 0.0000 0.0000 0.0000 27.1536 0.0000
# 6 0.0000 0.0000 0.0000 0.0000 0.0000 -21.7576
#
#
#
# Elastic Compliance Matrix: (Units=1/GPa)
#
#
# Indices 1 2 3 4 5 6 
#
# 1 0.010891 -0.000916 -0.005076 0.000000 0.000000 0.000000
# 2 -0.000916 0.009607 0.000464 0.000000 0.000000 0.000000
# 3 -0.005076 0.000464 0.008142 0.000000 0.000000 0.000000
# 4 0.000000 0.000000 0.000000 -0.749071 0.000000 0.000000
# 5 0.000000 0.000000 0.000000 0.000000 0.036828 0.000000
# 6 0.000000 0.000000 0.000000 0.000000 0.000000 -0.045961
#
#
# Mechanical properties :
#
#
# Convention : Reuss Voigt Hill
#
# Bulk Modulus (GPa) = 56.87047 65.01288 60.94167
# Shear Modulus (GPa) = -7.01611 22.12490 7.55440
#
# Velocity S-wave (km/s) = -1.73516 3.08129 1.80050
# Velocity P-wave (km/s) = 4.51555 6.36851 5.52033
#
# Compressibility (1/GPa) = 0.01758382
#
# Stress axis : x y z
#
# Youngs Moduli (GPa) = 91.81922 104.08991 122.81532
#
# Poissons Ratio (x) = 0.09535 0.62340
# Poissons Ratio (y) = 0.08411 -0.05695
# Poissons Ratio (z) = 0.46607 -0.04827
#
# Static dielectric constant tensor:
#      x y z
#    x 1.900290 0.000000 0.000000 
#    y 0.000000 1.908250 0.000000 
#    z 0.000000 0.000000 1.906420 
# 
# From -- ./inp_files/19643.got.cif
#   From: 2010.05.17/outbox.cif.g08.bks.cpg/sg47_10_cif.got.tgz:19643.got - 2010.06.03 20:15:42.
