data_PCOD9382742
_publ_section_title
;
Structure prediction by ZEFSAII (Michael W. Deem and Ramdas Pophale) SiO2 
 PCOD9382742
Probable space group: P M M M
;
_chemical_formula_sum "Si O2"
_cell_formula_units_Z 40
_cell_length_a 16.365446
_cell_length_b 17.143004
_cell_length_c 10.012899
_cell_angle_alpha 90.000000
_cell_angle_beta 90.000000
_cell_angle_gamma 90.000000
_cell_volume 2809.147914
_symmetry_space_group_name_H-M "P M M M"
_symmetry_group_IT_number 47
_symmetry_cell_setting 'orthorhombic'
loop_
_space_group_symop_operation_xyz
x,y,z
-x,-y,z
x,-y,-z
-x,y,-z
-x,-y,-z
x,y,-z
-x,y,z
x,-y,z
loop_
_atom_site_type_symbol
_atom_site_label
_atom_site_fract_x
_atom_site_fract_y
_atom_site_fract_z
Si Si1 0.332274 0.859849 0.159618
Si Si2 0.401738 0.000000 0.341417
Si Si3 0.598911 0.587146 0.000000
Si Si4 0.000000 0.905004 0.345960
Si Si5 0.854477 0.093828 0.151765
Si Si6 0.599319 0.409071 0.500000
Si Si7 0.598731 0.693871 0.753722
O O1 0.234380 0.868467 0.167132
O O2 0.362048 0.777268 0.216852
O O3 0.370281 0.926069 0.255645
O O4 0.354413 0.868185 0.000000
O O5 0.500000 0.000000 0.341686
O O6 0.375873 0.000000 0.500000
O O7 0.621811 0.636830 0.873222
O O8 0.631502 0.500000 0.000000
O O9 0.500000 0.582123 0.000000
O O10 0.919992 0.881227 0.262144
O O11 0.000000 0.879303 0.500000
O O12 0.000000 0.000000 0.346429
O O13 0.843341 0.000000 0.163416
O O14 0.884270 0.108497 0.000000
O O15 0.627278 0.500000 0.500000
O O16 0.500000 0.413725 0.500000
O O17 0.623103 0.355693 0.375168
O O18 0.500000 0.704427 0.750780
#
# Coordination Sequence:
#
# PCOD9382742 Si02
#       7
#     8   4   4   4   8   4   8
#     4  11  21  35  50  68  93 125 164 203 239 277
#     4  11  25  37  47  62  87 128 173 211 242 271
#     4   9  16  28  46  67  89 114 151 197 239 282
#     4   9  17  29  47  71  91 111 146 189 236 281
#     4   9  17  31  48  66  89 121 156 190 231 283
#     4   9  18  32  48  65  89 122 157 195 243 296
#     4  10  19  30  46  68  92 122 161 199 238 281
#
# _framework density 14.239193
#
# number of rings (size 3 to 8) (size 9 to 14) (size 15 to 20)
#    0.000    2.200    2.000    1.800    1.400    6.000 
#    0.000    0.000    0.000    0.000    0.000    0.000 
#    0.000    0.000    0.000    5.400    0.000    0.100 
#
# Total GULP energy -222734.240207 kJ/mol
# GULP energy per Si atom -5568.356005 kJ/mol
# Density = 1.420678 g / cm^3
# Si number density = 14.239193 Si / 1000 Ang^3
#
#
#
# Elastic Constant Matrix: (Units=GPa)
#
#
# Indices 1 2 3 4 5 6 
#
# 1 54.7598 33.1670 50.0532 0.0000 0.0000 0.0000
# 2 33.1670 130.0584 81.1852 0.0000 0.0000 0.0000
# 3 50.0532 81.1852 164.8180 0.0000 0.0000 0.0000
# 4 0.0000 0.0000 0.0000 27.1980 0.0000 0.0000
# 5 0.0000 0.0000 0.0000 0.0000 18.3866 0.0000
# 6 0.0000 0.0000 0.0000 0.0000 0.0000 -3.2958
#
#
#
# Elastic Compliance Matrix: (Units=1/GPa)
#
#
# Indices 1 2 3 4 5 6 
#
# 1 0.025803 -0.002439 -0.006635 0.000000 0.000000 0.000000
# 2 -0.002439 0.011333 -0.004842 0.000000 0.000000 0.000000
# 3 -0.006635 -0.004842 0.010467 0.000000 0.000000 0.000000
# 4 0.000000 0.000000 0.000000 0.036767 0.000000 0.000000
# 5 0.000000 0.000000 0.000000 0.000000 0.054387 0.000000
# 6 0.000000 0.000000 0.000000 0.000000 0.000000 -0.303420
#
#
# Mechanical properties :
#
#
# Convention : Reuss Voigt Hill
#
# Bulk Modulus (GPa) = 50.57440 75.38300 62.97870
# Shear Modulus (GPa) = -38.39053 20.80649 -8.79202
#
# Velocity S-wave (km/s) = -5.19805 3.82673 -2.48755
# Velocity P-wave (km/s) = 0.65682 8.51942 6.00621
#
# Compressibility (1/GPa) = 0.01977285
#
# Stress axis : x y z
#
# Youngs Moduli (GPa) = 38.75485 88.23702 95.53622
#
# Poissons Ratio (x) = 0.21517 0.63388
# Poissons Ratio (y) = 0.09451 0.46257
# Poissons Ratio (z) = 0.25714 0.42723
#
# Static dielectric constant tensor:
#      x y z
#    x 1.449440 0.000000 0.000000 
#    y 0.000000 1.461090 0.000000 
#    z 0.000000 0.000000 1.717920 
# 
# From -- ./inp_files/10845.got.cif
#   From: 2010.05.17/outbox.cif.g08.bks.cpg/sg47_6_cif.got.tgz:10845.got - 2010.06.03 20:15:42.
