data_PCOD9382991
_publ_section_title
;
Structure prediction by ZEFSAII (Michael W. Deem and Ramdas Pophale) SiO2 
 PCOD9382991
Probable space group: P M M M
;
_chemical_formula_sum "Si O2"
_cell_formula_units_Z 64
_cell_length_a 13.962242
_cell_length_b 14.244389
_cell_length_c 17.987073
_cell_angle_alpha 90.000000
_cell_angle_beta 90.000000
_cell_angle_gamma 90.000000
_cell_volume 3577.333946
_symmetry_space_group_name_H-M "P M M M"
_symmetry_group_IT_number 47
_symmetry_cell_setting 'orthorhombic'
loop_
_space_group_symop_operation_xyz
x,y,z
-x,-y,z
x,-y,-z
-x,y,-z
-x,-y,-z
x,y,-z
-x,y,z
x,-y,z
loop_
_atom_site_type_symbol
_atom_site_label
_atom_site_fract_x
_atom_site_fract_y
_atom_site_fract_z
Si Si1 0.385971 0.730042 0.083760
Si Si2 0.892609 0.113868 0.085259
Si Si3 0.704583 0.106934 0.650176
Si Si4 0.200205 0.604034 0.414096
Si Si5 0.706764 0.890857 0.171787
Si Si6 0.615453 0.605213 0.784992
Si Si7 0.110408 0.797961 0.590193
Si Si8 0.388209 0.299323 0.370851
O O1 0.500000 0.717306 0.078754
O O2 0.366161 0.826424 0.126932
O O3 0.347315 0.649307 0.138554
O O4 0.347210 0.729785 0.000000
O O5 0.811236 0.141600 0.143066
O O6 0.000000 0.146962 0.102805
O O7 0.895388 0.000000 0.086107
O O8 0.869105 0.140916 0.000000
O O9 0.698192 0.114964 0.739616
O O10 0.812572 0.130986 0.624551
O O11 0.639216 0.190465 0.617306
O O12 0.679238 0.000000 0.629344
O O13 0.170452 0.597746 0.500000
O O14 0.187645 0.500000 0.380781
O O15 0.141741 0.693217 0.383267
O O16 0.311538 0.635398 0.412230
O O17 0.694454 0.000000 0.151221
O O18 0.500000 0.599749 0.790988
O O19 0.651112 0.500000 0.770747
O O20 0.631675 0.673224 0.715308
O O21 0.119736 0.800909 0.500000
O O22 0.000000 0.817209 0.608808
O O23 0.500000 0.316746 0.387053
#
# Coordination Sequence:
#
# PCOD9382991 Si02
#       8
#     8   8   8   8   8   8   8   8
#     4  10  20  32  46  68  98 130 165 204 246 298
#     4   8  14  25  41  61  85 114 148 186 232 287
#     4  10  21  34  50  73  99 131 173 217 257 299
#     4   9  18  32  52  81 111 135 165 207 253 304
#     4  10  19  31  47  67  94 128 162 201 250 297
#     4   9  17  30  48  68  90 122 163 204 249 298
#     4   9  19  36  56  78 106 139 172 208 253 303
#     4  10  19  33  51  71 100 137 174 210 254 306
#
# _framework density 17.890418
#
# number of rings (size 3 to 8) (size 9 to 14) (size 15 to 20)
#    0.000    2.625    1.250    1.125    0.000    3.750 
#    0.000    6.875    0.000    0.000    0.000    3.500 
#    0.000    0.500    0.000    2.625    0.000    0.250 
#
# Total GULP energy -356360.512578 kJ/mol
# GULP energy per Si atom -5568.133009 kJ/mol
# Density = 1.784970 g / cm^3
# Si number density = 17.890418 Si / 1000 Ang^3
#
#
#
# Elastic Constant Matrix: (Units=GPa)
#
#
# Indices 1 2 3 4 5 6 
#
# 1 21.5298 -7.2410 -5.2608 0.0000 0.0000 0.0000
# 2 -7.2410 85.6453 6.9502 0.0000 0.0000 0.0000
# 3 -5.2608 6.9502 28.2707 0.0000 0.0000 0.0000
# 4 0.0000 0.0000 0.0000 -18.4966 0.0000 0.0000
# 5 0.0000 0.0000 0.0000 0.0000 20.4921 0.0000
# 6 0.0000 0.0000 0.0000 0.0000 0.0000 7.4613
#
#
#
# Elastic Compliance Matrix: (Units=1/GPa)
#
#
# Indices 1 2 3 4 5 6 
#
# 1 0.049679 0.003520 0.008379 0.000000 0.000000 0.000000
# 2 0.003520 0.012163 -0.002335 0.000000 0.000000 0.000000
# 3 0.008379 -0.002335 0.037506 0.000000 0.000000 0.000000
# 4 0.000000 0.000000 0.000000 -0.054064 0.000000 0.000000
# 5 0.000000 0.000000 0.000000 0.000000 0.048799 0.000000
# 6 0.000000 0.000000 0.000000 0.000000 0.000000 0.134025
#
#
# Mechanical properties :
#
#
# Convention : Reuss Voigt Hill
#
# Bulk Modulus (GPa) = 8.44057 13.81585 11.12821
# Shear Modulus (GPa) = 20.12306 11.29120 15.70713
#
# Velocity S-wave (km/s) = 3.35744 2.51496 2.96626
# Velocity P-wave (km/s) = 4.44500 4.02152 4.23855
#
# Compressibility (1/GPa) = 0.11847540
#
# Stress axis : x y z
#
# Youngs Moduli (GPa) = 20.12942 82.21531 26.66271
#
# Poissons Ratio (x) = -0.28941 -0.22341
# Poissons Ratio (y) = -0.07086 0.06226
# Poissons Ratio (z) = -0.16867 0.19199
#
# Static dielectric constant tensor:
#      x y z
#    x 1.623490 0.000000 0.000000 
#    y 0.000000 1.636360 0.000000 
#    z 0.000000 0.000000 1.635660 
# 
# From -- ./inp_files/28346.got.cif
#   From: 2010.05.17/outbox.cif.g08.bks.cpg/sg47_15_cif.got.tgz:28346.got - 2010.06.03 20:15:42.
