data_PCOD9382298
_publ_section_title
;
Structure prediction by ZEFSAII (Michael W. Deem and Ramdas Pophale) SiO2 
 PCOD9382298
Probable space group: P M M M
;
_chemical_formula_sum "Si O2"
_cell_formula_units_Z 64
_cell_length_a 15.356763
_cell_length_b 7.392835
_cell_length_c 25.432774
_cell_angle_alpha 90.000000
_cell_angle_beta 90.000000
_cell_angle_gamma 90.000000
_cell_volume 2887.383214
_symmetry_space_group_name_H-M "P M M M"
_symmetry_group_IT_number 47
_symmetry_cell_setting 'orthorhombic'
loop_
_space_group_symop_operation_xyz
x,y,z
-x,-y,z
x,-y,-z
-x,y,-z
-x,-y,-z
x,y,-z
-x,y,z
x,-y,z
loop_
_atom_site_type_symbol
_atom_site_label
_atom_site_fract_x
_atom_site_fract_y
_atom_site_fract_z
Si Si1 0.094534 0.280956 0.232617
Si Si2 0.718235 0.707500 0.250443
Si Si3 0.283009 0.718670 0.560253
Si Si4 0.093645 0.284168 0.436343
Si Si5 0.399879 0.278615 0.154791
Si Si6 0.722479 0.720762 0.940536
Si Si7 0.904480 0.719043 0.108166
Si Si8 0.402467 0.210475 0.655064
O O1 0.090660 0.500000 0.238355
O O2 0.184901 0.215048 0.257318
O O3 0.101989 0.239909 0.170277
O O4 0.000000 0.213671 0.251343
O O5 0.733168 0.500000 0.233562
O O6 0.658189 0.785184 0.204109
O O7 0.663689 0.706100 0.303514
O O8 0.293852 0.778505 0.500000
O O9 0.279500 0.500000 0.559640
O O10 0.188249 0.783203 0.581274
O O11 0.361149 0.772684 0.597629
O O12 0.094693 0.262907 0.500000
O O13 0.092427 0.500000 0.426084
O O14 0.000000 0.212057 0.417411
O O15 0.500000 0.219109 0.157746
O O16 0.401923 0.500000 0.156053
O O17 0.350012 0.224645 0.101706
O O18 0.723717 0.500000 0.939979
O O19 0.818454 0.781343 0.921765
O O20 0.704682 0.778021 0.000000
O O21 0.904699 0.500000 0.104479
O O22 0.000000 0.781055 0.089375
O O23 0.500000 0.285689 0.657941
O O24 0.406648 0.000000 0.668764
#
# Coordination Sequence:
#
# PCOD9382298 Si02
#       8
#     8   8   8   8   8   8   8   8
#     4   8  13  23  43  70  96 121 154 200 251 299
#     4  10  18  32  55  76  94 122 165 213 253 293
#     4   9  18  34  58  86 111 137 172 209 242 283
#     4   7  10  20  43  76 109 135 160 194 234 273
#     4   9  16  25  38  58  82 112 156 206 251 292
#     4   9  15  21  29  47  81 122 158 192 238 299
#     4   8  12  19  31  49  78 116 155 192 233 288
#     4  11  25  41  54  72 101 135 169 208 257 306
#
# _framework density 22.165398
#
# number of rings (size 3 to 8) (size 9 to 14) (size 15 to 20)
#    0.000    3.125    1.250    2.625    0.000    2.500 
#    0.000    4.375    0.000    4.500    0.000    1.750 
#    0.000    0.500    0.000    2.625    0.000    6.500 
#
# Total GULP energy -356984.166583 kJ/mol
# GULP energy per Si atom -5577.877603 kJ/mol
# Density = 2.211495 g / cm^3
# Si number density = 22.165398 Si / 1000 Ang^3
#
#
#
# Elastic Constant Matrix: (Units=GPa)
#
#
# Indices 1 2 3 4 5 6 
#
# 1 232.0724 7.8012 80.9752 0.0000 0.0000 0.0000
# 2 7.8012 72.2772 -6.4544 0.0000 0.0000 0.0000
# 3 80.9752 -6.4544 65.6857 0.0000 0.0000 0.0000
# 4 0.0000 0.0000 0.0000 111.1296 0.0000 0.0000
# 5 0.0000 0.0000 0.0000 0.0000 10.8714 0.0000
# 6 0.0000 0.0000 0.0000 0.0000 0.0000 28.3882
#
#
#
# Elastic Compliance Matrix: (Units=1/GPa)
#
#
# Indices 1 2 3 4 5 6 
#
# 1 0.007765 -0.001708 -0.009740 0.000000 0.000000 0.000000
# 2 -0.001708 0.014334 0.003514 0.000000 0.000000 0.000000
# 3 -0.009740 0.003514 0.027577 0.000000 0.000000 0.000000
# 4 0.000000 0.000000 0.000000 0.008999 0.000000 0.000000
# 5 0.000000 0.000000 0.000000 0.000000 0.091984 0.000000
# 6 0.000000 0.000000 0.000000 0.000000 0.000000 0.035226
#
#
# Mechanical properties :
#
#
# Convention : Reuss Voigt Hill
#
# Bulk Modulus (GPa) = 29.57963 59.40880 44.49421
# Shear Modulus (GPa) = 23.47178 49.25874 36.36526
#
# Velocity S-wave (km/s) = 3.25766 4.71927 4.05487
# Velocity P-wave (km/s) = 5.24631 7.52037 6.48382
#
# Compressibility (1/GPa) = 0.03380705
#
# Stress axis : x y z
#
# Youngs Moduli (GPa) = 128.78282 69.76535 36.26235
#
# Poissons Ratio (x) = 0.11915 0.35321
# Poissons Ratio (y) = 0.21995 -0.12742
# Poissons Ratio (z) = 1.25438 -0.24515
#
# Static dielectric constant tensor:
#      x y z
#    x 1.833750 0.000000 0.000000 
#    y 0.000000 1.934120 0.000000 
#    z 0.000000 0.000000 1.773310 
# 
# From -- ./inp_files/32782.got.cif
#   From: 2010.05.17/outbox.cif.g08.bks.cpg/sg47_17_cif.got.tgz:32782.got - 2010.06.03 20:15:42.
