data_PCOD9382590
_publ_section_title
;
Structure prediction by ZEFSAII (Michael W. Deem and Ramdas Pophale) SiO2 
 PCOD9382590
Probable space group: P M M M
;
_chemical_formula_sum "Si O2"
_cell_formula_units_Z 64
_cell_length_a 14.110146
_cell_length_b 14.363381
_cell_length_c 18.213637
_cell_angle_alpha 90.000000
_cell_angle_beta 90.000000
_cell_angle_gamma 90.000000
_cell_volume 3691.346937
_symmetry_space_group_name_H-M "P M M M"
_symmetry_group_IT_number 47
_symmetry_cell_setting 'orthorhombic'
loop_
_space_group_symop_operation_xyz
x,y,z
-x,-y,z
x,-y,-z
-x,y,-z
-x,-y,-z
x,y,-z
-x,y,z
x,-y,z
loop_
_atom_site_type_symbol
_atom_site_label
_atom_site_fract_x
_atom_site_fract_y
_atom_site_fract_z
Si Si1 0.111885 0.138635 0.078857
Si Si2 0.614603 0.892907 0.165107
Si Si3 0.279198 0.786244 0.704416
Si Si4 0.386567 0.713788 0.919407
Si Si5 0.889679 0.637316 0.083134
Si Si6 0.611668 0.106607 0.411994
Si Si7 0.110975 0.895027 0.242168
Si Si8 0.727977 0.605672 0.799933
O O1 0.116933 0.250410 0.081489
O O2 0.147830 0.105999 0.157674
O O3 0.000000 0.112985 0.077841
O O4 0.152203 0.108098 0.000000
O O5 0.500000 0.890833 0.171753
O O6 0.659961 0.847829 0.237421
O O7 0.641155 0.819556 0.101435
O O8 0.642053 0.000000 0.153795
O O9 0.326897 0.814838 0.628085
O O10 0.173225 0.825402 0.711057
O O11 0.275700 0.680622 0.733982
O O12 0.500000 0.709952 0.920083
O O13 0.348010 0.644526 0.858420
O O14 0.349815 0.690024 0.000000
O O15 0.823966 0.607596 0.150678
O O16 0.000000 0.613050 0.094503
O O17 0.863602 0.605832 0.000000
O O18 0.620702 0.111490 0.500000
O O19 0.500000 0.117816 0.393958
O O20 0.638518 0.000000 0.389398
O O21 0.000000 0.869680 0.240375
O O22 0.119952 0.000000 0.270034
O O23 0.709730 0.500000 0.776875
#
# Coordination Sequence:
#
# PCOD9382590 Si02
#       8
#     8   8   8   8   8   8   8   8
#     4   8  14  26  42  59  85 124 167 211 256 297
#     4   9  17  29  47  71  95 120 153 194 245 304
#     4  11  20  33  52  71 102 135 163 197 246 297
#     4   9  19  34  48  63  87 122 164 209 253 295
#     4   9  17  31  50  69  92 125 170 230 290 324
#     4   9  18  34  60  93 118 132 152 185 230 292
#     4  10  19  29  44  69 100 137 176 206 241 297
#     4  11  23  35  49  69  93 127 174 221 260 301
#
# _framework density 17.337844
#
# number of rings (size 3 to 8) (size 9 to 14) (size 15 to 20)
#    0.000    2.500    1.250    3.000    0.000    3.500 
#    0.000    3.750    0.000    2.250    0.000    2.625 
#    0.000    0.000    0.000    2.250    0.000    0.125 
#
# Total GULP energy -356921.698964 kJ/mol
# GULP energy per Si atom -5576.901546 kJ/mol
# Density = 1.729838 g / cm^3
# Si number density = 17.337844 Si / 1000 Ang^3
#
#
#
# Elastic Constant Matrix: (Units=GPa)
#
#
# Indices 1 2 3 4 5 6 
#
# 1 54.8487 38.2122 23.1126 0.0000 0.0000 0.0000
# 2 38.2122 131.8720 35.2362 0.0000 0.0000 0.0000
# 3 23.1126 35.2362 49.3846 0.0000 0.0000 0.0000
# 4 0.0000 0.0000 0.0000 -27.7728 0.0000 0.0000
# 5 0.0000 0.0000 0.0000 0.0000 23.8747 0.0000
# 6 0.0000 0.0000 0.0000 0.0000 0.0000 3.2423
#
#
#
# Elastic Compliance Matrix: (Units=1/GPa)
#
#
# Indices 1 2 3 4 5 6 
#
# 1 0.025245 -0.005138 -0.008149 0.000000 0.000000 0.000000
# 2 -0.005138 0.010415 -0.005027 0.000000 0.000000 0.000000
# 3 -0.008149 -0.005027 0.027650 0.000000 0.000000 0.000000
# 4 0.000000 0.000000 0.000000 -0.036006 0.000000 0.000000
# 5 0.000000 0.000000 0.000000 0.000000 0.041885 0.000000
# 6 0.000000 0.000000 0.000000 0.000000 0.000000 0.308419
#
#
# Mechanical properties :
#
#
# Convention : Reuss Voigt Hill
#
# Bulk Modulus (GPa) = 37.47750 47.69194 42.58472
# Shear Modulus (GPa) = 11.81669 9.17179 10.49424
#
# Velocity S-wave (km/s) = 2.61349 2.30250 2.46291
# Velocity P-wave (km/s) = 5.54708 5.88522 5.71865
#
# Compressibility (1/GPa) = 0.02668268
#
# Stress axis : x y z
#
# Youngs Moduli (GPa) = 39.61114 96.01552 36.16673
#
# Poissons Ratio (x) = 0.49331 0.29473
# Poissons Ratio (y) = 0.20351 0.18180
# Poissons Ratio (z) = 0.32280 0.48263
#
# Static dielectric constant tensor:
#      x y z
#    x 1.635360 0.000000 0.000000 
#    y 0.000000 1.608180 0.000000 
#    z 0.000000 0.000000 1.588060 
# 
# From -- ./inp_files/24134.got.cif
#   From: 2010.05.17/outbox.cif.g08.bks.cpg/sg47_13_cif.got.tgz:24134.got - 2010.06.03 20:15:42.
