data_PCOD9382904
_publ_section_title
;
Structure prediction by ZEFSAII (Michael W. Deem and Ramdas Pophale) SiO2 
 PCOD9382904
Probable space group: P M M M
;
_chemical_formula_sum "Si O2"
_cell_formula_units_Z 48
_cell_length_a 9.732931
_cell_length_b 7.501229
_cell_length_c 35.282234
_cell_angle_alpha 90.000000
_cell_angle_beta 90.000000
_cell_angle_gamma 90.000000
_cell_volume 2575.918656
_symmetry_space_group_name_H-M "P M M M"
_symmetry_group_IT_number 47
_symmetry_cell_setting 'orthorhombic'
loop_
_space_group_symop_operation_xyz
x,y,z
-x,-y,z
x,-y,-z
-x,y,-z
-x,-y,-z
x,y,-z
-x,y,z
x,-y,z
loop_
_atom_site_type_symbol
_atom_site_label
_atom_site_fract_x
_atom_site_fract_y
_atom_site_fract_z
Si Si1 0.663981 0.000000 0.676554
Si Si2 0.657242 0.215707 0.112545
Si Si3 0.158810 0.283004 0.457798
Si Si4 0.157494 0.782668 0.042931
Si Si5 0.157748 0.294434 0.185104
Si Si6 0.836663 0.000000 0.247061
Si Si7 0.662714 0.289742 0.386145
O O1 0.749042 0.000000 0.714990
O O2 0.696078 0.828641 0.650377
O O3 0.500000 0.000000 0.684197
O O4 0.500000 0.277784 0.113634
O O5 0.738592 0.278220 0.075224
O O6 0.742003 0.267149 0.149783
O O7 0.655038 0.000000 0.111305
O O8 0.202843 0.224979 0.500000
O O9 0.161593 0.500000 0.458066
O O10 0.253036 0.227653 0.422928
O O11 0.000000 0.229861 0.452393
O O12 0.000000 0.728738 0.051001
O O13 0.158788 0.000000 0.043118
O O14 0.192345 0.727191 0.000000
O O15 0.161149 0.500000 0.196554
O O16 0.000000 0.249303 0.173591
O O17 0.193882 0.169033 0.220251
O O18 0.000000 0.000000 0.255510
O O19 0.500000 0.269760 0.393526
O O20 0.690361 0.500000 0.379762
#
# Coordination Sequence:
#
# PCOD9382904 Si02
#       7
#     4   8   8   8   8   4   8
#     4  10  22  38  55  77 106 136 169 212 260 314
#     4  10  19  30  49  78 111 145 179 218 266 316
#     4   8  14  26  46  73 104 137 174 217 262 304
#     4   8  14  25  43  69 102 143 188 226 261 306
#     4  10  21  38  60  83 107 138 175 216 265 319
#     4  10  22  40  60  83 108 133 168 217 264 317
#     4   9  18  33  52  74 102 138 178 215 254 304
#
# _framework density 18.634129999999999
#
# number of rings (size 3 to 8) (size 9 to 14) (size 15 to 20)
#    0.000    2.833    0.833    1.500    0.000    3.667 
#    0.000    3.750    0.000    3.000    0.000    3.500 
#    0.000    0.000    0.000    0.000    0.000    0.000 
#
# Total GULP energy -267842.100084 kJ/mol
# GULP energy per Si atom -5580.043752 kJ/mol
# Density = 1.859172 g / cm^3
# Si number density = 18.634130 Si / 1000 Ang^3
#
#
#
# Elastic Constant Matrix: (Units=GPa)
#
#
# Indices 1 2 3 4 5 6 
#
# 1 108.6868 43.0273 124.3646 0.0000 0.0000 0.0000
# 2 43.0273 75.2857 56.0862 0.0000 0.0000 0.0000
# 3 124.3646 56.0862 202.7271 0.0000 0.0000 0.0000
# 4 0.0000 0.0000 0.0000 -51.2103 0.0000 0.0000
# 5 0.0000 0.0000 0.0000 0.0000 -133.2790 0.0000
# 6 0.0000 0.0000 0.0000 0.0000 0.0000 9.0780
#
#
#
# Elastic Compliance Matrix: (Units=1/GPa)
#
#
# Indices 1 2 3 4 5 6 
#
# 1 0.032102 -0.004630 -0.018412 0.000000 0.000000 0.000000
# 2 -0.004630 0.017399 -0.001973 0.000000 0.000000 0.000000
# 3 -0.018412 -0.001973 0.016774 0.000000 0.000000 0.000000
# 4 0.000000 0.000000 0.000000 -0.019527 0.000000 0.000000
# 5 0.000000 0.000000 0.000000 0.000000 -0.007503 0.000000
# 6 0.000000 0.000000 0.000000 0.000000 0.000000 0.110156
#
#
# Mechanical properties :
#
#
# Convention : Reuss Voigt Hill
#
# Bulk Modulus (GPa) = 61.56311 92.62842 77.09576
# Shear Modulus (GPa) = 24.40868 -24.20081 0.10394
#
# Velocity S-wave (km/s) = 3.62317 -3.60771 0.23643
# Velocity P-wave (km/s) = 7.11426 5.69762 6.44498
#
# Compressibility (1/GPa) = 0.01624349
#
# Stress axis : x y z
#
# Youngs Moduli (GPa) = 31.15095 57.47482 59.61728
#
# Poissons Ratio (x) = 0.26612 1.09768
# Poissons Ratio (y) = 0.14424 0.11763
# Poissons Ratio (z) = 0.57355 0.11340
#
# Static dielectric constant tensor:
#      x y z
#    x 1.625860 0.000000 0.000000 
#    y 0.000000 1.698890 0.000000 
#    z 0.000000 0.000000 1.597840 
# 
# From -- ./inp_files/34066.got.cif
#   From: 2010.05.17/outbox.cif.g08.bks.cpg/sg47_18_cif.got.tgz:34066.got - 2010.06.03 20:15:42.
