data_PCOD9382466
_publ_section_title
;
Structure prediction by ZEFSAII (Michael W. Deem and Ramdas Pophale) SiO2 
 PCOD9382466
Probable space group: P M M M
;
_chemical_formula_sum "Si O2"
_cell_formula_units_Z 52
_cell_length_a 17.339919
_cell_length_b 28.520492
_cell_length_c 8.135707
_cell_angle_alpha 90.000000
_cell_angle_beta 90.000000
_cell_angle_gamma 90.000000
_cell_volume 4023.457119
_symmetry_space_group_name_H-M "P M M M"
_symmetry_group_IT_number 47
_symmetry_cell_setting 'orthorhombic'
loop_
_space_group_symop_operation_xyz
x,y,z
-x,-y,z
x,-y,-z
-x,y,-z
-x,-y,-z
x,y,-z
-x,y,z
x,-y,z
loop_
_atom_site_type_symbol
_atom_site_label
_atom_site_fract_x
_atom_site_fract_y
_atom_site_fract_z
Si Si1 0.500000 0.946199 0.200379
Si Si2 0.655784 0.105367 0.805585
Si Si3 0.411296 0.599137 0.695715
Si Si4 0.589165 0.698292 0.804092
Si Si5 0.911966 0.943189 0.000000
Si Si6 0.191853 0.943948 0.686894
Si Si7 0.588639 0.500000 0.195706
Si Si8 0.409961 0.799300 0.695145
O O1 0.577522 0.920137 0.253406
O O2 0.500000 0.000000 0.253000
O O3 0.500000 0.945145 0.000000
O O4 0.729325 0.084399 0.714148
O O5 0.640098 0.160209 0.777661
O O6 0.665523 0.095827 0.000000
O O7 0.414537 0.600313 0.500000
O O8 0.500000 0.598498 0.763139
O O9 0.375617 0.648167 0.755158
O O10 0.375862 0.549412 0.748436
O O11 0.500000 0.696652 0.742745
O O12 0.620000 0.746996 0.733285
O O13 0.588653 0.701709 0.000000
O O14 0.866410 0.930077 0.166521
O O15 0.000000 0.926084 0.000000
O O16 0.914421 0.000000 0.000000
O O17 0.163052 0.936551 0.500000
O O18 0.207075 0.000000 0.704792
O O19 0.500000 0.500000 0.263489
O O20 0.585323 0.500000 0.000000
O O21 0.410095 0.806593 0.500000
O O22 0.500000 0.802451 0.753441
#
# Coordination Sequence:
#
# PCOD9382466 Si02
#       8
#     4   8   8   8   4   8   4   8
#     4   9  18  28  41  59  77 104 139 168 196 230
#     4  11  19  30  45  59  81 108 137 169 200 233
#     4   9  15  22  31  43  58  76  98 129 174 222
#     4   9  16  25  36  47  60  80 111 147 185 226
#     4   9  18  34  54  73  91 109 129 154 188 235
#     4  10  20  33  49  69  91 112 133 160 195 235
#     4   9  15  21  29  41  57  75  97 125 163 217
#     4  10  19  29  39  52  72  96 128 166 199 231
#
# _framework density 12.924208999999999
#
# number of rings (size 3 to 8) (size 9 to 14) (size 15 to 20)
#    0.000    2.385    1.538    2.538    0.000    6.154 
#    0.000    1.538    0.000    1.846    0.000    0.000 
#    0.000    0.000    0.000    0.000    0.000    0.000 
#
# Total GULP energy -289597.238888 kJ/mol
# GULP energy per Si atom -5569.177671 kJ/mol
# Density = 1.289479 g / cm^3
# Si number density = 12.924209 Si / 1000 Ang^3
#
#
#
# Elastic Constant Matrix: (Units=GPa)
#
#
# Indices 1 2 3 4 5 6 
#
# 1 48.0385 20.6314 22.1021 0.0000 0.0000 0.0000
# 2 20.6314 83.5998 15.8899 0.0000 0.0000 0.0000
# 3 22.1021 15.8899 56.5631 0.0000 0.0000 0.0000
# 4 0.0000 0.0000 0.0000 20.4769 0.0000 0.0000
# 5 0.0000 0.0000 0.0000 0.0000 5.9148 0.0000
# 6 0.0000 0.0000 0.0000 0.0000 0.0000 1.7893
#
#
#
# Elastic Compliance Matrix: (Units=1/GPa)
#
#
# Indices 1 2 3 4 5 6 
#
# 1 0.027193 -0.004956 -0.009234 0.000000 0.000000 0.000000
# 2 -0.004956 0.013540 -0.001867 0.000000 0.000000 0.000000
# 3 -0.009234 -0.001867 0.021812 0.000000 0.000000 0.000000
# 4 0.000000 0.000000 0.000000 0.048836 0.000000 0.000000
# 5 0.000000 0.000000 0.000000 0.000000 0.169066 0.000000
# 6 0.000000 0.000000 0.000000 0.000000 0.000000 0.558865
#
#
# Mechanical properties :
#
#
# Convention : Reuss Voigt Hill
#
# Bulk Modulus (GPa) = 32.86041 33.93868 33.39954
# Shear Modulus (GPa) = 5.67171 14.27474 9.97322
#
# Velocity S-wave (km/s) = 2.09713 3.32700 2.78091
# Velocity P-wave (km/s) = 5.59863 6.40901 6.01747
#
# Compressibility (1/GPa) = 0.03043176
#
# Stress axis : x y z
#
# Youngs Moduli (GPa) = 36.77360 73.85690 45.84645
#
# Poissons Ratio (x) = 0.36603 0.42333
# Poissons Ratio (y) = 0.18225 0.08560
# Poissons Ratio (z) = 0.33955 0.13790
#
# Static dielectric constant tensor:
#      x y z
#    x 1.387630 0.000000 0.000000 
#    y 0.000000 1.458650 0.000000 
#    z 0.000000 0.000000 1.448640 
# 
# From -- ./inp_files/8082.got.cif
#   From: 2010.05.17/outbox.cif.g08.bks.cpg/sg47_5_cif.got.tgz:8082.got - 2010.06.03 20:15:42.
