data_PCOD9382740
_publ_section_title
;
Structure prediction by ZEFSAII (Michael W. Deem and Ramdas Pophale) SiO2 
 PCOD9382740
Probable space group: P M M M
;
_chemical_formula_sum "Si O2"
_cell_formula_units_Z 48
_cell_length_a 24.563387
_cell_length_b 8.099703
_cell_length_c 14.332634
_cell_angle_alpha 90.000000
_cell_angle_beta 90.000000
_cell_angle_gamma 90.000000
_cell_volume 2851.565528
_symmetry_space_group_name_H-M "P M M M"
_symmetry_group_IT_number 47
_symmetry_cell_setting 'orthorhombic'
loop_
_space_group_symop_operation_xyz
x,y,z
-x,-y,z
x,-y,-z
-x,y,-z
-x,-y,-z
x,y,-z
-x,y,z
x,-y,z
loop_
_atom_site_type_symbol
_atom_site_label
_atom_site_fract_x
_atom_site_fract_y
_atom_site_fract_z
Si Si1 0.226946 0.198543 0.105319
Si Si2 0.728627 0.699151 0.394253
Si Si3 0.834447 0.696497 0.281290
Si Si4 0.938369 0.801002 0.393872
Si Si5 0.666406 0.199413 0.217736
Si Si6 0.438546 0.201491 0.892367
O O1 0.179508 0.243111 0.177600
O O2 0.283563 0.257597 0.152052
O O3 0.230122 0.000000 0.101254
O O4 0.220102 0.260793 0.000000
O O5 0.722035 0.759420 0.500000
O O6 0.730799 0.500000 0.396966
O O7 0.785512 0.759628 0.348531
O O8 0.681467 0.748551 0.322284
O O9 0.831064 0.500000 0.280899
O O10 0.892232 0.746280 0.322847
O O11 0.925577 0.744825 0.500000
O O12 0.000000 0.745644 0.371406
O O13 0.938899 0.000000 0.395175
O O14 0.609182 0.258388 0.175981
O O15 0.666198 0.000000 0.214667
O O16 0.500000 0.254784 0.868414
O O17 0.438471 0.000000 0.890791
O O18 0.427283 0.248825 0.000000
#
# Coordination Sequence:
#
# PCOD9382740 Si02
#       6
#     8   8   8   8   8   8
#     4   9  17  29  45  65  90 119 148 179 217 261
#     4   9  18  31  44  60  86 118 147 176 215 261
#     4  10  19  30  46  68  92 117 146 181 220 260
#     4   9  18  32  49  69  93 120 148 178 214 258
#     4   9  16  26  43  67  89 110 143 183 217 254
#     4   8  13  22  39  64  91 115 138 170 216 264
#
# _framework density 16.832858000000002
#
# number of rings (size 3 to 8) (size 9 to 14) (size 15 to 20)
#    0.000    3.000    0.000    2.500    0.000    4.667 
#    0.000    0.833    0.000    3.000    0.000    8.167 
#    0.000    0.000    0.000    0.000    0.000    0.000 
#
# Total GULP energy -267475.401848 kJ/mol
# GULP energy per Si atom -5572.404205 kJ/mol
# Density = 1.679455 g / cm^3
# Si number density = 16.832858 Si / 1000 Ang^3
#
#
#
# Elastic Constant Matrix: (Units=GPa)
#
#
# Indices 1 2 3 4 5 6 
#
# 1 113.1045 6.0190 90.1028 0.0000 0.0000 0.0000
# 2 6.0190 8.2604 12.6944 0.0000 0.0000 0.0000
# 3 90.1028 12.6944 165.8212 0.0000 0.0000 0.0000
# 4 0.0000 0.0000 0.0000 7.4997 0.0000 0.0000
# 5 0.0000 0.0000 0.0000 0.0000 26.9909 0.0000
# 6 0.0000 0.0000 0.0000 0.0000 0.0000 9.2402
#
#
#
# Elastic Compliance Matrix: (Units=1/GPa)
#
#
# Indices 1 2 3 4 5 6 
#
# 1 0.015615 0.001883 -0.008629 0.000000 0.000000 0.000000
# 2 0.001883 0.137427 -0.011544 0.000000 0.000000 0.000000
# 3 -0.008629 -0.011544 0.011603 0.000000 0.000000 0.000000
# 4 0.000000 0.000000 0.000000 0.133339 0.000000 0.000000
# 5 0.000000 0.000000 0.000000 0.000000 0.037050 0.000000
# 6 0.000000 0.000000 0.000000 0.000000 0.000000 0.108223
#
#
# Mechanical properties :
#
#
# Convention : Reuss Voigt Hill
#
# Bulk Modulus (GPa) = 7.80849 56.09096 31.94973
# Shear Modulus (GPa) = 9.56889 20.63747 15.10318
#
# Velocity S-wave (km/s) = 2.38684 3.50526 2.99865
# Velocity P-wave (km/s) = 3.49927 7.05529 5.56875
#
# Compressibility (1/GPa) = 0.12806571
#
# Stress axis : x y z
#
# Youngs Moduli (GPa) = 64.03903 7.27657 86.18326
#
# Poissons Ratio (x) = -0.01370 0.74369
# Poissons Ratio (y) = -0.12057 0.99488
# Poissons Ratio (z) = 0.55260 0.08400
#
# Static dielectric constant tensor:
#      x y z
#    x 1.565620 0.000000 0.000000 
#    y 0.000000 1.595720 0.000000 
#    z 0.000000 0.000000 1.560950 
# 
# From -- ./inp_files/4293.got.cif
#   From: 2010.05.17/outbox.cif.g08.bks.cpg/sg47_3_cif.got.tgz:4293.got - 2010.06.03 20:15:42.
