data_PCOD9382026
_publ_section_title
;
Structure prediction by ZEFSAII (Michael W. Deem and Ramdas Pophale) SiO2 
 PCOD9382026
Probable space group: P M M M
;
_chemical_formula_sum "Si O2"
_cell_formula_units_Z 64
_cell_length_a 19.899483
_cell_length_b 7.567603
_cell_length_c 21.887432
_cell_angle_alpha 90.000000
_cell_angle_beta 90.000000
_cell_angle_gamma 90.000000
_cell_volume 3296.058748
_symmetry_space_group_name_H-M "P M M M"
_symmetry_group_IT_number 47
_symmetry_cell_setting 'orthorhombic'
loop_
_space_group_symop_operation_xyz
x,y,z
-x,-y,z
x,-y,-z
-x,y,-z
-x,-y,-z
x,y,-z
-x,y,z
x,-y,z
loop_
_atom_site_type_symbol
_atom_site_label
_atom_site_fract_x
_atom_site_fract_y
_atom_site_fract_z
Si Si1 0.214852 0.716845 0.932708
Si Si2 0.925700 0.709488 0.882999
Si Si3 0.575333 0.786289 0.382874
Si Si4 0.215690 0.292048 0.689182
Si Si5 0.285495 0.707146 0.811003
Si Si6 0.924691 0.788337 0.740226
Si Si7 0.282162 0.292205 0.433468
Si Si8 0.574967 0.786723 0.241430
O O1 0.215224 0.500000 0.932671
O O2 0.138310 0.776043 0.919800
O O3 0.259045 0.778577 0.875288
O O4 0.237109 0.773088 0.000000
O O5 0.928905 0.500000 0.894720
O O6 0.912434 0.732964 0.810590
O O7 0.000000 0.784031 0.896070
O O8 0.500000 0.729760 0.401413
O O9 0.638061 0.722698 0.421738
O O10 0.585999 0.731155 0.312066
O O11 0.575932 0.000000 0.384270
O O12 0.233378 0.500000 0.688383
O O13 0.250025 0.214898 0.750430
O O14 0.136045 0.275688 0.698333
O O15 0.244677 0.216088 0.626113
O O16 0.267183 0.500000 0.811800
O O17 0.364676 0.723487 0.800425
O O18 0.000000 0.726308 0.723789
O O19 0.924524 0.000000 0.738727
O O20 0.265706 0.215263 0.500000
O O21 0.265173 0.500000 0.435828
O O22 0.500000 0.729212 0.223482
O O23 0.575852 0.000000 0.241348
#
# Coordination Sequence:
#
# PCOD9382026 Si02
#       8
#     8   8   8   8   8   8   8   8
#     4   9  17  29  45  69 101 130 159 200 243 283
#     4   9  16  28  47  70  98 132 166 196 232 281
#     4   9  18  32  49  71 100 133 167 199 234 283
#     4  10  19  33  52  74  98 126 163 203 240 284
#     4  10  18  30  50  75  97 124 163 202 242 285
#     4  10  20  32  49  75 102 127 160 202 245 286
#     4  10  21  35  50  71 100 131 162 200 245 289
#     4   9  18  32  50  73  99 126 159 201 246 287
#
# _framework density 19.417128999999999
#
# number of rings (size 3 to 8) (size 9 to 14) (size 15 to 20)
#    0.000    2.500    2.500    1.125    0.000    3.000 
#    0.000    3.750    0.000    2.250    0.000    7.000 
#    0.000    0.000    0.000    0.000    0.000    0.000 
#
# Total GULP energy -357036.140540 kJ/mol
# GULP energy per Si atom -5578.689696 kJ/mol
# Density = 1.937293 g / cm^3
# Si number density = 19.417129 Si / 1000 Ang^3
#
#
#
# Elastic Constant Matrix: (Units=GPa)
#
#
# Indices 1 2 3 4 5 6 
#
# 1 99.1082 -9.6655 81.5492 0.0000 0.0000 0.0000
# 2 -9.6655 43.0943 8.1239 0.0000 0.0000 0.0000
# 3 81.5492 8.1239 153.2734 0.0000 0.0000 0.0000
# 4 0.0000 0.0000 0.0000 -8.0372 0.0000 0.0000
# 5 0.0000 0.0000 0.0000 0.0000 20.8772 0.0000
# 6 0.0000 0.0000 0.0000 0.0000 0.0000 26.6662
#
#
#
# Elastic Compliance Matrix: (Units=1/GPa)
#
#
# Indices 1 2 3 4 5 6 
#
# 1 0.019557 0.006412 -0.010745 0.000000 0.000000 0.000000
# 2 0.006412 0.025541 -0.004765 0.000000 0.000000 0.000000
# 3 -0.010745 -0.004765 0.012494 0.000000 0.000000 0.000000
# 4 0.000000 0.000000 0.000000 -0.124422 0.000000 0.000000
# 5 0.000000 0.000000 0.000000 0.000000 0.047899 0.000000
# 6 0.000000 0.000000 0.000000 0.000000 0.000000 0.037501
#
#
# Mechanical properties :
#
#
# Convention : Reuss Voigt Hill
#
# Bulk Modulus (GPa) = 25.38391 50.61012 37.99702
# Shear Modulus (GPa) = 100.20507 22.26580 61.23544
#
# Velocity S-wave (km/s) = 7.19156 3.38998 5.62186
# Velocity P-wave (km/s) = 9.05867 6.43769 7.85822
#
# Compressibility (1/GPa) = 0.03939504
#
# Stress axis : x y z
#
# Youngs Moduli (GPa) = 51.13388 39.15223 80.04049
#
# Poissons Ratio (x) = -0.25104 0.86003
# Poissons Ratio (y) = -0.32786 0.38141
# Poissons Ratio (z) = 0.54943 0.18657
#
# Static dielectric constant tensor:
#      x y z
#    x 1.679820 0.000000 0.000000 
#    y 0.000000 1.730660 0.000000 
#    z 0.000000 0.000000 1.684430 
# 
# From -- ./inp_files/11790.got.cif
#   From: 2010.05.17/outbox.cif.g08.bks.cpg/sg47_6_cif.got.tgz:11790.got - 2010.06.03 20:15:42.
