data_PCOD9382851
_publ_section_title
;
Structure prediction by ZEFSAII (Michael W. Deem and Ramdas Pophale) SiO2 
 PCOD9382851
Probable space group: P M M M
;
_chemical_formula_sum "Si O2"
_cell_formula_units_Z 64
_cell_length_a 8.742426
_cell_length_b 29.115687
_cell_length_c 14.211538
_cell_angle_alpha 90.000000
_cell_angle_beta 90.000000
_cell_angle_gamma 90.000000
_cell_volume 3617.429597
_symmetry_space_group_name_H-M "P M M M"
_symmetry_group_IT_number 47
_symmetry_cell_setting 'orthorhombic'
loop_
_space_group_symop_operation_xyz
x,y,z
-x,-y,z
x,-y,-z
-x,y,-z
-x,-y,-z
x,y,-z
-x,y,z
x,-y,z
loop_
_atom_site_type_symbol
_atom_site_label
_atom_site_fract_x
_atom_site_fract_y
_atom_site_fract_z
Si Si1 0.323203 0.869817 0.755954
Si Si2 0.313830 0.053652 0.105701
Si Si3 0.678786 0.628166 0.238128
Si Si4 0.315445 0.299630 0.390172
Si Si5 0.329634 0.283961 0.888126
Si Si6 0.831040 0.805156 0.887895
Si Si7 0.815924 0.553436 0.894031
Si Si8 0.817386 0.200163 0.609971
O O1 0.500000 0.876299 0.730585
O O2 0.260898 0.916446 0.804866
O O3 0.301157 0.835032 0.842868
O O4 0.240538 0.842719 0.671777
O O5 0.500000 0.056793 0.105444
O O6 0.273957 0.000000 0.114871
O O7 0.263063 0.069094 0.000000
O O8 0.500000 0.617398 0.254465
O O9 0.737688 0.656420 0.329326
O O10 0.690632 0.667335 0.158727
O O11 0.757324 0.584196 0.191934
O O12 0.276405 0.305329 0.500000
O O13 0.500000 0.297661 0.380807
O O14 0.252116 0.249644 0.359927
O O15 0.500000 0.266931 0.860912
O O16 0.202147 0.247276 0.861438
O O17 0.326315 0.288403 0.000000
O O18 0.000000 0.819691 0.855135
O O19 0.826465 0.808518 0.000000
O O20 0.771231 0.500000 0.883423
O O21 0.000000 0.555490 0.894505
O O22 0.764307 0.568490 0.000000
O O23 0.774899 0.193842 0.500000
O O24 0.000000 0.203159 0.616636
#
# Coordination Sequence:
#
# PCOD9382851 Si02
#       8
#     8   8   8   8   8   8   8   8
#     4  11  20  30  50  75  97 126 164 204 249 299
#     4   8  15  29  49  74 102 129 161 204 250 294
#     4  10  19  30  48  73  96 122 159 200 241 285
#     4   9  18  33  52  75 104 134 164 201 245 292
#     4   9  17  28  41  61  92 125 157 195 237 284
#     4  10  20  31  43  64  97 133 165 197 235 284
#     4   9  19  35  52  71  97 128 161 199 245 295
#     4  10  21  36  53  74 101 132 167 207 249 295
#
# _framework density 17.692121
#
# number of rings (size 3 to 8) (size 9 to 14) (size 15 to 20)
#    0.000    2.500    0.000    3.375    0.000    5.000 
#    0.000    1.875    0.000    2.250    0.000    9.625 
#    0.000    0.000    0.000    0.000    0.000    0.000 
#
# Total GULP energy -356470.493168 kJ/mol
# GULP energy per Si atom -5569.851456 kJ/mol
# Density = 1.765185 g / cm^3
# Si number density = 17.692121 Si / 1000 Ang^3
#
#
#
# Elastic Constant Matrix: (Units=GPa)
#
#
# Indices 1 2 3 4 5 6 
#
# 1 16.4411 20.2783 16.7983 0.0000 0.0000 0.0000
# 2 20.2783 78.3136 62.9652 0.0000 0.0000 0.0000
# 3 16.7983 62.9652 98.8257 0.0000 0.0000 0.0000
# 4 0.0000 0.0000 0.0000 35.5723 0.0000 0.0000
# 5 0.0000 0.0000 0.0000 0.0000 15.3547 0.0000
# 6 0.0000 0.0000 0.0000 0.0000 0.0000 -7.4658
#
#
#
# Elastic Compliance Matrix: (Units=1/GPa)
#
#
# Indices 1 2 3 4 5 6 
#
# 1 0.089404 -0.022413 -0.000917 0.000000 0.000000 0.000000
# 2 -0.022413 0.031799 -0.016451 0.000000 0.000000 0.000000
# 3 -0.000917 -0.016451 0.020756 0.000000 0.000000 0.000000
# 4 0.000000 0.000000 0.000000 0.028112 0.000000 0.000000
# 5 0.000000 0.000000 0.000000 0.000000 0.065127 0.000000
# 6 0.000000 0.000000 0.000000 0.000000 0.000000 -0.133945
#
#
# Mechanical properties :
#
#
# Convention : Reuss Voigt Hill
#
# Bulk Modulus (GPa) = 16.02605 43.74042 29.88323
# Shear Modulus (GPa) = 24.80006 14.92817 19.86411
#
# Velocity S-wave (km/s) = 3.74807 2.90793 3.35441
# Velocity P-wave (km/s) = 5.27339 6.00429 5.65067
#
# Compressibility (1/GPa) = 0.06239843
#
# Stress axis : x y z
#
# Youngs Moduli (GPa) = 11.18521 31.44734 48.17905
#
# Poissons Ratio (x) = 0.70482 0.04417
# Poissons Ratio (y) = 0.25069 0.79258
# Poissons Ratio (z) = 0.01025 0.51733
#
# Static dielectric constant tensor:
#      x y z
#    x 1.628920 0.000000 0.000000 
#    y 0.000000 1.609540 0.000000 
#    z 0.000000 0.000000 1.634770 
# 
# From -- ./inp_files/22204.got.cif
#   From: 2010.05.17/outbox.cif.g08.bks.cpg/sg47_12_cif.got.tgz:22204.got - 2010.06.03 20:15:42.
