data_PCOD9382245
_publ_section_title
;
Structure prediction by ZEFSAII (Michael W. Deem and Ramdas Pophale) SiO2 
 PCOD9382245
Probable space group: P M M M
;
_chemical_formula_sum "Si O2"
_cell_formula_units_Z 60
_cell_length_a 8.434224
_cell_length_b 19.677823
_cell_length_c 21.678748
_cell_angle_alpha 90.000000
_cell_angle_beta 90.000000
_cell_angle_gamma 90.000000
_cell_volume 3597.960390
_symmetry_space_group_name_H-M "P M M M"
_symmetry_group_IT_number 47
_symmetry_cell_setting 'orthorhombic'
loop_
_space_group_symop_operation_xyz
x,y,z
-x,-y,z
x,-y,-z
-x,y,-z
-x,-y,-z
x,y,-z
-x,y,z
x,-y,z
loop_
_atom_site_type_symbol
_atom_site_label
_atom_site_fract_x
_atom_site_fract_y
_atom_site_fract_z
Si Si1 0.806149 0.290621 0.930447
Si Si2 0.189545 0.281809 0.313346
Si Si3 0.190096 0.921004 0.500000
Si Si4 0.192988 0.792111 0.186789
Si Si5 0.191860 0.923496 0.254177
Si Si6 0.688539 0.849340 0.376561
Si Si7 0.808797 0.424006 0.858797
Si Si8 0.310637 0.576404 0.281112
O O1 0.752453 0.237716 0.878134
O O2 0.759526 0.364858 0.905127
O O3 0.000000 0.289071 0.931427
O O4 0.751399 0.278108 0.000000
O O5 0.241196 0.254246 0.245359
O O6 0.256463 0.227772 0.362250
O O7 0.242422 0.359725 0.318308
O O8 0.000000 0.278096 0.315307
O O9 0.248036 0.881327 0.560440
O O10 0.000000 0.922063 0.500000
O O11 0.245424 0.000000 0.500000
O O12 0.243062 0.868460 0.203280
O O13 0.000000 0.790441 0.185927
O O14 0.246606 0.894440 0.319840
O O15 0.000000 0.924031 0.254599
O O16 0.248455 0.000000 0.244189
O O17 0.500000 0.851480 0.376485
O O18 0.767119 0.500000 0.880022
O O19 0.739658 0.414475 0.790419
O O20 0.000000 0.420156 0.852773
O O21 0.500000 0.578128 0.285023
O O22 0.256464 0.500000 0.299305
#
# Coordination Sequence:
#
# PCOD9382245 Si02
#       8
#     8   8   4   8   8   8   8   8
#     4   9  15  23  38  61  86 114 154 204 253 298
#     4  10  18  32  52  71  96 130 169 207 244 293
#     4  11  23  39  57  77 108 149 184 205 231 279
#     4   8  14  25  41  62  86 114 150 198 250 294
#     4   9  17  30  48  68  92 125 164 202 243 294
#     4  11  22  34  51  78 108 135 165 204 247 286
#     4   9  16  26  40  59  84 117 157 198 244 300
#     4  10  19  29  44  69  99 128 159 203 257 301
#
# _framework density 16.676114999999999
#
# number of rings (size 3 to 8) (size 9 to 14) (size 15 to 20)
#    0.000    2.467    1.333    3.400    0.000    3.467 
#    0.000    1.333    0.000    0.800    0.000    5.133 
#    0.000    3.733    0.000    3.467    0.000    4.533 
#
# Total GULP energy -334470.548895 kJ/mol
# GULP energy per Si atom -5574.509148 kJ/mol
# Density = 1.663816 g / cm^3
# Si number density = 16.676115 Si / 1000 Ang^3
#
#
#
# Elastic Constant Matrix: (Units=GPa)
#
#
# Indices 1 2 3 4 5 6 
#
# 1 18.1311 24.4725 14.6294 0.0000 0.0000 0.0000
# 2 24.4725 165.7988 79.6586 0.0000 0.0000 0.0000
# 3 14.6294 79.6586 100.8273 0.0000 0.0000 0.0000
# 4 0.0000 0.0000 0.0000 34.5832 0.0000 0.0000
# 5 0.0000 0.0000 0.0000 0.0000 -8.0628 0.0000
# 6 0.0000 0.0000 0.0000 0.0000 0.0000 15.5702
#
#
#
# Elastic Compliance Matrix: (Units=1/GPa)
#
#
# Indices 1 2 3 4 5 6 
#
# 1 0.069507 -0.008727 -0.003191 0.000000 0.000000 0.000000
# 2 -0.008727 0.010817 -0.007280 0.000000 0.000000 0.000000
# 3 -0.003191 -0.007280 0.016132 0.000000 0.000000 0.000000
# 4 0.000000 0.000000 0.000000 0.028916 0.000000 0.000000
# 5 0.000000 0.000000 0.000000 0.000000 -0.124026 0.000000
# 6 0.000000 0.000000 0.000000 0.000000 0.000000 0.064225
#
#
# Mechanical properties :
#
#
# Convention : Reuss Voigt Hill
#
# Bulk Modulus (GPa) = 17.22288 58.03091 37.62689
# Shear Modulus (GPa) = 40.54512 19.48457 30.01484
#
# Velocity S-wave (km/s) = 4.93620 3.42191 4.24709
# Velocity P-wave (km/s) = 6.54510 7.10542 6.83101
#
# Compressibility (1/GPa) = 0.05806229
#
# Stress axis : x y z
#
# Youngs Moduli (GPa) = 14.38706 92.44600 61.98714
#
# Poissons Ratio (x) = 0.80673 0.19778
# Poissons Ratio (y) = 0.12555 0.45126
# Poissons Ratio (z) = 0.04590 0.67300
#
# Static dielectric constant tensor:
#      x y z
#    x 1.565290 0.000000 0.000000 
#    y 0.000000 1.591470 0.000000 
#    z 0.000000 0.000000 1.534920 
# 
# From -- ./inp_files/29943.got.cif
#   From: 2010.05.17/outbox.cif.g08.bks.cpg/sg47_15_cif.got.tgz:29943.got - 2010.06.03 20:15:42.
