data_PCOD9382122
_publ_section_title
;
Structure prediction by ZEFSAII (Michael W. Deem and Ramdas Pophale) SiO2 
 PCOD9382122
Probable space group: P M M M
;
_chemical_formula_sum "Si O2"
_cell_formula_units_Z 52
_cell_length_a 20.875828
_cell_length_b 7.573095
_cell_length_c 15.526028
_cell_angle_alpha 90.000000
_cell_angle_beta 90.000000
_cell_angle_gamma 90.000000
_cell_volume 2454.581631
_symmetry_space_group_name_H-M "P M M M"
_symmetry_group_IT_number 47
_symmetry_cell_setting 'orthorhombic'
loop_
_space_group_symop_operation_xyz
x,y,z
-x,-y,z
x,-y,-z
-x,y,-z
-x,-y,-z
x,y,-z
-x,y,z
x,-y,z
loop_
_atom_site_type_symbol
_atom_site_label
_atom_site_fract_x
_atom_site_fract_y
_atom_site_fract_z
Si Si1 0.072652 0.794972 0.853355
Si Si2 0.073809 0.288801 0.500000
Si Si3 0.315450 0.206277 0.771277
Si Si4 0.573333 0.713041 0.903450
Si Si5 0.863508 0.715058 0.673971
Si Si6 0.210297 0.216191 0.905717
Si Si7 0.270488 0.707991 0.598832
O O1 0.097278 0.785522 0.754869
O O2 0.136455 0.720872 0.899272
O O3 0.000000 0.721182 0.863053
O O4 0.068227 0.000000 0.879619
O O5 0.086600 0.500000 0.500000
O O6 0.102083 0.223325 0.587831
O O7 0.000000 0.258232 0.500000
O O8 0.377443 0.230842 0.830625
O O9 0.255751 0.281718 0.828414
O O10 0.323692 0.273005 0.673224
O O11 0.303409 0.000000 0.762954
O O12 0.500000 0.770279 0.887840
O O13 0.573348 0.500000 0.904765
O O14 0.592038 0.773651 0.000000
O O15 0.864489 0.500000 0.682085
O O16 0.791371 0.775236 0.652304
O O17 0.208899 0.000000 0.900737
O O18 0.236271 0.263624 0.000000
O O19 0.277917 0.777557 0.500000
O O20 0.259271 0.500000 0.588057
#
# Coordination Sequence:
#
# PCOD9382122 Si02
#       7
#     8   4   8   8   8   8   8
#     4  10  20  33  48  67  95 132 175 223 274 327
#     4   9  16  26  43  67  91 119 160 211 270 333
#     4  11  21  34  56  84 116 150 182 225 277 326
#     4   9  19  37  61  90 124 158 188 219 260 314
#     4  10  18  31  50  70  93 125 168 221 278 332
#     4   9  18  32  49  72 102 136 177 222 268 320
#     4  10  20  35  55  78 105 140 185 232 277 331
#
# _framework density 21.184871999999999
#
# number of rings (size 3 to 8) (size 9 to 14) (size 15 to 20)
#    0.000    2.231    2.308    1.846    0.000    2.769 
#    0.000    2.692    0.000    3.231    0.000    4.308 
#    0.000    0.000    0.000    0.000    0.000    0.000 
#
# Total GULP energy -289790.805388 kJ/mol
# GULP energy per Si atom -5572.900104 kJ/mol
# Density = 2.113665 g / cm^3
# Si number density = 21.184872 Si / 1000 Ang^3
#
#
#
# Elastic Constant Matrix: (Units=GPa)
#
#
# Indices 1 2 3 4 5 6 
#
# 1 99.1267 3.7712 58.3921 0.0000 0.0000 0.0000
# 2 3.7712 54.3652 -2.6802 0.0000 0.0000 0.0000
# 3 58.3921 -2.6802 149.6685 0.0000 0.0000 0.0000
# 4 0.0000 0.0000 0.0000 19.0984 0.0000 0.0000
# 5 0.0000 0.0000 0.0000 0.0000 32.1102 0.0000
# 6 0.0000 0.0000 0.0000 0.0000 0.0000 11.0803
#
#
#
# Elastic Compliance Matrix: (Units=1/GPa)
#
#
# Indices 1 2 3 4 5 6 
#
# 1 0.013172 -0.001168 -0.005160 0.000000 0.000000 0.000000
# 2 -0.001168 0.018514 0.000787 0.000000 0.000000 0.000000
# 3 -0.005160 0.000787 0.008709 0.000000 0.000000 0.000000
# 4 0.000000 0.000000 0.000000 0.052360 0.000000 0.000000
# 5 0.000000 0.000000 0.000000 0.000000 0.031143 0.000000
# 6 0.000000 0.000000 0.000000 0.000000 0.000000 0.090250
#
#
# Mechanical properties :
#
#
# Convention : Reuss Voigt Hill
#
# Bulk Modulus (GPa) = 34.11438 46.90298 40.50868
# Shear Modulus (GPa) = 21.27654 28.70292 24.98973
#
# Velocity S-wave (km/s) = 3.17255 3.68486 3.43826
# Velocity P-wave (km/s) = 5.43675 6.34761 5.90975
#
# Compressibility (1/GPa) = 0.02931315
#
# Stress axis : x y z
#
# Youngs Moduli (GPa) = 75.91819 54.01332 114.82853
#
# Poissons Ratio (x) = 0.06309 0.59251
# Poissons Ratio (y) = 0.08868 -0.09040
# Poissons Ratio (z) = 0.39173 -0.04252
#
# Static dielectric constant tensor:
#      x y z
#    x 1.797110 0.000000 0.000000 
#    y 0.000000 1.807160 0.000000 
#    z 0.000000 0.000000 1.809100 
# 
# From -- ./inp_files/24988.got.cif
#   From: 2010.05.17/outbox.cif.g08.bks.cpg/sg47_13_cif.got.tgz:24988.got - 2010.06.03 20:15:42.
