data_PCOD9382287
_publ_section_title
;
Structure prediction by ZEFSAII (Michael W. Deem and Ramdas Pophale) SiO2 
 PCOD9382287
Probable space group: P M M M
;
_chemical_formula_sum "Si O2"
_cell_formula_units_Z 52
_cell_length_a 12.366919
_cell_length_b 7.500569
_cell_length_c 25.992039
_cell_angle_alpha 90.000000
_cell_angle_beta 90.000000
_cell_angle_gamma 90.000000
_cell_volume 2410.993707
_symmetry_space_group_name_H-M "P M M M"
_symmetry_group_IT_number 47
_symmetry_cell_setting 'orthorhombic'
loop_
_space_group_symop_operation_xyz
x,y,z
-x,-y,z
x,-y,-z
-x,y,-z
-x,-y,-z
x,y,-z
-x,y,z
x,-y,z
loop_
_atom_site_type_symbol
_atom_site_label
_atom_site_fract_x
_atom_site_fract_y
_atom_site_fract_z
Si Si1 0.761813 0.281602 0.249577
Si Si2 0.224677 0.713903 0.058081
Si Si3 0.000000 0.702844 0.768294
Si Si4 0.623718 0.718306 0.651776
Si Si5 0.000000 0.212321 0.558989
Si Si6 0.000000 0.792454 0.885494
Si Si7 0.624484 0.282010 0.149843
Si Si8 0.236435 0.710385 0.441684
O O1 0.764758 0.500000 0.248379
O O2 0.885454 0.217021 0.248355
O O3 0.696765 0.227156 0.300101
O O4 0.696250 0.226505 0.198694
O O5 0.235714 0.500000 0.055659
O O6 0.107077 0.750332 0.082117
O O7 0.315585 0.777959 0.097921
O O8 0.233266 0.783467 0.000000
O O9 0.000000 0.697046 0.830465
O O10 0.000000 0.500000 0.748311
O O11 0.500000 0.774390 0.657398
O O12 0.624411 0.500000 0.651331
O O13 0.677145 0.781470 0.598605
O O14 0.115153 0.269422 0.580881
O O15 0.000000 0.282698 0.500000
O O16 0.000000 0.000000 0.557594
O O17 0.000000 0.000000 0.873106
O O18 0.500000 0.225029 0.153463
O O19 0.624136 0.500000 0.149904
O O20 0.239058 0.785508 0.500000
O O21 0.256388 0.500000 0.446224
#
# Coordination Sequence:
#
# PCOD9382287 Si02
#       8
#     8   8   4   8   4   4   8   8
#     4   9  16  27  47  73 101 129 162 207 253 296
#     4  10  20  34  53  77 105 135 166 204 251 299
#     4  10  18  32  54  77 100 127 162 206 259 308
#     4   9  17  28  44  72 107 137 168 208 252 297
#     4   9  17  30  49  71  95 127 168 212 254 297
#     4  12  23  35  53  76 103 133 168 208 249 300
#     4   9  16  27  47  75 103 129 160 203 251 293
#     4   9  17  29  47  73 105 138 170 207 252 302
#
# _framework density 21.567869000000002
#
# number of rings (size 3 to 8) (size 9 to 14) (size 15 to 20)
#    0.000    2.538    1.538    1.615    0.000    5.231 
#    0.000    5.385    0.000    2.769    0.000    3.231 
#    0.000    0.000    0.000    0.000    0.000    0.000 
#
# Total GULP energy -290370.376707 kJ/mol
# GULP energy per Si atom -5584.045706 kJ/mol
# Density = 2.151878 g / cm^3
# Si number density = 21.567869 Si / 1000 Ang^3
#
#
#
# Elastic Constant Matrix: (Units=GPa)
#
#
# Indices 1 2 3 4 5 6 
#
# 1 234.9423 0.6234 113.8163 0.0000 0.0000 0.0000
# 2 0.6234 61.6173 4.9934 0.0000 0.0000 0.0000
# 3 113.8163 4.9934 132.7751 0.0000 0.0000 0.0000
# 4 0.0000 0.0000 0.0000 -12.3905 0.0000 0.0000
# 5 0.0000 0.0000 0.0000 0.0000 45.0782 0.0000
# 6 0.0000 0.0000 0.0000 0.0000 0.0000 -48.4554
#
#
#
# Elastic Compliance Matrix: (Units=1/GPa)
#
#
# Indices 1 2 3 4 5 6 
#
# 1 0.007291 0.000434 -0.006266 0.000000 0.000000 0.000000
# 2 0.000434 0.016305 -0.000985 0.000000 0.000000 0.000000
# 3 -0.006266 -0.000985 0.012940 0.000000 0.000000 0.000000
# 4 0.000000 0.000000 0.000000 -0.080707 0.000000 0.000000
# 5 0.000000 0.000000 0.000000 0.000000 0.022184 0.000000
# 6 0.000000 0.000000 0.000000 0.000000 0.000000 -0.020638
#
#
# Mechanical properties :
#
#
# Convention : Reuss Voigt Hill
#
# Bulk Modulus (GPa) = 43.66655 74.24454 58.95554
# Shear Modulus (GPa) = -234.10866 17.50657 -108.30105
#
# Velocity S-wave (km/s) = -10.42980 2.85212 -7.09388
# Velocity P-wave (km/s) = 11.16920 6.73383 6.30105
#
# Compressibility (1/GPa) = 0.02290082
#
# Stress axis : x y z
#
# Youngs Moduli (GPa) = 137.15999 61.33214 77.28033
#
# Poissons Ratio (x) = -0.02662 0.48424
# Poissons Ratio (y) = -0.05953 0.07614
# Poissons Ratio (z) = 0.85945 0.06043
#
# Static dielectric constant tensor:
#      x y z
#    x 1.751790 0.000000 0.000000 
#    y 0.000000 1.790990 0.000000 
#    z 0.000000 0.000000 1.764960 
# 
# From -- ./inp_files/4686.got.cif
#   From: 2010.05.17/outbox.cif.g08.bks.cpg/sg47_3_cif.got.tgz:4686.got - 2010.06.03 20:15:42.
