data_PCOD9382485
_publ_section_title
;
Structure prediction by ZEFSAII (Michael W. Deem and Ramdas Pophale) SiO2 
 PCOD9382485
Probable space group: P M M M
;
_chemical_formula_sum "Si O2"
_cell_formula_units_Z 40
_cell_length_a 9.153768
_cell_length_b 15.832407
_cell_length_c 19.865133
_cell_angle_alpha 90.000000
_cell_angle_beta 90.000000
_cell_angle_gamma 90.000000
_cell_volume 2878.977852
_symmetry_space_group_name_H-M "P M M M"
_symmetry_group_IT_number 47
_symmetry_cell_setting 'orthorhombic'
loop_
_space_group_symop_operation_xyz
x,y,z
-x,-y,z
x,-y,-z
-x,y,-z
-x,-y,-z
x,y,-z
-x,y,z
x,-y,z
loop_
_atom_site_type_symbol
_atom_site_label
_atom_site_fract_x
_atom_site_fract_y
_atom_site_fract_z
Si Si1 0.830124 0.897531 0.924996
Si Si2 0.825320 0.671601 0.578753
Si Si3 0.672124 0.898135 0.210925
Si Si4 0.175363 0.155566 0.654684
Si Si5 0.668262 0.500000 0.418186
Si Si6 0.671439 0.000000 0.580628
O O1 0.731825 0.871361 0.862216
O O2 0.000000 0.873788 0.914734
O O3 0.826116 0.000000 0.925931
O O4 0.784362 0.869234 0.000000
O O5 0.786442 0.686422 0.500000
O O6 0.788634 0.753946 0.622055
O O7 0.747634 0.586167 0.602722
O O8 0.000000 0.659307 0.581364
O O9 0.500000 0.881634 0.217323
O O10 0.762116 0.854765 0.270414
O O11 0.693319 0.000000 0.217256
O O12 0.250009 0.082002 0.610902
O O13 0.000000 0.145134 0.654169
O O14 0.500000 0.500000 0.397487
O O15 0.673995 0.500000 0.500000
O O16 0.500000 0.000000 0.600041
O O17 0.681467 0.000000 0.500000
#
# Coordination Sequence:
#
# PCOD9382485 Si02
#       6
#     8   8   8   8   4   4
#     4   8  14  25  41  59  78 103 139 179 214 250
#     4   9  18  32  48  65  84 107 139 179 220 261
#     4  10  19  29  41  58  84 114 144 179 219 258
#     4  11  21  32  47  63  82 113 150 184 216 255
#     4   9  17  29  47  69  87 105 130 165 216 271
#     4  11  23  35  45  59  82 111 144 185 227 259
#
# _framework density 13.893819000000001
#
# number of rings (size 3 to 8) (size 9 to 14) (size 15 to 20)
#    0.000    2.400    1.000    3.000    0.000    5.600 
#    0.000    4.000    0.000    0.000    0.000    0.000 
#    0.000    0.000    0.000    0.900    0.000   17.400 
#
# Total GULP energy -222974.183701 kJ/mol
# GULP energy per Si atom -5574.354593 kJ/mol
# Density = 1.386220 g / cm^3
# Si number density = 13.893819 Si / 1000 Ang^3
#
#
#
# Elastic Constant Matrix: (Units=GPa)
#
#
# Indices 1 2 3 4 5 6 
#
# 1 73.3285 57.9845 55.3434 0.0000 0.0000 0.0000
# 2 57.9845 95.5308 49.5751 0.0000 0.0000 0.0000
# 3 55.3434 49.5751 93.9032 0.0000 0.0000 0.0000
# 4 0.0000 0.0000 0.0000 3.8186 0.0000 0.0000
# 5 0.0000 0.0000 0.0000 0.0000 21.1768 0.0000
# 6 0.0000 0.0000 0.0000 0.0000 0.0000 6.7442
#
#
#
# Elastic Compliance Matrix: (Units=1/GPa)
#
#
# Indices 1 2 3 4 5 6 
#
# 1 0.034746 -0.014411 -0.012870 0.000000 0.000000 0.000000
# 2 -0.014411 0.020395 -0.002274 0.000000 0.000000 0.000000
# 3 -0.012870 -0.002274 0.019435 0.000000 0.000000 0.000000
# 4 0.000000 0.000000 0.000000 0.261874 0.000000 0.000000
# 5 0.000000 0.000000 0.000000 0.000000 0.047222 0.000000
# 6 0.000000 0.000000 0.000000 0.000000 0.000000 0.148275
#
#
# Mechanical properties :
#
#
# Convention : Reuss Voigt Hill
#
# Bulk Modulus (GPa) = 64.65792 65.39649 65.02721
# Shear Modulus (GPa) = 8.38627 13.00524 10.69575
#
# Velocity S-wave (km/s) = 2.45949 3.06280 2.77757
# Velocity P-wave (km/s) = 7.39619 7.72520 7.56248
#
# Compressibility (1/GPa) = 0.01546601
#
# Stress axis : x y z
#
# Youngs Moduli (GPa) = 28.77993 49.03166 51.45378
#
# Poissons Ratio (x) = 0.70661 0.66222
# Poissons Ratio (y) = 0.41475 0.11700
# Poissons Ratio (z) = 0.37040 0.11149
#
# Static dielectric constant tensor:
#      x y z
#    x 1.462040 0.000000 0.000000 
#    y 0.000000 1.427410 0.000000 
#    z 0.000000 0.000000 1.459880 
# 
# From -- ./inp_files/29418.got.cif
#   From: 2010.05.17/outbox.cif.g08.bks.cpg/sg47_15_cif.got.tgz:29418.got - 2010.06.03 20:15:42.
