data_PCOD9382640
_publ_section_title
;
Structure prediction by ZEFSAII (Michael W. Deem and Ramdas Pophale) SiO2 
 PCOD9382640
Probable space group: P M M M
;
_chemical_formula_sum "Si O2"
_cell_formula_units_Z 52
_cell_length_a 15.797426
_cell_length_b 8.994770
_cell_length_c 28.348154
_cell_angle_alpha 90.000000
_cell_angle_beta 90.000000
_cell_angle_gamma 90.000000
_cell_volume 4028.108646
_symmetry_space_group_name_H-M "P M M M"
_symmetry_group_IT_number 47
_symmetry_cell_setting 'orthorhombic'
loop_
_space_group_symop_operation_xyz
x,y,z
-x,-y,z
x,-y,-z
-x,y,-z
-x,-y,-z
x,y,-z
-x,y,z
x,-y,z
loop_
_atom_site_type_symbol
_atom_site_label
_atom_site_fract_x
_atom_site_fract_y
_atom_site_fract_z
Si Si1 0.602857 0.829877 0.801718
Si Si2 0.598355 0.318667 0.000000
Si Si3 0.600618 0.676993 0.704326
Si Si4 0.500000 0.819508 0.553780
Si Si5 0.823327 0.677760 0.443969
Si Si6 0.000000 0.829051 0.557172
Si Si7 0.603267 0.326238 0.897324
Si Si8 0.332347 0.178998 0.388760
O O1 0.500000 0.827836 0.803333
O O2 0.626289 0.732857 0.756268
O O3 0.632003 0.764335 0.851756
O O4 0.629664 0.000000 0.795568
O O5 0.634145 0.273217 0.949012
O O6 0.598527 0.500000 0.000000
O O7 0.500000 0.271560 0.000000
O O8 0.500000 0.712003 0.698341
O O9 0.610254 0.500000 0.700562
O O10 0.652101 0.759551 0.663597
O O11 0.500000 0.765810 0.500000
O O12 0.415482 0.774868 0.581248
O O13 0.500000 0.000000 0.552734
O O14 0.810916 0.710210 0.500000
O O15 0.822894 0.500000 0.438388
O O16 0.749265 0.752535 0.413926
O O17 0.914240 0.744321 0.429344
O O18 0.000000 0.831145 0.500000
O O19 0.000000 0.000000 0.573480
O O20 0.500000 0.319479 0.898765
O O21 0.624827 0.500000 0.891497
O O22 0.327350 0.000000 0.388459
#
# Coordination Sequence:
#
# PCOD9382640 Si02
#       8
#     8   4   8   4   8   4   8   8
#     4   9  16  24  34  47  63  83 112 147 184 223
#     4   7  10  16  27  41  57  77 101 131 169 218
#     4  10  19  30  42  54  71  95 125 159 195 231
#     4   9  18  30  43  59  79 103 129 156 187 224
#     4  10  20  33  48  67  89 109 128 154 189 229
#     4   9  17  31  51  71  87 105 129 155 185 224
#     4   8  12  19  30  43  58  78 105 136 174 218
#     4  11  20  31  46  62  82 105 132 162 193 230
#
# _framework density 12.909283
#
# number of rings (size 3 to 8) (size 9 to 14) (size 15 to 20)
#    0.000    2.692    0.769    3.462    0.000    4.923 
#    0.000    0.385    0.000    4.154    0.000    0.000 
#    0.000    0.000    0.000    0.000    0.000    0.000 
#
# Total GULP energy -289567.379911 kJ/mol
# GULP energy per Si atom -5568.603460 kJ/mol
# Density = 1.287990 g / cm^3
# Si number density = 12.909283 Si / 1000 Ang^3
#
#
#
# Elastic Constant Matrix: (Units=GPa)
#
#
# Indices 1 2 3 4 5 6 
#
# 1 63.6988 31.5190 38.2012 0.0000 0.0000 0.0000
# 2 31.5190 60.0087 42.9546 0.0000 0.0000 0.0000
# 3 38.2012 42.9546 107.1813 0.0000 0.0000 0.0000
# 4 0.0000 0.0000 0.0000 18.3696 0.0000 0.0000
# 5 0.0000 0.0000 0.0000 0.0000 2.7880 0.0000
# 6 0.0000 0.0000 0.0000 0.0000 0.0000 14.5053
#
#
#
# Elastic Compliance Matrix: (Units=1/GPa)
#
#
# Indices 1 2 3 4 5 6 
#
# 1 0.022756 -0.008620 -0.004656 0.000000 0.000000 0.000000
# 2 -0.008620 0.026633 -0.007601 0.000000 0.000000 0.000000
# 3 -0.004656 -0.007601 0.014036 0.000000 0.000000 0.000000
# 4 0.000000 0.000000 0.000000 0.054438 0.000000 0.000000
# 5 0.000000 0.000000 0.000000 0.000000 0.358686 0.000000
# 6 0.000000 0.000000 0.000000 0.000000 0.000000 0.068940
#
#
# Mechanical properties :
#
#
# Convention : Reuss Voigt Hill
#
# Bulk Modulus (GPa) = 46.14546 50.69315 48.41931
# Shear Modulus (GPa) = 8.41090 15.01350 11.71220
#
# Velocity S-wave (km/s) = 2.55529 3.41398 3.01536
# Velocity P-wave (km/s) = 6.67305 7.40907 7.05067
#
# Compressibility (1/GPa) = 0.02167060
#
# Stress axis : x y z
#
# Youngs Moduli (GPa) = 43.94358 37.54789 71.24569
#
# Poissons Ratio (x) = 0.32365 0.33175
# Poissons Ratio (y) = 0.37877 0.54156
# Poissons Ratio (z) = 0.20462 0.28541
#
# Static dielectric constant tensor:
#      x y z
#    x 1.387740 0.000000 0.000000 
#    y 0.000000 1.430790 0.000000 
#    z 0.000000 0.000000 1.437910 
# 
# From -- ./inp_files/33805.got.cif
#   From: 2010.05.17/outbox.cif.g08.bks.cpg/sg47_17_cif.got.tgz:33805.got - 2010.06.03 20:15:42.
