data_PCOD9382369
_publ_section_title
;
Structure prediction by ZEFSAII (Michael W. Deem and Ramdas Pophale) SiO2 
 PCOD9382369
Probable space group: P M M M
;
_chemical_formula_sum "Si O2"
_cell_formula_units_Z 56
_cell_length_a 23.444096
_cell_length_b 7.957728
_cell_length_c 15.654519
_cell_angle_alpha 90.000000
_cell_angle_beta 90.000000
_cell_angle_gamma 90.000000
_cell_volume 2920.534291
_symmetry_space_group_name_H-M "P M M M"
_symmetry_group_IT_number 47
_symmetry_cell_setting 'orthorhombic'
loop_
_space_group_symop_operation_xyz
x,y,z
-x,-y,z
x,-y,-z
-x,y,-z
-x,-y,-z
x,y,-z
-x,y,z
x,-y,z
loop_
_atom_site_type_symbol
_atom_site_label
_atom_site_fract_x
_atom_site_fract_y
_atom_site_fract_z
Si Si1 0.566254 0.297359 0.095366
Si Si2 0.340532 0.199519 0.768867
Si Si3 0.130779 0.808924 0.833642
Si Si4 0.712956 0.701305 0.594094
Si Si5 0.066522 0.704172 0.500000
Si Si6 0.067063 0.500000 0.904268
Si Si7 0.746740 0.202913 0.907176
Si Si8 0.841817 0.295124 0.355914
O O1 0.500000 0.246797 0.103698
O O2 0.568155 0.500000 0.094182
O O3 0.603135 0.239701 0.176167
O O4 0.586182 0.238996 0.000000
O O5 0.328933 0.257431 0.672472
O O6 0.290176 0.271426 0.829236
O O7 0.335368 0.000000 0.765361
O O8 0.086093 0.666957 0.856120
O O9 0.187089 0.770966 0.888967
O O10 0.148339 0.787292 0.735460
O O11 0.112462 0.000000 0.850648
O O12 0.695468 0.764525 0.500000
O O13 0.715304 0.500000 0.590241
O O14 0.778599 0.755706 0.611996
O O15 0.064102 0.500000 0.500000
O O16 0.106127 0.751755 0.419014
O O17 0.000000 0.762453 0.500000
O O18 0.000000 0.500000 0.910122
O O19 0.091730 0.500000 0.000000
O O20 0.738610 0.000000 0.908455
O O21 0.730013 0.269701 0.000000
O O22 0.842062 0.500000 0.348511
#
# Coordination Sequence:
#
# PCOD9382369 Si02
#       8
#     8   8   8   8   4   4   8   8
#     4   9  19  37  59  84 119 161 200 238 283 342
#     4  11  21  33  54  85 118 153 195 242 294 348
#     4  11  22  39  62  87 116 151 189 237 299 360
#     4  10  20  35  56  80 114 159 204 247 294 352
#     4   9  18  32  55  85 113 146 188 237 297 357
#     4  11  26  46  64  83 109 147 198 249 296 357
#     4   9  18  32  51  79 116 151 182 225 282 343
#     4  10  18  34  57  84 117 152 191 238 293 356
#
# _framework density 19.174574
#
# number of rings (size 3 to 8) (size 9 to 14) (size 15 to 20)
#    0.000    2.000    2.857    1.714    0.000    3.143 
#    1.286    1.786    0.000    0.857    0.000    3.000 
#    0.000    0.000    0.000    0.000    0.000    0.000 
#
# Total GULP energy -312387.896017 kJ/mol
# GULP energy per Si atom -5578.355286 kJ/mol
# Density = 1.913093 g / cm^3
# Si number density = 19.174574 Si / 1000 Ang^3
#
#
#
# Elastic Constant Matrix: (Units=GPa)
#
#
# Indices 1 2 3 4 5 6 
#
# 1 80.0737 26.6113 62.7587 0.0000 0.0000 0.0000
# 2 26.6113 44.9901 22.8705 0.0000 0.0000 0.0000
# 3 62.7587 22.8705 164.9331 0.0000 0.0000 0.0000
# 4 0.0000 0.0000 0.0000 -20.1954 0.0000 0.0000
# 5 0.0000 0.0000 0.0000 0.0000 28.6207 0.0000
# 6 0.0000 0.0000 0.0000 0.0000 0.0000 -118.5320
#
#
#
# Elastic Compliance Matrix: (Units=1/GPa)
#
#
# Indices 1 2 3 4 5 6 
#
# 1 0.020608 -0.008826 -0.006618 0.000000 0.000000 0.000000
# 2 -0.008826 0.027692 -0.000482 0.000000 0.000000 0.000000
# 3 -0.006618 -0.000482 0.008648 0.000000 0.000000 0.000000
# 4 0.000000 0.000000 0.000000 -0.049516 0.000000 0.000000
# 5 0.000000 0.000000 0.000000 0.000000 0.034940 0.000000
# 6 0.000000 0.000000 0.000000 0.000000 0.000000 -0.008437
#
#
# Mechanical properties :
#
#
# Convention : Reuss Voigt Hill
#
# Bulk Modulus (GPa) = 39.84329 57.16419 48.50374
# Shear Modulus (GPa) = 67.42914 -10.17089 28.62912
#
# Velocity S-wave (km/s) = 5.93652 -2.30562 3.86823
# Velocity P-wave (km/s) = 8.23493 4.77382 6.73065
#
# Compressibility (1/GPa) = 0.02509833
#
# Stress axis : x y z
#
# Youngs Moduli (GPa) = 48.52400 36.11121 115.63312
#
# Poissons Ratio (x) = 0.31870 0.76525
# Poissons Ratio (y) = 0.42825 0.05571
# Poissons Ratio (z) = 0.32113 0.01740
#
# Static dielectric constant tensor:
#      x y z
#    x 1.656090 0.000000 0.000000 
#    y 0.000000 1.659790 0.000000 
#    z 0.000000 0.000000 1.704220 
# 
# From -- ./inp_files/25178.got.cif
#   From: 2010.05.17/outbox.cif.g08.bks.cpg/sg47_13_cif.got.tgz:25178.got - 2010.06.03 20:15:42.
