data_PCOD9382602
_publ_section_title
;
Structure prediction by ZEFSAII (Michael W. Deem and Ramdas Pophale) SiO2 
 PCOD9382602
Probable space group: P M M M
;
_chemical_formula_sum "Si O2"
_cell_formula_units_Z 52
_cell_length_a 27.103638
_cell_length_b 8.805793
_cell_length_c 14.127873
_cell_angle_alpha 90.000000
_cell_angle_beta 90.000000
_cell_angle_gamma 90.000000
_cell_volume 3371.885685
_symmetry_space_group_name_H-M "P M M M"
_symmetry_group_IT_number 47
_symmetry_cell_setting 'orthorhombic'
loop_
_space_group_symop_operation_xyz
x,y,z
-x,-y,z
x,-y,-z
-x,y,-z
-x,-y,-z
x,y,-z
-x,y,z
x,-y,z
loop_
_atom_site_type_symbol
_atom_site_label
_atom_site_fract_x
_atom_site_fract_y
_atom_site_fract_z
Si Si1 0.500000 0.324907 0.614857
Si Si2 0.203593 0.181867 0.609282
Si Si3 0.753717 0.684263 0.893662
Si Si4 0.852071 0.681951 0.781776
Si Si5 0.056812 0.817215 0.889923
Si Si6 0.603854 0.181521 0.611696
Si Si7 0.299966 0.317329 0.294164
O O1 0.500000 0.500000 0.645063
O O2 0.500000 0.321663 0.500000
O O3 0.550509 0.242953 0.643605
O O4 0.193388 0.218695 0.500000
O O5 0.163138 0.246914 0.681448
O O6 0.255810 0.253325 0.640829
O O7 0.206515 0.000000 0.618918
O O8 0.752869 0.500000 0.896808
O O9 0.807729 0.726829 0.853884
O O10 0.714550 0.729290 0.813141
O O11 0.745343 0.740952 0.000000
O O12 0.851818 0.500000 0.774371
O O13 0.903388 0.740155 0.822921
O O14 0.000000 0.776416 0.868151
O O15 0.060880 0.000000 0.882925
O O16 0.066197 0.776036 0.000000
O O17 0.610130 0.221121 0.500000
O O18 0.648307 0.253712 0.670232
O O19 0.605033 0.000000 0.619018
O O20 0.299708 0.500000 0.299267
#
# Coordination Sequence:
#
# PCOD9382602 Si02
#       7
#     4   8   8   8   8   8   8
#     4   9  17  29  45  65  88 115 150 191 229 266
#     4  10  20  33  48  66  91 124 158 190 228 276
#     4   8  15  28  44  64  91 119 147 181 222 267
#     4  10  19  30  48  72  95 121 153 191 233 275
#     4   9  18  32  49  70  97 127 156 187 226 273
#     4  10  19  30  44  63  91 125 155 184 223 272
#     4  10  19  29  45  69  93 120 154 191 229 267
#
# _framework density 15.421638
#
# number of rings (size 3 to 8) (size 9 to 14) (size 15 to 20)
#    0.000    2.538    0.000    4.385    0.000    6.154 
#    0.000    0.769    0.000    9.692    0.000    3.769 
#    0.000    4.308    0.000    0.000    0.000    0.000 
#
# Total GULP energy -289935.196180 kJ/mol
# GULP energy per Si atom -5575.676850 kJ/mol
# Density = 1.538654 g / cm^3
# Si number density = 15.421638 Si / 1000 Ang^3
#
#
#
# Elastic Constant Matrix: (Units=GPa)
#
#
# Indices 1 2 3 4 5 6 
#
# 1 138.4893 50.4321 83.7762 0.0000 0.0000 0.0000
# 2 50.4321 51.1333 48.6509 0.0000 0.0000 0.0000
# 3 83.7762 48.6509 125.1783 0.0000 0.0000 0.0000
# 4 0.0000 0.0000 0.0000 17.5745 0.0000 0.0000
# 5 0.0000 0.0000 0.0000 0.0000 22.8555 0.0000
# 6 0.0000 0.0000 0.0000 0.0000 0.0000 30.5026
#
#
#
# Elastic Compliance Matrix: (Units=1/GPa)
#
#
# Indices 1 2 3 4 5 6 
#
# 1 0.013791 -0.007649 -0.006257 0.000000 0.000000 0.000000
# 2 -0.007649 0.035274 -0.008590 0.000000 0.000000 0.000000
# 3 -0.006257 -0.008590 0.015515 0.000000 0.000000 0.000000
# 4 0.000000 0.000000 0.000000 0.056901 0.000000 0.000000
# 5 0.000000 0.000000 0.000000 0.000000 0.043753 0.000000
# 6 0.000000 0.000000 0.000000 0.000000 0.000000 0.032784
#
#
# Mechanical properties :
#
#
# Convention : Reuss Voigt Hill
#
# Bulk Modulus (GPa) = 51.05282 75.61327 63.33304
# Shear Modulus (GPa) = 20.03689 22.98263 21.50976
#
# Velocity S-wave (km/s) = 3.60845 3.86461 3.73872
# Velocity P-wave (km/s) = 7.10899 8.30967 7.73267
#
# Compressibility (1/GPa) = 0.01958756
#
# Stress axis : x y z
#
# Youngs Moduli (GPa) = 72.50960 28.34957 64.45417
#
# Poissons Ratio (x) = 0.21684 0.40330
# Poissons Ratio (y) = 0.55461 0.55368
# Poissons Ratio (z) = 0.45370 0.24353
#
# Static dielectric constant tensor:
#      x y z
#    x 1.492510 0.000000 0.000000 
#    y 0.000000 1.516990 0.000000 
#    z 0.000000 0.000000 1.507870 
# 
# From -- ./inp_files/21753.got.cif
#   From: 2010.05.17/outbox.cif.g08.bks.cpg/sg47_11_cif.got.tgz:21753.got - 2010.06.03 20:15:42.
