data_PCOD9382798
_publ_section_title
;
Structure prediction by ZEFSAII (Michael W. Deem and Ramdas Pophale) SiO2 
 PCOD9382798
Probable space group: P M M M
;
_chemical_formula_sum "Si O2"
_cell_formula_units_Z 52
_cell_length_a 7.720329
_cell_length_b 18.840225
_cell_length_c 19.353478
_cell_angle_alpha 90.000000
_cell_angle_beta 90.000000
_cell_angle_gamma 90.000000
_cell_volume 2815.016315
_symmetry_space_group_name_H-M "P M M M"
_symmetry_group_IT_number 47
_symmetry_cell_setting 'orthorhombic'
loop_
_space_group_symop_operation_xyz
x,y,z
-x,-y,z
x,-y,-z
-x,y,-z
-x,-y,-z
x,y,-z
-x,y,z
x,-y,z
loop_
_atom_site_type_symbol
_atom_site_label
_atom_site_fract_x
_atom_site_fract_y
_atom_site_fract_z
Si Si1 0.708950 0.918834 0.922087
Si Si2 0.791085 0.079039 0.651545
Si Si3 0.299300 0.301935 0.710006
Si Si4 0.204501 0.162743 0.214611
Si Si5 0.000000 0.413865 0.078181
Si Si6 0.705612 0.415511 0.815208
Si Si7 0.707678 0.222189 0.576697
O O1 0.500000 0.919677 0.922655
O O2 0.764342 0.866504 0.861565
O O3 0.767256 0.000000 0.907639
O O4 0.766653 0.900100 0.000000
O O5 0.735617 0.105485 0.727869
O O6 0.738743 0.140877 0.599120
O O7 0.000000 0.076465 0.651472
O O8 0.726223 0.000000 0.636317
O O9 0.500000 0.317299 0.695291
O O10 0.289346 0.237049 0.764477
O O11 0.231489 0.371201 0.748724
O O12 0.221504 0.271569 0.638752
O O13 0.000000 0.172867 0.224322
O O14 0.171774 0.394069 0.121016
O O15 0.000000 0.500000 0.075036
O O16 0.000000 0.386656 0.000000
O O17 0.500000 0.401060 0.827173
O O18 0.723385 0.500000 0.804817
O O19 0.776148 0.236269 0.500000
O O20 0.500000 0.231565 0.575114
#
# Coordination Sequence:
#
# PCOD9382798 Si02
#       7
#     8   8   8   8   4   8   8
#     4   9  18  32  48  65  88 121 159 199 245 294
#     4   9  18  31  45  64  92 124 158 199 247 297
#     4   9  18  33  52  72  97 129 163 201 247 298
#     4  10  19  30  47  69  92 120 159 204 247 294
#     4   9  18  32  52  80 111 139 168 207 253 299
#     4   9  18  33  55  81 107 139 178 215 254 304
#     4   9  18  32  49  70  96 126 161 202 248 297
#
# _framework density 18.472362
#
# number of rings (size 3 to 8) (size 9 to 14) (size 15 to 20)
#    0.000    2.846    0.000    1.385    1.077    3.077 
#    0.000    4.615    0.000    1.385    0.000    3.231 
#    0.000    1.846    0.000    0.154    0.000    0.000 
#
# Total GULP energy -289773.679175 kJ/mol
# GULP energy per Si atom -5572.570753 kJ/mol
# Density = 1.843032 g / cm^3
# Si number density = 18.472362 Si / 1000 Ang^3
#
#
#
# Elastic Constant Matrix: (Units=GPa)
#
#
# Indices 1 2 3 4 5 6 
#
# 1 45.9570 19.0941 20.0136 0.0000 0.0000 0.0000
# 2 19.0941 62.1988 59.7404 0.0000 0.0000 0.0000
# 3 20.0136 59.7404 145.8764 0.0000 0.0000 0.0000
# 4 0.0000 0.0000 0.0000 13.1617 0.0000 0.0000
# 5 0.0000 0.0000 0.0000 0.0000 11.7752 0.0000
# 6 0.0000 0.0000 0.0000 0.0000 0.0000 9.3601
#
#
#
# Elastic Compliance Matrix: (Units=1/GPa)
#
#
# Indices 1 2 3 4 5 6 
#
# 1 0.024960 -0.007209 -0.000472 0.000000 0.000000 0.000000
# 2 -0.007209 0.028584 -0.010717 0.000000 0.000000 0.000000
# 3 -0.000472 -0.010717 0.011309 0.000000 0.000000 0.000000
# 4 0.000000 0.000000 0.000000 0.075978 0.000000 0.000000
# 5 0.000000 0.000000 0.000000 0.000000 0.084924 0.000000
# 6 0.000000 0.000000 0.000000 0.000000 0.000000 0.106837
#
#
# Mechanical properties :
#
#
# Convention : Reuss Voigt Hill
#
# Bulk Modulus (GPa) = 35.64180 50.19205 42.91693
# Shear Modulus (GPa) = 13.20168 17.20501 15.20334
#
# Velocity S-wave (km/s) = 2.67624 3.05518 2.87197
# Velocity P-wave (km/s) = 5.37459 6.29888 5.85500
#
# Compressibility (1/GPa) = 0.02805694
#
# Stress axis : x y z
#
# Youngs Moduli (GPa) = 40.06369 34.98498 88.42733
#
# Poissons Ratio (x) = 0.25220 0.04176
# Poissons Ratio (y) = 0.28881 0.94766
# Poissons Ratio (z) = 0.01892 0.37493
#
# Static dielectric constant tensor:
#      x y z
#    x 1.671820 0.000000 0.000000 
#    y 0.000000 1.625090 0.000000 
#    z 0.000000 0.000000 1.655420 
# 
# From -- ./inp_files/26747.got.cif
#   From: 2010.05.17/outbox.cif.g08.bks.cpg/sg47_14_cif.got.tgz:26747.got - 2010.06.03 20:15:42.
