data_PCOD9382110
_publ_section_title
;
Structure prediction by ZEFSAII (Michael W. Deem and Ramdas Pophale) SiO2 
 PCOD9382110
Probable space group: P M M M
;
_chemical_formula_sum "Si O2"
_cell_formula_units_Z 52
_cell_length_a 21.370865
_cell_length_b 17.050851
_cell_length_c 7.790912
_cell_angle_alpha 90.000000
_cell_angle_beta 90.000000
_cell_angle_gamma 90.000000
_cell_volume 2838.941603
_symmetry_space_group_name_H-M "P M M M"
_symmetry_group_IT_number 47
_symmetry_cell_setting 'orthorhombic'
loop_
_space_group_symop_operation_xyz
x,y,z
-x,-y,z
x,-y,-z
-x,y,-z
-x,-y,-z
x,y,-z
-x,y,z
x,-y,z
loop_
_atom_site_type_symbol
_atom_site_label
_atom_site_fract_x
_atom_site_fract_y
_atom_site_fract_z
Si Si1 0.820687 0.741726 0.296799
Si Si2 0.070345 0.151050 0.796404
Si Si3 0.500000 0.408677 0.789575
Si Si4 0.753591 0.588146 0.792907
Si Si5 0.627425 0.326946 0.793547
Si Si6 0.707032 0.000000 0.701810
Si Si7 0.852420 0.000000 0.209599
Si Si8 0.305232 0.827748 0.706959
O O1 0.821172 0.752059 0.500000
O O2 0.886085 0.773761 0.229802
O O3 0.805165 0.651928 0.256382
O O4 0.761466 0.792851 0.227972
O O5 0.109582 0.076496 0.731011
O O6 0.000000 0.156672 0.725830
O O7 0.064834 0.138458 0.000000
O O8 0.500000 0.500000 0.737658
O O9 0.562400 0.363398 0.731896
O O10 0.500000 0.408433 0.000000
O O11 0.764179 0.500000 0.730722
O O12 0.686904 0.622398 0.730600
O O13 0.750819 0.586057 0.000000
O O14 0.642594 0.236918 0.749294
O O15 0.626946 0.332689 0.000000
O O16 0.684598 0.083959 0.773265
O O17 0.690901 0.000000 0.500000
O O18 0.782221 0.000000 0.720875
O O19 0.848452 0.000000 0.000000
O O20 0.300756 0.831744 0.500000
#
# Coordination Sequence:
#
# PCOD9382110 Si02
#       8
#     8   8   4   8   8   4   4   8
#     4  10  19  31  48  69  94 124 159 199 241 283
#     4  10  20  33  48  68  97 130 160 192 235 287
#     4   9  16  28  49  76 103 130 158 191 235 285
#     4   9  17  30  49  72  97 124 155 193 238 288
#     4   9  17  29  48  73 100 127 159 194 232 283
#     4  10  18  31  49  68  95 128 162 200 241 282
#     4  10  19  30  48  72  97 125 159 198 236 279
#     4   9  18  31  47  67  94 127 161 199 240 279
#
# _framework density 18.316685
#
# number of rings (size 3 to 8) (size 9 to 14) (size 15 to 20)
#    0.000    2.538    1.538    1.154    0.000    4.615 
#    0.000    0.385    0.000    4.154    0.000    6.462 
#    0.000    0.000    0.000    0.000    0.000    0.000 
#
# Total GULP energy -289993.878528 kJ/mol
# GULP energy per Si atom -5576.805356 kJ/mol
# Density = 1.827500 g / cm^3
# Si number density = 18.316685 Si / 1000 Ang^3
#
#
#
# Elastic Constant Matrix: (Units=GPa)
#
#
# Indices 1 2 3 4 5 6 
#
# 1 88.3211 61.1899 -9.8682 0.0000 0.0000 0.0000
# 2 61.1899 156.8573 -6.7072 0.0000 0.0000 0.0000
# 3 -9.8682 -6.7072 19.1445 0.0000 0.0000 0.0000
# 4 0.0000 0.0000 0.0000 -2.6644 0.0000 0.0000
# 5 0.0000 0.0000 0.0000 0.0000 0.0220 0.0000
# 6 0.0000 0.0000 0.0000 0.0000 0.0000 2.0564
#
#
#
# Elastic Compliance Matrix: (Units=1/GPa)
#
#
# Indices 1 2 3 4 5 6 
#
# 1 0.016217 -0.006060 0.006236 0.000000 0.000000 0.000000
# 2 -0.006060 0.008736 -0.000063 0.000000 0.000000 0.000000
# 3 0.006236 -0.000063 0.055427 0.000000 0.000000 0.000000
# 4 0.000000 0.000000 0.000000 -0.375323 0.000000 0.000000
# 5 0.000000 0.000000 0.000000 0.000000 45.478685 0.000000
# 6 0.000000 0.000000 0.000000 0.000000 0.000000 0.486296
#
#
# Mechanical properties :
#
#
# Convention : Reuss Voigt Hill
#
# Bulk Modulus (GPa) = 12.40561 39.28353 25.84457
# Shear Modulus (GPa) = 0.10942 14.53003 7.31972
#
# Velocity S-wave (km/s) = 0.24468 2.81956 2.00122
# Velocity P-wave (km/s) = 2.62057 5.66509 4.41365
#
# Compressibility (1/GPa) = 0.08060868
#
# Stress axis : x y z
#
# Youngs Moduli (GPa) = 61.66239 114.46336 18.04173
#
# Poissons Ratio (x) = 0.69361 -0.11251
# Poissons Ratio (y) = 0.37366 0.00113
# Poissons Ratio (z) = -0.38455 0.00718
#
# Static dielectric constant tensor:
#      x y z
#    x 1.613290 0.000000 0.000000 
#    y 0.000000 1.645120 0.000000 
#    z 0.000000 0.000000 1.665870 
# 
# From -- ./inp_files/9628.got.cif
#   From: 2010.05.17/outbox.cif.g08.bks.cpg/sg47_5_cif.got.tgz:9628.got - 2010.06.03 20:15:42.
