data_PCOD9382637
_publ_section_title
;
Structure prediction by ZEFSAII (Michael W. Deem and Ramdas Pophale) SiO2 
 PCOD9382637
Probable space group: P M M M
;
_chemical_formula_sum "Si O2"
_cell_formula_units_Z 44
_cell_length_a 7.631620
_cell_length_b 14.217297
_cell_length_c 16.958835
_cell_angle_alpha 90.000000
_cell_angle_beta 90.000000
_cell_angle_gamma 90.000000
_cell_volume 1840.050694
_symmetry_space_group_name_H-M "P M M M"
_symmetry_group_IT_number 47
_symmetry_cell_setting 'orthorhombic'
loop_
_space_group_symop_operation_xyz
x,y,z
-x,-y,z
x,-y,-z
-x,y,-z
-x,-y,-z
x,y,-z
-x,y,z
x,-y,z
loop_
_atom_site_type_symbol
_atom_site_label
_atom_site_fract_x
_atom_site_fract_y
_atom_site_fract_z
Si Si1 0.300104 0.898185 0.905707
Si Si2 0.285421 0.106495 0.326302
Si Si3 0.286655 0.389715 0.414748
Si Si4 0.291739 0.705806 0.744078
Si Si5 0.801885 0.314067 0.086931
Si Si6 0.299792 0.114690 0.500000
O O1 0.500000 0.886904 0.874248
O O2 0.203999 0.799084 0.900986
O O3 0.232001 0.000000 0.876750
O O4 0.314421 0.908048 0.000000
O O5 0.500000 0.103400 0.329439
O O6 0.230766 0.185422 0.264231
O O7 0.225235 0.137541 0.414151
O O8 0.227198 0.000000 0.311045
O O9 0.228827 0.349859 0.500000
O O10 0.500000 0.382698 0.414131
O O11 0.243983 0.500000 0.413963
O O12 0.221020 0.344865 0.333882
O O13 0.500000 0.710277 0.735368
O O14 0.264401 0.654600 0.827533
O O15 0.000000 0.346650 0.081520
O O16 0.718302 0.333087 0.000000
O O17 0.500000 0.151099 0.500000
O O18 0.307167 0.000000 0.500000
#
# Coordination Sequence:
#
# PCOD9382637 Si02
#       6
#     8   8   8   8   8   4
#     4   8  14  26  45  67  90 120 163 215 263 301
#     4   8  14  23  36  61  97 129 158 196 238 279
#     4   8  15  29  50  79 112 136 156 194 249 304
#     4  10  19  29  49  77  99 128 169 209 250 299
#     4  10  21  35  48  64  93 133 173 213 258 307
#     4   7  10  18  32  52  84 122 150 179 223 269
#
# _framework density 23.912383999999999
#
# number of rings (size 3 to 8) (size 9 to 14) (size 15 to 20)
#    0.000    3.364    0.000    2.727    1.273    2.182 
#    0.000    3.636    0.000    1.636    0.000    5.091 
#    0.000    2.182    0.000    0.000    0.000    0.000 
#
# Total GULP energy -245047.655905 kJ/mol
# GULP energy per Si atom -5569.264907 kJ/mol
# Density = 2.385796 g / cm^3
# Si number density = 23.912384 Si / 1000 Ang^3
#
#
#
# Elastic Constant Matrix: (Units=GPa)
#
#
# Indices 1 2 3 4 5 6 
#
# 1 35.9265 0.6544 1.9389 0.0000 0.0000 0.0000
# 2 0.6544 26.3611 40.4239 0.0000 0.0000 0.0000
# 3 1.9389 40.4239 237.5672 0.0000 0.0000 0.0000
# 4 0.0000 0.0000 0.0000 7.2715 0.0000 0.0000
# 5 0.0000 0.0000 0.0000 0.0000 83.4512 0.0000
# 6 0.0000 0.0000 0.0000 0.0000 0.0000 -2.6011
#
#
#
# Elastic Compliance Matrix: (Units=1/GPa)
#
#
# Indices 1 2 3 4 5 6 
#
# 1 0.027851 -0.000464 -0.000148 0.000000 0.000000 0.000000
# 2 -0.000464 0.051336 -0.008731 0.000000 0.000000 0.000000
# 3 -0.000148 -0.008731 0.005696 0.000000 0.000000 0.000000
# 4 0.000000 0.000000 0.000000 0.137524 0.000000 0.000000
# 5 0.000000 0.000000 0.000000 0.000000 0.011983 0.000000
# 6 0.000000 0.000000 0.000000 0.000000 0.000000 -0.384455
#
#
# Mechanical properties :
#
#
# Convention : Reuss Voigt Hill
#
# Bulk Modulus (GPa) = 15.10674 42.87660 28.99167
# Shear Modulus (GPa) = -45.74033 34.74682 -5.49676
#
# Velocity S-wave (km/s) = -4.37834 3.81608 -1.51779
# Velocity P-wave (km/s) = 4.38503 6.11443 3.01311
#
# Compressibility (1/GPa) = 0.06619562
#
# Stress axis : x y z
#
# Youngs Moduli (GPa) = 35.90525 19.47966 175.55385
#
# Poissons Ratio (x) = 0.00904 0.02605
# Poissons Ratio (y) = 0.01666 1.53283
# Poissons Ratio (z) = 0.00533 0.17008
#
# Static dielectric constant tensor:
#      x y z
#    x 1.981060 0.000000 0.000000 
#    y 0.000000 1.938910 0.000000 
#    z 0.000000 0.000000 2.016760 
# 
# From -- ./inp_files/26380.got.cif
#   From: 2010.05.17/outbox.cif.g08.bks.cpg/sg47_14_cif.got.tgz:26380.got - 2010.06.03 20:15:42.
