data_PCOD9382128
_publ_section_title
;
Structure prediction by ZEFSAII (Michael W. Deem and Ramdas Pophale) SiO2 
 PCOD9382128
Probable space group: P M M M
;
_chemical_formula_sum "Si O2"
_cell_formula_units_Z 52
_cell_length_a 7.727401
_cell_length_b 22.888599
_cell_length_c 15.180904
_cell_angle_alpha 90.000000
_cell_angle_beta 90.000000
_cell_angle_gamma 90.000000
_cell_volume 2685.037121
_symmetry_space_group_name_H-M "P M M M"
_symmetry_group_IT_number 47
_symmetry_cell_setting 'orthorhombic'
loop_
_space_group_symop_operation_xyz
x,y,z
-x,-y,z
x,-y,-z
-x,y,-z
-x,-y,-z
x,y,-z
-x,y,z
x,-y,z
loop_
_atom_site_type_symbol
_atom_site_label
_atom_site_fract_x
_atom_site_fract_y
_atom_site_fract_z
Si Si1 0.287084 0.433693 0.000000
Si Si2 0.297747 0.648604 0.154286
Si Si3 0.200428 0.566714 0.693815
Si Si4 0.792625 0.000000 0.898470
Si Si5 0.293506 0.885947 0.215566
Si Si6 0.287785 0.776187 0.897356
Si Si7 0.288879 0.931599 0.598355
Si Si8 0.304900 0.570382 0.500000
O O1 0.226345 0.397542 0.915793
O O2 0.227273 0.500000 0.000000
O O3 0.500000 0.435839 0.000000
O O4 0.500000 0.654489 0.132523
O O5 0.283564 0.616633 0.247230
O O6 0.227939 0.713740 0.141221
O O7 0.272765 0.500000 0.705154
O O8 0.215942 0.584364 0.591784
O O9 0.000000 0.563885 0.717906
O O10 0.735550 0.057026 0.844483
O O11 0.000000 0.000000 0.901219
O O12 0.728846 0.000000 0.000000
O O13 0.500000 0.878268 0.224353
O O14 0.225948 0.829636 0.163078
O O15 0.226705 0.897461 0.314885
O O16 0.500000 0.777839 0.896517
O O17 0.236649 0.781590 0.000000
O O18 0.233552 0.912137 0.500000
O O19 0.500000 0.929774 0.598747
O O20 0.241215 0.000000 0.608082
O O21 0.312393 0.500000 0.500000
O O22 0.500000 0.593460 0.500000
#
# Coordination Sequence:
#
# PCOD9382128 Si02
#       8
#     4   8   8   4   8   8   8   4
#     4   9  16  26  45  71  95 126 169 210 250 299
#     4  10  18  31  50  71 100 134 171 211 254 306
#     4  10  20  33  50  75 105 134 165 207 260 311
#     4  11  23  35  46  69 106 136 161 205 260 303
#     4  10  18  31  54  77  97 129 173 211 251 301
#     4   9  17  30  49  74 100 129 167 217 261 295
#     4   8  13  23  43  73 103 126 153 196 246 292
#     4   9  17  31  53  79 103 129 165 208 255 310
#
# _framework density 19.366584
#
# number of rings (size 3 to 8) (size 9 to 14) (size 15 to 20)
#    0.000    2.538    1.538    2.308    0.000    3.692 
#    0.000    1.154    1.692    3.231    0.000    0.000 
#    0.000    0.000    0.000    0.000    0.000    0.000 
#
# Total GULP energy -289899.733644 kJ/mol
# GULP energy per Si atom -5574.994878 kJ/mol
# Density = 1.932251 g / cm^3
# Si number density = 19.366584 Si / 1000 Ang^3
#
#
#
# Elastic Constant Matrix: (Units=GPa)
#
#
# Indices 1 2 3 4 5 6 
#
# 1 27.1322 1.8463 -5.2901 0.0000 0.0000 0.0000
# 2 1.8463 166.1707 100.3208 0.0000 0.0000 0.0000
# 3 -5.2901 100.3208 178.7585 0.0000 0.0000 0.0000
# 4 0.0000 0.0000 0.0000 436.1187 0.0000 0.0000
# 5 0.0000 0.0000 0.0000 0.0000 331.0800 0.0000
# 6 0.0000 0.0000 0.0000 0.0000 0.0000 -1.8120
#
#
#
# Elastic Compliance Matrix: (Units=1/GPa)
#
#
# Indices 1 2 3 4 5 6 
#
# 1 0.037363 -0.001637 0.002025 0.000000 0.000000 0.000000
# 2 -0.001637 0.009173 -0.005197 0.000000 0.000000 0.000000
# 3 0.002025 -0.005197 0.008570 0.000000 0.000000 0.000000
# 4 0.000000 0.000000 0.000000 0.002293 0.000000 0.000000
# 5 0.000000 0.000000 0.000000 0.000000 0.003020 0.000000
# 6 0.000000 0.000000 0.000000 0.000000 0.000000 -0.551871
#
#
# Mechanical properties :
#
#
# Convention : Reuss Voigt Hill
#
# Bulk Modulus (GPa) = 21.98397 62.86839 42.42618
# Shear Modulus (GPa) = -10.71421 171.42295 80.35437
#
# Velocity S-wave (km/s) = -2.35464 9.41844 6.44836
# Velocity P-wave (km/s) = 1.99592 12.28042 8.79751
#
# Compressibility (1/GPa) = 0.04548770
#
# Stress axis : x y z
#
# Youngs Moduli (GPa) = 26.76463 109.01030 116.67970
#
# Poissons Ratio (x) = 0.17850 -0.23623
# Poissons Ratio (y) = 0.04383 0.60635
# Poissons Ratio (z) = -0.05419 0.56649
#
# Static dielectric constant tensor:
#      x y z
#    x 1.718480 0.000000 0.000000 
#    y 0.000000 1.662050 0.000000 
#    z 0.000000 0.000000 1.694310 
# 
# From -- ./inp_files/21522.got.cif
#   From: 2010.05.17/outbox.cif.g08.bks.cpg/sg47_11_cif.got.tgz:21522.got - 2010.06.03 20:15:42.
