data_PCOD9382757
_publ_section_title
;
Structure prediction by ZEFSAII (Michael W. Deem and Ramdas Pophale) SiO2 
 PCOD9382757
Probable space group: P M M M
;
_chemical_formula_sum "Si O2"
_cell_formula_units_Z 52
_cell_length_a 23.932967
_cell_length_b 14.777063
_cell_length_c 7.533713
_cell_angle_alpha 90.000000
_cell_angle_beta 90.000000
_cell_angle_gamma 90.000000
_cell_volume 2664.365113
_symmetry_space_group_name_H-M "P M M M"
_symmetry_group_IT_number 47
_symmetry_cell_setting 'orthorhombic'
loop_
_space_group_symop_operation_xyz
x,y,z
-x,-y,z
x,-y,-z
-x,y,-z
-x,-y,-z
x,y,-z
-x,y,z
x,-y,z
loop_
_atom_site_type_symbol
_atom_site_label
_atom_site_fract_x
_atom_site_fract_y
_atom_site_fract_z
Si Si1 0.721904 0.600883 0.283630
Si Si2 0.330027 0.214569 0.717817
Si Si3 0.110939 0.204910 0.792289
Si Si4 0.148957 0.600893 0.713838
Si Si5 0.563142 0.103983 0.283612
Si Si6 0.776287 0.898672 0.709030
Si Si7 0.000000 0.894823 0.782368
O O1 0.722395 0.601359 0.500000
O O2 0.705242 0.500000 0.227148
O O3 0.683174 0.683127 0.225572
O O4 0.786530 0.615810 0.228753
O O5 0.330150 0.214518 0.500000
O O6 0.388250 0.171038 0.775865
O O7 0.277896 0.153342 0.779860
O O8 0.112870 0.312856 0.767340
O O9 0.168021 0.160843 0.723345
O O10 0.055642 0.156701 0.719612
O O11 0.111491 0.186105 0.000000
O O12 0.149394 0.599500 0.500000
O O13 0.131740 0.500000 0.774086
O O14 0.563278 0.104865 0.500000
O O15 0.500000 0.126887 0.227159
O O16 0.575032 0.000000 0.231117
O O17 0.765469 0.907734 0.500000
O O18 0.783984 0.000000 0.782506
O O19 0.000000 0.000000 0.730411
O O20 0.000000 0.892571 0.000000
#
# Coordination Sequence:
#
# PCOD9382757 Si02
#       7
#     8   8   8   8   8   8   4
#     4   8  13  22  39  61  83 111 146 180 219 274
#     4   9  14  22  38  59  84 113 149 190 232 277
#     4  11  21  34  53  73  95 124 158 197 237 280
#     4   9  17  32  53  74  98 126 154 188 234 287
#     4   8  13  20  30  48  78 116 153 186 225 274
#     4  10  19  30  46  69  95 121 154 197 242 286
#     4   9  20  38  54  67  90 130 169 191 222 283
#
# _framework density 19.516843000000001
#
# number of rings (size 3 to 8) (size 9 to 14) (size 15 to 20)
#    0.000    2.846    1.538    2.769    0.000    3.077 
#    0.000    1.923    0.000    5.538    0.000    3.231 
#    0.000    0.615    0.000    3.231    0.000    8.000 
#
# Total GULP energy -290056.901415 kJ/mol
# GULP energy per Si atom -5578.017335 kJ/mol
# Density = 1.947242 g / cm^3
# Si number density = 19.516843 Si / 1000 Ang^3
#
#
#
# Elastic Constant Matrix: (Units=GPa)
#
#
# Indices 1 2 3 4 5 6 
#
# 1 136.6626 99.2947 -0.2490 0.0000 0.0000 0.0000
# 2 99.2947 177.6406 -2.0122 0.0000 0.0000 0.0000
# 3 -0.2490 -2.0122 44.4686 0.0000 0.0000 0.0000
# 4 0.0000 0.0000 0.0000 1.9232 0.0000 0.0000
# 5 0.0000 0.0000 0.0000 0.0000 15.7914 0.0000
# 6 0.0000 0.0000 0.0000 0.0000 0.0000 31.8647
#
#
#
# Elastic Compliance Matrix: (Units=1/GPa)
#
#
# Indices 1 2 3 4 5 6 
#
# 1 0.012324 -0.006891 -0.000243 0.000000 0.000000 0.000000
# 2 -0.006891 0.009486 0.000391 0.000000 0.000000 0.000000
# 3 -0.000243 0.000391 0.022504 0.000000 0.000000 0.000000
# 4 0.000000 0.000000 0.000000 0.519958 0.000000 0.000000
# 5 0.000000 0.000000 0.000000 0.000000 0.063326 0.000000
# 6 0.000000 0.000000 0.000000 0.000000 0.000000 0.031383
#
#
# Mechanical properties :
#
#
# Convention : Reuss Voigt Hill
#
# Bulk Modulus (GPa) = 32.43941 61.42654 46.93297
# Shear Modulus (GPa) = 7.32340 27.36508 17.34424
#
# Velocity S-wave (km/s) = 1.93920 3.74856 2.98431
# Velocity P-wave (km/s) = 4.65525 7.09067 5.99787
#
# Compressibility (1/GPa) = 0.03082670
#
# Stress axis : x y z
#
# Youngs Moduli (GPa) = 81.14322 105.42088 44.43631
#
# Poissons Ratio (x) = 0.72649 0.01079
# Poissons Ratio (y) = 0.55919 -0.01736
# Poissons Ratio (z) = 0.01970 -0.04118
#
# Static dielectric constant tensor:
#      x y z
#    x 1.656900 0.000000 0.000000 
#    y 0.000000 1.691430 0.000000 
#    z 0.000000 0.000000 1.806030 
# 
# From -- ./inp_files/11072.got.cif
#   From: 2010.05.17/outbox.cif.g08.bks.cpg/sg47_6_cif.got.tgz:11072.got - 2010.06.03 20:15:42.
