data_PCOD9382505
_publ_section_title
;
Structure prediction by ZEFSAII (Michael W. Deem and Ramdas Pophale) SiO2 
 PCOD9382505
Probable space group: P M M M
;
_chemical_formula_sum "Si O2"
_cell_formula_units_Z 64
_cell_length_a 14.886313
_cell_length_b 7.689574
_cell_length_c 32.436387
_cell_angle_alpha 90.000000
_cell_angle_beta 90.000000
_cell_angle_gamma 90.000000
_cell_volume 3712.973933
_symmetry_space_group_name_H-M "P M M M"
_symmetry_group_IT_number 47
_symmetry_cell_setting 'orthorhombic'
loop_
_space_group_symop_operation_xyz
x,y,z
-x,-y,z
x,-y,-z
-x,y,-z
-x,-y,-z
x,y,-z
-x,y,z
x,-y,z
loop_
_atom_site_type_symbol
_atom_site_label
_atom_site_fract_x
_atom_site_fract_y
_atom_site_fract_z
Si Si1 0.898678 0.206729 0.204372
Si Si2 0.399905 0.212166 0.160629
Si Si3 0.400294 0.209310 0.744107
Si Si4 0.213854 0.213441 0.874721
Si Si5 0.102845 0.292183 0.634306
Si Si6 0.896658 0.212141 0.046526
Si Si7 0.790882 0.705634 0.286719
Si Si8 0.104481 0.209118 0.544360
O O1 0.845738 0.272815 0.164286
O O2 0.841392 0.230722 0.245736
O O3 0.000000 0.277426 0.208346
O O4 0.906112 0.000000 0.198191
O O5 0.500000 0.267881 0.147967
O O6 0.385689 0.266056 0.208332
O O7 0.316155 0.269214 0.133288
O O8 0.399722 0.000000 0.160659
O O9 0.500000 0.269811 0.731195
O O10 0.314942 0.259859 0.717254
O O11 0.402335 0.000000 0.744911
O O12 0.169126 0.270793 0.917348
O O13 0.213495 0.000000 0.874676
O O14 0.096861 0.500000 0.638705
O O15 0.162469 0.222976 0.671922
O O16 0.142358 0.260524 0.588686
O O17 0.000000 0.222981 0.636198
O O18 0.000000 0.263466 0.054958
O O19 0.895628 0.000000 0.046654
O O20 0.873227 0.267578 0.000000
O O21 0.803155 0.500000 0.287075
O O22 0.142785 0.268651 0.500000
O O23 0.000000 0.267986 0.545122
O O24 0.104129 0.000000 0.543623
#
# Coordination Sequence:
#
# PCOD9382505 Si02
#       8
#     8   8   8   8   8   8   8   8
#     4  10  19  29  42  60  81 110 150 186 212 248
#     4   8  13  22  38  57  74  95 127 168 210 251
#     4   9  17  31  49  65  82 107 143 183 219 258
#     4   9  14  22  37  55  75  99 134 176 213 253
#     4   9  18  30  41  56  83 121 156 178 205 252
#     4   8  13  20  30  47  73 103 131 163 210 261
#     4  11  21  31  43  61  90 121 146 177 218 262
#     4   8  14  25  41  61  83 107 141 187 229 255
#
# _framework density 17.236858000000002
#
# number of rings (size 3 to 8) (size 9 to 14) (size 15 to 20)
#    0.000    3.000    1.250    2.625    0.000    3.750 
#    0.000    2.500    0.000    0.375    0.000    2.625 
#    0.000    1.000    0.000    8.125    0.000   10.750 
#
# Total GULP energy -356538.311732 kJ/mol
# GULP energy per Si atom -5570.911121 kJ/mol
# Density = 1.719763 g / cm^3
# Si number density = 17.236858 Si / 1000 Ang^3
#
#
#
# Elastic Constant Matrix: (Units=GPa)
#
#
# Indices 1 2 3 4 5 6 
#
# 1 122.6895 2.7046 85.6333 0.0000 0.0000 0.0000
# 2 2.7046 26.3193 2.5582 0.0000 0.0000 0.0000
# 3 85.6333 2.5582 152.4029 0.0000 0.0000 0.0000
# 4 0.0000 0.0000 0.0000 25.5171 0.0000 0.0000
# 5 0.0000 0.0000 0.0000 0.0000 31.3254 0.0000
# 6 0.0000 0.0000 0.0000 0.0000 0.0000 4.3755
#
#
#
# Elastic Compliance Matrix: (Units=1/GPa)
#
#
# Indices 1 2 3 4 5 6 
#
# 1 0.013421 -0.000647 -0.007530 0.000000 0.000000 0.000000
# 2 -0.000647 0.038088 -0.000276 0.000000 0.000000 0.000000
# 3 -0.007530 -0.000276 0.010797 0.000000 0.000000 0.000000
# 4 0.000000 0.000000 0.000000 0.039189 0.000000 0.000000
# 5 0.000000 0.000000 0.000000 0.000000 0.031923 0.000000
# 6 0.000000 0.000000 0.000000 0.000000 0.000000 0.228546
#
#
# Mechanical properties :
#
#
# Convention : Reuss Voigt Hill
#
# Bulk Modulus (GPa) = 22.02633 53.68932 37.85782
# Shear Modulus (GPa) = 12.69025 26.27798 19.48412
#
# Velocity S-wave (km/s) = 2.71629 3.90875 3.36575
# Velocity P-wave (km/s) = 4.75858 7.18239 6.09224
#
# Compressibility (1/GPa) = 0.04540022
#
# Stress axis : x y z
#
# Youngs Moduli (GPa) = 74.51212 26.25485 92.61652
#
# Poissons Ratio (x) = 0.01699 0.69740
# Poissons Ratio (y) = 0.04822 0.02554
# Poissons Ratio (z) = 0.56108 0.00724
#
# Static dielectric constant tensor:
#      x y z
#    x 1.473650 0.000000 0.000000 
#    y 0.000000 1.664520 0.000000 
#    z 0.000000 0.000000 1.596780 
# 
# From -- ./inp_files/34714.got.cif
#   From: 2010.05.17/outbox.cif.g08.bks.cpg/sg47_18_cif.got.tgz:34714.got - 2010.06.03 20:15:42.
