data_PCOD9382007
_publ_section_title
;
Structure prediction by ZEFSAII (Michael W. Deem and Ramdas Pophale) SiO2 
 PCOD9382007
Probable space group: P M M M
;
_chemical_formula_sum "Si O2"
_cell_formula_units_Z 32
_cell_length_a 24.710373
_cell_length_b 7.907359
_cell_length_c 8.000387
_cell_angle_alpha 90.000000
_cell_angle_beta 90.000000
_cell_angle_gamma 90.000000
_cell_volume 1563.225940
_symmetry_space_group_name_H-M "P M M M"
_symmetry_group_IT_number 47
_symmetry_cell_setting 'orthorhombic'
loop_
_space_group_symop_operation_xyz
x,y,z
-x,-y,z
x,-y,-z
-x,y,-z
-x,-y,-z
x,y,-z
-x,y,z
x,-y,z
loop_
_atom_site_type_symbol
_atom_site_label
_atom_site_fract_x
_atom_site_fract_y
_atom_site_fract_z
Si Si1 0.062236 0.500000 0.204929
Si Si2 0.250543 0.302414 0.301508
Si Si3 0.367025 0.293234 0.815327
Si Si4 0.133391 0.184491 0.201836
Si Si5 0.562250 0.292830 0.500000
O O1 0.095305 0.335566 0.261596
O O2 0.000000 0.500000 0.258190
O O3 0.062300 0.500000 0.000000
O O4 0.259903 0.295294 0.500000
O O5 0.243135 0.500000 0.253902
O O6 0.305092 0.238288 0.214785
O O7 0.195129 0.211084 0.257227
O O8 0.365945 0.500000 0.809144
O O9 0.405468 0.237438 0.665067
O O10 0.385431 0.243067 0.000000
O O11 0.114212 0.000000 0.256569
O O12 0.132978 0.189492 0.000000
O O13 0.562603 0.500000 0.500000
O O14 0.500000 0.238908 0.500000
#
# Coordination Sequence:
#
# PCOD9382007 Si02
#       5
#     4   8   8   8   4
#     4   9  18  34  55  79 111 149 187 230 281 335
#     4  10  18  30  50  73 101 137 180 231 288 347
#     4   9  16  26  42  65  95 136 184 233 288 344
#     4  10  20  33  52  80 110 141 183 232 283 342
#     4   9  16  26  38  60  99 141 187 237 281 338
#
# _framework density 20.470490000000002
#
# number of rings (size 3 to 8) (size 9 to 14) (size 15 to 20)
#    0.000    2.500    2.500    0.750    0.000    2.500 
#    0.000    5.000    0.000    1.500    0.000    1.750 
#    0.000    2.000    0.000    5.250    0.000    5.000 
#
# Total GULP energy -178689.143995 kJ/mol
# GULP energy per Si atom -5584.035750 kJ/mol
# Density = 2.042390 g / cm^3
# Si number density = 20.470490 Si / 1000 Ang^3
#
#
#
# Elastic Constant Matrix: (Units=GPa)
#
#
# Indices 1 2 3 4 5 6 
#
# 1 158.6976 48.6347 59.7172 0.0000 0.0000 0.0000
# 2 48.6347 78.8948 32.1156 0.0000 0.0000 0.0000
# 3 59.7172 32.1156 84.0843 0.0000 0.0000 0.0000
# 4 0.0000 0.0000 0.0000 3.1016 0.0000 0.0000
# 5 0.0000 0.0000 0.0000 0.0000 23.5387 0.0000
# 6 0.0000 0.0000 0.0000 0.0000 0.0000 -10.2050
#
#
#
# Elastic Compliance Matrix: (Units=1/GPa)
#
#
# Indices 1 2 3 4 5 6 
#
# 1 0.009409 -0.003647 -0.005290 0.000000 0.000000 0.000000
# 2 -0.003647 0.016422 -0.003682 0.000000 0.000000 0.000000
# 3 -0.005290 -0.003682 0.017056 0.000000 0.000000 0.000000
# 4 0.000000 0.000000 0.000000 0.322414 0.000000 0.000000
# 5 0.000000 0.000000 0.000000 0.000000 0.042483 0.000000
# 6 0.000000 0.000000 0.000000 0.000000 0.000000 -0.097991
#
#
# Mechanical properties :
#
#
# Convention : Reuss Voigt Hill
#
# Bulk Modulus (GPa) = 56.65808 66.95685 61.80746
# Shear Modulus (GPa) = 14.66638 15.36768 15.01703
#
# Velocity S-wave (km/s) = 2.67959 2.74291 2.71143
# Velocity P-wave (km/s) = 6.10832 6.54304 6.32941
#
# Compressibility (1/GPa) = 0.01764973
#
# Stress axis : x y z
#
# Youngs Moduli (GPa) = 106.27564 60.89274 58.63066
#
# Poissons Ratio (x) = 0.22209 0.31013
# Poissons Ratio (y) = 0.38761 0.21589
# Poissons Ratio (z) = 0.56216 0.22421
#
# Static dielectric constant tensor:
#      x y z
#    x 1.675260 0.000000 0.000000 
#    y 0.000000 1.765490 0.000000 
#    z 0.000000 0.000000 1.724560 
# 
# From -- ./inp_files/12014.got.cif
#   From: 2010.05.17/outbox.cif.g08.bks.cpg/sg47_7_cif.got.tgz:12014.got - 2010.06.03 20:15:42.
