data_PCOD9382131
_publ_section_title
;
Structure prediction by ZEFSAII (Michael W. Deem and Ramdas Pophale) SiO2 
 PCOD9382131
Probable space group: P M M M
;
_chemical_formula_sum "Si O2"
_cell_formula_units_Z 64
_cell_length_a 15.509020
_cell_length_b 25.555212
_cell_length_c 8.467339
_cell_angle_alpha 90.000000
_cell_angle_beta 90.000000
_cell_angle_gamma 90.000000
_cell_volume 3355.913759
_symmetry_space_group_name_H-M "P M M M"
_symmetry_group_IT_number 47
_symmetry_cell_setting 'orthorhombic'
loop_
_space_group_symop_operation_xyz
x,y,z
-x,-y,z
x,-y,-z
-x,y,-z
-x,-y,-z
x,y,-z
-x,y,z
x,-y,z
loop_
_atom_site_type_symbol
_atom_site_label
_atom_site_fract_x
_atom_site_fract_y
_atom_site_fract_z
Si Si1 0.729655 0.646042 0.188674
Si Si2 0.663757 0.167603 0.315156
Si Si3 0.592708 0.269942 0.188677
Si Si4 0.093660 0.086354 0.186396
Si Si5 0.402558 0.438432 0.690164
Si Si6 0.720429 0.943050 0.310139
Si Si7 0.903729 0.312365 0.311566
Si Si8 0.843603 0.201789 0.815848
O O1 0.672542 0.695591 0.247961
O O2 0.672327 0.596193 0.234746
O O3 0.824952 0.650847 0.259277
O O4 0.737526 0.649128 0.000000
O O5 0.642269 0.166656 0.500000
O O6 0.604262 0.209315 0.229427
O O7 0.669530 0.108220 0.251574
O O8 0.759941 0.190290 0.289274
O O9 0.500000 0.288643 0.250673
O O10 0.592645 0.275776 0.000000
O O11 0.178822 0.064205 0.267727
O O12 0.099462 0.149539 0.198879
O O13 0.000000 0.068812 0.246335
O O14 0.098955 0.073606 0.000000
O O15 0.399135 0.432797 0.500000
O O16 0.500000 0.423025 0.741839
O O17 0.392182 0.500000 0.726140
O O18 0.713525 0.942159 0.500000
O O19 0.691318 0.000000 0.252274
O O20 0.900519 0.306355 0.500000
O O21 0.887905 0.255382 0.234543
O O22 0.000000 0.330799 0.267491
O O23 0.816438 0.206035 0.000000
#
# Coordination Sequence:
#
# PCOD9382131 Si02
#       8
#     8   8   8   8   8   8   8   8
#     4  11  22  36  57  85 118 155 191 231 278 327
#     4  10  19  32  52  75 100 133 173 215 265 324
#     4  10  21  36  54  80 114 147 175 212 270 333
#     4   9  18  30  44  65  93 124 162 210 261 317
#     4   9  19  37  61  89 122 160 198 235 278 328
#     4   9  19  34  49  66  90 123 165 214 266 320
#     4  11  23  36  52  77 110 149 193 237 278 324
#     4  10  18  31  50  71  99 137 177 217 267 321
#
# _framework density 19.070813000000001
#
# number of rings (size 3 to 8) (size 9 to 14) (size 15 to 20)
#    0.000    2.125    1.250    2.625    0.000    5.000 
#    0.000    1.875    0.000    0.750    0.000    5.250 
#    0.000    0.000    0.000    0.000    0.000    0.000 
#
# Total GULP energy -357076.777048 kJ/mol
# GULP energy per Si atom -5579.324641 kJ/mol
# Density = 1.902741 g / cm^3
# Si number density = 19.070813 Si / 1000 Ang^3
#
#
#
# Elastic Constant Matrix: (Units=GPa)
#
#
# Indices 1 2 3 4 5 6 
#
# 1 91.4430 39.1724 9.4669 0.0000 0.0000 0.0000
# 2 39.1724 87.0873 9.3998 0.0000 0.0000 0.0000
# 3 9.4669 9.3998 16.6585 0.0000 0.0000 0.0000
# 4 0.0000 0.0000 0.0000 18.3585 0.0000 0.0000
# 5 0.0000 0.0000 0.0000 0.0000 17.9266 0.0000
# 6 0.0000 0.0000 0.0000 0.0000 0.0000 3.0581
#
#
#
# Elastic Compliance Matrix: (Units=1/GPa)
#
#
# Indices 1 2 3 4 5 6 
#
# 1 0.013876 -0.005740 -0.004647 0.000000 0.000000 0.000000
# 2 -0.005740 0.014602 -0.004977 0.000000 0.000000 0.000000
# 3 -0.004647 -0.004977 0.065478 0.000000 0.000000 0.000000
# 4 0.000000 0.000000 0.000000 0.054471 0.000000 0.000000
# 5 0.000000 0.000000 0.000000 0.000000 0.055783 0.000000
# 6 0.000000 0.000000 0.000000 0.000000 0.000000 0.327004
#
#
# Mechanical properties :
#
#
# Convention : Reuss Voigt Hill
#
# Bulk Modulus (GPa) = 15.81573 34.58524 25.20048
# Shear Modulus (GPa) = 8.57608 17.01194 12.79401
#
# Velocity S-wave (km/s) = 2.12291 2.98995 2.59292
# Velocity P-wave (km/s) = 3.78419 5.48582 4.71245
#
# Compressibility (1/GPa) = 0.06322821
#
# Stress axis : x y z
#
# Youngs Moduli (GPa) = 72.06864 68.48477 15.27220
#
# Poissons Ratio (x) = 0.39309 0.07096
# Poissons Ratio (y) = 0.41366 0.07602
# Poissons Ratio (z) = 0.33488 0.34088
#
# Static dielectric constant tensor:
#      x y z
#    x 1.679490 0.000000 0.000000 
#    y 0.000000 1.680330 0.000000 
#    z 0.000000 0.000000 1.653950 
# 
# From -- ./inp_files/7938.got.cif
#   From: 2010.05.17/outbox.cif.g08.bks.cpg/sg47_4_cif.got.tgz:7938.got - 2010.06.03 20:15:42.
