data_PCOD9382818
_publ_section_title
;
Structure prediction by ZEFSAII (Michael W. Deem and Ramdas Pophale) SiO2 
 PCOD9382818
Probable space group: P M M M
;
_chemical_formula_sum "Si O2"
_cell_formula_units_Z 60
_cell_length_a 21.560029
_cell_length_b 19.532469
_cell_length_c 8.794357
_cell_angle_alpha 90.000000
_cell_angle_beta 90.000000
_cell_angle_gamma 90.000000
_cell_volume 3703.484880
_symmetry_space_group_name_H-M "P M M M"
_symmetry_group_IT_number 47
_symmetry_cell_setting 'orthorhombic'
loop_
_space_group_symop_operation_xyz
x,y,z
-x,-y,z
x,-y,-z
-x,y,-z
-x,-y,-z
x,y,-z
-x,y,z
x,-y,z
loop_
_atom_site_type_symbol
_atom_site_label
_atom_site_fract_x
_atom_site_fract_y
_atom_site_fract_z
Si Si1 0.359461 0.421643 0.819305
Si Si2 0.221474 0.422491 0.318080
Si Si3 0.877323 0.852173 0.182109
Si Si4 0.000000 0.919788 0.682437
Si Si5 0.570085 0.704776 0.683618
Si Si6 0.243707 0.077540 0.682686
Si Si7 0.310733 0.212566 0.682803
Si Si8 0.810100 0.285048 0.818238
O O1 0.379595 0.500000 0.792516
O O2 0.291422 0.413946 0.745369
O O3 0.406008 0.367142 0.748623
O O4 0.353879 0.410929 0.000000
O O5 0.223328 0.417421 0.500000
O O6 0.201361 0.500000 0.276781
O O7 0.181651 0.360191 0.251549
O O8 0.939260 0.881630 0.255674
O O9 0.819228 0.897449 0.238024
O O10 0.859851 0.773666 0.224716
O O11 0.881933 0.855533 0.000000
O O12 0.000000 0.918145 0.500000
O O13 0.000000 0.000000 0.729794
O O14 0.570501 0.701279 0.500000
O O15 0.500000 0.719953 0.733144
O O16 0.622071 0.760168 0.729401
O O17 0.233890 0.079694 0.500000
O O18 0.296038 0.133662 0.719111
O O19 0.259058 0.000000 0.725539
O O20 0.305104 0.221209 0.500000
O O21 0.256075 0.256484 0.759231
O O22 0.808443 0.289750 0.000000
#
# Coordination Sequence:
#
# PCOD9382818 Si02
#       8
#     8   8   8   4   8   8   8   8
#     4  10  20  32  46  65  90 120 155 197 243 290
#     4  10  19  30  47  71  98 128 160 196 242 292
#     4  10  21  34  50  75 105 136 167 200 238 281
#     4  11  23  37  53  75 106 143 178 205 233 276
#     4  10  20  32  46  64  87 120 162 202 242 294
#     4   9  17  30  49  72  96 123 159 200 241 287
#     4   9  17  30  47  65  89 122 156 196 245 291
#     4  10  19  31  49  73  99 126 161 203 243 285
#
# _framework density 16.200958
#
# number of rings (size 3 to 8) (size 9 to 14) (size 15 to 20)
#    0.000    2.200    1.333    2.200    0.000    6.133 
#    0.000    1.333    0.000    0.400    0.000    3.267 
#    0.000    3.733    0.000    7.867    0.000    8.267 
#
# Total GULP energy -334637.237716 kJ/mol
# GULP energy per Si atom -5577.287295 kJ/mol
# Density = 1.616408 g / cm^3
# Si number density = 16.200958 Si / 1000 Ang^3
#
#
#
# Elastic Constant Matrix: (Units=GPa)
#
#
# Indices 1 2 3 4 5 6 
#
# 1 101.1038 77.0515 33.9494 0.0000 0.0000 0.0000
# 2 77.0515 158.7511 45.8673 0.0000 0.0000 0.0000
# 3 33.9494 45.8673 30.4068 0.0000 0.0000 0.0000
# 4 0.0000 0.0000 0.0000 22.7714 0.0000 0.0000
# 5 0.0000 0.0000 0.0000 0.0000 -12.0324 0.0000
# 6 0.0000 0.0000 0.0000 0.0000 0.0000 23.0284
#
#
#
# Elastic Compliance Matrix: (Units=1/GPa)
#
#
# Indices 1 2 3 4 5 6 
#
# 1 0.017939 -0.005176 -0.012222 0.000000 0.000000 0.000000
# 2 -0.005176 0.012659 -0.013316 0.000000 0.000000 0.000000
# 3 -0.012222 -0.013316 0.066620 0.000000 0.000000 0.000000
# 4 0.000000 0.000000 0.000000 0.043915 0.000000 0.000000
# 5 0.000000 0.000000 0.000000 0.000000 -0.083109 0.000000
# 6 0.000000 0.000000 0.000000 0.000000 0.000000 0.043425
#
#
# Mechanical properties :
#
#
# Convention : Reuss Voigt Hill
#
# Bulk Modulus (GPa) = 27.94049 67.11091 47.52570
# Shear Modulus (GPa) = 28.60304 15.64639 22.12471
#
# Velocity S-wave (km/s) = 4.20636 3.11105 3.69947
# Velocity P-wave (km/s) = 6.39335 7.37691 6.90267
#
# Compressibility (1/GPa) = 0.03579036
#
# Stress axis : x y z
#
# Youngs Moduli (GPa) = 55.74363 78.99680 15.01042
#
# Poissons Ratio (x) = 0.40887 0.18346
# Poissons Ratio (y) = 0.28852 0.19988
# Poissons Ratio (z) = 0.68129 1.05195
#
# Static dielectric constant tensor:
#      x y z
#    x 1.515250 0.000000 0.000000 
#    y 0.000000 1.568660 0.000000 
#    z 0.000000 0.000000 1.542620 
# 
# From -- ./inp_files/11578.got.cif
#   From: 2010.05.17/outbox.cif.g08.bks.cpg/sg47_6_cif.got.tgz:11578.got - 2010.06.03 20:15:42.
