data_PCOD9382046
_publ_section_title
;
Structure prediction by ZEFSAII (Michael W. Deem and Ramdas Pophale) SiO2 
 PCOD9382046
Probable space group: P M M M
;
_chemical_formula_sum "Si O2"
_cell_formula_units_Z 64
_cell_length_a 14.651900
_cell_length_b 31.762282
_cell_length_c 8.997445
_cell_angle_alpha 90.000000
_cell_angle_beta 90.000000
_cell_angle_gamma 90.000000
_cell_volume 4187.210976
_symmetry_space_group_name_H-M "P M M M"
_symmetry_group_IT_number 47
_symmetry_cell_setting 'orthorhombic'
loop_
_space_group_symop_operation_xyz
x,y,z
-x,-y,z
x,-y,-z
-x,y,-z
-x,-y,-z
x,y,-z
-x,y,z
x,-y,z
loop_
_atom_site_type_symbol
_atom_site_label
_atom_site_fract_x
_atom_site_fract_y
_atom_site_fract_z
Si Si1 0.891207 0.866908 0.323722
Si Si2 0.398817 0.337371 0.680471
Si Si3 0.106371 0.547943 0.821125
Si Si4 0.785777 0.789775 0.177012
Si Si5 0.889347 0.953343 0.173327
Si Si6 0.395226 0.761411 0.321605
Si Si7 0.209875 0.625192 0.679170
Si Si8 0.892095 0.711928 0.322127
O O1 0.878582 0.862706 0.500000
O O2 0.836780 0.830712 0.239568
O O3 0.861192 0.913190 0.268838
O O4 0.000000 0.862542 0.292882
O O5 0.399474 0.338812 0.500000
O O6 0.500000 0.350200 0.732019
O O7 0.384628 0.288168 0.717908
O O8 0.313029 0.364706 0.730173
O O9 0.130708 0.500000 0.777683
O O10 0.168037 0.583513 0.748898
O O11 0.000000 0.554800 0.780326
O O12 0.112080 0.550438 0.000000
O O13 0.682876 0.786839 0.238763
O O14 0.839152 0.748885 0.238847
O O15 0.786490 0.789721 0.000000
O O16 0.000000 0.954106 0.178724
O O17 0.858181 0.000000 0.222252
O O18 0.864246 0.947717 0.000000
O O19 0.382804 0.764719 0.500000
O O20 0.500000 0.773297 0.287640
O O21 0.209409 0.621444 0.500000
O O22 0.149307 0.666344 0.716540
O O23 0.878902 0.717833 0.500000
O O24 0.000000 0.713395 0.291414
#
# Coordination Sequence:
#
# PCOD9382046 Si02
#       8
#     8   8   8   8   8   8   8   8
#     4  10  20  32  46  64  90 128 171 209 241 280
#     4   8  14  27  49  73  94 117 146 183 228 276
#     4   9  19  35  51  67  92 125 155 185 227 279
#     4  12  23  32  45  66  96 129 160 197 237 282
#     4   8  14  26  44  65  90 120 155 198 247 294
#     4   9  17  33  55  71  88 120 158 194 235 282
#     4  10  18  30  51  75  95 115 150 196 232 268
#     4  10  20  33  47  65  93 126 159 195 232 274
#
# _framework density 15.284636000000001
#
# number of rings (size 3 to 8) (size 9 to 14) (size 15 to 20)
#    0.000    2.500    1.250    3.750    0.000    4.500 
#    0.000    1.875    0.000    0.750    0.000    2.625 
#    0.000    0.500    0.000    5.250    0.000    2.500 
#
# Total GULP energy -356796.305232 kJ/mol
# GULP energy per Si atom -5574.942269 kJ/mol
# Density = 1.524985 g / cm^3
# Si number density = 15.284636 Si / 1000 Ang^3
#
#
#
# Elastic Constant Matrix: (Units=GPa)
#
#
# Indices 1 2 3 4 5 6 
#
# 1 103.6353 70.4361 51.9702 0.0000 0.0000 0.0000
# 2 70.4361 117.3236 51.5548 0.0000 0.0000 0.0000
# 3 51.9702 51.5548 44.8811 0.0000 0.0000 0.0000
# 4 0.0000 0.0000 0.0000 29.9366 0.0000 0.0000
# 5 0.0000 0.0000 0.0000 0.0000 15.0207 0.0000
# 6 0.0000 0.0000 0.0000 0.0000 0.0000 5.8898
#
#
#
# Elastic Compliance Matrix: (Units=1/GPa)
#
#
# Indices 1 2 3 4 5 6 
#
# 1 0.024113 -0.004456 -0.022803 0.000000 0.000000 0.000000
# 2 -0.004456 0.018034 -0.015556 0.000000 0.000000 0.000000
# 3 -0.022803 -0.015556 0.066555 0.000000 0.000000 0.000000
# 4 0.000000 0.000000 0.000000 0.033404 0.000000 0.000000
# 5 0.000000 0.000000 0.000000 0.000000 0.066575 0.000000
# 6 0.000000 0.000000 0.000000 0.000000 0.000000 0.169786
#
#
# Mechanical properties :
#
#
# Convention : Reuss Voigt Hill
#
# Bulk Modulus (GPa) = 43.34232 68.19579 55.76906
# Shear Modulus (GPa) = 10.59801 16.29467 13.44634
#
# Velocity S-wave (km/s) = 2.63606 3.26863 2.96924
# Velocity P-wave (km/s) = 6.13868 7.67850 6.95136
#
# Compressibility (1/GPa) = 0.02307214
#
# Stress axis : x y z
#
# Youngs Moduli (GPa) = 41.47166 55.44936 15.02527
#
# Poissons Ratio (x) = 0.24710 0.34262
# Poissons Ratio (y) = 0.18481 0.23373
# Poissons Ratio (z) = 0.94566 0.86257
#
# Static dielectric constant tensor:
#      x y z
#    x 1.508020 0.000000 0.000000 
#    y 0.000000 1.494590 0.000000 
#    z 0.000000 0.000000 1.508300 
# 
# From -- ./inp_files/8259.got.cif
#   From: 2010.05.17/outbox.cif.g08.bks.cpg/sg47_5_cif.got.tgz:8259.got - 2010.06.03 20:15:42.
