data_PCOD9382094
_publ_section_title
;
Structure prediction by ZEFSAII (Michael W. Deem and Ramdas Pophale) SiO2 
 PCOD9382094
Probable space group: P M M M
;
_chemical_formula_sum "Si O2"
_cell_formula_units_Z 64
_cell_length_a 24.276841
_cell_length_b 15.267556
_cell_length_c 8.565777
_cell_angle_alpha 90.000000
_cell_angle_beta 90.000000
_cell_angle_gamma 90.000000
_cell_volume 3174.888366
_symmetry_space_group_name_H-M "P M M M"
_symmetry_group_IT_number 47
_symmetry_cell_setting 'orthorhombic'
loop_
_space_group_symop_operation_xyz
x,y,z
-x,-y,z
x,-y,-z
-x,y,-z
-x,-y,-z
x,y,-z
-x,y,z
x,-y,z
loop_
_atom_site_type_symbol
_atom_site_label
_atom_site_fract_x
_atom_site_fract_y
_atom_site_fract_z
Si Si1 0.124821 0.404704 0.178220
Si Si2 0.937458 0.759840 0.314331
Si Si3 0.748474 0.597479 0.255128
Si Si4 0.621654 0.593855 0.179422
Si Si5 0.857116 0.900414 0.187351
Si Si6 0.649730 0.102386 0.314674
Si Si7 0.749299 0.785753 0.188018
Si Si8 0.435091 0.770053 0.812347
O O1 0.108786 0.500000 0.244413
O O2 0.099560 0.323300 0.267260
O O3 0.191437 0.403280 0.175149
O O4 0.105681 0.399300 0.000000
O O5 0.938619 0.765336 0.500000
O O6 0.908995 0.846786 0.249154
O O7 0.000000 0.749032 0.256082
O O8 0.748563 0.500000 0.334790
O O9 0.688173 0.596800 0.176184
O O10 0.748638 0.700394 0.300801
O O11 0.606351 0.500000 0.253571
O O12 0.596012 0.682098 0.246741
O O13 0.602493 0.591821 0.000000
O O14 0.802597 0.844294 0.223898
O O15 0.853702 0.000000 0.246225
O O16 0.860330 0.903342 0.000000
O O17 0.659671 0.110749 0.500000
O O18 0.695714 0.156615 0.221006
O O19 0.592081 0.146934 0.270018
O O20 0.651517 0.000000 0.273796
O O21 0.750745 0.761767 0.000000
O O22 0.500000 0.762590 0.785588
O O23 0.425893 0.777516 0.000000
#
# Coordination Sequence:
#
# PCOD9382094 Si02
#       8
#     8   8   8   8   8   8   8   8
#     4  10  20  36  61  91 120 152 195 245 294 348
#     4  11  25  42  59  82 116 159 203 246 294 351
#     4  10  18  30  57  95 126 151 182 226 285 347
#     4   9  16  28  51  85 121 151 180 221 276 337
#     4  10  22  40  63  91 118 148 192 246 302 356
#     4  11  25  42  59  82 114 153 195 238 290 352
#     4  11  20  36  64  93 122 152 185 232 286 343
#     4  10  21  37  59  87 114 146 195 248 292 337
#
# _framework density 20.158189
#
# number of rings (size 3 to 8) (size 9 to 14) (size 15 to 20)
#    0.000    1.750    2.500    2.250    0.000    7.500 
#    0.000    5.000    0.000    1.500    0.000    0.875 
#    0.000    0.000    0.000    0.000    0.000    0.000 
#
# Total GULP energy -356440.858490 kJ/mol
# GULP energy per Si atom -5569.388414 kJ/mol
# Density = 2.011231 g / cm^3
# Si number density = 20.158189 Si / 1000 Ang^3
#
#
#
# Elastic Constant Matrix: (Units=GPa)
#
#
# Indices 1 2 3 4 5 6 
#
# 1 96.1780 55.4334 18.2747 0.0000 0.0000 0.0000
# 2 55.4334 188.5042 29.6283 0.0000 0.0000 0.0000
# 3 18.2747 29.6283 21.9228 0.0000 0.0000 0.0000
# 4 0.0000 0.0000 0.0000 -38.8148 0.0000 0.0000
# 5 0.0000 0.0000 0.0000 0.0000 65.8121 0.0000
# 6 0.0000 0.0000 0.0000 0.0000 0.0000 11.7043
#
#
#
# Elastic Compliance Matrix: (Units=1/GPa)
#
#
# Indices 1 2 3 4 5 6 
#
# 1 0.013408 -0.002776 -0.007425 0.000000 0.000000 0.000000
# 2 -0.002776 0.007310 -0.007566 0.000000 0.000000 0.000000
# 3 -0.007425 -0.007566 0.062030 0.000000 0.000000 0.000000
# 4 0.000000 0.000000 0.000000 -0.025763 0.000000 0.000000
# 5 0.000000 0.000000 0.000000 0.000000 0.015195 0.000000
# 6 0.000000 0.000000 0.000000 0.000000 0.000000 0.085439
#
#
# Mechanical properties :
#
#
# Convention : Reuss Voigt Hill
#
# Bulk Modulus (GPa) = 21.18027 57.03087 39.10557
# Shear Modulus (GPa) = 23.93597 21.29156 22.61377
#
# Velocity S-wave (km/s) = 3.44962 3.25349 3.35298
# Velocity P-wave (km/s) = 5.13773 6.51664 5.86783
#
# Compressibility (1/GPa) = 0.04721375
#
# Stress axis : x y z
#
# Youngs Moduli (GPa) = 74.58140 136.79145 16.12132
#
# Poissons Ratio (x) = 0.37971 0.11971
# Poissons Ratio (y) = 0.20703 0.12197
# Poissons Ratio (z) = 0.55380 1.03496
#
# Static dielectric constant tensor:
#      x y z
#    x 1.695730 0.000000 0.000000 
#    y 0.000000 1.746980 0.000000 
#    z 0.000000 0.000000 1.710980 
# 
# From -- ./inp_files/12738.got.cif
#   From: 2010.05.17/outbox.cif.g08.bks.cpg/sg47_7_cif.got.tgz:12738.got - 2010.06.03 20:15:42.
