data_PCOD9382804
_publ_section_title
;
Structure prediction by ZEFSAII (Michael W. Deem and Ramdas Pophale) SiO2 
 PCOD9382804
Probable space group: P M M M
;
_chemical_formula_sum "Si O2"
_cell_formula_units_Z 40
_cell_length_a 7.810921
_cell_length_b 14.224857
_cell_length_c 19.172932
_cell_angle_alpha 90.000000
_cell_angle_beta 90.000000
_cell_angle_gamma 90.000000
_cell_volume 2130.289793
_symmetry_space_group_name_H-M "P M M M"
_symmetry_group_IT_number 47
_symmetry_cell_setting 'orthorhombic'
loop_
_space_group_symop_operation_xyz
x,y,z
-x,-y,z
x,-y,-z
-x,y,-z
-x,-y,-z
x,y,-z
-x,y,z
x,-y,z
loop_
_atom_site_type_symbol
_atom_site_label
_atom_site_fract_x
_atom_site_fract_y
_atom_site_fract_z
Si Si1 0.798429 0.896483 0.142419
Si Si2 0.296425 0.603298 0.781449
Si Si3 0.702565 0.797096 0.720208
Si Si4 0.207881 0.298520 0.921567
Si Si5 0.793244 0.891649 0.577961
O O1 0.781069 0.869380 0.223894
O O2 0.730162 0.806182 0.100513
O O3 0.000000 0.901061 0.125797
O O4 0.724215 0.000000 0.128811
O O5 0.500000 0.599439 0.768704
O O6 0.224353 0.500000 0.766066
O O7 0.228744 0.692869 0.738233
O O8 0.268465 0.630373 0.862193
O O9 0.500000 0.797428 0.734081
O O10 0.733057 0.828420 0.641539
O O11 0.000000 0.297920 0.919443
O O12 0.261624 0.321242 0.000000
O O13 0.737369 0.862837 0.500000
O O14 0.000000 0.891342 0.578406
O O15 0.737956 0.000000 0.588908
#
# Coordination Sequence:
#
# PCOD9382804 Si02
#       5
#     8   8   8   8   8
#     4   9  17  29  45  64  89 124 158 183 217 271
#     4   9  19  35  51  66  87 118 154 189 229 278
#     4  10  19  30  47  70  93 117 150 193 231 262
#     4   9  18  31  46  67  93 117 147 191 235 271
#     4   9  18  32  49  70  98 130 156 176 208 260
#
# _framework density 18.776788
#
# number of rings (size 3 to 8) (size 9 to 14) (size 15 to 20)
#    0.000    2.800    0.000    1.800    0.000    6.000 
#    0.000    5.000    0.000    0.600    0.000    9.800 
#    0.000    0.000    0.000    0.000    0.000    0.000 
#
# Total GULP energy -223016.202739 kJ/mol
# GULP energy per Si atom -5575.405068 kJ/mol
# Density = 1.873405 g / cm^3
# Si number density = 18.776788 Si / 1000 Ang^3
#
#
#
# Elastic Constant Matrix: (Units=GPa)
#
#
# Indices 1 2 3 4 5 6 
#
# 1 21.4534 -1.8166 -13.8162 0.0000 0.0000 0.0000
# 2 -1.8166 79.6086 14.0897 0.0000 0.0000 0.0000
# 3 -13.8162 14.0897 81.3447 0.0000 0.0000 0.0000
# 4 0.0000 0.0000 0.0000 8.0479 0.0000 0.0000
# 5 0.0000 0.0000 0.0000 0.0000 -55.6189 0.0000
# 6 0.0000 0.0000 0.0000 0.0000 0.0000 15.2423
#
#
#
# Elastic Compliance Matrix: (Units=1/GPa)
#
#
# Indices 1 2 3 4 5 6 
#
# 1 0.052349 -0.000391 0.008959 0.000000 0.000000 0.000000
# 2 -0.000391 0.012962 -0.002312 0.000000 0.000000 0.000000
# 3 0.008959 -0.002312 0.014215 0.000000 0.000000 0.000000
# 4 0.000000 0.000000 0.000000 0.124255 0.000000 0.000000
# 5 0.000000 0.000000 0.000000 0.000000 -0.017979 0.000000
# 6 0.000000 0.000000 0.000000 0.000000 0.000000 0.065607
#
#
# Mechanical properties :
#
#
# Convention : Reuss Voigt Hill
#
# Bulk Modulus (GPa) = 10.86488 19.92450 15.39469
# Shear Modulus (GPa) = 18.54764 5.79757 12.17260
#
# Velocity S-wave (km/s) = 3.14633 1.75907 2.54890
# Velocity P-wave (km/s) = 4.35868 3.84188 4.10842
#
# Compressibility (1/GPa) = 0.09203968
#
# Stress axis : x y z
#
# Youngs Moduli (GPa) = 19.10239 77.15069 70.34601
#
# Poissons Ratio (x) = 0.03018 -0.63024
# Poissons Ratio (y) = 0.00747 0.16261
# Poissons Ratio (z) = -0.17114 0.17834
#
# Static dielectric constant tensor:
#      x y z
#    x 1.696940 0.000000 0.000000 
#    y 0.000000 1.676180 0.000000 
#    z 0.000000 0.000000 1.627370 
# 
# From -- ./inp_files/3747.got.cif
#   From: 2010.05.17/outbox.cif.g08.bks.cpg/sg47_2_cif.got.tgz:3747.got - 2010.06.03 20:15:42.
