data_PCOD9382622
_publ_section_title
;
Structure prediction by ZEFSAII (Michael W. Deem and Ramdas Pophale) SiO2 
 PCOD9382622
Probable space group: P M M M
;
_chemical_formula_sum "Si O2"
_cell_formula_units_Z 48
_cell_length_a 14.213956
_cell_length_b 8.717959
_cell_length_c 24.384389
_cell_angle_alpha 90.000000
_cell_angle_beta 90.000000
_cell_angle_gamma 90.000000
_cell_volume 3021.632666
_symmetry_space_group_name_H-M "P M M M"
_symmetry_group_IT_number 47
_symmetry_cell_setting 'orthorhombic'
loop_
_space_group_symop_operation_xyz
x,y,z
-x,-y,z
x,-y,-z
-x,y,-z
-x,-y,-z
x,y,-z
-x,y,z
x,-y,z
loop_
_atom_site_type_symbol
_atom_site_label
_atom_site_fract_x
_atom_site_fract_y
_atom_site_fract_z
Si Si1 0.290878 0.315998 0.667133
Si Si2 0.608171 0.816037 0.773494
Si Si3 0.105794 0.686310 0.272486
Si Si4 0.219031 0.683683 0.835955
Si Si5 0.891375 0.815120 0.936811
Si Si6 0.390484 0.184818 0.437328
O O1 0.295449 0.500000 0.669612
O O2 0.357260 0.248984 0.714985
O O3 0.184656 0.267450 0.683374
O O4 0.325464 0.258239 0.608595
O O5 0.500000 0.772153 0.783544
O O6 0.680598 0.752046 0.818472
O O7 0.614247 0.000000 0.772021
O O8 0.102633 0.500000 0.273256
O O9 0.146911 0.730188 0.212931
O O10 0.000000 0.743371 0.281204
O O11 0.225127 0.500000 0.835729
O O12 0.178278 0.742228 0.893077
O O13 0.000000 0.770476 0.924981
O O14 0.886414 0.000000 0.933196
O O15 0.871160 0.772514 0.000000
O O16 0.367098 0.228751 0.500000
O O17 0.500000 0.226810 0.427417
O O18 0.384795 0.000000 0.433732
#
# Coordination Sequence:
#
# PCOD9382622 Si02
#       6
#     8   8   8   8   8   8
#     4  10  19  29  46  72  96 119 150 191 235 273
#     4  10  20  33  49  68  93 127 160 188 227 283
#     4   8  15  28  44  64  92 122 149 180 222 271
#     4  10  19  30  48  73  97 122 155 198 242 278
#     4   9  18  32  49  70  98 131 163 194 230 276
#     4   9  18  32  48  65  88 121 156 187 226 279
#
# _framework density 15.885451
#
# number of rings (size 3 to 8) (size 9 to 14) (size 15 to 20)
#    0.000    2.667    0.000    4.500    0.000    5.333 
#    0.000    1.667    0.000   11.000    0.000    7.000 
#    0.000    0.000    0.000    0.000    0.000    0.000 
#
# Total GULP energy -267614.630682 kJ/mol
# GULP energy per Si atom -5575.304806 kJ/mol
# Density = 1.584930 g / cm^3
# Si number density = 15.885451 Si / 1000 Ang^3
#
#
#
# Elastic Constant Matrix: (Units=GPa)
#
#
# Indices 1 2 3 4 5 6 
#
# 1 155.3273 42.8872 93.9838 0.0000 0.0000 0.0000
# 2 42.8872 34.0217 37.6184 0.0000 0.0000 0.0000
# 3 93.9838 37.6184 122.6319 0.0000 0.0000 0.0000
# 4 0.0000 0.0000 0.0000 21.6733 0.0000 0.0000
# 5 0.0000 0.0000 0.0000 0.0000 23.1554 0.0000
# 6 0.0000 0.0000 0.0000 0.0000 0.0000 19.3801
#
#
#
# Elastic Compliance Matrix: (Units=1/GPa)
#
#
# Indices 1 2 3 4 5 6 
#
# 1 0.013421 -0.008392 -0.007712 0.000000 0.000000 0.000000
# 2 -0.008392 0.049727 -0.008823 0.000000 0.000000 0.000000
# 3 -0.007712 -0.008823 0.016771 0.000000 0.000000 0.000000
# 4 0.000000 0.000000 0.000000 0.046140 0.000000 0.000000
# 5 0.000000 0.000000 0.000000 0.000000 0.043187 0.000000
# 6 0.000000 0.000000 0.000000 0.000000 0.000000 0.051599
#
#
# Mechanical properties :
#
#
# Convention : Reuss Voigt Hill
#
# Bulk Modulus (GPa) = 33.25916 73.43997 53.34956
# Shear Modulus (GPa) = 17.81141 22.00786 19.90963
#
# Velocity S-wave (km/s) = 3.35213 3.72615 3.54407
# Velocity P-wave (km/s) = 5.99705 8.05255 7.09958
#
# Compressibility (1/GPa) = 0.03006690
#
# Stress axis : x y z
#
# Youngs Moduli (GPa) = 74.50996 20.10982 59.62647
#
# Poissons Ratio (x) = 0.16875 0.45981
# Poissons Ratio (y) = 0.62525 0.52608
# Poissons Ratio (z) = 0.57459 0.17743
#
# Static dielectric constant tensor:
#      x y z
#    x 1.529270 0.000000 0.000000 
#    y 0.000000 1.535980 0.000000 
#    z 0.000000 0.000000 1.510500 
# 
# From -- ./inp_files/7522.got.cif
#   From: 2010.05.17/outbox.cif.g08.bks.cpg/sg47_4_cif.got.tgz:7522.got - 2010.06.03 20:15:42.
