data_PCOD9382065
_publ_section_title
;
Structure prediction by ZEFSAII (Michael W. Deem and Ramdas Pophale) SiO2 
 PCOD9382065
Probable space group: P M M M
;
_chemical_formula_sum "Si O2"
_cell_formula_units_Z 52
_cell_length_a 12.355274
_cell_length_b 28.008255
_cell_length_c 8.569901
_cell_angle_alpha 90.000000
_cell_angle_beta 90.000000
_cell_angle_gamma 90.000000
_cell_volume 2965.611368
_symmetry_space_group_name_H-M "P M M M"
_symmetry_group_IT_number 47
_symmetry_cell_setting 'orthorhombic'
loop_
_space_group_symop_operation_xyz
x,y,z
-x,-y,z
x,-y,-z
-x,y,-z
-x,-y,-z
x,y,-z
-x,y,z
x,-y,z
loop_
_atom_site_type_symbol
_atom_site_label
_atom_site_fract_x
_atom_site_fract_y
_atom_site_fract_z
Si Si1 0.628849 0.722642 0.816809
Si Si2 0.375513 0.000000 0.190092
Si Si3 0.127663 0.447367 0.313280
Si Si4 0.699596 0.620696 0.812844
Si Si5 0.000000 0.055793 0.687066
Si Si6 0.500000 0.555048 0.809189
Si Si7 0.229413 0.089736 0.186895
Si Si8 0.375299 0.826534 0.314345
O O1 0.500000 0.713130 0.808334
O O2 0.685832 0.674826 0.755325
O O3 0.650313 0.771729 0.727997
O O4 0.655546 0.729737 0.000000
O O5 0.308164 0.046456 0.239339
O O6 0.500000 0.000000 0.244320
O O7 0.378308 0.000000 0.000000
O O8 0.142667 0.445012 0.500000
O O9 0.166950 0.500000 0.259959
O O10 0.190457 0.404756 0.233552
O O11 0.000000 0.445015 0.282739
O O12 0.604272 0.585287 0.757807
O O13 0.689579 0.623548 0.000000
O O14 0.890284 0.080809 0.746283
O O15 0.000000 0.056206 0.500000
O O16 0.000000 0.000000 0.739753
O O17 0.500000 0.500000 0.756701
O O18 0.500000 0.554117 0.000000
O O19 0.289191 0.137926 0.238700
O O20 0.222224 0.088347 0.000000
O O21 0.373520 0.832742 0.500000
O O22 0.500000 0.835921 0.259482
#
# Coordination Sequence:
#
# PCOD9382065 Si02
#       8
#     8   4   8   8   4   4   8   8
#     4   9  17  32  53  77 106 140 177 216 264 322
#     4   9  18  31  51  82 116 145 178 221 268 317
#     4   9  19  35  51  68  96 135 174 212 259 314
#     4  10  18  30  51  78 104 133 171 216 262 312
#     4  11  23  39  59  83 117 155 189 225 272 327
#     4   9  16  26  43  73 111 141 163 200 261 320
#     4  11  21  36  59  84 113 148 190 232 271 318
#     4  10  21  36  55  82 114 145 181 225 277 329
#
# _framework density 17.534327999999999
#
# number of rings (size 3 to 8) (size 9 to 14) (size 15 to 20)
#    0.000    2.231    1.538    2.538    0.000    3.692 
#    0.000    1.154    1.692    3.231    0.000    0.000 
#    0.000    0.000    0.000    0.000    0.000    0.000 
#
# Total GULP energy -290098.680082 kJ/mol
# GULP energy per Si atom -5578.820771 kJ/mol
# Density = 1.749442 g / cm^3
# Si number density = 17.534328 Si / 1000 Ang^3
#
#
#
# Elastic Constant Matrix: (Units=GPa)
#
#
# Indices 1 2 3 4 5 6 
#
# 1 102.4007 71.6398 25.9385 0.0000 0.0000 0.0000
# 2 71.6398 136.2750 25.7225 0.0000 0.0000 0.0000
# 3 25.9385 25.7225 23.9815 0.0000 0.0000 0.0000
# 4 0.0000 0.0000 0.0000 20.2387 0.0000 0.0000
# 5 0.0000 0.0000 0.0000 0.0000 8.2265 0.0000
# 6 0.0000 0.0000 0.0000 0.0000 0.0000 24.5893
#
#
#
# Elastic Compliance Matrix: (Units=1/GPa)
#
#
# Indices 1 2 3 4 5 6 
#
# 1 0.017643 -0.007113 -0.011453 0.000000 0.000000 0.000000
# 2 -0.007113 0.012069 -0.005251 0.000000 0.000000 0.000000
# 3 -0.011453 -0.005251 0.059719 0.000000 0.000000 0.000000
# 4 0.000000 0.000000 0.000000 0.049410 0.000000 0.000000
# 5 0.000000 0.000000 0.000000 0.000000 0.121559 0.000000
# 6 0.000000 0.000000 0.000000 0.000000 0.000000 0.040668
#
#
# Mechanical properties :
#
#
# Convention : Reuss Voigt Hill
#
# Bulk Modulus (GPa) = 23.92594 56.58430 40.25512
# Shear Modulus (GPa) = 13.78795 19.90133 16.84464
#
# Velocity S-wave (km/s) = 2.80722 3.37262 3.10282
# Velocity P-wave (km/s) = 4.91753 6.89251 5.98702
#
# Compressibility (1/GPa) = 0.04179563
#
# Stress axis : x y z
#
# Youngs Moduli (GPa) = 56.67940 82.85928 16.74501
#
# Poissons Ratio (x) = 0.58939 0.19179
# Poissons Ratio (y) = 0.40317 0.08793
# Poissons Ratio (z) = 0.64917 0.43511
#
# Static dielectric constant tensor:
#      x y z
#    x 1.579910 0.000000 0.000000 
#    y 0.000000 1.601430 0.000000 
#    z 0.000000 0.000000 1.599920 
# 
# From -- ./inp_files/4668.got.cif
#   From: 2010.05.17/outbox.cif.g08.bks.cpg/sg47_3_cif.got.tgz:4668.got - 2010.06.03 20:15:42.
