data_PCOD9382433
_publ_section_title
;
Structure prediction by ZEFSAII (Michael W. Deem and Ramdas Pophale) SiO2 
 PCOD9382433
Probable space group: P M M M
;
_chemical_formula_sum "Si O2"
_cell_formula_units_Z 64
_cell_length_a 8.882760
_cell_length_b 19.592291
_cell_length_c 24.368237
_cell_angle_alpha 90.000000
_cell_angle_beta 90.000000
_cell_angle_gamma 90.000000
_cell_volume 4240.892469
_symmetry_space_group_name_H-M "P M M M"
_symmetry_group_IT_number 47
_symmetry_cell_setting 'orthorhombic'
loop_
_space_group_symop_operation_xyz
x,y,z
-x,-y,z
x,-y,-z
-x,y,-z
-x,-y,-z
x,y,-z
-x,y,z
x,-y,z
loop_
_atom_site_type_symbol
_atom_site_label
_atom_site_fract_x
_atom_site_fract_y
_atom_site_fract_z
Si Si1 0.818724 0.576403 0.620746
Si Si2 0.180408 0.846886 0.165294
Si Si3 0.680243 0.921053 0.270063
Si Si4 0.820238 0.288211 0.774056
Si Si5 0.320332 0.423511 0.742029
Si Si6 0.183507 0.714152 0.438268
Si Si7 0.680960 0.079511 0.936577
Si Si8 0.181291 0.199858 0.333960
O O1 0.782350 0.500000 0.600233
O O2 0.747217 0.584179 0.680817
O O3 0.771706 0.638453 0.581845
O O4 0.000000 0.580536 0.626965
O O5 0.250359 0.894195 0.212944
O O6 0.221752 0.769025 0.181218
O O7 0.240001 0.872270 0.107150
O O8 0.000000 0.851950 0.168197
O O9 0.500000 0.915485 0.267118
O O10 0.743032 0.870877 0.316822
O O11 0.720421 0.000000 0.278931
O O12 0.741398 0.360953 0.777422
O O13 0.783877 0.253393 0.715065
O O14 0.000000 0.297866 0.775593
O O15 0.500000 0.419815 0.738895
O O16 0.278092 0.500000 0.761237
O O17 0.235350 0.728299 0.500000
O O18 0.230026 0.767999 0.391697
O O19 0.000000 0.715006 0.438671
O O20 0.500000 0.085158 0.931274
O O21 0.720019 0.000000 0.925569
O O22 0.719969 0.094155 0.000000
O O23 0.000000 0.191547 0.334060
#
# Coordination Sequence:
#
# PCOD9382433 Si02
#       8
#     8   8   8   8   8   8   8   8
#     4   9  16  27  43  61  84 114 144 175 213 258
#     4  10  20  31  46  70  97 122 153 192 227 261
#     4  10  20  32  47  67  89 114 144 180 224 272
#     4   9  17  30  45  63  88 117 148 183 225 268
#     4  10  19  28  41  63  88 115 148 183 219 263
#     4   9  16  27  44  65  87 109 139 181 221 261
#     4   9  18  32  48  67  96 134 169 195 219 253
#     4   9  17  30  46  65  87 110 140 178 222 269
#
# _framework density 15.091163
#
# number of rings (size 3 to 8) (size 9 to 14) (size 15 to 20)
#    0.000    2.625    1.250    2.625    0.000    6.500 
#    0.000    1.875    0.000    1.875    0.000    4.375 
#    0.000    0.500    0.000    5.500    0.000    4.000 
#
# Total GULP energy -356695.123325 kJ/mol
# GULP energy per Si atom -5573.361302 kJ/mol
# Density = 1.505682 g / cm^3
# Si number density = 15.091163 Si / 1000 Ang^3
#
#
#
# Elastic Constant Matrix: (Units=GPa)
#
#
# Indices 1 2 3 4 5 6 
#
# 1 21.6041 41.6058 28.3044 0.0000 0.0000 0.0000
# 2 41.6058 137.0825 70.9063 0.0000 0.0000 0.0000
# 3 28.3044 70.9063 96.2174 0.0000 0.0000 0.0000
# 4 0.0000 0.0000 0.0000 24.5653 0.0000 0.0000
# 5 0.0000 0.0000 0.0000 0.0000 11.5702 0.0000
# 6 0.0000 0.0000 0.0000 0.0000 0.0000 18.0161
#
#
#
# Elastic Compliance Matrix: (Units=1/GPa)
#
#
# Indices 1 2 3 4 5 6 
#
# 1 0.121900 -0.029814 -0.013888 0.000000 0.000000 0.000000
# 2 -0.029814 0.019080 -0.005291 0.000000 0.000000 0.000000
# 3 -0.013888 -0.005291 0.018378 0.000000 0.000000 0.000000
# 4 0.000000 0.000000 0.000000 0.040708 0.000000 0.000000
# 5 0.000000 0.000000 0.000000 0.000000 0.086429 0.000000
# 6 0.000000 0.000000 0.000000 0.000000 0.000000 0.055506
#
#
# Mechanical properties :
#
#
# Convention : Reuss Voigt Hill
#
# Bulk Modulus (GPa) = 16.29413 59.61524 37.95468
# Shear Modulus (GPa) = 10.85909 18.43613 14.64761
#
# Velocity S-wave (km/s) = 2.68538 3.49900 3.11884
# Velocity P-wave (km/s) = 4.52058 7.47751 6.17854
#
# Compressibility (1/GPa) = 0.06137181
#
# Stress axis : x y z
#
# Youngs Moduli (GPa) = 8.20345 52.41027 54.41428
#
# Poissons Ratio (x) = 1.56255 0.75573
# Poissons Ratio (y) = 0.24458 0.28788
# Poissons Ratio (z) = 0.11393 0.27728
#
# Static dielectric constant tensor:
#      x y z
#    x 1.504770 0.000000 0.000000 
#    y 0.000000 1.512100 0.000000 
#    z 0.000000 0.000000 1.482340 
# 
# From -- ./inp_files/10193.got.cif
#   From: 2010.05.17/outbox.cif.g08.bks.cpg/sg47_6_cif.got.tgz:10193.got - 2010.06.03 20:15:42.
