data_PCOD9382247
_publ_section_title
;
Structure prediction by ZEFSAII (Michael W. Deem and Ramdas Pophale) SiO2 
 PCOD9382247
Probable space group: P M M M
;
_chemical_formula_sum "Si O2"
_cell_formula_units_Z 56
_cell_length_a 7.982995
_cell_length_b 14.275477
_cell_length_c 24.405539
_cell_angle_alpha 90.000000
_cell_angle_beta 90.000000
_cell_angle_gamma 90.000000
_cell_volume 2781.281131
_symmetry_space_group_name_H-M "P M M M"
_symmetry_group_IT_number 47
_symmetry_cell_setting 'orthorhombic'
loop_
_space_group_symop_operation_xyz
x,y,z
-x,-y,z
x,-y,-z
-x,y,-z
-x,-y,-z
x,y,-z
-x,y,z
x,-y,z
loop_
_atom_site_type_symbol
_atom_site_label
_atom_site_fract_x
_atom_site_fract_y
_atom_site_fract_z
Si Si1 0.298274 0.797802 0.112997
Si Si2 0.295814 0.896150 0.436529
Si Si3 0.297229 0.105395 0.775112
Si Si4 0.696961 0.604375 0.159631
Si Si5 0.297086 0.293807 0.388159
Si Si6 0.704260 0.607303 0.500000
Si Si7 0.805563 0.302584 0.731017
Si Si8 0.800378 0.893563 0.000000
O O1 0.500000 0.793996 0.116497
O O2 0.243736 0.864832 0.163239
O O3 0.233118 0.692472 0.125043
O O4 0.252350 0.839445 0.054685
O O5 0.248523 0.877671 0.500000
O O6 0.500000 0.896451 0.436071
O O7 0.241331 0.813480 0.397227
O O8 0.238748 0.000000 0.421395
O O9 0.500000 0.104220 0.773370
O O10 0.241510 0.192830 0.738139
O O11 0.239414 0.000000 0.761442
O O12 0.500000 0.598438 0.146289
O O13 0.769454 0.500000 0.152188
O O14 0.711192 0.638089 0.222653
O O15 0.500000 0.296379 0.386464
O O16 0.241073 0.345530 0.443429
O O17 0.233373 0.332130 0.330813
O O18 0.753292 0.500000 0.500000
O O19 0.500000 0.613617 0.500000
O O20 0.000000 0.313711 0.742783
O O21 0.000000 0.899003 0.000000
O O22 0.731918 0.000000 0.000000
#
# Coordination Sequence:
#
# PCOD9382247 Si02
#       8
#     8   8   8   8   8   4   8   4
#     4   9  18  34  57  84 110 140 182 231 277 317
#     4   8  13  23  43  70  93 116 154 205 255 298
#     4   9  18  35  58  81 106 141 187 233 272 312
#     4   9  19  39  64  84 103 134 181 236 285 326
#     4  10  18  32  52  73  98 130 169 216 262 311
#     4   9  18  32  52  76  96 119 159 212 264 309
#     4  11  23  35  50  78 113 145 175 213 267 332
#     4  11  23  35  50  79 120 162 195 219 252 309
#
# _framework density 20.134606000000002
#
# number of rings (size 3 to 8) (size 9 to 14) (size 15 to 20)
#    0.000    2.571    0.714    3.214    0.000    5.143 
#    0.000    3.571    0.000    2.571    0.000    1.000 
#    0.000    0.000    0.000    0.000    0.000    0.000 
#
# Total GULP energy -312375.658878 kJ/mol
# GULP energy per Si atom -5578.136766 kJ/mol
# Density = 2.008878 g / cm^3
# Si number density = 20.134606 Si / 1000 Ang^3
#
#
#
# Elastic Constant Matrix: (Units=GPa)
#
#
# Indices 1 2 3 4 5 6 
#
# 1 16.1185 2.7894 -6.7086 0.0000 0.0000 0.0000
# 2 2.7894 109.0695 38.8816 0.0000 0.0000 0.0000
# 3 -6.7086 38.8816 108.6512 0.0000 0.0000 0.0000
# 4 0.0000 0.0000 0.0000 5.3431 0.0000 0.0000
# 5 0.0000 0.0000 0.0000 0.0000 -247.8200 0.0000
# 6 0.0000 0.0000 0.0000 0.0000 0.0000 2.3881
#
#
#
# Elastic Compliance Matrix: (Units=1/GPa)
#
#
# Indices 1 2 3 4 5 6 
#
# 1 0.064846 -0.003537 0.005270 0.000000 0.000000 0.000000
# 2 -0.003537 0.010702 -0.004048 0.000000 0.000000 0.000000
# 3 0.005270 -0.004048 0.010978 0.000000 0.000000 0.000000
# 4 0.000000 0.000000 0.000000 0.187156 0.000000 0.000000
# 5 0.000000 0.000000 0.000000 0.000000 -0.004035 0.000000
# 6 0.000000 0.000000 0.000000 0.000000 0.000000 0.418743
#
#
# Mechanical properties :
#
#
# Convention : Reuss Voigt Hill
#
# Bulk Modulus (GPa) = 12.21083 33.75155 22.98119
# Shear Modulus (GPa) = 6.94137 -34.75931 -13.90897
#
# Velocity S-wave (km/s) = 1.85875 -4.15944 -2.63116
# Velocity P-wave (km/s) = 3.26870 2.50371 1.48590
#
# Compressibility (1/GPa) = 0.08189449
#
# Stress axis : x y z
#
# Youngs Moduli (GPa) = 15.42122 93.44019 91.09301
#
# Poissons Ratio (x) = 0.33049 -0.48002
# Poissons Ratio (y) = 0.05454 0.36876
# Poissons Ratio (z) = -0.08126 0.37826
#
# Static dielectric constant tensor:
#      x y z
#    x 1.729400 0.000000 0.000000 
#    y 0.000000 1.737430 0.000000 
#    z 0.000000 0.000000 1.693980 
# 
# From -- ./inp_files/29797.got.cif
#   From: 2010.05.17/outbox.cif.g08.bks.cpg/sg47_15_cif.got.tgz:29797.got - 2010.06.03 20:15:42.
