data_PCOD9382330
_publ_section_title
;
Structure prediction by ZEFSAII (Michael W. Deem and Ramdas Pophale) SiO2 
 PCOD9382330
Probable space group: P M M M
;
_chemical_formula_sum "Si O2"
_cell_formula_units_Z 56
_cell_length_a 14.857090
_cell_length_b 14.066675
_cell_length_c 13.512108
_cell_angle_alpha 90.000000
_cell_angle_beta 90.000000
_cell_angle_gamma 90.000000
_cell_volume 2823.893512
_symmetry_space_group_name_H-M "P M M M"
_symmetry_group_IT_number 47
_symmetry_cell_setting 'orthorhombic'
loop_
_space_group_symop_operation_xyz
x,y,z
-x,-y,z
x,-y,-z
-x,y,-z
-x,-y,-z
x,y,-z
-x,y,z
x,-y,z
loop_
_atom_site_type_symbol
_atom_site_label
_atom_site_fract_x
_atom_site_fract_y
_atom_site_fract_z
Si Si1 0.239150 0.612093 0.611747
Si Si2 0.134302 0.396400 0.883361
Si Si3 0.337764 0.392580 0.812230
Si Si4 0.894383 0.775808 0.383631
Si Si5 0.602563 0.802199 0.885148
Si Si6 0.903878 0.816053 0.116929
Si Si7 0.757366 0.107860 0.244979
O O1 0.271944 0.633516 0.500000
O O2 0.221822 0.500000 0.618731
O O3 0.310027 0.633413 0.698995
O O4 0.147177 0.670064 0.626365
O O5 0.104505 0.500000 0.842370
O O6 0.241553 0.393715 0.868166
O O7 0.102747 0.293524 0.844801
O O8 0.112367 0.398080 0.000000
O O9 0.374516 0.500000 0.814460
O O10 0.394395 0.310644 0.863099
O O11 0.891833 0.800250 0.500000
O O12 0.818781 0.838332 0.326854
O O13 0.000000 0.783760 0.353891
O O14 0.500000 0.836734 0.876732
O O15 0.667217 0.846156 0.800886
O O16 0.632447 0.818425 0.000000
O O17 0.824996 0.881733 0.153110
O O18 0.000000 0.856738 0.145501
O O19 0.899385 0.807739 0.000000
O O20 0.740954 0.000000 0.274790
#
# Coordination Sequence:
#
# PCOD9382330 Si02
#       7
#     8   8   8   8   8   8   8
#     4   9  17  31  56  91 129 167 204 241 285 345
#     4   9  16  27  47  74 106 146 187 225 273 340
#     4  10  18  32  57  87 120 159 196 236 291 361
#     4  10  21  38  63  96 130 163 203 248 294 351
#     4  11  24  42  65  92 119 150 197 255 313 373
#     4  10  20  33  51  78 111 147 190 234 280 346
#     4  12  25  42  62  81 111 154 198 251 313 365
#
# _framework density 19.830776
#
# number of rings (size 3 to 8) (size 9 to 14) (size 15 to 20)
#    0.000    1.857    2.857    1.286    0.000    4.571 
#    0.000    5.714    0.000    6.000    0.000    3.000 
#    0.000    0.000    0.000    0.000    0.000    0.000 
#
# Total GULP energy -312010.579821 kJ/mol
# GULP energy per Si atom -5571.617497 kJ/mol
# Density = 1.978564 g / cm^3
# Si number density = 19.830776 Si / 1000 Ang^3
#
#
#
# Elastic Constant Matrix: (Units=GPa)
#
#
# Indices 1 2 3 4 5 6 
#
# 1 80.0493 18.8832 17.1977 0.0000 0.0000 0.0000
# 2 18.8832 60.1966 5.7677 0.0000 0.0000 0.0000
# 3 17.1977 5.7677 87.6226 0.0000 0.0000 0.0000
# 4 0.0000 0.0000 0.0000 14.0783 0.0000 0.0000
# 5 0.0000 0.0000 0.0000 0.0000 29.6984 0.0000
# 6 0.0000 0.0000 0.0000 0.0000 0.0000 -225.9158
#
#
#
# Elastic Compliance Matrix: (Units=1/GPa)
#
#
# Indices 1 2 3 4 5 6 
#
# 1 0.014004 -0.004156 -0.002475 0.000000 0.000000 0.000000
# 2 -0.004156 0.017951 -0.000366 0.000000 0.000000 0.000000
# 3 -0.002475 -0.000366 0.011922 0.000000 0.000000 0.000000
# 4 0.000000 0.000000 0.000000 0.071031 0.000000 0.000000
# 5 0.000000 0.000000 0.000000 0.000000 0.033672 0.000000
# 6 0.000000 0.000000 0.000000 0.000000 0.000000 -0.004426
#
#
# Mechanical properties :
#
#
# Convention : Reuss Voigt Hill
#
# Bulk Modulus (GPa) = 33.46275 34.61840 34.04057
# Shear Modulus (GPa) = 29.74245 -24.02650 2.85798
#
# Velocity S-wave (km/s) = 3.87694 -3.48455 1.20180
# Velocity P-wave (km/s) = 6.07879 1.14253 4.37362
#
# Compressibility (1/GPa) = 0.02988398
#
# Stress axis : x y z
#
# Youngs Moduli (GPa) = 71.40611 55.70728 83.87538
#
# Poissons Ratio (x) = 0.23151 0.20760
# Poissons Ratio (y) = 0.29676 0.03069
# Poissons Ratio (z) = 0.17674 0.02038
#
# Static dielectric constant tensor:
#      x y z
#    x 1.690040 0.000000 0.000000 
#    y 0.000000 1.736520 0.000000 
#    z 0.000000 0.000000 1.759050 
# 
# From -- ./inp_files/23829.got.cif
#   From: 2010.05.17/outbox.cif.g08.bks.cpg/sg47_12_cif.got.tgz:23829.got - 2010.06.03 20:15:42.
