data_PCOD9382234
_publ_section_title
;
Structure prediction by ZEFSAII (Michael W. Deem and Ramdas Pophale) SiO2 
 PCOD9382234
Probable space group: P M M M
;
_chemical_formula_sum "Si O2"
_cell_formula_units_Z 60
_cell_length_a 12.807730
_cell_length_b 13.649597
_cell_length_c 20.079800
_cell_angle_alpha 90.000000
_cell_angle_beta 90.000000
_cell_angle_gamma 90.000000
_cell_volume 3510.357724
_symmetry_space_group_name_H-M "P M M M"
_symmetry_group_IT_number 47
_symmetry_cell_setting 'orthorhombic'
loop_
_space_group_symop_operation_xyz
x,y,z
-x,-y,z
x,-y,-z
-x,y,-z
-x,-y,-z
x,y,-z
-x,y,z
x,-y,z
loop_
_atom_site_type_symbol
_atom_site_label
_atom_site_fract_x
_atom_site_fract_y
_atom_site_fract_z
Si Si1 0.624705 0.719860 0.424006
Si Si2 0.742524 0.737122 0.171602
Si Si3 0.374346 0.112695 0.076773
Si Si4 0.000000 0.110660 0.578068
Si Si5 0.878807 0.109663 0.241411
Si Si6 0.625483 0.614815 0.286262
Si Si7 0.117552 0.617492 0.923593
Si Si8 0.221763 0.886931 0.618176
O O1 0.651070 0.688048 0.500000
O O2 0.500000 0.735245 0.422265
O O3 0.649929 0.647185 0.362548
O O4 0.685559 0.819923 0.407216
O O5 0.669303 0.809797 0.129205
O O6 0.838740 0.804497 0.195327
O O7 0.684656 0.684090 0.233305
O O8 0.792501 0.657501 0.123014
O O9 0.500000 0.115560 0.078259
O O10 0.342935 0.000000 0.092206
O O11 0.342057 0.133720 0.000000
O O12 0.889492 0.156875 0.594945
O O13 0.000000 0.099073 0.500000
O O14 0.000000 0.000000 0.609271
O O15 0.797280 0.110460 0.302835
O O16 0.000000 0.124843 0.262672
O O17 0.874474 0.000000 0.211931
O O18 0.500000 0.625797 0.277441
O O19 0.651351 0.500000 0.276527
O O20 0.119170 0.500000 0.923066
O O21 0.000000 0.647932 0.902821
O O22 0.132614 0.650011 0.000000
O O23 0.231120 0.000000 0.594601
#
# Coordination Sequence:
#
# PCOD9382234 Si02
#       8
#     8   8   8   4   8   8   8   8
#     4  10  21  37  55  76 102 136 177 216 263 325
#     4  12  19  32  56  81 103 135 176 217 265 311
#     4   9  19  35  53  76 108 144 180 214 250 303
#     4   9  16  26  46  72  97 131 172 205 237 291
#     4  10  20  33  49  74 109 141 169 207 253 304
#     4  10  22  38  54  76 104 132 170 225 277 317
#     4   9  19  35  53  76 106 137 172 214 259 311
#     4  10  18  32  50  73 105 137 169 208 256 308
#
# _framework density 17.092275000000001
#
# number of rings (size 3 to 8) (size 9 to 14) (size 15 to 20)
#    0.000    2.067    2.000    3.200    0.000    1.333 
#    0.000    2.000    0.000    0.000    0.000   11.200 
#    0.000    2.667    0.000    0.000    0.000    0.000 
#
# Total GULP energy -334164.687407 kJ/mol
# GULP energy per Si atom -5569.411457 kJ/mol
# Density = 1.705337 g / cm^3
# Si number density = 17.092275 Si / 1000 Ang^3
#
#
#
# Elastic Constant Matrix: (Units=GPa)
#
#
# Indices 1 2 3 4 5 6 
#
# 1 48.1292 36.4867 39.4578 0.0000 0.0000 0.0000
# 2 36.4867 85.3373 52.9973 0.0000 0.0000 0.0000
# 3 39.4578 52.9973 95.4799 0.0000 0.0000 0.0000
# 4 0.0000 0.0000 0.0000 19.5348 0.0000 0.0000
# 5 0.0000 0.0000 0.0000 0.0000 27.5189 0.0000
# 6 0.0000 0.0000 0.0000 0.0000 0.0000 26.5904
#
#
#
# Elastic Compliance Matrix: (Units=1/GPa)
#
#
# Indices 1 2 3 4 5 6 
#
# 1 0.035690 -0.009309 -0.009582 0.000000 0.000000 0.000000
# 2 -0.009309 0.020310 -0.007427 0.000000 0.000000 0.000000
# 3 -0.009582 -0.007427 0.018556 0.000000 0.000000 0.000000
# 4 0.000000 0.000000 0.000000 0.051191 0.000000 0.000000
# 5 0.000000 0.000000 0.000000 0.000000 0.036339 0.000000
# 6 0.000000 0.000000 0.000000 0.000000 0.000000 0.037607
#
#
# Mechanical properties :
#
#
# Convention : Reuss Voigt Hill
#
# Bulk Modulus (GPa) = 45.61864 54.09223 49.85544
# Shear Modulus (GPa) = 19.25777 21.39581 20.32679
#
# Velocity S-wave (km/s) = 3.36027 3.54189 3.45227
# Velocity P-wave (km/s) = 6.46551 6.96007 6.71734
#
# Compressibility (1/GPa) = 0.02192086
#
# Stress axis : x y z
#
# Youngs Moduli (GPa) = 28.01886 49.23582 53.89196
#
# Poissons Ratio (x) = 0.45832 0.51641
# Poissons Ratio (y) = 0.26082 0.40024
# Poissons Ratio (z) = 0.26849 0.36566
#
# Static dielectric constant tensor:
#      x y z
#    x 1.575130 0.000000 0.000000 
#    y 0.000000 1.569940 0.000000 
#    z 0.000000 0.000000 1.613800 
# 
# From -- ./inp_files/30561.got.cif
#   From: 2010.05.17/outbox.cif.g08.bks.cpg/sg47_16_cif.got.tgz:30561.got - 2010.06.03 20:15:42.
