data_PCOD9382153
_publ_section_title
;
Structure prediction by ZEFSAII (Michael W. Deem and Ramdas Pophale) SiO2 
 PCOD9382153
Probable space group: P M M M
;
_chemical_formula_sum "Si O2"
_cell_formula_units_Z 44
_cell_length_a 15.327463
_cell_length_b 7.715652
_cell_length_c 19.320507
_cell_angle_alpha 90.000000
_cell_angle_beta 90.000000
_cell_angle_gamma 90.000000
_cell_volume 2284.869638
_symmetry_space_group_name_H-M "P M M M"
_symmetry_group_IT_number 47
_symmetry_cell_setting 'orthorhombic'
loop_
_space_group_symop_operation_xyz
x,y,z
-x,-y,z
x,-y,-z
-x,y,-z
-x,-y,-z
x,y,-z
-x,y,z
x,-y,z
loop_
_atom_site_type_symbol
_atom_site_label
_atom_site_fract_x
_atom_site_fract_y
_atom_site_fract_z
Si Si1 0.500000 0.696000 0.916482
Si Si2 0.846026 0.703653 0.174674
Si Si3 0.899613 0.711610 0.673881
Si Si4 0.399281 0.000000 0.584225
Si Si5 0.000000 0.713138 0.921705
Si Si6 0.735316 0.297286 0.416909
Si Si7 0.307491 0.200981 0.079042
O O1 0.500000 0.500000 0.890205
O O2 0.408389 0.782289 0.899373
O O3 0.500000 0.692016 0.000000
O O4 0.864719 0.500000 0.181237
O O5 0.863478 0.773018 0.251403
O O6 0.753160 0.720892 0.138071
O O7 0.915932 0.773547 0.120177
O O8 0.902322 0.500000 0.673283
O O9 0.826801 0.758828 0.617431
O O10 0.000000 0.769261 0.663445
O O11 0.343119 0.830471 0.604752
O O12 0.500000 0.000000 0.608279
O O13 0.402088 0.000000 0.500000
O O14 0.000000 0.500000 0.923680
O O15 0.000000 0.773110 0.000000
O O16 0.742836 0.287796 0.500000
O O17 0.718804 0.500000 0.398558
O O18 0.284946 0.000000 0.074705
O O19 0.296602 0.274672 0.000000
#
# Coordination Sequence:
#
# PCOD9382153 Si02
#       7
#     4   8   8   4   4   8   8
#     4   9  17  31  53  77  95 119 164 215 260 313
#     4  10  18  31  51  73  98 133 175 216 259 310
#     4   9  17  32  54  78 107 143 179 220 273 324
#     4   9  18  34  57  85 117 149 182 227 278 324
#     4   9  16  26  45  73  98 124 169 224 265 302
#     4   9  18  33  56  86 116 147 186 229 272 325
#     4  10  20  33  49  71 101 133 164 208 266 320
#
# _framework density 19.257117000000001
#
# number of rings (size 3 to 8) (size 9 to 14) (size 15 to 20)
#    0.000    2.636    0.909    1.364    0.000    3.636 
#    1.636    4.545    2.000    3.273    0.000    0.000 
#    0.000    0.000    0.000    0.000    0.000    0.000 
#
# Total GULP energy -245168.234368 kJ/mol
# GULP energy per Si atom -5572.005327 kJ/mol
# Density = 1.921329 g / cm^3
# Si number density = 19.257117 Si / 1000 Ang^3
#
#
#
# Elastic Constant Matrix: (Units=GPa)
#
#
# Indices 1 2 3 4 5 6 
#
# 1 164.2580 28.5670 52.0181 0.0000 0.0000 0.0000
# 2 28.5670 54.4805 23.8340 0.0000 0.0000 0.0000
# 3 52.0181 23.8340 49.7027 0.0000 0.0000 0.0000
# 4 0.0000 0.0000 0.0000 6.8698 0.0000 0.0000
# 5 0.0000 0.0000 0.0000 0.0000 116.6577 0.0000
# 6 0.0000 0.0000 0.0000 0.0000 0.0000 105.3316
#
#
#
# Elastic Compliance Matrix: (Units=1/GPa)
#
#
# Indices 1 2 3 4 5 6 
#
# 1 0.009131 -0.000768 -0.009188 0.000000 0.000000 0.000000
# 2 -0.000768 0.023293 -0.010365 0.000000 0.000000 0.000000
# 3 -0.009188 -0.010365 0.034707 0.000000 0.000000 0.000000
# 4 0.000000 0.000000 0.000000 0.145565 0.000000 0.000000
# 5 0.000000 0.000000 0.000000 0.000000 0.008572 0.000000
# 6 0.000000 0.000000 0.000000 0.000000 0.000000 0.009494
#
#
# Mechanical properties :
#
#
# Convention : Reuss Voigt Hill
#
# Bulk Modulus (GPa) = 37.75518 53.03105 45.39311
# Shear Modulus (GPa) = 17.84221 56.70662 37.27441
#
# Velocity S-wave (km/s) = 3.04719 5.43240 4.40434
# Velocity P-wave (km/s) = 5.65941 8.18207 7.03474
#
# Compressibility (1/GPa) = 0.02648643
#
# Stress axis : x y z
#
# Youngs Moduli (GPa) = 109.51179 42.93180 28.81301
#
# Poissons Ratio (x) = 0.03299 0.26474
# Poissons Ratio (y) = 0.08415 0.29866
# Poissons Ratio (z) = 1.00623 0.44501
#
# Static dielectric constant tensor:
#      x y z
#    x 1.672480 0.000000 0.000000 
#    y 0.000000 1.721280 0.000000 
#    z 0.000000 0.000000 1.665750 
# 
# From -- ./inp_files/27920.got.cif
#   From: 2010.05.17/outbox.cif.g08.bks.cpg/sg47_14_cif.got.tgz:27920.got - 2010.06.03 20:15:42.
