data_PCOD9382812
_publ_section_title
;
Structure prediction by ZEFSAII (Michael W. Deem and Ramdas Pophale) SiO2 
 PCOD9382812
Probable space group: P M M M
;
_chemical_formula_sum "Si O2"
_cell_formula_units_Z 28
_cell_length_a 7.781566
_cell_length_b 22.564251
_cell_length_c 7.618087
_cell_angle_alpha 90.000000
_cell_angle_beta 90.000000
_cell_angle_gamma 90.000000
_cell_volume 1337.623393
_symmetry_space_group_name_H-M "P M M M"
_symmetry_group_IT_number 47
_symmetry_cell_setting 'orthorhombic'
loop_
_space_group_symop_operation_xyz
x,y,z
-x,-y,z
x,-y,-z
-x,y,-z
-x,-y,-z
x,y,-z
-x,y,z
x,-y,z
loop_
_atom_site_type_symbol
_atom_site_label
_atom_site_fract_x
_atom_site_fract_y
_atom_site_fract_z
Si Si1 0.500000 0.710556 0.710369
Si Si2 0.804353 0.629750 0.708186
Si Si3 0.802368 0.500000 0.790597
Si Si4 0.195844 0.932690 0.785796
Si Si5 0.500000 0.848923 0.211663
O O1 0.500000 0.701641 0.500000
O O2 0.670799 0.677748 0.779653
O O3 0.500000 0.780211 0.742627
O O4 0.819042 0.639262 0.500000
O O5 0.730848 0.563280 0.733266
O O6 0.000000 0.632308 0.781231
O O7 0.000000 0.500000 0.723350
O O8 0.803886 0.500000 0.000000
O O9 0.332086 0.884378 0.725031
O O10 0.000000 0.921009 0.730056
O O11 0.242704 0.000000 0.733933
O O12 0.196276 0.932145 0.000000
O O13 0.500000 0.852781 0.000000
#
# Coordination Sequence:
#
# PCOD9382812 Si02
#       5
#     4   8   4   8   4
#     4  10  22  36  48  67  95 129 166 195 226 275
#     4   9  18  34  53  69  90 124 162 195 229 277
#     4   9  17  30  51  78 101 119 146 193 249 288
#     4   8  14  26  46  72  98 122 152 192 235 278
#     4  10  19  30  47  71  96 123 157 195 234 276
#
# _framework density 20.932649000000001
#
# number of rings (size 3 to 8) (size 9 to 14) (size 15 to 20)
#    0.000    3.000    0.000    1.714    0.000    6.286 
#    0.000    2.857    0.000    1.714    0.000    2.000 
#    0.000    0.000    0.000    0.000    0.000    0.000 
#
# Total GULP energy -156187.372351 kJ/mol
# GULP energy per Si atom -5578.120441 kJ/mol
# Density = 2.088501 g / cm^3
# Si number density = 20.932649 Si / 1000 Ang^3
#
#
#
# Elastic Constant Matrix: (Units=GPa)
#
#
# Indices 1 2 3 4 5 6 
#
# 1 139.5324 127.1347 7.0344 0.0000 0.0000 0.0000
# 2 127.1347 206.8347 -6.6380 0.0000 0.0000 0.0000
# 3 7.0344 -6.6380 41.1694 0.0000 0.0000 0.0000
# 4 0.0000 0.0000 0.0000 27.7565 0.0000 0.0000
# 5 0.0000 0.0000 0.0000 0.0000 -1.0334 0.0000
# 6 0.0000 0.0000 0.0000 0.0000 0.0000 3.7788
#
#
#
# Elastic Compliance Matrix: (Units=1/GPa)
#
#
# Indices 1 2 3 4 5 6 
#
# 1 0.017132 -0.010680 -0.004649 0.000000 0.000000 0.000000
# 2 -0.010680 0.011517 0.003682 0.000000 0.000000 0.000000
# 3 -0.004649 0.003682 0.025678 0.000000 0.000000 0.000000
# 4 0.000000 0.000000 0.000000 0.036028 0.000000 0.000000
# 5 0.000000 0.000000 0.000000 0.000000 -0.967717 0.000000
# 6 0.000000 0.000000 0.000000 0.000000 0.000000 0.264632
#
#
# Mechanical properties :
#
#
# Convention : Reuss Voigt Hill
#
# Bulk Modulus (GPa) = 32.22365 71.39986 51.81176
# Shear Modulus (GPa) = -8.63421 23.43410 7.39994
#
# Velocity S-wave (km/s) = -2.03315 3.34952 1.88223
# Velocity P-wave (km/s) = 3.14893 7.01017 5.43407
#
# Compressibility (1/GPa) = 0.03103311
#
# Stress axis : x y z
#
# Youngs Moduli (GPa) = 58.37067 86.82545 38.94402
#
# Poissons Ratio (x) = 0.92726 0.18106
# Poissons Ratio (y) = 0.62338 -0.14338
# Poissons Ratio (z) = 0.27137 -0.31967
#
# Static dielectric constant tensor:
#      x y z
#    x 1.781590 0.000000 0.000000 
#    y 0.000000 1.715550 0.000000 
#    z 0.000000 0.000000 1.776530 
# 
# From -- ./inp_files/875.got.cif
#   From: 2010.05.17/outbox.cif.g08.bks.cpg/sg47_1_cif.got.tgz:875.got - 2010.06.03 20:15:42.
