data_PCOD9382621
_publ_section_title
;
Structure prediction by ZEFSAII (Michael W. Deem and Ramdas Pophale) SiO2 
 PCOD9382621
Probable space group: P M M M
;
_chemical_formula_sum "Si O2"
_cell_formula_units_Z 52
_cell_length_a 9.404221
_cell_length_b 18.027229
_cell_length_c 16.694602
_cell_angle_alpha 90.000000
_cell_angle_beta 90.000000
_cell_angle_gamma 90.000000
_cell_volume 2830.270026
_symmetry_space_group_name_H-M "P M M M"
_symmetry_group_IT_number 47
_symmetry_cell_setting 'orthorhombic'
loop_
_space_group_symop_operation_xyz
x,y,z
-x,-y,z
x,-y,-z
-x,y,-z
-x,-y,-z
x,y,-z
-x,y,z
x,-y,z
loop_
_atom_site_type_symbol
_atom_site_label
_atom_site_fract_x
_atom_site_fract_y
_atom_site_fract_z
Si Si1 0.667297 0.370158 0.823732
Si Si2 0.838098 0.203435 0.653267
Si Si3 0.662090 0.588203 0.000000
Si Si4 0.336654 0.807687 0.806916
Si Si5 0.666123 0.612159 0.500000
Si Si6 0.337809 0.792917 0.500000
Si Si7 0.165587 0.383945 0.337766
Si Si8 0.160812 0.083642 0.904270
O O1 0.500000 0.393242 0.817736
O O2 0.671592 0.280735 0.820255
O O3 0.754095 0.400458 0.746541
O O4 0.723490 0.390620 0.912713
O O5 0.762688 0.174625 0.732070
O O6 0.745613 0.181785 0.577606
O O7 0.836600 0.293783 0.657360
O O8 0.000000 0.179724 0.646264
O O9 0.654458 0.500000 0.000000
O O10 0.500000 0.619660 0.000000
O O11 0.500000 0.825668 0.790806
O O12 0.273532 0.855666 0.878152
O O13 0.500000 0.588531 0.500000
O O14 0.663723 0.702428 0.500000
O O15 0.749081 0.590657 0.417843
O O16 0.500000 0.816583 0.500000
O O17 0.000000 0.408213 0.338121
O O18 0.000000 0.102825 0.877037
O O19 0.194362 0.000000 0.875618
O O20 0.157353 0.081111 0.000000
#
# Coordination Sequence:
#
# PCOD9382621 Si02
#       8
#     8   8   4   8   4   4   8   8
#     4   9  18  31  48  71  99 128 164 209 252 291
#     4   9  16  26  40  60  90 126 162 195 234 286
#     4   9  18  34  55  75  96 129 172 210 245 291
#     4  10  19  29  46  71  99 125 156 200 248 288
#     4   9  15  23  39  63  94 129 160 193 240 292
#     4   9  15  23  37  59  90 123 158 197 242 283
#     4   9  16  26  41  64  95 128 162 198 241 293
#     4   9  19  35  51  67  91 124 160 196 236 288
#
# _framework density 18.372805
#
# number of rings (size 3 to 8) (size 9 to 14) (size 15 to 20)
#    0.000    2.846    0.000    2.308    1.077    6.769 
#    0.000    1.154    0.000    0.923    0.000    1.077 
#    0.000    8.615    0.000    0.000    0.000    0.000 
#
# Total GULP energy -289701.138848 kJ/mol
# GULP energy per Si atom -5571.175747 kJ/mol
# Density = 1.833099 g / cm^3
# Si number density = 18.372805 Si / 1000 Ang^3
#
#
#
# Elastic Constant Matrix: (Units=GPa)
#
#
# Indices 1 2 3 4 5 6 
#
# 1 140.9539 23.8822 78.3528 0.0000 0.0000 0.0000
# 2 23.8822 20.7458 8.7143 0.0000 0.0000 0.0000
# 3 78.3528 8.7143 151.1261 0.0000 0.0000 0.0000
# 4 0.0000 0.0000 0.0000 -4.4383 0.0000 0.0000
# 5 0.0000 0.0000 0.0000 0.0000 34.9951 0.0000
# 6 0.0000 0.0000 0.0000 0.0000 0.0000 -19.6899
#
#
#
# Elastic Compliance Matrix: (Units=1/GPa)
#
#
# Indices 1 2 3 4 5 6 
#
# 1 0.012224 -0.011693 -0.005663 0.000000 0.000000 0.000000
# 2 -0.011693 0.060584 0.002569 0.000000 0.000000 0.000000
# 3 -0.005663 0.002569 0.009405 0.000000 0.000000 0.000000
# 4 0.000000 0.000000 0.000000 -0.225311 0.000000 0.000000
# 5 0.000000 0.000000 0.000000 0.000000 0.028575 0.000000
# 6 0.000000 0.000000 0.000000 0.000000 0.000000 -0.050787
#
#
# Mechanical properties :
#
#
# Convention : Reuss Voigt Hill
#
# Bulk Modulus (GPa) = 18.99761 59.41383 39.20572
# Shear Modulus (GPa) = -42.30481 15.63183 -13.33649
#
# Velocity S-wave (km/s) = -4.80372 2.92003 -2.69714
# Velocity P-wave (km/s) = 4.51721 6.61641 3.41846
#
# Compressibility (1/GPa) = 0.05263820
#
# Stress axis : x y z
#
# Youngs Moduli (GPa) = 81.80794 16.50601 106.32594
#
# Poissons Ratio (x) = 0.19300 0.60215
# Poissons Ratio (y) = 0.95657 -0.27314
# Poissons Ratio (z) = 0.46330 -0.04240
#
# Static dielectric constant tensor:
#      x y z
#    x 1.626030 0.000000 0.000000 
#    y 0.000000 1.608590 0.000000 
#    z 0.000000 0.000000 1.674970 
# 
# From -- ./inp_files/21494.got.cif
#   From: 2010.05.17/outbox.cif.g08.bks.cpg/sg47_11_cif.got.tgz:21494.got - 2010.06.03 20:15:42.
