data_PCOD9382973
_publ_section_title
;
Structure prediction by ZEFSAII (Michael W. Deem and Ramdas Pophale) SiO2 
 PCOD9382973
Probable space group: P M M M
;
_chemical_formula_sum "Si O2"
_cell_formula_units_Z 52
_cell_length_a 23.343700
_cell_length_b 10.450037
_cell_length_c 13.664677
_cell_angle_alpha 90.000000
_cell_angle_beta 90.000000
_cell_angle_gamma 90.000000
_cell_volume 3333.395861
_symmetry_space_group_name_H-M "P M M M"
_symmetry_group_IT_number 47
_symmetry_cell_setting 'orthorhombic'
loop_
_space_group_symop_operation_xyz
x,y,z
-x,-y,z
x,-y,-z
-x,y,-z
-x,-y,-z
x,y,-z
-x,y,z
x,-y,z
loop_
_atom_site_type_symbol
_atom_site_label
_atom_site_fract_x
_atom_site_fract_y
_atom_site_fract_z
Si Si1 0.321013 0.856400 0.115652
Si Si2 0.160389 0.648698 0.383540
Si Si3 0.722977 0.353289 0.736279
Si Si4 0.606576 0.351723 0.385294
Si Si5 0.065392 0.854207 0.618812
Si Si6 0.568947 0.500000 0.891220
Si Si7 0.434579 0.769988 0.795680
O O1 0.288088 0.750372 0.179362
O O2 0.386068 0.856870 0.157509
O O3 0.297258 0.000000 0.128287
O O4 0.322048 0.826643 0.000000
O O5 0.171774 0.667499 0.500000
O O6 0.142517 0.500000 0.371766
O O7 0.218037 0.668066 0.321635
O O8 0.111254 0.747728 0.351845
O O9 0.722402 0.500000 0.774045
O O10 0.670698 0.344200 0.658641
O O11 0.605664 0.324575 0.500000
O O12 0.586461 0.500000 0.372286
O O13 0.570836 0.252087 0.320308
O O14 0.064847 0.853367 0.500000
O O15 0.000000 0.826977 0.650431
O O16 0.080136 0.000000 0.648700
O O17 0.500000 0.500000 0.897605
O O18 0.583100 0.370522 0.836394
O O19 0.593357 0.500000 0.000000
O O20 0.500000 0.799643 0.823248
#
# Coordination Sequence:
#
# PCOD9382973 Si02
#       7
#     8   8   8   8   8   4   8
#     4  10  22  37  51  68  89 113 142 180 229 281
#     4   9  16  26  43  68  96 125 158 195 231 264
#     4   9  18  32  49  69  91 116 151 189 226 269
#     4   9  16  27  44  65  91 119 146 181 222 262
#     4   8  14  24  37  57  90 131 170 201 227 259
#     4   9  16  26  41  63  87 107 132 172 214 255
#     4  10  19  31  46  67  91 113 142 178 220 271
#
# _framework density 15.599707
#
# number of rings (size 3 to 8) (size 9 to 14) (size 15 to 20)
#    0.000    2.846    0.769    1.385    1.077    4.615 
#    0.000    3.077    0.000   11.077    0.000    4.308 
#    0.000    0.615    0.000    6.769    0.000    5.231 
#
# Total GULP energy -289580.597582 kJ/mol
# GULP energy per Si atom -5568.857646 kJ/mol
# Density = 1.556420 g / cm^3
# Si number density = 15.599707 Si / 1000 Ang^3
#
#
#
# Elastic Constant Matrix: (Units=GPa)
#
#
# Indices 1 2 3 4 5 6 
#
# 1 80.5195 52.2533 15.5622 0.0000 0.0000 0.0000
# 2 52.2533 91.4023 43.4494 0.0000 0.0000 0.0000
# 3 15.5622 43.4494 83.2282 0.0000 0.0000 0.0000
# 4 0.0000 0.0000 0.0000 16.9121 0.0000 0.0000
# 5 0.0000 0.0000 0.0000 0.0000 11.5713 0.0000
# 6 0.0000 0.0000 0.0000 0.0000 0.0000 19.4894
#
#
#
# Elastic Compliance Matrix: (Units=1/GPa)
#
#
# Indices 1 2 3 4 5 6 
#
# 1 0.020296 -0.013033 0.003009 0.000000 0.000000 0.000000
# 2 -0.013033 0.022921 -0.009529 0.000000 0.000000 0.000000
# 3 0.003009 -0.009529 0.016427 0.000000 0.000000 0.000000
# 4 0.000000 0.000000 0.000000 0.059129 0.000000 0.000000
# 5 0.000000 0.000000 0.000000 0.000000 0.086421 0.000000
# 6 0.000000 0.000000 0.000000 0.000000 0.000000 0.051310
#
#
# Mechanical properties :
#
#
# Convention : Reuss Voigt Hill
#
# Bulk Modulus (GPa) = 48.69087 53.07554 50.88321
# Shear Modulus (GPa) = 16.53131 19.18690 17.85910
#
# Velocity S-wave (km/s) = 3.25886 3.51087 3.38721
# Velocity P-wave (km/s) = 6.74097 7.10860 6.92723
#
# Compressibility (1/GPa) = 0.02053773
#
# Stress axis : x y z
#
# Youngs Moduli (GPa) = 49.27171 43.62763 60.87457
#
# Poissons Ratio (x) = 0.56860 -0.18317
# Poissons Ratio (y) = 0.64216 0.58008
# Poissons Ratio (z) = -0.14826 0.41573
#
# Static dielectric constant tensor:
#      x y z
#    x 1.516470 0.000000 0.000000 
#    y 0.000000 1.545030 0.000000 
#    z 0.000000 0.000000 1.524510 
# 
# From -- ./inp_files/25413.got.cif
#   From: 2010.05.17/outbox.cif.g08.bks.cpg/sg47_13_cif.got.tgz:25413.got - 2010.06.03 20:15:42.
