data_PCOD9382994
_publ_section_title
;
Structure prediction by ZEFSAII (Michael W. Deem and Ramdas Pophale) SiO2 
 PCOD9382994
Probable space group: P M M M
;
_chemical_formula_sum "Si O2"
_cell_formula_units_Z 52
_cell_length_a 9.654428
_cell_length_b 25.220323
_cell_length_c 13.578673
_cell_angle_alpha 90.000000
_cell_angle_beta 90.000000
_cell_angle_gamma 90.000000
_cell_volume 3306.241114
_symmetry_space_group_name_H-M "P M M M"
_symmetry_group_IT_number 47
_symmetry_cell_setting 'orthorhombic'
loop_
_space_group_symop_operation_xyz
x,y,z
-x,-y,z
x,-y,-z
-x,y,-z
-x,-y,-z
x,y,-z
-x,y,z
x,-y,z
loop_
_atom_site_type_symbol
_atom_site_label
_atom_site_fract_x
_atom_site_fract_y
_atom_site_fract_z
Si Si1 0.837124 0.103988 0.619198
Si Si2 0.753893 0.370519 0.802019
Si Si3 0.835671 0.308322 0.385579
Si Si4 0.335748 0.260887 0.110156
Si Si5 0.662066 0.000000 0.619668
Si Si6 0.333296 0.793409 0.686894
Si Si7 0.000000 0.560464 0.117637
Si Si8 0.500000 0.436260 0.881291
O O1 0.838076 0.105469 0.500000
O O2 0.750606 0.051694 0.649377
O O3 0.750243 0.154468 0.656121
O O4 0.000000 0.103632 0.649988
O O5 0.780653 0.352763 0.689789
O O6 0.740714 0.314933 0.860296
O O7 0.625013 0.407046 0.827700
O O8 0.874049 0.406303 0.842896
O O9 0.824930 0.323338 0.500000
O O10 0.741266 0.256371 0.366386
O O11 0.000000 0.297720 0.364704
O O12 0.500000 0.273525 0.111466
O O13 0.314674 0.218589 0.196720
O O14 0.298376 0.243633 0.000000
O O15 0.500000 0.000000 0.652204
O O16 0.657973 0.000000 0.500000
O O17 0.500000 0.796032 0.666341
O O18 0.000000 0.500000 0.152847
O O19 0.000000 0.559355 0.000000
O O20 0.500000 0.500000 0.870017
O O21 0.500000 0.425674 0.000000
#
# Coordination Sequence:
#
# PCOD9382994 Si02
#       8
#     8   8   8   8   4   8   4   4
#     4  10  19  31  47  68 102 142 174 207 252 304
#     4  11  20  35  54  78 102 132 167 205 252 310
#     4  10  21  37  54  72 100 138 175 210 255 305
#     4   9  17  31  51  72  98 130 161 197 248 306
#     4   9  17  29  47  71  98 131 174 219 257 296
#     4  10  20  31  49  78 103 130 171 215 255 299
#     4  11  22  34  51  77 105 129 160 207 257 304
#     4  11  22  36  57  81 105 133 162 199 255 316
#
# _framework density 15.727831
#
# number of rings (size 3 to 8) (size 9 to 14) (size 15 to 20)
#    0.000    1.923    1.538    3.462    1.077    5.231 
#    0.000    0.000    0.000    2.769    0.000    0.538 
#    0.000    4.308    0.000    0.000    0.000    0.000 
#
# Total GULP energy -289712.729665 kJ/mol
# GULP energy per Si atom -5571.398647 kJ/mol
# Density = 1.569203 g / cm^3
# Si number density = 15.727831 Si / 1000 Ang^3
#
#
#
# Elastic Constant Matrix: (Units=GPa)
#
#
# Indices 1 2 3 4 5 6 
#
# 1 156.1997 75.5833 47.4196 0.0000 0.0000 0.0000
# 2 75.5833 119.7548 43.1426 0.0000 0.0000 0.0000
# 3 47.4196 43.1426 87.9975 0.0000 0.0000 0.0000
# 4 0.0000 0.0000 0.0000 73.3228 0.0000 0.0000
# 5 0.0000 0.0000 0.0000 0.0000 -29.2032 0.0000
# 6 0.0000 0.0000 0.0000 0.0000 0.0000 41.6612
#
#
#
# Elastic Compliance Matrix: (Units=1/GPa)
#
#
# Indices 1 2 3 4 5 6 
#
# 1 0.009721 -0.005160 -0.002709 0.000000 0.000000 0.000000
# 2 -0.005160 0.012880 -0.003534 0.000000 0.000000 0.000000
# 3 -0.002709 -0.003534 0.014557 0.000000 0.000000 0.000000
# 4 0.000000 0.000000 0.000000 0.013638 0.000000 0.000000
# 5 0.000000 0.000000 0.000000 0.000000 -0.034243 0.000000
# 6 0.000000 0.000000 0.000000 0.000000 0.000000 0.024003
#
#
# Mechanical properties :
#
#
# Convention : Reuss Voigt Hill
#
# Bulk Modulus (GPa) = 69.67633 77.36035 73.51834
# Shear Modulus (GPa) = 73.37170 30.34324 51.85747
#
# Velocity S-wave (km/s) = 6.83755 4.39711 5.74834
# Velocity P-wave (km/s) = 10.33120 8.66448 9.53433
#
# Compressibility (1/GPa) = 0.01435208
#
# Stress axis : x y z
#
# Youngs Moduli (GPa) = 102.86919 77.63874 68.69781
#
# Poissons Ratio (x) = 0.40058 0.18609
# Poissons Ratio (y) = 0.53076 0.24281
# Poissons Ratio (z) = 0.27866 0.27441
#
# Static dielectric constant tensor:
#      x y z
#    x 1.514520 0.000000 0.000000 
#    y 0.000000 1.503740 0.000000 
#    z 0.000000 0.000000 1.501990 
# 
# From -- ./inp_files/21830.got.cif
#   From: 2010.05.17/outbox.cif.g08.bks.cpg/sg47_11_cif.got.tgz:21830.got - 2010.06.03 20:15:42.
