data_PCOD9382608
_publ_section_title
;
Structure prediction by ZEFSAII (Michael W. Deem and Ramdas Pophale) SiO2 
 PCOD9382608
Probable space group: P M M M
;
_chemical_formula_sum "Si O2"
_cell_formula_units_Z 44
_cell_length_a 7.503796
_cell_length_b 23.956330
_cell_length_c 14.175926
_cell_angle_alpha 90.000000
_cell_angle_beta 90.000000
_cell_angle_gamma 90.000000
_cell_volume 2548.312843
_symmetry_space_group_name_H-M "P M M M"
_symmetry_group_IT_number 47
_symmetry_cell_setting 'orthorhombic'
loop_
_space_group_symop_operation_xyz
x,y,z
-x,-y,z
x,-y,-z
-x,y,-z
-x,-y,-z
x,y,-z
-x,y,z
x,-y,z
loop_
_atom_site_type_symbol
_atom_site_label
_atom_site_fract_x
_atom_site_fract_y
_atom_site_fract_z
Si Si1 0.282802 0.620392 0.605431
Si Si2 0.282574 0.437962 0.795879
Si Si3 0.796987 0.150255 0.609300
Si Si4 0.284566 0.734043 0.705411
Si Si5 0.500000 0.063457 0.385389
Si Si6 0.717509 0.675180 0.894612
O O1 0.221763 0.607138 0.500000
O O2 0.500000 0.619544 0.604548
O O3 0.228356 0.579147 0.689562
O O4 0.229952 0.682871 0.637279
O O5 0.500000 0.438222 0.797167
O O6 0.222421 0.500000 0.821029
O O7 0.227673 0.387300 0.863548
O O8 0.749028 0.163873 0.500000
O O9 0.778571 0.206565 0.668920
O O10 0.669306 0.100718 0.642220
O O11 0.000000 0.131244 0.610889
O O12 0.500000 0.735209 0.704334
O O13 0.227030 0.716581 0.810720
O O14 0.500000 0.060458 0.500000
O O15 0.500000 0.000000 0.350279
O O16 0.500000 0.675496 0.894555
O O17 0.777189 0.688734 0.000000
#
# Coordination Sequence:
#
# PCOD9382608 Si02
#       6
#     8   8   8   8   4   8
#     4   8  13  19  29  46  68 101 143 184 229 279
#     4   8  13  19  26  41  69 105 144 185 230 280
#     4  10  19  29  45  70  97 127 162 195 225 261
#     4   9  15  25  41  58  82 115 150 190 234 280
#     4   9  18  32  48  68  99 137 168 191 217 251
#     4   8  14  23  35  53  76 106 146 190 238 289
#
# _framework density 17.266324000000001
#
# number of rings (size 3 to 8) (size 9 to 14) (size 15 to 20)
#    0.000    3.364    0.909    2.727    0.000    1.818 
#    0.000    5.455    0.000    0.545    0.000    0.000 
#    0.000   13.091    0.000   48.182    0.000   40.909 
#
# Total GULP energy -245252.277259 kJ/mol
# GULP energy per Si atom -5573.915392 kJ/mol
# Density = 1.722703 g / cm^3
# Si number density = 17.266324 Si / 1000 Ang^3
#
#
#
# Elastic Constant Matrix: (Units=GPa)
#
#
# Indices 1 2 3 4 5 6 
#
# 1 54.7695 26.8043 10.8970 0.0000 0.0000 0.0000
# 2 26.8043 117.8716 27.6562 0.0000 0.0000 0.0000
# 3 10.8970 27.6562 82.3047 0.0000 0.0000 0.0000
# 4 0.0000 0.0000 0.0000 11.6999 0.0000 0.0000
# 5 0.0000 0.0000 0.0000 0.0000 -1.9932 0.0000
# 6 0.0000 0.0000 0.0000 0.0000 0.0000 -21.6693
#
#
#
# Elastic Compliance Matrix: (Units=1/GPa)
#
#
# Indices 1 2 3 4 5 6 
#
# 1 0.020664 -0.004404 -0.001256 0.000000 0.000000 0.000000
# 2 -0.004404 0.010149 -0.002827 0.000000 0.000000 0.000000
# 3 -0.001256 -0.002827 0.013266 0.000000 0.000000 0.000000
# 4 0.000000 0.000000 0.000000 0.085471 0.000000 0.000000
# 5 0.000000 0.000000 0.000000 0.000000 -0.501693 0.000000
# 6 0.000000 0.000000 0.000000 0.000000 0.000000 -0.046148
#
#
# Mechanical properties :
#
#
# Convention : Reuss Voigt Hill
#
# Bulk Modulus (GPa) = 36.89482 42.85118 39.87300
# Shear Modulus (GPa) = -12.74589 10.24670 -1.24960
#
# Velocity S-wave (km/s) = -2.71992 2.43873 -0.85164
# Velocity P-wave (km/s) = 3.39861 5.72726 4.70914
#
# Compressibility (1/GPa) = 0.02710407
#
# Stress axis : x y z
#
# Youngs Moduli (GPa) = 48.39406 98.53506 75.37954
#
# Poissons Ratio (x) = 0.43398 0.09467
# Poissons Ratio (y) = 0.21314 0.21310
# Poissons Ratio (z) = 0.06078 0.27856
#
# Static dielectric constant tensor:
#      x y z
#    x 1.659520 0.000000 0.000000 
#    y 0.000000 1.550710 0.000000 
#    z 0.000000 0.000000 1.581760 
# 
# From -- ./inp_files/21304.got.cif
#   From: 2010.05.17/outbox.cif.g08.bks.cpg/sg47_11_cif.got.tgz:21304.got - 2010.06.03 20:15:42.
