data_PCOD9382869
_publ_section_title
;
Structure prediction by ZEFSAII (Michael W. Deem and Ramdas Pophale) SiO2 
 PCOD9382869
Probable space group: P M M M
;
_chemical_formula_sum "Si O2"
_cell_formula_units_Z 48
_cell_length_a 9.488605
_cell_length_b 7.611464
_cell_length_c 35.510616
_cell_angle_alpha 90.000000
_cell_angle_beta 90.000000
_cell_angle_gamma 90.000000
_cell_volume 2564.653936
_symmetry_space_group_name_H-M "P M M M"
_symmetry_group_IT_number 47
_symmetry_cell_setting 'orthorhombic'
loop_
_space_group_symop_operation_xyz
x,y,z
-x,-y,z
x,-y,-z
-x,y,-z
-x,-y,-z
x,y,-z
-x,y,z
x,-y,z
loop_
_atom_site_type_symbol
_atom_site_label
_atom_site_fract_x
_atom_site_fract_y
_atom_site_fract_z
Si Si1 0.839478 0.788199 0.457668
Si Si2 0.333371 0.706960 0.760074
Si Si3 0.161433 0.714555 0.685671
Si Si4 0.332314 0.000000 0.178581
Si Si5 0.829108 0.000000 0.100312
Si Si6 0.828757 0.701475 0.042284
Si Si7 0.658532 0.290910 0.385137
O O1 0.801383 0.728708 0.500000
O O2 0.734214 0.734997 0.424980
O O3 0.000000 0.728389 0.449652
O O4 0.842049 0.000000 0.458355
O O5 0.500000 0.726747 0.751287
O O6 0.307795 0.500000 0.767696
O O7 0.242853 0.761487 0.723843
O O8 0.301643 0.829871 0.795558
O O9 0.159606 0.500000 0.684604
O O10 0.245622 0.777969 0.648966
O O11 0.000000 0.774028 0.685525
O O12 0.500000 0.000000 0.170363
O O13 0.243492 0.000000 0.140628
O O14 0.785897 0.168070 0.075218
O O15 0.000000 0.000000 0.104077
O O16 0.784731 0.500000 0.048362
O O17 0.000000 0.703672 0.041909
O O18 0.784325 0.756118 0.000000
O O19 0.500000 0.218883 0.384820
O O20 0.648447 0.500000 0.379136
#
# Coordination Sequence:
#
# PCOD9382869 Si02
#       7
#     8   8   8   4   4   8   8
#     4   9  19  36  54  71  96 131 169 208 250 296
#     4   9  18  35  56  73  95 131 171 210 254 306
#     4   9  17  31  53  78 101 126 158 200 251 300
#     4  10  22  37  51  73 104 138 175 211 254 314
#     4  10  19  30  48  74 102 132 170 217 261 302
#     4   8  14  26  46  73 103 134 171 216 264 310
#     4  10  20  33  51  77 106 133 164 202 244 298
#
# _framework density 18.715976000000001
#
# number of rings (size 3 to 8) (size 9 to 14) (size 15 to 20)
#    0.000    2.833    0.000    2.250    0.000    6.333 
#    1.500    2.500    0.000    1.000    0.000    1.167 
#    0.000    0.000    0.000    0.000    0.000    0.000 
#
# Total GULP energy -267762.372767 kJ/mol
# GULP energy per Si atom -5578.382766 kJ/mol
# Density = 1.867338 g / cm^3
# Si number density = 18.715976 Si / 1000 Ang^3
#
#
#
# Elastic Constant Matrix: (Units=GPa)
#
#
# Indices 1 2 3 4 5 6 
#
# 1 100.1265 40.5201 106.5165 0.0000 0.0000 0.0000
# 2 40.5201 63.0964 58.1203 0.0000 0.0000 0.0000
# 3 106.5165 58.1203 190.1985 0.0000 0.0000 0.0000
# 4 0.0000 0.0000 0.0000 -34.4877 0.0000 0.0000
# 5 0.0000 0.0000 0.0000 0.0000 -325.8627 0.0000
# 6 0.0000 0.0000 0.0000 0.0000 0.0000 10.0594
#
#
#
# Elastic Compliance Matrix: (Units=1/GPa)
#
#
# Indices 1 2 3 4 5 6 
#
# 1 0.025593 -0.004500 -0.012958 0.000000 0.000000 0.000000
# 2 -0.004500 0.022849 -0.004462 0.000000 0.000000 0.000000
# 3 -0.012958 -0.004462 0.013878 0.000000 0.000000 0.000000
# 4 0.000000 0.000000 0.000000 -0.028996 0.000000 0.000000
# 5 0.000000 0.000000 0.000000 0.000000 -0.003069 0.000000
# 6 0.000000 0.000000 0.000000 0.000000 0.000000 0.099410
#
#
# Mechanical properties :
#
#
# Convention : Reuss Voigt Hill
#
# Bulk Modulus (GPa) = 54.11145 84.85946 69.48546
# Shear Modulus (GPa) = 27.82963 -60.17392 -16.17214
#
# Velocity S-wave (km/s) = 3.86028 -5.67635 -2.94272
# Velocity P-wave (km/s) = 6.98882 1.57413 5.06565
#
# Compressibility (1/GPa) = 0.01848038
#
# Stress axis : x y z
#
# Youngs Moduli (GPa) = 39.07275 43.76626 72.05687
#
# Poissons Ratio (x) = 0.19694 0.93371
# Poissons Ratio (y) = 0.17582 0.32152
# Poissons Ratio (z) = 0.50630 0.19528
#
# Static dielectric constant tensor:
#      x y z
#    x 1.634670 0.000000 0.000000 
#    y 0.000000 1.684000 0.000000 
#    z 0.000000 0.000000 1.610400 
# 
# From -- ./inp_files/34117.got.cif
#   From: 2010.05.17/outbox.cif.g08.bks.cpg/sg47_18_cif.got.tgz:34117.got - 2010.06.03 20:15:42.
