data_PCOD9382270
_publ_section_title
;
Structure prediction by ZEFSAII (Michael W. Deem and Ramdas Pophale) SiO2 
 PCOD9382270
Probable space group: P M M M
;
_chemical_formula_sum "Si O2"
_cell_formula_units_Z 56
_cell_length_a 7.826161
_cell_length_b 15.660209
_cell_length_c 22.089276
_cell_angle_alpha 90.000000
_cell_angle_beta 90.000000
_cell_angle_gamma 90.000000
_cell_volume 2707.246578
_symmetry_space_group_name_H-M "P M M M"
_symmetry_group_IT_number 47
_symmetry_cell_setting 'orthorhombic'
loop_
_space_group_symop_operation_xyz
x,y,z
-x,-y,z
x,-y,-z
-x,y,-z
-x,-y,-z
x,y,-z
-x,y,z
x,-y,z
loop_
_atom_site_type_symbol
_atom_site_label
_atom_site_fract_x
_atom_site_fract_y
_atom_site_fract_z
Si Si1 0.196970 0.823195 0.626157
Si Si2 0.294859 0.901659 0.500000
Si Si3 0.204687 0.095750 0.931023
Si Si4 0.693802 0.360454 0.367614
Si Si5 0.305603 0.237513 0.165596
Si Si6 0.795428 0.907081 0.746465
Si Si7 0.709281 0.595770 0.765834
Si Si8 0.304860 0.601577 0.500000
O O1 0.227822 0.855792 0.559377
O O2 0.308595 0.740987 0.639766
O O3 0.230512 0.896277 0.675068
O O4 0.000000 0.796717 0.634041
O O5 0.500000 0.898166 0.500000
O O6 0.240365 0.000000 0.500000
O O7 0.241002 0.177317 0.888985
O O8 0.000000 0.089962 0.932607
O O9 0.265458 0.000000 0.911071
O O10 0.266353 0.108504 0.000000
O O11 0.500000 0.395439 0.372198
O O12 0.768489 0.394514 0.304369
O O13 0.773980 0.374856 0.434502
O O14 0.500000 0.257715 0.150169
O O15 0.292224 0.171644 0.221242
O O16 0.228476 0.326708 0.191025
O O17 0.000000 0.901569 0.758830
O O18 0.736121 0.000000 0.766812
O O19 0.500000 0.602562 0.763264
O O20 0.751868 0.500000 0.786925
O O21 0.315108 0.500000 0.500000
O O22 0.500000 0.638986 0.500000
#
# Coordination Sequence:
#
# PCOD9382270 Si02
#       8
#     8   4   8   8   8   8   8   4
#     4  11  22  36  54  74 101 136 176 221 273 333
#     4  11  24  39  54  72  96 131 178 230 279 329
#     4   9  19  37  60  85 116 155 191 220 262 327
#     4  10  18  32  53  76 103 134 177 231 282 331
#     4  11  21  33  54  85 116 145 184 232 274 312
#     4  10  21  36  53  74 105 146 184 217 263 328
#     4   9  18  33  53  77 110 151 190 230 279 334
#     4   9  17  28  48  76  96 121 170 226 277 333
#
# _framework density 20.685222
#
# number of rings (size 3 to 8) (size 9 to 14) (size 15 to 20)
#    0.000    2.000    1.429    3.214    0.000    6.571 
#    0.000    0.714    0.000    6.000    0.000    3.000 
#    0.000    0.000    0.000    0.000    0.000    0.000 
#
# Total GULP energy -312268.058854 kJ/mol
# GULP energy per Si atom -5576.215337 kJ/mol
# Density = 2.063814 g / cm^3
# Si number density = 20.685222 Si / 1000 Ang^3
#
#
#
# Elastic Constant Matrix: (Units=GPa)
#
#
# Indices 1 2 3 4 5 6 
#
# 1 26.8813 9.9638 8.3953 0.0000 0.0000 0.0000
# 2 9.9638 158.1860 62.2530 0.0000 0.0000 0.0000
# 3 8.3953 62.2530 134.9284 0.0000 0.0000 0.0000
# 4 0.0000 0.0000 0.0000 3.8707 0.0000 0.0000
# 5 0.0000 0.0000 0.0000 0.0000 -70.7470 0.0000
# 6 0.0000 0.0000 0.0000 0.0000 0.0000 77.3545
#
#
#
# Elastic Compliance Matrix: (Units=1/GPa)
#
#
# Indices 1 2 3 4 5 6 
#
# 1 0.038355 -0.001804 -0.001554 0.000000 0.000000 0.000000
# 2 -0.001804 0.007809 -0.003491 0.000000 0.000000 0.000000
# 3 -0.001554 -0.003491 0.009119 0.000000 0.000000 0.000000
# 4 0.000000 0.000000 0.000000 0.258350 0.000000 0.000000
# 5 0.000000 0.000000 0.000000 0.000000 -0.014135 0.000000
# 6 0.000000 0.000000 0.000000 0.000000 0.000000 0.012927
#
#
# Mechanical properties :
#
#
# Convention : Reuss Voigt Hill
#
# Bulk Modulus (GPa) = 24.04751 53.46890 38.75821
# Shear Modulus (GPa) = 14.70656 18.05454 16.38055
#
# Velocity S-wave (km/s) = 2.66929 2.95756 2.81712
# Velocity P-wave (km/s) = 4.59901 6.12926 5.41843
#
# Compressibility (1/GPa) = 0.04158434
#
# Stress axis : x y z
#
# Youngs Moduli (GPa) = 26.07245 128.05658 109.66670
#
# Poissons Ratio (x) = 0.23106 0.17042
# Poissons Ratio (y) = 0.04704 0.38281
# Poissons Ratio (z) = 0.04052 0.44700
#
# Static dielectric constant tensor:
#      x y z
#    x 1.799340 0.000000 0.000000 
#    y 0.000000 1.738250 0.000000 
#    z 0.000000 0.000000 1.778230 
# 
# From -- ./inp_files/29815.got.cif
#   From: 2010.05.17/outbox.cif.g08.bks.cpg/sg47_15_cif.got.tgz:29815.got - 2010.06.03 20:15:42.
