data_PCOD9382241
_publ_section_title
;
Structure prediction by ZEFSAII (Michael W. Deem and Ramdas Pophale) SiO2 
 PCOD9382241
Probable space group: P M M M
;
_chemical_formula_sum "Si O2"
_cell_formula_units_Z 52
_cell_length_a 29.154174
_cell_length_b 12.057334
_cell_length_c 8.912977
_cell_angle_alpha 90.000000
_cell_angle_beta 90.000000
_cell_angle_gamma 90.000000
_cell_volume 3133.104055
_symmetry_space_group_name_H-M "P M M M"
_symmetry_group_IT_number 47
_symmetry_cell_setting 'orthorhombic'
loop_
_space_group_symop_operation_xyz
x,y,z
-x,-y,z
x,-y,-z
-x,y,-z
-x,-y,-z
x,y,-z
-x,y,z
x,-y,z
loop_
_atom_site_type_symbol
_atom_site_label
_atom_site_fract_x
_atom_site_fract_y
_atom_site_fract_z
Si Si1 0.364411 0.629538 0.180623
Si Si2 0.550551 0.236978 0.320613
Si Si3 0.905898 0.134502 0.171604
Si Si4 0.809464 0.130158 0.320579
Si Si5 0.675444 0.000000 0.178167
Si Si6 0.000000 0.864683 0.326460
Si Si7 0.278326 0.774569 0.181780
Si Si8 0.433248 0.000000 0.822452
O O1 0.367538 0.500000 0.217655
O O2 0.406516 0.696677 0.252761
O O3 0.314424 0.678598 0.223515
O O4 0.368051 0.642974 0.000000
O O5 0.555288 0.231749 0.500000
O O6 0.500000 0.286712 0.285895
O O7 0.550553 0.112974 0.253767
O O8 0.860209 0.161084 0.264115
O O9 0.953404 0.172702 0.245622
O O10 0.908095 0.000000 0.169584
O O11 0.901931 0.172293 0.000000
O O12 0.807363 0.132695 0.500000
O O13 0.771968 0.212871 0.250863
O O14 0.800909 0.000000 0.273051
O O15 0.697127 0.887672 0.236656
O O16 0.621490 0.000000 0.196627
O O17 0.684520 0.000000 0.000000
O O18 0.000000 0.832024 0.500000
O O19 0.000000 0.000000 0.322322
O O20 0.274509 0.773840 0.000000
O O21 0.443843 0.000000 0.000000
#
# Coordination Sequence:
#
# PCOD9382241 Si02
#       8
#     8   8   8   8   4   4   8   4
#     4  10  22  40  60  79  98 127 171 214 249 294
#     4  11  24  39  55  79 110 138 163 198 248 301
#     4   9  16  25  37  54  79 117 162 202 240 285
#     4  10  19  28  40  64  94 122 156 198 243 292
#     4   9  16  28  50  75  96 121 155 194 241 292
#     4   9  15  23  35  51  77 115 158 205 246 281
#     4  10  18  32  51  71  96 123 154 198 249 297
#     4  11  20  36  59  84 108 134 165 201 241 290
#
# _framework density 16.596958999999998
#
# number of rings (size 3 to 8) (size 9 to 14) (size 15 to 20)
#    0.000    2.077    2.308    2.077    0.000    6.769 
#    0.000    1.538    0.000    0.000    0.000    0.000 
#    0.000    0.000    0.000    0.692    0.000   14.385 
#
# Total GULP energy -289859.269713 kJ/mol
# GULP energy per Si atom -5574.216725 kJ/mol
# Density = 1.655918 g / cm^3
# Si number density = 16.596959 Si / 1000 Ang^3
#
#
#
# Elastic Constant Matrix: (Units=GPa)
#
#
# Indices 1 2 3 4 5 6 
#
# 1 151.0566 56.2481 52.9758 0.0000 0.0000 0.0000
# 2 56.2481 61.2746 30.4632 0.0000 0.0000 0.0000
# 3 52.9758 30.4632 55.2544 0.0000 0.0000 0.0000
# 4 0.0000 0.0000 0.0000 9.5411 0.0000 0.0000
# 5 0.0000 0.0000 0.0000 0.0000 38.5622 0.0000
# 6 0.0000 0.0000 0.0000 0.0000 0.0000 55.9646
#
#
#
# Elastic Compliance Matrix: (Units=1/GPa)
#
#
# Indices 1 2 3 4 5 6 
#
# 1 0.011929 -0.007253 -0.007439 0.000000 0.000000 0.000000
# 2 -0.007253 0.026891 -0.007873 0.000000 0.000000 0.000000
# 3 -0.007439 -0.007873 0.029571 0.000000 0.000000 0.000000
# 4 0.000000 0.000000 0.000000 0.104810 0.000000 0.000000
# 5 0.000000 0.000000 0.000000 0.000000 0.025932 0.000000
# 6 0.000000 0.000000 0.000000 0.000000 0.000000 0.017868
#
#
# Mechanical properties :
#
#
# Convention : Reuss Voigt Hill
#
# Bulk Modulus (GPa) = 42.98585 60.77331 51.87958
# Shear Modulus (GPa) = 18.52641 29.34014 23.93328
#
# Velocity S-wave (km/s) = 3.34466 4.20909 3.80152
# Velocity P-wave (km/s) = 6.39310 7.76650 7.11302
#
# Compressibility (1/GPa) = 0.02326347
#
# Stress axis : x y z
#
# Youngs Moduli (GPa) = 83.82594 37.18649 33.81725
#
# Poissons Ratio (x) = 0.26970 0.25157
# Poissons Ratio (y) = 0.60795 0.26623
# Poissons Ratio (z) = 0.62358 0.29275
#
# Static dielectric constant tensor:
#      x y z
#    x 1.558440 0.000000 0.000000 
#    y 0.000000 1.539530 0.000000 
#    z 0.000000 0.000000 1.559760 
# 
# From -- ./inp_files/13346.got.cif
#   From: 2010.05.17/outbox.cif.g08.bks.cpg/sg47_7_cif.got.tgz:13346.got - 2010.06.03 20:15:42.
