data_PCOD9382688
_publ_section_title
;
Structure prediction by ZEFSAII (Michael W. Deem and Ramdas Pophale) SiO2 
 PCOD9382688
Probable space group: P M M M
;
_chemical_formula_sum "Si O2"
_cell_formula_units_Z 64
_cell_length_a 7.606797
_cell_length_b 24.573768
_cell_length_c 19.692933
_cell_angle_alpha 90.000000
_cell_angle_beta 90.000000
_cell_angle_gamma 90.000000
_cell_volume 3681.153977
_symmetry_space_group_name_H-M "P M M M"
_symmetry_group_IT_number 47
_symmetry_cell_setting 'orthorhombic'
loop_
_space_group_symop_operation_xyz
x,y,z
-x,-y,z
x,-y,-z
-x,y,-z
-x,-y,-z
x,y,-z
-x,y,z
x,-y,z
loop_
_atom_site_type_symbol
_atom_site_label
_atom_site_fract_x
_atom_site_fract_y
_atom_site_fract_z
Si Si1 0.711461 0.439116 0.922836
Si Si2 0.292186 0.830553 0.786986
Si Si3 0.784971 0.231531 0.424159
Si Si4 0.787276 0.224567 0.923245
Si Si5 0.798009 0.721003 0.288533
Si Si6 0.707022 0.059384 0.279997
Si Si7 0.787478 0.105154 0.424074
Si Si8 0.209856 0.668928 0.843745
O O1 0.500000 0.440781 0.925131
O O2 0.772525 0.500000 0.903803
O O3 0.759433 0.390428 0.873254
O O4 0.773613 0.427722 0.000000
O O5 0.500000 0.827293 0.771558
O O6 0.267103 0.819321 0.866791
O O7 0.204120 0.780195 0.747778
O O8 0.221847 0.888077 0.759889
O O9 0.732097 0.248063 0.500000
O O10 0.719032 0.268557 0.362599
O O11 0.733234 0.168327 0.414207
O O12 0.000000 0.231580 0.422155
O O13 0.726152 0.283441 0.894496
O O14 0.000000 0.225237 0.924681
O O15 0.725262 0.215424 0.000000
O O16 0.718195 0.681344 0.231653
O O17 0.000000 0.703940 0.299573
O O18 0.500000 0.057540 0.263749
O O19 0.724318 0.070873 0.360309
O O20 0.783184 0.000000 0.264028
O O21 0.731003 0.088068 0.500000
O O22 0.000000 0.103789 0.423333
O O23 0.000000 0.676736 0.839322
#
# Coordination Sequence:
#
# PCOD9382688 Si02
#       8
#     8   8   8   8   8   8   8   8
#     4   9  18  31  44  59  84 120 156 184 209 238
#     4  10  19  30  45  64  84 107 140 177 211 254
#     4   8  13  23  42  64  84 110 142 173 208 253
#     4   9  18  32  49  68  90 113 135 167 214 263
#     4   9  16  28  45  63  88 116 141 174 217 260
#     4  10  21  34  45  59  83 114 144 175 214 261
#     4   9  17  29  46  66  84 106 142 182 213 249
#     4   9  17  27  42  66  91 115 142 172 207 249
#
# _framework density 17.385853000000001
#
# number of rings (size 3 to 8) (size 9 to 14) (size 15 to 20)
#    0.000    2.875    1.250    2.625    0.000    4.500 
#    0.000    1.875    0.000    0.750    0.000    2.625 
#    0.000    0.500    0.000    6.250    0.000    1.000 
#
# Total GULP energy -356674.093776 kJ/mol
# GULP energy per Si atom -5573.032715 kJ/mol
# Density = 1.734628 g / cm^3
# Si number density = 17.385853 Si / 1000 Ang^3
#
#
#
# Elastic Constant Matrix: (Units=GPa)
#
#
# Indices 1 2 3 4 5 6 
#
# 1 36.8211 -3.7347 -6.6278 0.0000 0.0000 0.0000
# 2 -3.7347 107.0847 61.7582 0.0000 0.0000 0.0000
# 3 -6.6278 61.7582 117.2125 0.0000 0.0000 0.0000
# 4 0.0000 0.0000 0.0000 23.4016 0.0000 0.0000
# 5 0.0000 0.0000 0.0000 0.0000 -23.9830 0.0000
# 6 0.0000 0.0000 0.0000 0.0000 0.0000 13.1986
#
#
#
# Elastic Compliance Matrix: (Units=1/GPa)
#
#
# Indices 1 2 3 4 5 6 
#
# 1 0.027438 0.000089 0.001504 0.000000 0.000000 0.000000
# 2 0.000089 0.013415 -0.007063 0.000000 0.000000 0.000000
# 3 0.001504 -0.007063 0.012338 0.000000 0.000000 0.000000
# 4 0.000000 0.000000 0.000000 0.042732 0.000000 0.000000
# 5 0.000000 0.000000 0.000000 0.000000 -0.041696 0.000000
# 6 0.000000 0.000000 0.000000 0.000000 0.000000 0.075766
#
#
# Mechanical properties :
#
#
# Convention : Reuss Voigt Hill
#
# Bulk Modulus (GPa) = 23.66727 40.43440 32.05083
# Shear Modulus (GPa) = 32.25476 16.50495 24.37985
#
# Velocity S-wave (km/s) = 4.31191 3.08447 3.74877
# Velocity P-wave (km/s) = 6.19940 5.99940 6.10022
#
# Compressibility (1/GPa) = 0.04225245
#
# Stress axis : x y z
#
# Youngs Moduli (GPa) = 36.44550 74.54328 81.04969
#
# Poissons Ratio (x) = -0.00666 -0.12193
# Poissons Ratio (y) = -0.00325 0.57247
# Poissons Ratio (z) = -0.05483 0.52651
#
# Static dielectric constant tensor:
#      x y z
#    x 1.660200 0.000000 0.000000 
#    y 0.000000 1.581450 0.000000 
#    z 0.000000 0.000000 1.617610 
# 
# From -- ./inp_files/30177.got.cif
#   From: 2010.05.17/outbox.cif.g08.bks.cpg/sg47_16_cif.got.tgz:30177.got - 2010.06.03 20:15:42.
