data_PCOD9382072
_publ_section_title
;
Structure prediction by ZEFSAII (Michael W. Deem and Ramdas Pophale) SiO2 
 PCOD9382072
Probable space group: P M M M
;
_chemical_formula_sum "Si O2"
_cell_formula_units_Z 52
_cell_length_a 15.350323
_cell_length_b 20.584949
_cell_length_c 7.315819
_cell_angle_alpha 90.000000
_cell_angle_beta 90.000000
_cell_angle_gamma 90.000000
_cell_volume 2311.693574
_symmetry_space_group_name_H-M "P M M M"
_symmetry_group_IT_number 47
_symmetry_cell_setting 'orthorhombic'
loop_
_space_group_symop_operation_xyz
x,y,z
-x,-y,z
x,-y,-z
-x,y,-z
-x,-y,-z
x,y,-z
-x,y,z
x,-y,z
loop_
_atom_site_type_symbol
_atom_site_label
_atom_site_fract_x
_atom_site_fract_y
_atom_site_fract_z
Si Si1 0.597820 0.660776 0.222562
Si Si2 0.099011 0.500000 0.716100
Si Si3 0.282867 0.070405 0.223089
Si Si4 0.095940 0.887385 0.777561
Si Si5 0.219395 0.375916 0.216297
Si Si6 0.400699 0.189535 0.778117
Si Si7 0.902947 0.263193 0.222389
O O1 0.500000 0.643509 0.285151
O O2 0.681215 0.619164 0.283877
O O3 0.616637 0.735923 0.275332
O O4 0.593802 0.658877 0.000000
O O5 0.090464 0.500000 0.500000
O O6 0.156323 0.562919 0.762754
O O7 0.000000 0.500000 0.792252
O O8 0.182228 0.075804 0.280376
O O9 0.335687 0.133592 0.285134
O O10 0.318867 0.000000 0.277716
O O11 0.284123 0.072152 0.000000
O O12 0.106914 0.811737 0.724372
O O13 0.000000 0.909706 0.717559
O O14 0.094792 0.889474 0.000000
O O15 0.169878 0.312388 0.289478
O O16 0.227978 0.365362 0.000000
O O17 0.500000 0.174138 0.726101
O O18 0.396812 0.189774 0.000000
O O19 0.000000 0.285436 0.275765
O O20 0.900592 0.263321 0.000000
#
# Coordination Sequence:
#
# PCOD9382072 Si02
#       7
#     8   4   8   8   8   8   8
#     4   8  14  25  43  68  92 110 136 184 241 278
#     4  11  25  41  52  67  98 132 151 169 212 273
#     4   9  15  19  23  34  56  93 141 181 209 250
#     4   8  13  20  28  40  62  90 121 167 226 270
#     4  10  18  30  52  75  92 116 154 195 225 256
#     4   8  13  21  32  47  71 101 131 171 224 269
#     4   8  13  21  36  59  80  96 126 181 237 269
#
# _framework density 22.494330000000001
#
# number of rings (size 3 to 8) (size 9 to 14) (size 15 to 20)
#    0.000    3.308    0.000    3.462    0.000    5.538 
#    0.000    3.462    0.000    2.769    0.000    0.000 
#    0.000    0.000    0.000    0.000    0.000   12.308 
#
# Total GULP energy -290140.623214 kJ/mol
# GULP energy per Si atom -5579.627370 kJ/mol
# Density = 2.244313 g / cm^3
# Si number density = 22.494330 Si / 1000 Ang^3
#
#
#
# Elastic Constant Matrix: (Units=GPa)
#
#
# Indices 1 2 3 4 5 6 
#
# 1 180.5046 69.8706 3.5873 0.0000 0.0000 0.0000
# 2 69.8706 54.4027 -6.1071 0.0000 0.0000 0.0000
# 3 3.5873 -6.1071 87.6935 0.0000 0.0000 0.0000
# 4 0.0000 0.0000 0.0000 44.2614 0.0000 0.0000
# 5 0.0000 0.0000 0.0000 0.0000 -35.1701 0.0000
# 6 0.0000 0.0000 0.0000 0.0000 0.0000 16.7718
#
#
#
# Elastic Compliance Matrix: (Units=1/GPa)
#
#
# Indices 1 2 3 4 5 6 
#
# 1 0.011202 -0.014553 -0.001472 0.000000 0.000000 0.000000
# 2 -0.014553 0.037431 0.003202 0.000000 0.000000 0.000000
# 3 -0.001472 0.003202 0.011687 0.000000 0.000000 0.000000
# 4 0.000000 0.000000 0.000000 0.022593 0.000000 0.000000
# 5 0.000000 0.000000 0.000000 0.000000 -0.028433 0.000000
# 6 0.000000 0.000000 0.000000 0.000000 0.000000 0.059624
#
#
# Mechanical properties :
#
#
# Convention : Reuss Voigt Hill
#
# Bulk Modulus (GPa) = 28.83882 50.81137 39.82510
# Shear Modulus (GPa) = 33.04539 22.18928 27.61734
#
# Velocity S-wave (km/s) = 3.83698 3.14417 3.50772
# Velocity P-wave (km/s) = 5.69897 5.98487 5.84367
#
# Compressibility (1/GPa) = 0.03467548
#
# Stress axis : x y z
#
# Youngs Moduli (GPa) = 89.26666 26.71568 85.56838
#
# Poissons Ratio (x) = 0.38878 0.12593
# Poissons Ratio (y) = 1.29907 -0.27400
# Poissons Ratio (z) = 0.13138 -0.08555
#
# Static dielectric constant tensor:
#      x y z
#    x 1.841190 0.000000 0.000000 
#    y 0.000000 1.711470 0.000000 
#    z 0.000000 0.000000 1.914440 
# 
# From -- ./inp_files/6992.got.cif
#   From: 2010.05.17/outbox.cif.g08.bks.cpg/sg47_4_cif.got.tgz:6992.got - 2010.06.03 20:15:42.
