data_PCOD9382815
_publ_section_title
;
Structure prediction by ZEFSAII (Michael W. Deem and Ramdas Pophale) SiO2 
 PCOD9382815
Probable space group: P M M M
;
_chemical_formula_sum "Si O2"
_cell_formula_units_Z 64
_cell_length_a 8.990566
_cell_length_b 23.946873
_cell_length_c 19.408182
_cell_angle_alpha 90.000000
_cell_angle_beta 90.000000
_cell_angle_gamma 90.000000
_cell_volume 4178.502830
_symmetry_space_group_name_H-M "P M M M"
_symmetry_group_IT_number 47
_symmetry_cell_setting 'orthorhombic'
loop_
_space_group_symop_operation_xyz
x,y,z
-x,-y,z
x,-y,-z
-x,y,-z
-x,-y,-z
x,y,-z
-x,y,z
x,-y,z
loop_
_atom_site_type_symbol
_atom_site_label
_atom_site_fract_x
_atom_site_fract_y
_atom_site_fract_z
Si Si1 0.823973 0.838852 0.792553
Si Si2 0.677109 0.335386 0.160325
Si Si3 0.821940 0.233399 0.079981
Si Si4 0.177455 0.434381 0.080274
Si Si5 0.176882 0.277704 0.712559
Si Si6 0.176911 0.116945 0.578498
Si Si7 0.323037 0.936415 0.290701
Si Si8 0.677103 0.239602 0.578646
O O1 0.786173 0.818159 0.869508
O O2 0.796947 0.784246 0.744928
O O3 0.734851 0.891039 0.763708
O O4 0.000000 0.851079 0.789119
O O5 0.500000 0.333446 0.164457
O O6 0.736803 0.287269 0.108654
O O7 0.733970 0.393789 0.130175
O O8 0.748722 0.320332 0.234081
O O9 0.000000 0.243825 0.087731
O O10 0.790477 0.223368 0.000000
O O11 0.206718 0.500000 0.092047
O O12 0.000000 0.425275 0.088511
O O13 0.213359 0.422125 0.000000
O O14 0.248807 0.277155 0.637281
O O15 0.000000 0.286159 0.709843
O O16 0.201975 0.097038 0.500000
O O17 0.245736 0.077994 0.636673
O O18 0.251887 0.177849 0.584619
O O19 0.000000 0.122773 0.589175
O O20 0.500000 0.931008 0.298619
O O21 0.288138 0.000000 0.270497
O O22 0.704147 0.258649 0.500000
O O23 0.500000 0.235817 0.589398
#
# Coordination Sequence:
#
# PCOD9382815 Si02
#       8
#     8   8   8   8   8   8   8   8
#     4   9  18  32  50  70  89 114 149 189 232 282
#     4  11  21  30  45  72 104 133 163 202 243 282
#     4   9  18  33  52  72  95 122 152 190 237 288
#     4   9  18  33  51  69  95 136 179 212 243 282
#     4  10  19  32  50  70  94 126 163 199 236 281
#     4  10  20  33  49  68  90 119 154 189 226 275
#     4  11  23  35  48  66  89 118 151 191 238 286
#     4  10  19  30  47  71  98 126 154 189 236 287
#
# _framework density 15.316490999999999
#
# number of rings (size 3 to 8) (size 9 to 14) (size 15 to 20)
#    0.000    2.125    1.250    4.125    0.000    7.000 
#    0.000    1.875    0.000    0.375    0.000    2.625 
#    0.000    0.500    0.000    5.250    0.000    2.250 
#
# Total GULP energy -357122.168621 kJ/mol
# GULP energy per Si atom -5580.033885 kJ/mol
# Density = 1.528163 g / cm^3
# Si number density = 15.316491 Si / 1000 Ang^3
#
#
#
# Elastic Constant Matrix: (Units=GPa)
#
#
# Indices 1 2 3 4 5 6 
#
# 1 76.9271 51.5878 61.6017 0.0000 0.0000 0.0000
# 2 51.5878 69.8063 49.8054 0.0000 0.0000 0.0000
# 3 61.6017 49.8054 108.8528 0.0000 0.0000 0.0000
# 4 0.0000 0.0000 0.0000 25.4242 0.0000 0.0000
# 5 0.0000 0.0000 0.0000 0.0000 20.9291 0.0000
# 6 0.0000 0.0000 0.0000 0.0000 0.0000 28.6276
#
#
#
# Elastic Compliance Matrix: (Units=1/GPa)
#
#
# Indices 1 2 3 4 5 6 
#
# 1 0.032876 -0.016363 -0.011118 0.000000 0.000000 0.000000
# 2 -0.016363 0.029413 -0.004198 0.000000 0.000000 0.000000
# 3 -0.011118 -0.004198 0.017399 0.000000 0.000000 0.000000
# 4 0.000000 0.000000 0.000000 0.039333 0.000000 0.000000
# 5 0.000000 0.000000 0.000000 0.000000 0.047780 0.000000
# 6 0.000000 0.000000 0.000000 0.000000 0.000000 0.034931
#
#
# Mechanical properties :
#
#
# Convention : Reuss Voigt Hill
#
# Bulk Modulus (GPa) = 61.23608 64.61956 62.92782
# Shear Modulus (GPa) = 18.48207 21.16894 19.82550
#
# Velocity S-wave (km/s) = 3.47750 3.72169 3.60167
# Velocity P-wave (km/s) = 7.49608 7.79417 7.64658
#
# Compressibility (1/GPa) = 0.01633024
#
# Stress axis : x y z
#
# Youngs Moduli (GPa) = 30.41775 33.99880 57.47388
#
# Poissons Ratio (x) = 0.55632 0.63899
# Poissons Ratio (y) = 0.49773 0.24126
# Poissons Ratio (z) = 0.33818 0.14271
#
# Static dielectric constant tensor:
#      x y z
#    x 1.507830 0.000000 0.000000 
#    y 0.000000 1.483960 0.000000 
#    z 0.000000 0.000000 1.519690 
# 
# From -- ./inp_files/27091.got.cif
#   From: 2010.05.17/outbox.cif.g08.bks.cpg/sg47_14_cif.got.tgz:27091.got - 2010.06.03 20:15:42.
