data_PCOD9382835
_publ_section_title
;
Structure prediction by ZEFSAII (Michael W. Deem and Ramdas Pophale) SiO2 
 PCOD9382835
Probable space group: P M M M
;
_chemical_formula_sum "Si O2"
_cell_formula_units_Z 40
_cell_length_a 8.249137
_cell_length_b 7.247860
_cell_length_c 29.578659
_cell_angle_alpha 90.000000
_cell_angle_beta 90.000000
_cell_angle_gamma 90.000000
_cell_volume 1768.466319
_symmetry_space_group_name_H-M "P M M M"
_symmetry_group_IT_number 47
_symmetry_cell_setting 'orthorhombic'
loop_
_space_group_symop_operation_xyz
x,y,z
-x,-y,z
x,-y,-z
-x,y,-z
-x,-y,-z
x,y,-z
-x,y,z
x,-y,z
loop_
_atom_site_type_symbol
_atom_site_label
_atom_site_fract_x
_atom_site_fract_y
_atom_site_fract_z
Si Si1 0.816876 0.775958 0.645351
Si Si2 0.681087 0.275786 0.052634
Si Si3 0.000000 0.216710 0.788010
Si Si4 0.690487 0.223817 0.450843
Si Si5 0.000000 0.278552 0.894501
Si Si6 0.323243 0.775074 0.738821
O O1 0.772450 0.711640 0.595176
O O2 0.702210 0.720760 0.686468
O O3 0.000000 0.723299 0.656898
O O4 0.811137 0.000000 0.643957
O O5 0.500000 0.217626 0.067580
O O6 0.681146 0.500000 0.053869
O O7 0.834554 0.212452 0.081658
O O8 0.701057 0.223827 0.000000
O O9 0.000000 0.236101 0.841660
O O10 0.832820 0.289500 0.766789
O O11 0.000000 0.000000 0.776376
O O12 0.754401 0.284624 0.500000
O O13 0.500000 0.269575 0.448820
O O14 0.701457 0.000000 0.450781
O O15 0.000000 0.500000 0.899405
O O16 0.500000 0.715344 0.755358
O O17 0.323043 0.000000 0.740107
#
# Coordination Sequence:
#
# PCOD9382835 Si02
#       6
#     8   8   4   8   4   8
#     4   9  14  20  31  46  64  87 123 171 213 252
#     4   8  14  26  46  72  98 122 151 185 216 251
#     4  10  20  33  45  63  89 116 150 188 223 264
#     4   8  13  19  25  36  57  85 118 157 203 255
#     4  10  19  30  48  72  96 121 149 183 223 262
#     4   9  16  27  42  56  73 102 141 183 221 256
#
# _framework density 22.618469999999999
#
# number of rings (size 3 to 8) (size 9 to 14) (size 15 to 20)
#    0.000    3.200    1.000    2.100    0.000    4.800 
#    0.000    2.000    0.000    1.200    0.000    1.400 
#    0.000    0.000    0.000    0.000    0.000    2.000 
#
# Total GULP energy -223304.342759 kJ/mol
# GULP energy per Si atom -5582.608569 kJ/mol
# Density = 2.256699 g / cm^3
# Si number density = 22.618470 Si / 1000 Ang^3
#
#
#
# Elastic Constant Matrix: (Units=GPa)
#
#
# Indices 1 2 3 4 5 6 
#
# 1 207.0880 7.4746 108.8212 0.0000 0.0000 0.0000
# 2 7.4746 102.3029 -5.0925 0.0000 0.0000 0.0000
# 3 108.8212 -5.0925 131.5294 0.0000 0.0000 0.0000
# 4 0.0000 0.0000 0.0000 0.5070 0.0000 0.0000
# 5 0.0000 0.0000 0.0000 0.0000 14.2492 0.0000
# 6 0.0000 0.0000 0.0000 0.0000 0.0000 -25.1138
#
#
#
# Elastic Compliance Matrix: (Units=1/GPa)
#
#
# Indices 1 2 3 4 5 6 
#
# 1 0.008642 -0.000989 -0.007188 0.000000 0.000000 0.000000
# 2 -0.000989 0.009907 0.001202 0.000000 0.000000 0.000000
# 3 -0.007188 0.001202 0.013597 0.000000 0.000000 0.000000
# 4 0.000000 0.000000 0.000000 1.972483 0.000000 0.000000
# 5 0.000000 0.000000 0.000000 0.000000 0.070179 0.000000
# 6 0.000000 0.000000 0.000000 0.000000 0.000000 -0.039819
#
#
# Mechanical properties :
#
#
# Convention : Reuss Voigt Hill
#
# Bulk Modulus (GPa) = 54.96120 73.70300 64.33210
# Shear Modulus (GPa) = 2.43309 19.90959 11.17134
#
# Velocity S-wave (km/s) = 1.03829 2.97010 2.22480
# Velocity P-wave (km/s) = 5.07833 6.66468 5.92484
#
# Compressibility (1/GPa) = 0.01819465
#
# Stress axis : x y z
#
# Youngs Moduli (GPa) = 115.71651 100.93872 73.54824
#
# Poissons Ratio (x) = 0.09985 0.52867
# Poissons Ratio (y) = 0.11447 -0.08841
# Poissons Ratio (z) = 0.83178 -0.12133
#
# Static dielectric constant tensor:
#      x y z
#    x 1.815330 0.000000 0.000000 
#    y 0.000000 2.031940 0.000000 
#    z 0.000000 0.000000 1.782110 
# 
# From -- ./inp_files/33175.got.cif
#   From: 2010.05.17/outbox.cif.g08.bks.cpg/sg47_17_cif.got.tgz:33175.got - 2010.06.03 20:15:42.
