data_PCOD9382504
_publ_section_title
;
Structure prediction by ZEFSAII (Michael W. Deem and Ramdas Pophale) SiO2 
 PCOD9382504
Probable space group: P M M M
;
_chemical_formula_sum "Si O2"
_cell_formula_units_Z 64
_cell_length_a 9.049246
_cell_length_b 27.249841
_cell_length_c 18.761016
_cell_angle_alpha 90.000000
_cell_angle_beta 90.000000
_cell_angle_gamma 90.000000
_cell_volume 4626.288591
_symmetry_space_group_name_H-M "P M M M"
_symmetry_group_IT_number 47
_symmetry_cell_setting 'orthorhombic'
loop_
_space_group_symop_operation_xyz
x,y,z
-x,-y,z
x,-y,-z
-x,y,-z
-x,-y,-z
x,y,-z
-x,y,z
x,-y,z
loop_
_atom_site_type_symbol
_atom_site_label
_atom_site_fract_x
_atom_site_fract_y
_atom_site_fract_z
Si Si1 0.677378 0.245484 0.418683
Si Si2 0.679897 0.055660 0.581813
Si Si3 0.829384 0.798959 0.202476
Si Si4 0.323945 0.740138 0.083891
Si Si5 0.678405 0.148706 0.328057
Si Si6 0.822152 0.353041 0.159830
Si Si7 0.830191 0.300661 0.297776
Si Si8 0.323647 0.442949 0.916092
O O1 0.730755 0.248072 0.500000
O O2 0.500000 0.247768 0.419302
O O3 0.716741 0.193342 0.382114
O O4 0.738158 0.288139 0.367706
O O5 0.724659 0.066418 0.500000
O O6 0.500000 0.056178 0.582003
O O7 0.727256 0.097817 0.636075
O O8 0.726180 0.000000 0.599408
O O9 0.743400 0.784067 0.131070
O O10 0.751643 0.839047 0.252405
O O11 0.826665 0.749002 0.249924
O O12 0.000000 0.810887 0.188160
O O13 0.500000 0.737091 0.095599
O O14 0.249334 0.689906 0.111750
O O15 0.296210 0.746187 0.000000
O O16 0.500000 0.148613 0.320533
O O17 0.778382 0.341900 0.241972
O O18 0.765352 0.404707 0.131171
O O19 0.000000 0.349124 0.155917
O O20 0.000000 0.310174 0.317382
O O21 0.500000 0.435781 0.906561
O O22 0.290352 0.500000 0.900744
O O23 0.291890 0.434348 0.000000
#
# Coordination Sequence:
#
# PCOD9382504 Si02
#       8
#     8   8   8   8   8   8   8   8
#     4   9  16  24  36  56  78 100 130 165 197 231
#     4   8  13  21  35  57  82 106 136 174 208 235
#     4   9  17  28  40  55  77 103 132 165 197 233
#     4  10  19  29  42  60  81 105 133 163 196 236
#     4   9  15  24  39  56  77 106 136 166 201 237
#     4  10  19  29  42  60  82 108 138 168 197 233
#     4   8  16  28  38  52  75 102 130 159 192 230
#     4   9  18  31  44  59  81 108 138 171 203 234
#
# _framework density 13.833983999999999
#
# number of rings (size 3 to 8) (size 9 to 14) (size 15 to 20)
#    0.000    3.000    0.000    3.375    0.000    8.250 
#    0.000    0.625    0.000    1.500    0.000    0.875 
#    0.000    1.000    0.000   11.250    0.000    5.625 
#
# Total GULP energy -356327.192545 kJ/mol
# GULP energy per Si atom -5567.612384 kJ/mol
# Density = 1.380250 g / cm^3
# Si number density = 13.833984 Si / 1000 Ang^3
#
#
#
# Elastic Constant Matrix: (Units=GPa)
#
#
# Indices 1 2 3 4 5 6 
#
# 1 37.5201 31.7145 45.7667 0.0000 0.0000 0.0000
# 2 31.7145 80.1352 55.0537 0.0000 0.0000 0.0000
# 3 45.7667 55.0537 100.0758 0.0000 0.0000 0.0000
# 4 0.0000 0.0000 0.0000 27.1438 0.0000 0.0000
# 5 0.0000 0.0000 0.0000 0.0000 11.2589 0.0000
# 6 0.0000 0.0000 0.0000 0.0000 0.0000 10.1880
#
#
#
# Elastic Compliance Matrix: (Units=1/GPa)
#
#
# Indices 1 2 3 4 5 6 
#
# 1 0.063562 -0.008336 -0.024483 0.000000 0.000000 0.000000
# 2 -0.008336 0.021154 -0.007825 0.000000 0.000000 0.000000
# 3 -0.024483 -0.007825 0.025494 0.000000 0.000000 0.000000
# 4 0.000000 0.000000 0.000000 0.036841 0.000000 0.000000
# 5 0.000000 0.000000 0.000000 0.000000 0.088819 0.000000
# 6 0.000000 0.000000 0.000000 0.000000 0.000000 0.098154
#
#
# Mechanical properties :
#
#
# Convention : Reuss Voigt Hill
#
# Bulk Modulus (GPa) = 34.57497 53.64455 44.10976
# Shear Modulus (GPa) = 11.76609 15.39789 13.58199
#
# Velocity S-wave (km/s) = 2.91953 3.33986 3.13674
# Velocity P-wave (km/s) = 6.03423 7.33038 6.71366
#
# Compressibility (1/GPa) = 0.02892266
#
# Stress axis : x y z
#
# Youngs Moduli (GPa) = 15.73272 47.27301 39.22561
#
# Poissons Ratio (x) = 0.39405 0.96034
# Poissons Ratio (y) = 0.13114 0.30694
# Poissons Ratio (z) = 0.38518 0.36991
#
# Static dielectric constant tensor:
#      x y z
#    x 1.464380 0.000000 0.000000 
#    y 0.000000 1.445130 0.000000 
#    z 0.000000 0.000000 1.451070 
# 
# From -- ./inp_files/13479.got.cif
#   From: 2010.05.17/outbox.cif.g08.bks.cpg/sg47_7_cif.got.tgz:13479.got - 2010.06.03 20:15:42.
