data_PCOD9382865
_publ_section_title
;
Structure prediction by ZEFSAII (Michael W. Deem and Ramdas Pophale) SiO2 
 PCOD9382865
Probable space group: P M M M
;
_chemical_formula_sum "Si O2"
_cell_formula_units_Z 64
_cell_length_a 22.860681
_cell_length_b 16.270059
_cell_length_c 9.641865
_cell_angle_alpha 90.000000
_cell_angle_beta 90.000000
_cell_angle_gamma 90.000000
_cell_volume 3586.239897
_symmetry_space_group_name_H-M "P M M M"
_symmetry_group_IT_number 47
_symmetry_cell_setting 'orthorhombic'
loop_
_space_group_symop_operation_xyz
x,y,z
-x,-y,z
x,-y,-z
-x,y,-z
-x,-y,-z
x,y,-z
-x,y,z
x,-y,z
loop_
_atom_site_type_symbol
_atom_site_label
_atom_site_fract_x
_atom_site_fract_y
_atom_site_fract_z
Si Si1 0.323859 0.187635 0.841875
Si Si2 0.434332 0.231317 0.333911
Si Si3 0.067195 0.744224 0.836666
Si Si4 0.604728 0.412416 0.665115
Si Si5 0.096177 0.094819 0.337003
Si Si6 0.763897 0.903811 0.651240
Si Si7 0.851173 0.407461 0.168545
Si Si8 0.283137 0.624167 0.159456
O O1 0.382737 0.188428 0.750810
O O2 0.274536 0.133306 0.771298
O O3 0.296488 0.278945 0.841064
O O4 0.336296 0.164401 0.000000
O O5 0.425597 0.222425 0.500000
O O6 0.500000 0.203233 0.300545
O O7 0.428964 0.328816 0.299509
O O8 0.072421 0.829849 0.753428
O O9 0.109667 0.670458 0.785977
O O10 0.000000 0.715713 0.827383
O O11 0.080425 0.759651 0.000000
O O12 0.614161 0.409315 0.500000
O O13 0.575320 0.500000 0.697400
O O14 0.666698 0.410827 0.742697
O O15 0.080105 0.103308 0.500000
O O16 0.166624 0.103118 0.327942
O O17 0.080922 0.000000 0.295836
O O18 0.749477 0.866073 0.500000
O O19 0.751199 0.000000 0.644586
O O20 0.869235 0.500000 0.213364
O O21 0.782998 0.394038 0.205426
O O22 0.854058 0.406847 0.000000
O O23 0.289241 0.595344 0.000000
#
# Coordination Sequence:
#
# PCOD9382865 Si02
#       8
#     8   8   8   8   8   8   8   8
#     4  10  19  30  48  74 102 130 159 197 245 293
#     4   9  18  32  48  65  89 127 171 207 240 281
#     4  10  21  35  51  74 103 134 172 217 259 299
#     4   9  17  28  43  66  94 120 151 197 247 290
#     4   9  19  36  57  80 105 134 166 200 245 305
#     4   9  18  33  53  77 103 128 155 189 233 290
#     4   9  17  30  49  71  96 130 172 215 255 297
#     4   9  17  29  46  68  93 123 159 197 243 299
#
# _framework density 17.84599
#
# number of rings (size 3 to 8) (size 9 to 14) (size 15 to 20)
#    0.000    2.750    0.000    2.250    0.000    4.500 
#    0.000    5.625    0.000    1.500    0.000    7.000 
#    0.000    0.000    0.000    0.000    0.000    0.000 
#
# Total GULP energy -356509.926288 kJ/mol
# GULP energy per Si atom -5570.467598 kJ/mol
# Density = 1.780537 g / cm^3
# Si number density = 17.845990 Si / 1000 Ang^3
#
#
#
# Elastic Constant Matrix: (Units=GPa)
#
#
# Indices 1 2 3 4 5 6 
#
# 1 61.9394 33.1853 25.4070 0.0000 0.0000 0.0000
# 2 33.1853 56.0607 21.7260 0.0000 0.0000 0.0000
# 3 25.4070 21.7260 34.1806 0.0000 0.0000 0.0000
# 4 0.0000 0.0000 0.0000 16.0218 0.0000 0.0000
# 5 0.0000 0.0000 0.0000 0.0000 -11.3538 0.0000
# 6 0.0000 0.0000 0.0000 0.0000 0.0000 8.6567
#
#
#
# Elastic Compliance Matrix: (Units=1/GPa)
#
#
# Indices 1 2 3 4 5 6 
#
# 1 0.027636 -0.011143 -0.013459 0.000000 0.000000 0.000000
# 2 -0.011143 0.028161 -0.009617 0.000000 0.000000 0.000000
# 3 -0.013459 -0.009617 0.045374 0.000000 0.000000 0.000000
# 4 0.000000 0.000000 0.000000 0.062415 0.000000 0.000000
# 5 0.000000 0.000000 0.000000 0.000000 -0.088076 0.000000
# 6 0.000000 0.000000 0.000000 0.000000 0.000000 0.115517
#
#
# Mechanical properties :
#
#
# Convention : Reuss Voigt Hill
#
# Bulk Modulus (GPa) = 30.55139 34.75747 32.65443
# Shear Modulus (GPa) = 18.49276 7.45576 12.97426
#
# Velocity S-wave (km/s) = 3.22256 2.04619 2.69924
# Velocity P-wave (km/s) = 5.56805 5.01011 5.29643
#
# Compressibility (1/GPa) = 0.03273173
#
# Stress axis : x y z
#
# Youngs Moduli (GPa) = 36.18486 35.51022 22.03914
#
# Poissons Ratio (x) = 0.39569 0.29664
# Poissons Ratio (y) = 0.40321 0.21195
# Poissons Ratio (z) = 0.48703 0.34150
#
# Static dielectric constant tensor:
#      x y z
#    x 1.596180 0.000000 0.000000 
#    y 0.000000 1.646190 0.000000 
#    z 0.000000 0.000000 1.608320 
# 
# From -- ./inp_files/11637.got.cif
#   From: 2010.05.17/outbox.cif.g08.bks.cpg/sg47_6_cif.got.tgz:11637.got - 2010.06.03 20:15:42.
