data_PCOD9382494
_publ_section_title
;
Structure prediction by ZEFSAII (Michael W. Deem and Ramdas Pophale) SiO2 
 PCOD9382494
Probable space group: P M M M
;
_chemical_formula_sum "Si O2"
_cell_formula_units_Z 52
_cell_length_a 17.770394
_cell_length_b 7.920777
_cell_length_c 25.483443
_cell_angle_alpha 90.000000
_cell_angle_beta 90.000000
_cell_angle_gamma 90.000000
_cell_volume 3586.930380
_symmetry_space_group_name_H-M "P M M M"
_symmetry_group_IT_number 47
_symmetry_cell_setting 'orthorhombic'
loop_
_space_group_symop_operation_xyz
x,y,z
-x,-y,z
x,-y,-z
-x,y,-z
-x,-y,-z
x,y,-z
-x,y,z
x,-y,z
loop_
_atom_site_type_symbol
_atom_site_label
_atom_site_fract_x
_atom_site_fract_y
_atom_site_fract_z
Si Si1 0.410557 0.000000 0.832491
Si Si2 0.316923 0.687586 0.203870
Si Si3 0.772683 0.307764 0.906991
Si Si4 0.914162 0.295830 0.156195
Si Si5 0.910449 0.690920 0.634006
Si Si6 0.171697 0.198728 0.738318
Si Si7 0.908643 0.000000 0.440124
Si Si8 0.323757 0.000000 0.943135
O O1 0.377061 0.164563 0.803407
O O2 0.377713 0.000000 0.892201
O O3 0.500000 0.000000 0.833370
O O4 0.348546 0.500000 0.211876
O O5 0.270490 0.685961 0.149060
O O6 0.253554 0.728620 0.247053
O O7 0.772169 0.500000 0.928302
O O8 0.857199 0.254069 0.891093
O O9 0.728952 0.165643 0.938831
O O10 0.912200 0.500000 0.160679
O O11 0.880482 0.225643 0.210382
O O12 0.000000 0.242065 0.148301
O O13 0.899622 0.500000 0.614450
O O14 0.866415 0.716219 0.688239
O O15 0.000000 0.713585 0.644345
O O16 0.886947 0.833319 0.592419
O O17 0.178239 0.000000 0.728578
O O18 0.881334 0.000000 0.500000
O O19 0.000000 0.000000 0.442056
O O20 0.362438 0.000000 0.000000
#
# Coordination Sequence:
#
# PCOD9382494 Si02
#       8
#     4   8   8   8   8   8   4   4
#     4  10  20  34  51  72  93 111 138 171 202 246
#     4   9  17  31  48  66  90 118 142 165 199 251
#     4   8  16  30  46  63  84 110 141 172 203 249
#     4   9  17  27  40  61  87 114 142 172 211 260
#     4  10  19  29  41  59  85 116 151 195 241 275
#     4  11  18  26  41  64  92 117 143 177 217 260
#     4   9  18  31  42  53  72 105 157 212 253 285
#     4  10  20  33  50  68  84 107 138 173 217 254
#
# _framework density 14.497077000000001
#
# number of rings (size 3 to 8) (size 9 to 14) (size 15 to 20)
#    0.000    2.538    1.538    2.769    3.231    3.231 
#    0.000    1.538    0.000    0.923    0.000    6.462 
#    0.000    0.000    0.000    0.000    0.000    6.154 
#
# Total GULP energy -289715.457105 kJ/mol
# GULP energy per Si atom -5571.451098 kJ/mol
# Density = 1.446408 g / cm^3
# Si number density = 14.497077 Si / 1000 Ang^3
#
#
#
# Elastic Constant Matrix: (Units=GPa)
#
#
# Indices 1 2 3 4 5 6 
#
# 1 84.9225 42.9528 23.6374 0.0000 0.0000 0.0000
# 2 42.9528 107.0813 34.3159 0.0000 0.0000 0.0000
# 3 23.6374 34.3159 55.1938 0.0000 0.0000 0.0000
# 4 0.0000 0.0000 0.0000 -16.0515 0.0000 0.0000
# 5 0.0000 0.0000 0.0000 0.0000 7.5994 0.0000
# 6 0.0000 0.0000 0.0000 0.0000 0.0000 9.1225
#
#
#
# Elastic Compliance Matrix: (Units=1/GPa)
#
#
# Indices 1 2 3 4 5 6 
#
# 1 0.015270 -0.005032 -0.003411 0.000000 0.000000 0.000000
# 2 -0.005032 0.013321 -0.006127 0.000000 0.000000 0.000000
# 3 -0.003411 -0.006127 0.023388 0.000000 0.000000 0.000000
# 4 0.000000 0.000000 0.000000 -0.062300 0.000000 0.000000
# 5 0.000000 0.000000 0.000000 0.000000 0.131589 0.000000
# 6 0.000000 0.000000 0.000000 0.000000 0.000000 0.109619
#
#
# Mechanical properties :
#
#
# Convention : Reuss Voigt Hill
#
# Bulk Modulus (GPa) = 43.78487 49.88997 46.83742
# Shear Modulus (GPa) = 18.68177 9.88685 14.28431
#
# Velocity S-wave (km/s) = 3.59368 2.61433 3.14239
# Velocity P-wave (km/s) = 6.89112 6.60314 6.74867
#
# Compressibility (1/GPa) = 0.02283894
#
# Stress axis : x y z
#
# Youngs Moduli (GPa) = 65.48787 75.07154 42.75692
#
# Poissons Ratio (x) = 0.37776 0.14584
# Poissons Ratio (y) = 0.32954 0.26197
# Poissons Ratio (z) = 0.22337 0.45995
#
# Static dielectric constant tensor:
#      x y z
#    x 1.461700 0.000000 0.000000 
#    y 0.000000 1.511210 0.000000 
#    z 0.000000 0.000000 1.458250 
# 
# From -- ./inp_files/32691.got.cif
#   From: 2010.05.17/outbox.cif.g08.bks.cpg/sg47_17_cif.got.tgz:32691.got - 2010.06.03 20:15:42.
