data_PCOD9382689
_publ_section_title
;
Structure prediction by ZEFSAII (Michael W. Deem and Ramdas Pophale) SiO2 
 PCOD9382689
Probable space group: P M M M
;
_chemical_formula_sum "Si O2"
_cell_formula_units_Z 52
_cell_length_a 7.625667
_cell_length_b 20.882234
_cell_length_c 16.701462
_cell_angle_alpha 90.000000
_cell_angle_beta 90.000000
_cell_angle_gamma 90.000000
_cell_volume 2659.556887
_symmetry_space_group_name_H-M "P M M M"
_symmetry_group_IT_number 47
_symmetry_cell_setting 'orthorhombic'
loop_
_space_group_symop_operation_xyz
x,y,z
-x,-y,z
x,-y,-z
-x,y,-z
-x,-y,-z
x,y,-z
-x,y,z
x,-y,z
loop_
_atom_site_type_symbol
_atom_site_label
_atom_site_fract_x
_atom_site_fract_y
_atom_site_fract_z
Si Si1 0.202491 0.182236 0.587993
Si Si2 0.288537 0.310846 0.804092
Si Si3 0.286165 0.570215 0.906800
Si Si4 0.786006 0.925431 0.910270
Si Si5 0.791804 0.834083 0.768936
Si Si6 0.790786 0.428489 0.500000
Si Si7 0.294190 0.323080 0.374991
O O1 0.279003 0.163711 0.500000
O O2 0.277971 0.163533 0.676481
O O3 0.204022 0.259684 0.591024
O O4 0.000000 0.160621 0.587311
O O5 0.500000 0.309716 0.810066
O O6 0.223102 0.365194 0.864277
O O7 0.231439 0.236971 0.805947
O O8 0.236904 0.333079 0.715492
O O9 0.500000 0.570682 0.902141
O O10 0.230296 0.500000 0.874595
O O11 0.239095 0.572409 0.000000
O O12 0.722502 0.883882 0.834944
O O13 0.000000 0.922528 0.909827
O O14 0.737640 0.000000 0.901693
O O15 0.730890 0.903866 0.000000
O O16 0.000000 0.844979 0.761353
O O17 0.719261 0.500000 0.500000
O O18 0.734385 0.386402 0.575082
O O19 0.000000 0.431475 0.500000
O O20 0.500000 0.307309 0.375797
#
# Coordination Sequence:
#
# PCOD9382689 Si02
#       7
#     8   8   8   8   8   4   8
#     4   9  16  27  44  62  85 117 146 177 221 273
#     4   9  18  30  45  68  94 116 143 186 233 270
#     4   8  14  26  44  63  83 112 149 182 216 266
#     4   8  14  26  45  68  94 125 159 193 229 270
#     4   9  17  28  44  68  92 116 152 191 226 271
#     4  11  23  35  45  59  83 115 148 183 228 281
#     4  10  19  30  45  64  85 110 144 186 226 266
#
# _framework density 19.552129999999998
#
# number of rings (size 3 to 8) (size 9 to 14) (size 15 to 20)
#    0.000    3.000    0.769    1.615    0.000    2.462 
#    0.000    1.538    0.000    1.385    0.000    5.385 
#    0.000    0.000    0.000    7.692    0.000    8.000 
#
# Total GULP energy -289510.334571 kJ/mol
# GULP energy per Si atom -5567.506434 kJ/mol
# Density = 1.950763 g / cm^3
# Si number density = 19.552130 Si / 1000 Ang^3
#
#
#
# Elastic Constant Matrix: (Units=GPa)
#
#
# Indices 1 2 3 4 5 6 
#
# 1 35.8233 -0.5584 8.7423 0.0000 0.0000 0.0000
# 2 -0.5584 92.0329 88.9364 0.0000 0.0000 0.0000
# 3 8.7423 88.9364 158.8782 0.0000 0.0000 0.0000
# 4 0.0000 0.0000 0.0000 78.8821 0.0000 0.0000
# 5 0.0000 0.0000 0.0000 0.0000 200.8316 0.0000
# 6 0.0000 0.0000 0.0000 0.0000 0.0000 23.5060
#
#
#
# Elastic Compliance Matrix: (Units=1/GPa)
#
#
# Indices 1 2 3 4 5 6 
#
# 1 0.028870 0.003726 -0.003674 0.000000 0.000000 0.000000
# 2 0.003726 0.024150 -0.013724 0.000000 0.000000 0.000000
# 3 -0.003674 -0.013724 0.014179 0.000000 0.000000 0.000000
# 4 0.000000 0.000000 0.000000 0.012677 0.000000 0.000000
# 5 0.000000 0.000000 0.000000 0.000000 0.004979 0.000000
# 6 0.000000 0.000000 0.000000 0.000000 0.000000 0.042542
#
#
# Mechanical properties :
#
#
# Convention : Reuss Voigt Hill
#
# Bulk Modulus (GPa) = 25.09163 53.44166 39.26665
# Shear Modulus (GPa) = 29.75722 73.28489 51.52105
#
# Velocity S-wave (km/s) = 3.90544 6.12888 5.13885
# Velocity P-wave (km/s) = 5.76174 8.80207 7.43889
#
# Compressibility (1/GPa) = 0.03985392
#
# Stress axis : x y z
#
# Youngs Moduli (GPa) = 34.63861 41.40723 70.52893
#
# Poissons Ratio (x) = -0.15427 0.25913
# Poissons Ratio (y) = -0.12905 0.96793
# Poissons Ratio (z) = 0.12727 0.56827
#
# Static dielectric constant tensor:
#      x y z
#    x 1.746590 0.000000 0.000000 
#    y 0.000000 1.659300 0.000000 
#    z 0.000000 0.000000 1.723780 
# 
# From -- ./inp_files/26723.got.cif
#   From: 2010.05.17/outbox.cif.g08.bks.cpg/sg47_14_cif.got.tgz:26723.got - 2010.06.03 20:15:42.
