data_PCOD9382324
_publ_section_title
;
Structure prediction by ZEFSAII (Michael W. Deem and Ramdas Pophale) SiO2 
 PCOD9382324
Probable space group: P M M M
;
_chemical_formula_sum "Si O2"
_cell_formula_units_Z 52
_cell_length_a 22.662174
_cell_length_b 15.230975
_cell_length_c 8.531806
_cell_angle_alpha 90.000000
_cell_angle_beta 90.000000
_cell_angle_gamma 90.000000
_cell_volume 2944.897930
_symmetry_space_group_name_H-M "P M M M"
_symmetry_group_IT_number 47
_symmetry_cell_setting 'orthorhombic'
loop_
_space_group_symop_operation_xyz
x,y,z
-x,-y,z
x,-y,-z
-x,y,-z
-x,-y,-z
x,y,-z
-x,y,z
x,-y,z
loop_
_atom_site_type_symbol
_atom_site_label
_atom_site_fract_x
_atom_site_fract_y
_atom_site_fract_z
Si Si1 0.071115 0.000000 0.177589
Si Si2 0.144724 0.342214 0.186945
Si Si3 0.066915 0.500000 0.687221
Si Si4 0.500000 0.602707 0.311597
Si Si5 0.430713 0.098081 0.809482
Si Si6 0.388378 0.712587 0.809819
Si Si7 0.274884 0.398197 0.191210
Si Si8 0.931511 0.812903 0.313672
O O1 0.085798 0.088384 0.268452
O O2 0.000000 0.000000 0.167905
O O3 0.094432 0.000000 0.000000
O O4 0.102114 0.416101 0.254869
O O5 0.211428 0.360808 0.242147
O O6 0.115218 0.251561 0.236483
O O7 0.145287 0.349188 0.000000
O O8 0.065229 0.500000 0.500000
O O9 0.000000 0.500000 0.746954
O O10 0.500000 0.500000 0.262469
O O11 0.500000 0.605162 0.500000
O O12 0.557008 0.654171 0.248384
O O13 0.500000 0.108143 0.767587
O O14 0.396621 0.185886 0.757416
O O15 0.411378 0.000000 0.756940
O O16 0.428188 0.097224 0.000000
O O17 0.328354 0.664470 0.758428
O O18 0.389516 0.712986 0.000000
O O19 0.281914 0.500000 0.241221
O O20 0.275244 0.398985 0.000000
O O21 0.931005 0.801130 0.500000
O O22 0.000000 0.797090 0.260812
#
# Coordination Sequence:
#
# PCOD9382324 Si02
#       8
#     4   8   4   4   8   8   8   8
#     4   9  17  31  53  81 109 137 173 216 265 322
#     4  11  21  35  54  75 105 141 177 219 271 324
#     4  11  23  37  53  77 107 136 175 226 269 317
#     4  11  23  35  46  71 112 140 163 215 274 313
#     4   8  13  23  44  78 110 129 157 208 259 301
#     4  10  18  32  57  79  98 135 182 217 255 309
#     4   9  18  33  52  75 101 132 174 225 265 305
#     4  10  20  34  53  79 109 139 173 217 268 320
#
# _framework density 17.657658000000001
#
# number of rings (size 3 to 8) (size 9 to 14) (size 15 to 20)
#    0.000    2.231    1.538    3.000    0.000    5.538 
#    0.000    1.538    1.692    0.923    0.000    0.000 
#    0.000    0.000    0.000    0.000    0.000    0.000 
#
# Total GULP energy -289990.415823 kJ/mol
# GULP energy per Si atom -5576.738766 kJ/mol
# Density = 1.761747 g / cm^3
# Si number density = 17.657658 Si / 1000 Ang^3
#
#
#
# Elastic Constant Matrix: (Units=GPa)
#
#
# Indices 1 2 3 4 5 6 
#
# 1 149.0693 95.2407 19.8926 0.0000 0.0000 0.0000
# 2 95.2407 175.7378 13.0488 0.0000 0.0000 0.0000
# 3 19.8926 13.0488 19.6332 0.0000 0.0000 0.0000
# 4 0.0000 0.0000 0.0000 24.2297 0.0000 0.0000
# 5 0.0000 0.0000 0.0000 0.0000 -27.7000 0.0000
# 6 0.0000 0.0000 0.0000 0.0000 0.0000 53.6389
#
#
#
# Elastic Compliance Matrix: (Units=1/GPa)
#
#
# Indices 1 2 3 4 5 6 
#
# 1 0.011281 -0.005538 -0.007749 0.000000 0.000000 0.000000
# 2 -0.005538 0.008705 -0.000174 0.000000 0.000000 0.000000
# 3 -0.007749 -0.000174 0.058901 0.000000 0.000000 0.000000
# 4 0.000000 0.000000 0.000000 0.041272 0.000000 0.000000
# 5 0.000000 0.000000 0.000000 0.000000 -0.036101 0.000000
# 6 0.000000 0.000000 0.000000 0.000000 0.000000 0.018643
#
#
# Mechanical properties :
#
#
# Convention : Reuss Voigt Hill
#
# Bulk Modulus (GPa) = 19.24402 66.75607 43.00005
# Shear Modulus (GPa) = 34.02665 24.45094 29.23879
#
# Velocity S-wave (km/s) = 4.39455 3.72522 4.07365
# Velocity P-wave (km/s) = 6.05569 7.50938 6.82137
#
# Compressibility (1/GPa) = 0.05196418
#
# Stress axis : x y z
#
# Youngs Moduli (GPa) = 88.64692 114.88151 16.97763
#
# Poissons Ratio (x) = 0.63624 0.13156
# Poissons Ratio (y) = 0.49094 0.00295
# Poissons Ratio (z) = 0.68692 0.01999
#
# Static dielectric constant tensor:
#      x y z
#    x 1.585070 0.000000 0.000000 
#    y 0.000000 1.626750 0.000000 
#    z 0.000000 0.000000 1.599980 
# 
# From -- ./inp_files/11178.got.cif
#   From: 2010.05.17/outbox.cif.g08.bks.cpg/sg47_6_cif.got.tgz:11178.got - 2010.06.03 20:15:42.
