data_PCOD9382370
_publ_section_title
;
Structure prediction by ZEFSAII (Michael W. Deem and Ramdas Pophale) SiO2 
 PCOD9382370
Probable space group: P M M M
;
_chemical_formula_sum "Si O2"
_cell_formula_units_Z 52
_cell_length_a 13.971300
_cell_length_b 7.728119
_cell_length_c 23.564755
_cell_angle_alpha 90.000000
_cell_angle_beta 90.000000
_cell_angle_gamma 90.000000
_cell_volume 2544.330640
_symmetry_space_group_name_H-M "P M M M"
_symmetry_group_IT_number 47
_symmetry_cell_setting 'orthorhombic'
loop_
_space_group_symop_operation_xyz
x,y,z
-x,-y,z
x,-y,-z
-x,y,-z
-x,-y,-z
x,y,-z
-x,y,z
x,-y,z
loop_
_atom_site_type_symbol
_atom_site_label
_atom_site_fract_x
_atom_site_fract_y
_atom_site_fract_z
Si Si1 0.104346 0.701851 0.113651
Si Si2 0.107945 0.795078 0.245178
Si Si3 0.500000 0.792844 0.064230
Si Si4 0.389625 0.287282 0.751073
Si Si5 0.106506 0.793363 0.435828
Si Si6 0.252755 0.693965 0.660361
Si Si7 0.307133 0.293561 0.869821
O O1 0.102117 0.500000 0.096551
O O2 0.107113 0.717248 0.182213
O O3 0.210050 0.775784 0.100270
O O4 0.000000 0.777302 0.096105
O O5 0.178106 0.700163 0.287456
O O6 0.000000 0.781620 0.267702
O O7 0.130886 0.000000 0.242145
O O8 0.403775 0.735406 0.095597
O O9 0.500000 0.000000 0.063748
O O10 0.500000 0.727313 0.000000
O O11 0.500000 0.237720 0.758313
O O12 0.386178 0.500000 0.751063
O O13 0.344656 0.223985 0.691671
O O14 0.328785 0.227704 0.805962
O O15 0.124371 0.728585 0.500000
O O16 0.192705 0.761366 0.392637
O O17 0.000000 0.728970 0.417774
O O18 0.099080 0.000000 0.438883
O O19 0.280373 0.500000 0.645173
O O20 0.292636 0.500000 0.864849
#
# Coordination Sequence:
#
# PCOD9382370 Si02
#       7
#     8   8   4   8   8   8   8
#     4   9  17  30  49  76 110 142 173 215 266 317
#     4  10  19  28  40  64 101 140 172 200 239 302
#     4  11  25  41  57  83 115 143 180 235 284 315
#     4   9  17  31  50  74 104 136 168 210 263 317
#     4   9  19  36  54  71  97 135 174 213 262 319
#     4  11  20  30  48  73  99 130 170 216 265 310
#     4  10  18  34  59  82 108 146 187 222 267 329
#
# _framework density 20.437595000000002
#
# number of rings (size 3 to 8) (size 9 to 14) (size 15 to 20)
#    0.000    2.231    2.308    2.077    0.000    4.615 
#    0.000    0.769    0.000    0.923    0.000    6.462 
#    0.000    0.000    0.000    0.000    0.000    0.000 
#
# Total GULP energy -289728.185218 kJ/mol
# GULP energy per Si atom -5571.695870 kJ/mol
# Density = 2.039108 g / cm^3
# Si number density = 20.437595 Si / 1000 Ang^3
#
#
#
# Elastic Constant Matrix: (Units=GPa)
#
#
# Indices 1 2 3 4 5 6 
#
# 1 171.2724 3.9304 34.6659 0.0000 0.0000 0.0000
# 2 3.9304 34.1843 -3.3420 0.0000 0.0000 0.0000
# 3 34.6659 -3.3420 60.4717 0.0000 0.0000 0.0000
# 4 0.0000 0.0000 0.0000 17.7075 0.0000 0.0000
# 5 0.0000 0.0000 0.0000 0.0000 6.1686 0.0000
# 6 0.0000 0.0000 0.0000 0.0000 0.0000 29.7806
#
#
#
# Elastic Compliance Matrix: (Units=1/GPa)
#
#
# Indices 1 2 3 4 5 6 
#
# 1 0.006649 -0.001143 -0.003875 0.000000 0.000000 0.000000
# 2 -0.001143 0.029609 0.002292 0.000000 0.000000 0.000000
# 3 -0.003875 0.002292 0.018885 0.000000 0.000000 0.000000
# 4 0.000000 0.000000 0.000000 0.056473 0.000000 0.000000
# 5 0.000000 0.000000 0.000000 0.000000 0.162112 0.000000
# 6 0.000000 0.000000 0.000000 0.000000 0.000000 0.033579
#
#
# Mechanical properties :
#
#
# Convention : Reuss Voigt Hill
#
# Bulk Modulus (GPa) = 20.12493 37.38189 28.75341
# Shear Modulus (GPa) = 15.18269 26.10961 20.64615
#
# Velocity S-wave (km/s) = 2.72854 3.57813 3.18182
# Velocity P-wave (km/s) = 4.44915 5.94989 5.25339
#
# Compressibility (1/GPa) = 0.04968961
#
# Stress axis : x y z
#
# Youngs Moduli (GPa) = 150.39464 33.77387 52.95316
#
# Poissons Ratio (x) = 0.03861 0.20519
# Poissons Ratio (y) = 0.17195 -0.12136
# Poissons Ratio (z) = 0.58276 -0.07740
#
# Static dielectric constant tensor:
#      x y z
#    x 1.814460 0.000000 0.000000 
#    y 0.000000 1.759600 0.000000 
#    z 0.000000 0.000000 1.715030 
# 
# From -- ./inp_files/30833.got.cif
#   From: 2010.05.17/outbox.cif.g08.bks.cpg/sg47_16_cif.got.tgz:30833.got - 2010.06.03 20:15:42.
