data_PCOD9382334
_publ_section_title
;
Structure prediction by ZEFSAII (Michael W. Deem and Ramdas Pophale) SiO2 
 PCOD9382334
Probable space group: P M M M
;
_chemical_formula_sum "Si O2"
_cell_formula_units_Z 52
_cell_length_a 7.596735
_cell_length_b 15.554603
_cell_length_c 20.873839
_cell_angle_alpha 90.000000
_cell_angle_beta 90.000000
_cell_angle_gamma 90.000000
_cell_volume 2466.540424
_symmetry_space_group_name_H-M "P M M M"
_symmetry_group_IT_number 47
_symmetry_cell_setting 'orthorhombic'
loop_
_space_group_symop_operation_xyz
x,y,z
-x,-y,z
x,-y,-z
-x,y,-z
-x,-y,-z
x,y,-z
-x,y,z
x,-y,z
loop_
_atom_site_type_symbol
_atom_site_label
_atom_site_fract_x
_atom_site_fract_y
_atom_site_fract_z
Si Si1 0.285004 0.402771 0.573571
Si Si2 0.707232 0.272575 0.319471
Si Si3 0.215042 0.655437 0.072095
Si Si4 0.799418 0.828128 0.136780
Si Si5 0.299866 0.000000 0.075245
Si Si6 0.788102 0.592876 0.790359
Si Si7 0.208252 0.097614 0.267417
O O1 0.234011 0.385746 0.500000
O O2 0.500000 0.402536 0.575307
O O3 0.229377 0.500000 0.590460
O O4 0.219983 0.332479 0.623793
O O5 0.500000 0.265714 0.328524
O O6 0.736280 0.326909 0.253897
O O7 0.773987 0.174679 0.317971
O O8 0.272598 0.751621 0.093134
O O9 0.267607 0.602327 0.135286
O O10 0.000000 0.651762 0.069099
O O11 0.275906 0.633315 0.000000
O O12 0.797513 0.915203 0.097347
O O13 0.713303 0.858030 0.203383
O O14 0.000000 0.800180 0.151781
O O15 0.500000 0.000000 0.101423
O O16 0.310649 0.000000 0.000000
O O17 0.725244 0.500000 0.765176
O O18 0.000000 0.592282 0.790145
O O19 0.000000 0.087616 0.255540
O O20 0.275125 0.000000 0.279340
#
# Coordination Sequence:
#
# PCOD9382334 Si02
#       7
#     8   8   8   8   4   8   8
#     4   8  15  30  53  82 115 147 177 209 249 301
#     4  11  21  33  55  84 112 139 171 218 267 315
#     4   9  17  30  49  71  93 122 168 222 265 304
#     4  10  18  33  53  68  88 125 174 220 259 313
#     4  11  23  33  43  67 101 127 154 207 278 339
#     4  10  20  34  52  74 104 141 178 218 264 315
#     4  10  20  36  56  76 102 138 178 219 264 315
#
# _framework density 21.082160999999999
#
# number of rings (size 3 to 8) (size 9 to 14) (size 15 to 20)
#    0.000    2.231    2.308    2.077    0.000    3.385 
#    0.000    1.538    0.000    2.769    0.000    9.692 
#    0.000    0.000    0.000    0.000    0.000    0.000 
#
# Total GULP energy -289909.882931 kJ/mol
# GULP energy per Si atom -5575.190056 kJ/mol
# Density = 2.103418 g / cm^3
# Si number density = 21.082161 Si / 1000 Ang^3
#
#
#
# Elastic Constant Matrix: (Units=GPa)
#
#
# Indices 1 2 3 4 5 6 
#
# 1 47.7068 -0.8616 -1.1654 0.0000 0.0000 0.0000
# 2 -0.8616 141.6371 56.0952 0.0000 0.0000 0.0000
# 3 -1.1654 56.0952 104.4256 0.0000 0.0000 0.0000
# 4 0.0000 0.0000 0.0000 30.1596 0.0000 0.0000
# 5 0.0000 0.0000 0.0000 0.0000 10.3389 0.0000
# 6 0.0000 0.0000 0.0000 0.0000 0.0000 6.4828
#
#
#
# Elastic Compliance Matrix: (Units=1/GPa)
#
#
# Indices 1 2 3 4 5 6 
#
# 1 0.020967 0.000044 0.000210 0.000000 0.000000 0.000000
# 2 0.000044 0.008968 -0.004817 0.000000 0.000000 0.000000
# 3 0.000210 -0.004817 0.012166 0.000000 0.000000 0.000000
# 4 0.000000 0.000000 0.000000 0.033157 0.000000 0.000000
# 5 0.000000 0.000000 0.000000 0.000000 0.096722 0.000000
# 6 0.000000 0.000000 0.000000 0.000000 0.000000 0.154254
#
#
# Mechanical properties :
#
#
# Convention : Reuss Voigt Hill
#
# Bulk Modulus (GPa) = 30.32453 44.65621 37.49037
# Shear Modulus (GPa) = 14.43616 25.37635 19.90625
#
# Velocity S-wave (km/s) = 2.61963 3.47318 3.07615
# Velocity P-wave (km/s) = 4.85439 6.10835 5.51711
#
# Compressibility (1/GPa) = 0.03297661
#
# Stress axis : x y z
#
# Youngs Moduli (GPa) = 47.69334 111.50279 82.19491
#
# Poissons Ratio (x) = -0.00494 -0.01728
# Poissons Ratio (y) = -0.00211 0.39594
# Poissons Ratio (z) = -0.01003 0.53712
#
# Static dielectric constant tensor:
#      x y z
#    x 1.830530 0.000000 0.000000 
#    y 0.000000 1.774650 0.000000 
#    z 0.000000 0.000000 1.771430 
# 
# From -- ./inp_files/29704.got.cif
#   From: 2010.05.17/outbox.cif.g08.bks.cpg/sg47_15_cif.got.tgz:29704.got - 2010.06.03 20:15:42.
