data_PCOD9382773
_publ_section_title
;
Structure prediction by ZEFSAII (Michael W. Deem and Ramdas Pophale) SiO2 
 PCOD9382773
Probable space group: P M M M
;
_chemical_formula_sum "Si O2"
_cell_formula_units_Z 48
_cell_length_a 7.476913
_cell_length_b 9.446436
_cell_length_c 36.341698
_cell_angle_alpha 90.000000
_cell_angle_beta 90.000000
_cell_angle_gamma 90.000000
_cell_volume 2566.820676
_symmetry_space_group_name_H-M "P M M M"
_symmetry_group_IT_number 47
_symmetry_cell_setting 'orthorhombic'
loop_
_space_group_symop_operation_xyz
x,y,z
-x,-y,z
x,-y,-z
-x,y,-z
-x,-y,-z
x,y,-z
-x,y,z
x,-y,z
loop_
_atom_site_type_symbol
_atom_site_label
_atom_site_fract_x
_atom_site_fract_y
_atom_site_fract_z
Si Si1 0.500000 0.828219 0.400408
Si Si2 0.782023 0.336131 0.040988
Si Si3 0.794461 0.828083 0.459011
Si Si4 0.795853 0.327877 0.264213
Si Si5 0.781653 0.663095 0.816942
Si Si6 0.500000 0.328759 0.676943
Si Si7 0.218828 0.162356 0.888069
O O1 0.669338 0.785808 0.425533
O O2 0.500000 0.751040 0.361558
O O3 0.500000 0.000000 0.395955
O O4 0.729571 0.500000 0.046037
O O5 0.721764 0.241625 0.074944
O O6 0.000000 0.333755 0.041162
O O7 0.725736 0.290084 0.000000
O O8 0.734142 0.782681 0.500000
O O9 0.000000 0.784330 0.454164
O O10 0.790885 0.000000 0.459536
O O11 0.797511 0.500000 0.262522
O O12 0.728555 0.283978 0.223662
O O13 0.670093 0.289038 0.297889
O O14 0.000000 0.280088 0.269305
O O15 0.724996 0.500000 0.821730
O O16 0.723612 0.756287 0.851301
O O17 0.000000 0.662312 0.816378
O O18 0.500000 0.500000 0.671898
O O19 0.000000 0.165224 0.888111
O O20 0.274624 0.000000 0.887798
#
# Coordination Sequence:
#
# PCOD9382773 Si02
#       7
#     4   8   8   8   8   4   8
#     4  10  19  30  46  70  98 124 154 195 239 280
#     4   8  13  20  28  38  57  91 133 170 204 248
#     4   8  14  26  46  71  96 124 161 202 239 275
#     4   8  15  29  48  67  86 113 152 193 229 270
#     4   8  13  23  39  54  68  92 129 171 212 254
#     4  10  20  33  49  69  94 126 161 193 230 280
#     4   9  15  20  28  46  70  93 122 164 213 263
#
# _framework density 18.700178000000001
#
# number of rings (size 3 to 8) (size 9 to 14) (size 15 to 20)
#    0.000    3.500    0.000    2.750    0.000    4.000 
#    0.000    2.500    0.000    2.000    0.000    1.167 
#    0.000    0.000    0.000    0.750    0.000   19.000 
#
# Total GULP energy -267526.721499 kJ/mol
# GULP energy per Si atom -5573.473365 kJ/mol
# Density = 1.865762 g / cm^3
# Si number density = 18.700178 Si / 1000 Ang^3
#
#
#
# Elastic Constant Matrix: (Units=GPa)
#
#
# Indices 1 2 3 4 5 6 
#
# 1 73.4526 23.9755 68.4892 0.0000 0.0000 0.0000
# 2 23.9755 54.6282 82.3427 0.0000 0.0000 0.0000
# 3 68.4892 82.3427 240.2424 0.0000 0.0000 0.0000
# 4 0.0000 0.0000 0.0000 82.5695 0.0000 0.0000
# 5 0.0000 0.0000 0.0000 0.0000 -79.0999 0.0000
# 6 0.0000 0.0000 0.0000 0.0000 0.0000 0.7033
#
#
#
# Elastic Compliance Matrix: (Units=1/GPa)
#
#
# Indices 1 2 3 4 5 6 
#
# 1 0.018547 -0.000352 -0.005167 0.000000 0.000000 0.000000
# 2 -0.000352 0.037878 -0.012882 0.000000 0.000000 0.000000
# 3 -0.005167 -0.012882 0.010051 0.000000 0.000000 0.000000
# 4 0.000000 0.000000 0.000000 0.012111 0.000000 0.000000
# 5 0.000000 0.000000 0.000000 0.000000 -0.012642 0.000000
# 6 0.000000 0.000000 0.000000 0.000000 0.000000 1.421896
#
#
# Mechanical properties :
#
#
# Convention : Reuss Voigt Hill
#
# Bulk Modulus (GPa) = 33.70005 79.77087 56.73546
# Shear Modulus (GPa) = 3.25832 13.73562 8.49697
#
# Velocity S-wave (km/s) = 1.32143 2.71314 2.13393
# Velocity P-wave (km/s) = 4.51537 7.25019 6.03961
#
# Compressibility (1/GPa) = 0.02967355
#
# Stress axis : x y z
#
# Youngs Moduli (GPa) = 53.91791 26.40076 99.49474
#
# Poissons Ratio (x) = 0.00929 0.51407
# Poissons Ratio (y) = 0.01897 1.28171
# Poissons Ratio (z) = 0.27858 0.34010
#
# Static dielectric constant tensor:
#      x y z
#    x 1.740310 0.000000 0.000000 
#    y 0.000000 1.616750 0.000000 
#    z 0.000000 0.000000 1.630450 
# 
# From -- ./inp_files/34138.got.cif
#   From: 2010.05.17/outbox.cif.g08.bks.cpg/sg47_18_cif.got.tgz:34138.got - 2010.06.03 20:15:42.
