data_PCOD9382872
_publ_section_title
;
Structure prediction by ZEFSAII (Michael W. Deem and Ramdas Pophale) SiO2 
 PCOD9382872
Probable space group: P M M M
;
_chemical_formula_sum "Si O2"
_cell_formula_units_Z 60
_cell_length_a 19.342238
_cell_length_b 21.262225
_cell_length_c 8.925384
_cell_angle_alpha 90.000000
_cell_angle_beta 90.000000
_cell_angle_gamma 90.000000
_cell_volume 3670.644644
_symmetry_space_group_name_H-M "P M M M"
_symmetry_group_IT_number 47
_symmetry_cell_setting 'orthorhombic'
loop_
_space_group_symop_operation_xyz
x,y,z
-x,-y,z
x,-y,-z
-x,y,-z
-x,-y,-z
x,y,-z
-x,y,z
x,-y,z
loop_
_atom_site_type_symbol
_atom_site_label
_atom_site_fract_x
_atom_site_fract_y
_atom_site_fract_z
Si Si1 0.579772 0.246589 0.679002
Si Si2 0.920555 0.862348 0.176749
Si Si3 0.706934 0.817396 0.177903
Si Si4 0.921144 0.723771 0.679107
Si Si5 0.207188 0.928117 0.320990
Si Si6 0.581520 0.500000 0.820085
Si Si7 0.783766 0.685404 0.178957
Si Si8 0.654272 0.621213 0.678939
O O1 0.585782 0.236572 0.500000
O O2 0.500000 0.240247 0.722305
O O3 0.631006 0.199850 0.763693
O O4 0.606923 0.317272 0.708871
O O5 0.914529 0.794267 0.254747
O O6 0.866291 0.909185 0.250046
O O7 0.000000 0.883346 0.193423
O O8 0.905604 0.854895 0.000000
O O9 0.738784 0.877729 0.257760
O O10 0.753705 0.755590 0.211874
O O11 0.707521 0.826214 0.000000
O O12 0.912391 0.725869 0.500000
O O13 0.860340 0.683243 0.752786
O O14 0.000000 0.702767 0.711897
O O15 0.203218 0.922433 0.500000
O O16 0.224827 0.000000 0.282723
O O17 0.500000 0.500000 0.779882
O O18 0.618928 0.561210 0.753508
O O19 0.586747 0.500000 0.000000
O O20 0.729245 0.637658 0.252694
O O21 0.785008 0.677601 0.000000
O O22 0.659290 0.613095 0.500000
#
# Coordination Sequence:
#
# PCOD9382872 Si02
#       8
#     8   8   8   8   8   4   8   8
#     4   9  18  33  54  79 105 133 166 206 251 300
#     4  10  20  33  49  70  97 130 167 208 256 308
#     4  10  20  33  51  74  99 129 163 206 257 307
#     4  10  19  30  48  74 103 136 172 213 261 309
#     4  11  23  36  51  70  94 128 169 211 256 310
#     4  11  23  37  53  77 114 153 184 217 257 301
#     4  10  19  32  51  76 105 136 173 216 262 308
#     4  10  20  34  54  79 108 144 182 216 250 297
#
# _framework density 16.345903
#
# number of rings (size 3 to 8) (size 9 to 14) (size 15 to 20)
#    0.000    1.933    1.333    3.000    0.000    5.867 
#    0.000    1.333    0.000    0.400    0.000    3.267 
#    0.000    3.733    0.000    0.000    0.000    0.000 
#
# Total GULP energy -334958.459035 kJ/mol
# GULP energy per Si atom -5582.640984 kJ/mol
# Density = 1.630870 g / cm^3
# Si number density = 16.345903 Si / 1000 Ang^3
#
#
#
# Elastic Constant Matrix: (Units=GPa)
#
#
# Indices 1 2 3 4 5 6 
#
# 1 142.9266 68.5875 69.5604 0.0000 0.0000 0.0000
# 2 68.5875 94.4832 57.0389 0.0000 0.0000 0.0000
# 3 69.5604 57.0389 73.3485 0.0000 0.0000 0.0000
# 4 0.0000 0.0000 0.0000 21.1959 0.0000 0.0000
# 5 0.0000 0.0000 0.0000 0.0000 30.9632 0.0000
# 6 0.0000 0.0000 0.0000 0.0000 0.0000 23.1471
#
#
#
# Elastic Compliance Matrix: (Units=1/GPa)
#
#
# Indices 1 2 3 4 5 6 
#
# 1 0.013742 -0.003974 -0.009943 0.000000 0.000000 0.000000
# 2 -0.003974 0.021098 -0.012638 0.000000 0.000000 0.000000
# 3 -0.009943 -0.012638 0.032891 0.000000 0.000000 0.000000
# 4 0.000000 0.000000 0.000000 0.047179 0.000000 0.000000
# 5 0.000000 0.000000 0.000000 0.000000 0.032296 0.000000
# 6 0.000000 0.000000 0.000000 0.000000 0.000000 0.043202
#
#
# Mechanical properties :
#
#
# Convention : Reuss Voigt Hill
#
# Bulk Modulus (GPa) = 68.38970 77.90354 73.14662
# Shear Modulus (GPa) = 20.12950 22.76603 21.44776
#
# Velocity S-wave (km/s) = 3.51304 3.73603 3.62625
# Velocity P-wave (km/s) = 7.64102 8.14699 7.89805
#
# Compressibility (1/GPa) = 0.01462209
#
# Stress axis : x y z
#
# Youngs Moduli (GPa) = 72.76770 47.39752 30.40367
#
# Poissons Ratio (x) = 0.18834 0.30229
# Poissons Ratio (y) = 0.28915 0.38425
# Poissons Ratio (z) = 0.72350 0.59903
#
# Static dielectric constant tensor:
#      x y z
#    x 1.552270 0.000000 0.000000 
#    y 0.000000 1.519470 0.000000 
#    z 0.000000 0.000000 1.541840 
# 
# From -- ./inp_files/10066.got.cif
#   From: 2010.05.17/outbox.cif.g08.bks.cpg/sg47_6_cif.got.tgz:10066.got - 2010.06.03 20:15:42.
