data_PCOD9382346
_publ_section_title
;
Structure prediction by ZEFSAII (Michael W. Deem and Ramdas Pophale) SiO2 
 PCOD9382346
Probable space group: P M M M
;
_chemical_formula_sum "Si O2"
_cell_formula_units_Z 56
_cell_length_a 8.939633
_cell_length_b 23.360816
_cell_length_c 15.049990
_cell_angle_alpha 90.000000
_cell_angle_beta 90.000000
_cell_angle_gamma 90.000000
_cell_volume 3142.996592
_symmetry_space_group_name_H-M "P M M M"
_symmetry_group_IT_number 47
_symmetry_cell_setting 'orthorhombic'
loop_
_space_group_symop_operation_xyz
x,y,z
-x,-y,z
x,-y,-z
-x,y,-z
-x,-y,-z
x,y,-z
-x,y,z
x,-y,z
loop_
_atom_site_type_symbol
_atom_site_label
_atom_site_fract_x
_atom_site_fract_y
_atom_site_fract_z
Si Si1 0.332894 0.931143 0.500000
Si Si2 0.319431 0.610302 0.286522
Si Si3 0.178257 0.065450 0.315158
Si Si4 0.177245 0.622125 0.098956
Si Si5 0.317733 0.275887 0.603518
Si Si6 0.317806 0.500000 0.600975
Si Si7 0.672176 0.743009 0.901818
Si Si8 0.677329 0.823654 0.265349
O O1 0.500000 0.905950 0.500000
O O2 0.243450 0.917831 0.588498
O O3 0.346341 0.000000 0.500000
O O4 0.500000 0.611961 0.281300
O O5 0.256401 0.600176 0.187868
O O6 0.272355 0.669835 0.334877
O O7 0.273027 0.557336 0.348052
O O8 0.240531 0.116138 0.255377
O O9 0.000000 0.065631 0.317281
O O10 0.227141 0.000000 0.294659
O O11 0.217839 0.689471 0.101317
O O12 0.000000 0.613239 0.105040
O O13 0.226721 0.601465 0.000000
O O14 0.270146 0.280016 0.500000
O O15 0.500000 0.276370 0.603186
O O16 0.271981 0.217058 0.652712
O O17 0.500000 0.500000 0.599162
O O18 0.264661 0.500000 0.500000
O O19 0.500000 0.721273 0.891296
O O20 0.699063 0.786345 0.822818
O O21 0.682409 0.769445 0.000000
O O22 0.500000 0.834286 0.277003
#
# Coordination Sequence:
#
# PCOD9382346 Si02
#       8
#     4   8   8   8   8   4   8   8
#     4   9  17  31  51  71  91 125 173 216 251 296
#     4  10  18  33  55  79 107 140 177 217 261 307
#     4  10  21  35  49  68  99 137 173 212 258 306
#     4  10  20  33  51  76 105 138 175 216 265 318
#     4   9  17  29  47  74 107 137 166 206 255 304
#     4   9  18  32  56  87 110 136 181 227 260 301
#     4   9  17  32  54  79 105 132 168 216 267 317
#     4  10  19  31  50  77 102 131 172 211 258 315
#
# _framework density 17.817391000000001
#
# number of rings (size 3 to 8) (size 9 to 14) (size 15 to 20)
#    0.000    2.429    1.429    1.500    1.000    4.857 
#    0.000    0.714    0.000    5.571    0.000    3.000 
#    0.000    0.000    0.000    0.000    0.000    0.000 
#
# Total GULP energy -312044.226051 kJ/mol
# GULP energy per Si atom -5572.218322 kJ/mol
# Density = 1.777684 g / cm^3
# Si number density = 17.817391 Si / 1000 Ang^3
#
#
#
# Elastic Constant Matrix: (Units=GPa)
#
#
# Indices 1 2 3 4 5 6 
#
# 1 19.8149 19.4258 25.6095 0.0000 0.0000 0.0000
# 2 19.4258 87.2253 42.1219 0.0000 0.0000 0.0000
# 3 25.6095 42.1219 127.2111 0.0000 0.0000 0.0000
# 4 0.0000 0.0000 0.0000 4.1156 0.0000 0.0000
# 5 0.0000 0.0000 0.0000 0.0000 14.5213 0.0000
# 6 0.0000 0.0000 0.0000 0.0000 0.0000 6.6102
#
#
#
# Elastic Compliance Matrix: (Units=1/GPa)
#
#
# Indices 1 2 3 4 5 6 
#
# 1 0.076780 -0.011469 -0.011659 0.000000 0.000000 0.000000
# 2 -0.011469 0.015360 -0.002777 0.000000 0.000000 0.000000
# 3 -0.011659 -0.002777 0.011128 0.000000 0.000000 0.000000
# 4 0.000000 0.000000 0.000000 0.242976 0.000000 0.000000
# 5 0.000000 0.000000 0.000000 0.000000 0.068864 0.000000
# 6 0.000000 0.000000 0.000000 0.000000 0.000000 0.151281
#
#
# Mechanical properties :
#
#
# Convention : Reuss Voigt Hill
#
# Bulk Modulus (GPa) = 19.43384 45.39620 32.41502
# Shear Modulus (GPa) = 7.86965 14.85570 11.36267
#
# Velocity S-wave (km/s) = 2.10391 2.89065 2.52807
# Velocity P-wave (km/s) = 4.10278 6.05599 5.17242
#
# Compressibility (1/GPa) = 0.05145664
#
# Stress axis : x y z
#
# Youngs Moduli (GPa) = 13.02419 65.10449 89.86611
#
# Poissons Ratio (x) = 0.74670 1.04778
# Poissons Ratio (y) = 0.14938 0.24956
# Poissons Ratio (z) = 0.15185 0.18080
#
# Static dielectric constant tensor:
#      x y z
#    x 1.607140 0.000000 0.000000 
#    y 0.000000 1.615560 0.000000 
#    z 0.000000 0.000000 1.633470 
# 
# From -- ./inp_files/21646.got.cif
#   From: 2010.05.17/outbox.cif.g08.bks.cpg/sg47_11_cif.got.tgz:21646.got - 2010.06.03 20:15:42.
