data_PCOD9382814
_publ_section_title
;
Structure prediction by ZEFSAII (Michael W. Deem and Ramdas Pophale) SiO2 
 PCOD9382814
Probable space group: P M M M
;
_chemical_formula_sum "Si O2"
_cell_formula_units_Z 56
_cell_length_a 19.200732
_cell_length_b 19.743754
_cell_length_c 8.569463
_cell_angle_alpha 90.000000
_cell_angle_beta 90.000000
_cell_angle_gamma 90.000000
_cell_volume 3248.636542
_symmetry_space_group_name_H-M "P M M M"
_symmetry_group_IT_number 47
_symmetry_cell_setting 'orthorhombic'
loop_
_space_group_symop_operation_xyz
x,y,z
-x,-y,z
x,-y,-z
-x,y,-z
-x,-y,-z
x,y,-z
-x,y,z
x,-y,z
loop_
_atom_site_type_symbol
_atom_site_label
_atom_site_fract_x
_atom_site_fract_y
_atom_site_fract_z
Si Si1 0.577955 0.656627 0.688523
Si Si2 0.842836 0.075591 0.187789
Si Si3 0.655738 0.215935 0.814743
Si Si4 0.079273 0.211469 0.811344
Si Si5 0.208360 0.709630 0.687247
Si Si6 0.314131 0.075735 0.313648
Si Si7 0.285912 0.576182 0.309939
O O1 0.578915 0.657188 0.500000
O O2 0.500000 0.639288 0.740377
O O3 0.600795 0.730731 0.746090
O O4 0.638371 0.604662 0.739270
O O5 0.892487 0.137025 0.235354
O O6 0.766856 0.082337 0.263833
O O7 0.869800 0.000000 0.224308
O O8 0.833734 0.079621 0.000000
O O9 0.731067 0.241748 0.753650
O O10 0.646078 0.139007 0.759918
O O11 0.655280 0.219437 0.000000
O O12 0.134209 0.265395 0.746955
O O13 0.000000 0.221907 0.759414
O O14 0.080549 0.214045 0.000000
O O15 0.210992 0.713600 0.500000
O O16 0.230145 0.633491 0.735577
O O17 0.318629 0.079959 0.500000
O O18 0.336733 0.000000 0.264331
O O19 0.286109 0.574617 0.500000
O O20 0.273200 0.500000 0.254350
#
# Coordination Sequence:
#
# PCOD9382814 Si02
#       7
#     8   8   8   8   8   8   8
#     4   9  18  32  51  77 107 136 164 195 236 288
#     4   9  17  29  45  66  94 128 164 202 248 300
#     4  11  20  31  50  72  98 133 170 206 245 290
#     4  10  20  32  47  69  98 133 169 207 254 303
#     4  10  19  32  51  73  97 127 166 208 250 294
#     4  10  19  30  47  71  97 125 162 211 259 297
#     4   8  15  29  51  79 105 128 159 201 245 288
#
# _framework density 17.238002000000002
#
# number of rings (size 3 to 8) (size 9 to 14) (size 15 to 20)
#    0.000    2.429    1.429    3.000    0.000    2.000 
#    0.000    2.857    0.000   11.571    0.000   13.000 
#    0.000    0.000    0.000    0.000    0.000    0.000 
#
# Total GULP energy -312256.783993 kJ/mol
# GULP energy per Si atom -5576.014000 kJ/mol
# Density = 1.719877 g / cm^3
# Si number density = 17.238002 Si / 1000 Ang^3
#
#
#
# Elastic Constant Matrix: (Units=GPa)
#
#
# Indices 1 2 3 4 5 6 
#
# 1 53.7837 39.0979 7.7421 0.0000 0.0000 0.0000
# 2 39.0979 140.7240 14.0808 0.0000 0.0000 0.0000
# 3 7.7421 14.0808 14.9973 0.0000 0.0000 0.0000
# 4 0.0000 0.0000 0.0000 9.2214 0.0000 0.0000
# 5 0.0000 0.0000 0.0000 0.0000 22.1550 0.0000
# 6 0.0000 0.0000 0.0000 0.0000 0.0000 14.0821
#
#
#
# Elastic Compliance Matrix: (Units=1/GPa)
#
#
# Indices 1 2 3 4 5 6 
#
# 1 0.023900 -0.005966 -0.006736 0.000000 0.000000 0.000000
# 2 -0.005966 0.009332 -0.005682 0.000000 0.000000 0.000000
# 3 -0.006736 -0.005682 0.075491 0.000000 0.000000 0.000000
# 4 0.000000 0.000000 0.000000 0.108444 0.000000 0.000000
# 5 0.000000 0.000000 0.000000 0.000000 0.045137 0.000000
# 6 0.000000 0.000000 0.000000 0.000000 0.000000 0.071012
#
#
# Mechanical properties :
#
#
# Convention : Reuss Voigt Hill
#
# Bulk Modulus (GPa) = 13.89773 36.81629 25.35701
# Shear Modulus (GPa) = 12.68814 18.99732 15.84273
#
# Velocity S-wave (km/s) = 2.71598 3.32333 3.03489
# Velocity P-wave (km/s) = 4.23263 6.01083 5.19833
#
# Compressibility (1/GPa) = 0.07195418
#
# Stress axis : x y z
#
# Youngs Moduli (GPa) = 41.84151 107.15537 13.24661
#
# Poissons Ratio (x) = 0.63930 0.08923
# Poissons Ratio (y) = 0.24963 0.07527
# Poissons Ratio (z) = 0.28185 0.60886
#
# Static dielectric constant tensor:
#      x y z
#    x 1.564000 0.000000 0.000000 
#    y 0.000000 1.603230 0.000000 
#    z 0.000000 0.000000 1.584300 
# 
# From -- ./inp_files/11525.got.cif
#   From: 2010.05.17/outbox.cif.g08.bks.cpg/sg47_6_cif.got.tgz:11525.got - 2010.06.03 20:15:42.
