data_PCOD9382731
_publ_section_title
;
Structure prediction by ZEFSAII (Michael W. Deem and Ramdas Pophale) SiO2 
 PCOD9382731
Probable space group: P M M M
;
_chemical_formula_sum "Si O2"
_cell_formula_units_Z 56
_cell_length_a 7.491136
_cell_length_b 19.302227
_cell_length_c 19.899350
_cell_angle_alpha 90.000000
_cell_angle_beta 90.000000
_cell_angle_gamma 90.000000
_cell_volume 2877.358603
_symmetry_space_group_name_H-M "P M M M"
_symmetry_group_IT_number 47
_symmetry_cell_setting 'orthorhombic'
loop_
_space_group_symop_operation_xyz
x,y,z
-x,-y,z
x,-y,-z
-x,y,-z
-x,-y,-z
x,y,-z
-x,y,z
x,-y,z
loop_
_atom_site_type_symbol
_atom_site_label
_atom_site_fract_x
_atom_site_fract_y
_atom_site_fract_z
Si Si1 0.782609 0.581002 0.424584
Si Si2 0.718875 0.079368 0.718661
Si Si3 0.710875 0.214015 0.788528
Si Si4 0.781310 0.422376 0.847725
Si Si5 0.287772 0.083611 0.571400
Si Si6 0.209316 0.352589 0.711603
Si Si7 0.214330 0.288510 0.074320
O O1 0.721815 0.600688 0.500000
O O2 0.736186 0.500000 0.413163
O O3 0.718753 0.627317 0.361797
O O4 0.000000 0.584111 0.426342
O O5 0.500000 0.077042 0.717641
O O6 0.778336 0.137614 0.770623
O O7 0.779348 0.104451 0.644423
O O8 0.776566 0.000000 0.730331
O O9 0.500000 0.212995 0.778751
O O10 0.776864 0.273816 0.737737
O O11 0.745401 0.236752 0.864781
O O12 0.725129 0.500000 0.863310
O O13 0.719269 0.398494 0.773632
O O14 0.723163 0.363938 0.900266
O O15 0.000000 0.421281 0.847104
O O16 0.213676 0.109567 0.500000
O O17 0.500000 0.098036 0.570752
O O18 0.730826 0.000000 0.571133
O O19 0.000000 0.369307 0.708061
O O20 0.000000 0.291819 0.070749
O O21 0.281713 0.271019 0.000000
#
# Coordination Sequence:
#
# PCOD9382731 Si02
#       7
#     8   8   8   8   8   8   8
#     4   8  13  22  40  66  89 112 154 208 243 257
#     4   8  14  25  41  61  84 110 143 183 221 254
#     4  10  19  30  46  67  89 114 144 177 215 262
#     4   8  13  22  40  66  88 106 136 176 210 241
#     4   7   9  15  30  52  77 104 132 163 202 245
#     4   9  16  27  43  62  88 120 149 180 221 265
#     4   9  18  32  49  68  90 116 142 170 210 259
#
# _framework density 19.462294
#
# number of rings (size 3 to 8) (size 9 to 14) (size 15 to 20)
#    0.000    3.571    0.000    3.429    0.000    2.286 
#    0.000    2.143    0.000   14.143    0.000    8.000 
#    0.000    0.000    0.000   17.857    0.000   11.429 
#
# Total GULP energy -311784.535674 kJ/mol
# GULP energy per Si atom -5567.580994 kJ/mol
# Density = 1.941800 g / cm^3
# Si number density = 19.462294 Si / 1000 Ang^3
#
#
#
# Elastic Constant Matrix: (Units=GPa)
#
#
# Indices 1 2 3 4 5 6 
#
# 1 41.8745 -13.3425 -7.6190 0.0000 0.0000 0.0000
# 2 -13.3425 94.0842 72.3060 0.0000 0.0000 0.0000
# 3 -7.6190 72.3060 155.5953 0.0000 0.0000 0.0000
# 4 0.0000 0.0000 0.0000 16.7037 0.0000 0.0000
# 5 0.0000 0.0000 0.0000 0.0000 0.6852 0.0000
# 6 0.0000 0.0000 0.0000 0.0000 0.0000 9.3607
#
#
#
# Elastic Compliance Matrix: (Units=1/GPa)
#
#
# Indices 1 2 3 4 5 6 
#
# 1 0.025055 0.004060 -0.000660 0.000000 0.000000 0.000000
# 2 0.004060 0.017192 -0.007790 0.000000 0.000000 0.000000
# 3 -0.000660 -0.007790 0.010015 0.000000 0.000000 0.000000
# 4 0.000000 0.000000 0.000000 0.059867 0.000000 0.000000
# 5 0.000000 0.000000 0.000000 0.000000 1.459390 0.000000
# 6 0.000000 0.000000 0.000000 0.000000 0.000000 0.106829
#
#
# Mechanical properties :
#
#
# Convention : Reuss Voigt Hill
#
# Bulk Modulus (GPa) = 22.99846 43.80476 33.40161
# Shear Modulus (GPa) = 2.93838 21.36390 12.15114
#
# Velocity S-wave (km/s) = 1.23006 3.31676 2.50140
# Velocity P-wave (km/s) = 3.72290 6.10117 5.05392
#
# Compressibility (1/GPa) = 0.04348117
#
# Stress axis : x y z
#
# Youngs Moduli (GPa) = 39.91287 58.16815 99.85269
#
# Poissons Ratio (x) = -0.23618 0.06590
# Poissons Ratio (y) = -0.16206 0.77787
# Poissons Ratio (z) = 0.02634 0.45314
#
# Static dielectric constant tensor:
#      x y z
#    x 1.775300 0.000000 0.000000 
#    y 0.000000 1.664430 0.000000 
#    z 0.000000 0.000000 1.664460 
# 
# From -- ./inp_files/29919.got.cif
#   From: 2010.05.17/outbox.cif.g08.bks.cpg/sg47_15_cif.got.tgz:29919.got - 2010.06.03 20:15:42.
