data_PCOD9382186
_publ_section_title
;
Structure prediction by ZEFSAII (Michael W. Deem and Ramdas Pophale) SiO2 
 PCOD9382186
Probable space group: P M M M
;
_chemical_formula_sum "Si O2"
_cell_formula_units_Z 40
_cell_length_a 10.509720
_cell_length_b 24.724034
_cell_length_c 8.553911
_cell_angle_alpha 90.000000
_cell_angle_beta 90.000000
_cell_angle_gamma 90.000000
_cell_volume 2222.671113
_symmetry_space_group_name_H-M "P M M M"
_symmetry_group_IT_number 47
_symmetry_cell_setting 'orthorhombic'
loop_
_space_group_symop_operation_xyz
x,y,z
-x,-y,z
x,-y,-z
-x,y,-z
-x,-y,-z
x,y,-z
-x,y,z
x,-y,z
loop_
_atom_site_type_symbol
_atom_site_label
_atom_site_fract_x
_atom_site_fract_y
_atom_site_fract_z
Si Si1 0.353800 0.854780 0.687111
Si Si2 0.250207 0.372673 0.311019
Si Si3 0.500000 0.562084 0.309273
Si Si4 0.000000 0.437511 0.308990
Si Si5 0.353075 0.735827 0.186978
Si Si6 0.144745 0.062672 0.811299
O O1 0.352969 0.853677 0.500000
O O2 0.500000 0.866521 0.738811
O O3 0.320211 0.795118 0.749745
O O4 0.252596 0.898368 0.745655
O O5 0.250135 0.371050 0.500000
O O6 0.374238 0.406224 0.259194
O O7 0.124964 0.404742 0.259880
O O8 0.264988 0.311975 0.249745
O O9 0.500000 0.500000 0.257372
O O10 0.500000 0.561544 0.500000
O O11 0.000000 0.500000 0.257337
O O12 0.000000 0.438728 0.500000
O O13 0.500000 0.724652 0.237221
O O14 0.349642 0.736637 0.000000
O O15 0.000000 0.077595 0.763106
O O16 0.165916 0.000000 0.765522
O O17 0.148504 0.064929 0.000000
#
# Coordination Sequence:
#
# PCOD9382186 Si02
#       6
#     8   8   4   4   8   8
#     4  10  21  36  56  83 113 144 183 230 276 321
#     4  10  18  31  52  76 103 134 171 215 261 313
#     4   9  16  26  47  77 101 127 168 213 256 309
#     4   9  18  32  51  77 107 135 166 211 264 315
#     4  10  20  35  55  77 104 138 178 223 271 321
#     4   9  19  37  59  83 114 151 188 224 265 317
#
# _framework density 17.996364
#
# number of rings (size 3 to 8) (size 9 to 14) (size 15 to 20)
#    0.000    2.400    1.000    2.400    0.000    5.600 
#    1.800    3.500    0.000    3.600    0.000    0.000 
#    0.000    0.000    0.000    0.000    0.000    0.000 
#
# Total GULP energy -223194.392045 kJ/mol
# GULP energy per Si atom -5579.859801 kJ/mol
# Density = 1.795540 g / cm^3
# Si number density = 17.996364 Si / 1000 Ang^3
#
#
#
# Elastic Constant Matrix: (Units=GPa)
#
#
# Indices 1 2 3 4 5 6 
#
# 1 161.4078 119.9384 31.1641 0.0000 0.0000 0.0000
# 2 119.9384 168.5984 32.9753 0.0000 0.0000 0.0000
# 3 31.1641 32.9753 19.7288 0.0000 0.0000 0.0000
# 4 0.0000 0.0000 0.0000 42.7520 0.0000 0.0000
# 5 0.0000 0.0000 0.0000 0.0000 18.7338 0.0000
# 6 0.0000 0.0000 0.0000 0.0000 0.0000 36.1702
#
#
#
# Elastic Compliance Matrix: (Units=1/GPa)
#
#
# Indices 1 2 3 4 5 6 
#
# 1 0.013964 -0.008349 -0.008103 0.000000 0.000000 0.000000
# 2 -0.008349 0.013804 -0.009884 0.000000 0.000000 0.000000
# 3 -0.008103 -0.009884 0.080007 0.000000 0.000000 0.000000
# 4 0.000000 0.000000 0.000000 0.023391 0.000000 0.000000
# 5 0.000000 0.000000 0.000000 0.000000 0.053379 0.000000
# 6 0.000000 0.000000 0.000000 0.000000 0.000000 0.027647
#
#
# Mechanical properties :
#
#
# Convention : Reuss Voigt Hill
#
# Bulk Modulus (GPa) = 18.14780 79.76562 48.95671
# Shear Modulus (GPa) = 17.65347 30.57504 24.11425
#
# Velocity S-wave (km/s) = 3.13540 4.12631 3.66451
# Velocity P-wave (km/s) = 4.81806 8.19276 6.72068
#
# Compressibility (1/GPa) = 0.05510310
#
# Stress axis : x y z
#
# Youngs Moduli (GPa) = 71.61369 72.44503 12.49891
#
# Poissons Ratio (x) = 0.60483 0.10128
# Poissons Ratio (y) = 0.59789 0.12354
# Poissons Ratio (z) = 0.58029 0.71603
#
# Static dielectric constant tensor:
#      x y z
#    x 1.613210 0.000000 0.000000 
#    y 0.000000 1.588290 0.000000 
#    z 0.000000 0.000000 1.612700 
# 
# From -- ./inp_files/1894.got.cif
#   From: 2010.05.17/outbox.cif.g08.bks.cpg/sg47_1_cif.got.tgz:1894.got - 2010.06.03 20:15:42.
