data_PCOD9382312
_publ_section_title
;
Structure prediction by ZEFSAII (Michael W. Deem and Ramdas Pophale) SiO2 
 PCOD9382312
Probable space group: P M M M
;
_chemical_formula_sum "Si O2"
_cell_formula_units_Z 48
_cell_length_a 8.621075
_cell_length_b 21.084269
_cell_length_c 14.523594
_cell_angle_alpha 90.000000
_cell_angle_beta 90.000000
_cell_angle_gamma 90.000000
_cell_volume 2639.940093
_symmetry_space_group_name_H-M "P M M M"
_symmetry_group_IT_number 47
_symmetry_cell_setting 'orthorhombic'
loop_
_space_group_symop_operation_xyz
x,y,z
-x,-y,z
x,-y,-z
-x,y,-z
-x,-y,-z
x,y,-z
-x,y,z
x,-y,z
loop_
_atom_site_type_symbol
_atom_site_label
_atom_site_fract_x
_atom_site_fract_y
_atom_site_fract_z
Si Si1 0.314043 0.252799 0.393041
Si Si2 0.811172 0.073521 0.896886
Si Si3 0.811918 0.128935 0.708006
Si Si4 0.314579 0.500000 0.608756
Si Si5 0.811283 0.000000 0.394897
Si Si6 0.313074 0.574350 0.104985
Si Si7 0.815602 0.624096 0.290220
O O1 0.262159 0.253354 0.500000
O O2 0.500000 0.254623 0.392299
O O3 0.256440 0.189604 0.342299
O O4 0.251060 0.313764 0.339172
O O5 0.762346 0.118886 0.814064
O O6 0.000000 0.073607 0.896844
O O7 0.766146 0.000000 0.879063
O O8 0.759856 0.090823 0.000000
O O9 0.000000 0.133143 0.705261
O O10 0.764647 0.064248 0.656137
O O11 0.500000 0.500000 0.621411
O O12 0.280944 0.500000 0.500000
O O13 0.246571 0.562415 0.656095
O O14 0.758059 0.000000 0.500000
O O15 0.000000 0.000000 0.394539
O O16 0.500000 0.578167 0.111460
O O17 0.271365 0.500000 0.119701
O O18 0.239036 0.616096 0.184758
O O19 0.268877 0.591047 0.000000
O O20 0.000000 0.625473 0.293947
#
# Coordination Sequence:
#
# PCOD9382312 Si02
#       7
#     8   8   8   4   4   8   8
#     4  11  25  43  59  76 107 154 198 237 290 353
#     4   8  13  24  47  81 116 145 177 222 276 333
#     4  10  18  32  55  83 111 144 186 233 285 339
#     4  11  23  39  60  85 116 153 191 234 286 349
#     4   9  16  26  46  78 110 137 175 231 288 339
#     4   9  18  35  61  90 121 158 193 227 277 340
#     4  12  24  38  60  90 118 148 190 243 292 336
#
# _framework density 18.182230000000001
#
# number of rings (size 3 to 8) (size 9 to 14) (size 15 to 20)
#    0.000    2.000    1.667    4.250    0.000    5.000 
#    0.000    2.083    0.000    5.000    0.000    1.167 
#    0.000    0.000    0.000    0.000    0.000    0.000 
#
# Total GULP energy -267986.319149 kJ/mol
# GULP energy per Si atom -5583.048316 kJ/mol
# Density = 1.814085 g / cm^3
# Si number density = 18.182230 Si / 1000 Ang^3
#
#
#
# Elastic Constant Matrix: (Units=GPa)
#
#
# Indices 1 2 3 4 5 6 
#
# 1 39.6283 37.7840 53.5228 0.0000 0.0000 0.0000
# 2 37.7840 154.3566 107.1475 0.0000 0.0000 0.0000
# 3 53.5228 107.1475 196.8220 0.0000 0.0000 0.0000
# 4 0.0000 0.0000 0.0000 34.2192 0.0000 0.0000
# 5 0.0000 0.0000 0.0000 0.0000 11.0253 0.0000
# 6 0.0000 0.0000 0.0000 0.0000 0.0000 69.7823
#
#
#
# Elastic Compliance Matrix: (Units=1/GPa)
#
#
# Indices 1 2 3 4 5 6 
#
# 1 0.041161 -0.003706 -0.009175 0.000000 0.000000 0.000000
# 2 -0.003706 0.010748 -0.004843 0.000000 0.000000 0.000000
# 3 -0.009175 -0.004843 0.010212 0.000000 0.000000 0.000000
# 4 0.000000 0.000000 0.000000 0.029223 0.000000 0.000000
# 5 0.000000 0.000000 0.000000 0.000000 0.090700 0.000000
# 6 0.000000 0.000000 0.000000 0.000000 0.000000 0.014330
#
#
# Mechanical properties :
#
#
# Convention : Reuss Voigt Hill
#
# Bulk Modulus (GPa) = 37.49356 87.52393 62.50874
# Shear Modulus (GPa) = 20.77154 35.82887 28.30020
#
# Velocity S-wave (km/s) = 3.38362 4.44390 3.94950
# Velocity P-wave (km/s) = 5.99424 8.63554 7.43315
#
# Compressibility (1/GPa) = 0.02667125
#
# Stress axis : x y z
#
# Youngs Moduli (GPa) = 24.29500 93.04487 97.92156
#
# Poissons Ratio (x) = 0.34486 0.89846
# Poissons Ratio (y) = 0.09005 0.47423
# Poissons Ratio (z) = 0.22291 0.45061
#
# Static dielectric constant tensor:
#      x y z
#    x 1.618030 0.000000 0.000000 
#    y 0.000000 1.590750 0.000000 
#    z 0.000000 0.000000 1.642560 
# 
# From -- ./inp_files/21069.got.cif
#   From: 2010.05.17/outbox.cif.g08.bks.cpg/sg47_11_cif.got.tgz:21069.got - 2010.06.03 20:15:42.
