data_PCOD9382605
_publ_section_title
;
Structure prediction by ZEFSAII (Michael W. Deem and Ramdas Pophale) SiO2 
 PCOD9382605
Probable space group: P M M M
;
_chemical_formula_sum "Si O2"
_cell_formula_units_Z 44
_cell_length_a 18.832066
_cell_length_b 14.288763
_cell_length_c 7.282199
_cell_angle_alpha 90.000000
_cell_angle_beta 90.000000
_cell_angle_gamma 90.000000
_cell_volume 1959.544557
_symmetry_space_group_name_H-M "P M M M"
_symmetry_group_IT_number 47
_symmetry_cell_setting 'orthorhombic'
loop_
_space_group_symop_operation_xyz
x,y,z
-x,-y,z
x,-y,-z
-x,y,-z
-x,-y,-z
x,y,-z
-x,y,z
x,-y,z
loop_
_atom_site_type_symbol
_atom_site_label
_atom_site_fract_x
_atom_site_fract_y
_atom_site_fract_z
Si Si1 0.423664 0.606967 0.722988
Si Si2 0.696210 0.744946 0.277698
Si Si3 0.141622 0.298133 0.210199
Si Si4 0.084296 0.101795 0.220346
Si Si5 0.579749 0.891574 0.722980
Si Si6 0.916071 0.500000 0.777173
O O1 0.423578 0.609873 0.500000
O O2 0.500000 0.645769 0.781171
O O3 0.420209 0.500000 0.778746
O O4 0.355675 0.662179 0.782120
O O5 0.701291 0.748091 0.500000
O O6 0.774418 0.721785 0.210410
O O7 0.649649 0.834862 0.218673
O O8 0.111182 0.201473 0.293424
O O9 0.119952 0.401174 0.285012
O O10 0.114757 0.300397 0.000000
O O11 0.000000 0.100421 0.248201
O O12 0.112544 0.000000 0.287114
O O13 0.097652 0.102162 0.000000
O O14 0.578687 0.884552 0.500000
O O15 0.500000 0.860689 0.781693
O O16 0.586443 0.000000 0.772306
O O17 0.000000 0.500000 0.730192
O O18 0.910363 0.500000 0.000000
#
# Coordination Sequence:
#
# PCOD9382605 Si02
#       6
#     8   8   8   8   8   4
#     4   8  14  25  42  63  84 110 150 195 227 253
#     4  10  19  29  45  69  96 124 152 189 235 281
#     4  10  20  32  48  72  98 124 153 191 238 284
#     4   8  14  27  49  73  92 113 149 195 233 268
#     4   8  14  26  45  68  93 124 165 206 236 268
#     4   9  18  34  55  73  90 121 166 204 229 271
#
# _framework density 22.454196
#
# number of rings (size 3 to 8) (size 9 to 14) (size 15 to 20)
#    0.000    3.182    0.000    2.727    1.273    5.091 
#    0.000    0.000    0.000    4.909    0.000    3.818 
#    0.000    0.000    0.000    0.000    0.000    0.000 
#
# Total GULP energy -245188.230979 kJ/mol
# GULP energy per Si atom -5572.459795 kJ/mol
# Density = 2.240309 g / cm^3
# Si number density = 22.454196 Si / 1000 Ang^3
#
#
#
# Elastic Constant Matrix: (Units=GPa)
#
#
# Indices 1 2 3 4 5 6 
#
# 1 118.8091 97.9576 -2.8681 0.0000 0.0000 0.0000
# 2 97.9576 234.4618 8.6480 0.0000 0.0000 0.0000
# 3 -2.8681 8.6480 93.5256 0.0000 0.0000 0.0000
# 4 0.0000 0.0000 0.0000 -17.2008 0.0000 0.0000
# 5 0.0000 0.0000 0.0000 0.0000 14.4593 0.0000
# 6 0.0000 0.0000 0.0000 0.0000 0.0000 42.6991
#
#
#
# Elastic Compliance Matrix: (Units=1/GPa)
#
#
# Indices 1 2 3 4 5 6 
#
# 1 0.012915 -0.005429 0.000898 0.000000 0.000000 0.000000
# 2 -0.005429 0.006562 -0.000773 0.000000 0.000000 0.000000
# 3 0.000898 -0.000773 0.010791 0.000000 0.000000 0.000000
# 4 0.000000 0.000000 0.000000 -0.058137 0.000000 0.000000
# 5 0.000000 0.000000 0.000000 0.000000 0.069160 0.000000
# 6 0.000000 0.000000 0.000000 0.000000 0.000000 0.023420
#
#
# Mechanical properties :
#
#
# Convention : Reuss Voigt Hill
#
# Bulk Modulus (GPa) = 50.86568 72.69683 61.78126
# Shear Modulus (GPa) = 61.07142 30.86213 45.96677
#
# Velocity S-wave (km/s) = 5.22085 3.71138 4.52944
# Velocity P-wave (km/s) = 7.68409 7.12823 7.41137
#
# Compressibility (1/GPa) = 0.01965962
#
# Stress axis : x y z
#
# Youngs Moduli (GPa) = 77.43204 152.39858 92.66723
#
# Poissons Ratio (x) = 0.82734 -0.08322
# Poissons Ratio (y) = 0.42036 0.07165
# Poissons Ratio (z) = -0.06954 0.11784
#
# Static dielectric constant tensor:
#      x y z
#    x 1.707900 0.000000 0.000000 
#    y 0.000000 1.866550 0.000000 
#    z 0.000000 0.000000 1.897550 
# 
# From -- ./inp_files/9012.got.cif
#   From: 2010.05.17/outbox.cif.g08.bks.cpg/sg47_5_cif.got.tgz:9012.got - 2010.06.03 20:15:42.
