data_PCOD9382371
_publ_section_title
;
Structure prediction by ZEFSAII (Michael W. Deem and Ramdas Pophale) SiO2 
 PCOD9382371
Probable space group: P M M M
;
_chemical_formula_sum "Si O2"
_cell_formula_units_Z 52
_cell_length_a 12.403853
_cell_length_b 7.511881
_cell_length_c 25.900000
_cell_angle_alpha 90.000000
_cell_angle_beta 90.000000
_cell_angle_gamma 90.000000
_cell_volume 2413.265333
_symmetry_space_group_name_H-M "P M M M"
_symmetry_group_IT_number 47
_symmetry_cell_setting 'orthorhombic'
loop_
_space_group_symop_operation_xyz
x,y,z
-x,-y,z
x,-y,-z
-x,y,-z
-x,-y,-z
x,y,-z
-x,y,z
x,-y,z
loop_
_atom_site_type_symbol
_atom_site_label
_atom_site_fract_x
_atom_site_fract_y
_atom_site_fract_z
Si Si1 0.762979 0.281452 0.250457
Si Si2 0.225446 0.713630 0.058242
Si Si3 0.000000 0.702750 0.768980
Si Si4 0.620905 0.711765 0.654173
Si Si5 0.000000 0.205439 0.562987
Si Si6 0.000000 0.792581 0.886597
Si Si7 0.624179 0.282464 0.150618
Si Si8 0.233567 0.785225 0.441287
O O1 0.766250 0.500000 0.249690
O O2 0.886092 0.217084 0.248002
O O3 0.699988 0.220635 0.301224
O O4 0.695473 0.228254 0.199843
O O5 0.236518 0.500000 0.055996
O O6 0.315042 0.777704 0.098773
O O7 0.107168 0.750177 0.081222
O O8 0.235790 0.782917 0.000000
O O9 0.000000 0.500000 0.749198
O O10 0.000000 0.697588 0.831339
O O11 0.500000 0.784582 0.657533
O O12 0.613838 0.500000 0.662486
O O13 0.673855 0.740016 0.598594
O O14 0.884007 0.283637 0.577464
O O15 0.000000 0.204357 0.500000
O O16 0.000000 0.000000 0.580633
O O17 0.000000 0.000000 0.874403
O O18 0.500000 0.225114 0.153986
O O19 0.623494 0.500000 0.150500
O O20 0.252996 0.723572 0.500000
O O21 0.225043 0.000000 0.443395
#
# Coordination Sequence:
#
# PCOD9382371 Si02
#       8
#     8   8   4   8   4   4   8   8
#     4   9  17  31  53  78 104 134 170 211 260 318
#     4  10  20  34  54  80 108 139 178 222 265 311
#     4  10  18  34  60  83 104 134 174 219 267 317
#     4  10  21  35  51  76 110 143 176 217 264 313
#     4   7  12  27  51  75  97 125 164 210 256 301
#     4  12  23  35  53  78 109 141 176 217 267 324
#     4   9  16  28  51  80 106 134 171 216 262 309
#     4   9  18  34  56  79 104 139 182 221 261 314
#
# _framework density 21.54757
#
# number of rings (size 3 to 8) (size 9 to 14) (size 15 to 20)
#    0.000    2.538    1.538    2.308    0.000    4.923 
#    0.000    5.000    0.000    1.846    0.000    1.077 
#    0.000    0.000    0.000    0.000    0.000    0.000 
#
# Total GULP energy -290357.255825 kJ/mol
# GULP energy per Si atom -5583.793381 kJ/mol
# Density = 2.149853 g / cm^3
# Si number density = 21.547570 Si / 1000 Ang^3
#
#
#
# Elastic Constant Matrix: (Units=GPa)
#
#
# Indices 1 2 3 4 5 6 
#
# 1 237.9788 4.5674 113.3781 0.0000 0.0000 0.0000
# 2 4.5674 59.6480 0.5275 0.0000 0.0000 0.0000
# 3 113.3781 0.5275 129.9784 0.0000 0.0000 0.0000
# 4 0.0000 0.0000 0.0000 33.0518 0.0000 0.0000
# 5 0.0000 0.0000 0.0000 0.0000 38.0216 0.0000
# 6 0.0000 0.0000 0.0000 0.0000 0.0000 -7.2870
#
#
#
# Elastic Compliance Matrix: (Units=1/GPa)
#
#
# Indices 1 2 3 4 5 6 
#
# 1 0.007205 -0.000496 -0.006283 0.000000 0.000000 0.000000
# 2 -0.000496 0.016800 0.000365 0.000000 0.000000 0.000000
# 3 -0.006283 0.000365 0.013172 0.000000 0.000000 0.000000
# 4 0.000000 0.000000 0.000000 0.030255 0.000000 0.000000
# 5 0.000000 0.000000 0.000000 0.000000 0.026301 0.000000
# 6 0.000000 0.000000 0.000000 0.000000 0.000000 -0.137231
#
#
# Mechanical properties :
#
#
# Convention : Reuss Voigt Hill
#
# Bulk Modulus (GPa) = 41.07013 73.83902 57.45457
# Shear Modulus (GPa) = -221.69620 33.36610 -94.16505
#
# Velocity S-wave (km/s) = -10.15432 3.93935 -6.61785
# Velocity P-wave (km/s) = 10.88020 7.41846 5.62784
#
# Compressibility (1/GPa) = 0.02434860
#
# Stress axis : x y z
#
# Youngs Moduli (GPa) = 138.79806 59.52455 75.91706
#
# Poissons Ratio (x) = 0.02953 0.47695
# Poissons Ratio (y) = 0.06886 -0.02768
# Poissons Ratio (z) = 0.87200 -0.02170
#
# Static dielectric constant tensor:
#      x y z
#    x 1.771130 0.000000 0.000000 
#    y 0.000000 1.839410 0.000000 
#    z 0.000000 0.000000 1.748510 
# 
# From -- ./inp_files/33680.got.cif
#   From: 2010.05.17/outbox.cif.g08.bks.cpg/sg47_17_cif.got.tgz:33680.got - 2010.06.03 20:15:42.
