data_PCOD9382698
_publ_section_title
;
Structure prediction by ZEFSAII (Michael W. Deem and Ramdas Pophale) SiO2 
 PCOD9382698
Probable space group: P M M M
;
_chemical_formula_sum "Si O2"
_cell_formula_units_Z 64
_cell_length_a 9.399976
_cell_length_b 14.380827
_cell_length_c 29.824085
_cell_angle_alpha 90.000000
_cell_angle_beta 90.000000
_cell_angle_gamma 90.000000
_cell_volume 4031.602771
_symmetry_space_group_name_H-M "P M M M"
_symmetry_group_IT_number 47
_symmetry_cell_setting 'orthorhombic'
loop_
_space_group_symop_operation_xyz
x,y,z
-x,-y,z
x,-y,-z
-x,y,-z
-x,-y,-z
x,y,-z
-x,y,z
x,-y,z
loop_
_atom_site_type_symbol
_atom_site_label
_atom_site_fract_x
_atom_site_fract_y
_atom_site_fract_z
Si Si1 0.835445 0.112014 0.368902
Si Si2 0.332575 0.606843 0.599644
Si Si3 0.165906 0.612801 0.049595
Si Si4 0.669109 0.208506 0.550750
Si Si5 0.670461 0.390549 0.138426
Si Si6 0.668755 0.892585 0.721630
Si Si7 0.330017 0.709937 0.770256
Si Si8 0.164604 0.388114 0.689909
O O1 0.754989 0.154314 0.411380
O O2 0.755952 0.136269 0.322550
O O3 0.000000 0.141285 0.367705
O O4 0.830685 0.000000 0.372105
O O5 0.500000 0.610677 0.612105
O O6 0.299882 0.500000 0.587296
O O7 0.310271 0.681930 0.560888
O O8 0.240166 0.634286 0.642810
O O9 0.172447 0.500000 0.049116
O O10 0.255995 0.642026 0.092548
O O11 0.000000 0.637976 0.054673
O O12 0.214758 0.644153 0.000000
O O13 0.711777 0.185482 0.500000
O O14 0.500000 0.189452 0.555430
O O15 0.500000 0.385274 0.133529
O O16 0.706306 0.500000 0.146125
O O17 0.713104 0.329980 0.181485
O O18 0.500000 0.888153 0.711073
O O19 0.696090 0.819055 0.761077
O O20 0.703043 0.000000 0.732512
O O21 0.500000 0.693776 0.765751
O O22 0.248855 0.656202 0.730990
O O23 0.170144 0.500000 0.694204
O O24 0.000000 0.359202 0.689779
#
# Coordination Sequence:
#
# PCOD9382698 Si02
#       8
#     8   8   8   8   8   8   8   8
#     4  10  21  36  53  72  93 116 142 175 217 264
#     4   9  18  33  51  68  88 116 147 178 213 253
#     4   8  14  25  40  57  80 114 154 191 224 258
#     4  10  21  35  51  72  94 115 142 176 214 257
#     4   9  17  27  39  59  88 120 152 184 218 258
#     4   9  18  33  52  71  90 115 148 183 219 262
#     4  10  19  30  45  65  91 121 150 182 222 266
#     4  10  20  31  44  65  91 118 149 182 214 253
#
# _framework density 15.87458
#
# number of rings (size 3 to 8) (size 9 to 14) (size 15 to 20)
#    0.000    2.625    0.000    2.250    0.000    7.500 
#    0.000    5.000    0.000    0.000    0.000    2.625 
#    0.000    0.500    0.000    6.250    0.000    1.250 
#
# Total GULP energy -356805.355005 kJ/mol
# GULP energy per Si atom -5575.083672 kJ/mol
# Density = 1.583845 g / cm^3
# Si number density = 15.874580 Si / 1000 Ang^3
#
#
#
# Elastic Constant Matrix: (Units=GPa)
#
#
# Indices 1 2 3 4 5 6 
#
# 1 34.4611 29.2465 44.1915 0.0000 0.0000 0.0000
# 2 29.2465 48.5785 49.1021 0.0000 0.0000 0.0000
# 3 44.1915 49.1021 118.4456 0.0000 0.0000 0.0000
# 4 0.0000 0.0000 0.0000 18.5470 0.0000 0.0000
# 5 0.0000 0.0000 0.0000 0.0000 -18.1583 0.0000
# 6 0.0000 0.0000 0.0000 0.0000 0.0000 15.6931
#
#
#
# Elastic Compliance Matrix: (Units=1/GPa)
#
#
# Indices 1 2 3 4 5 6 
#
# 1 0.072764 -0.028171 -0.015469 0.000000 0.000000 0.000000
# 2 -0.028171 0.046339 -0.008699 0.000000 0.000000 0.000000
# 3 -0.015469 -0.008699 0.017821 0.000000 0.000000 0.000000
# 4 0.000000 0.000000 0.000000 0.053917 0.000000 0.000000
# 5 0.000000 0.000000 0.000000 0.000000 -0.055071 0.000000
# 6 0.000000 0.000000 0.000000 0.000000 0.000000 0.063722
#
#
# Mechanical properties :
#
#
# Convention : Reuss Voigt Hill
#
# Bulk Modulus (GPa) = 31.01409 49.61838 40.31624
# Shear Modulus (GPa) = 15.87708 8.47934 12.17821
#
# Velocity S-wave (km/s) = 3.16596 2.31367 2.77276
# Velocity P-wave (km/s) = 5.73966 6.20175 5.97518
#
# Compressibility (1/GPa) = 0.03224341
#
# Stress axis : x y z
#
# Youngs Moduli (GPa) = 13.74308 21.58024 56.11467
#
# Poissons Ratio (x) = 0.60794 0.86806
# Poissons Ratio (y) = 0.38716 0.48816
# Poissons Ratio (z) = 0.21260 0.18773
#
# Static dielectric constant tensor:
#      x y z
#    x 1.530460 0.000000 0.000000 
#    y 0.000000 1.547870 0.000000 
#    z 0.000000 0.000000 1.505630 
# 
# From -- ./inp_files/8292.got.cif
#   From: 2010.05.17/outbox.cif.g08.bks.cpg/sg47_5_cif.got.tgz:8292.got - 2010.06.03 20:15:42.
