data_PCOD9382778
_publ_section_title
;
Structure prediction by ZEFSAII (Michael W. Deem and Ramdas Pophale) SiO2 
 PCOD9382778
Probable space group: P M M M
;
_chemical_formula_sum "Si O2"
_cell_formula_units_Z 44
_cell_length_a 32.871821
_cell_length_b 8.280135
_cell_length_c 7.559981
_cell_angle_alpha 90.000000
_cell_angle_beta 90.000000
_cell_angle_gamma 90.000000
_cell_volume 2057.699182
_symmetry_space_group_name_H-M "P M M M"
_symmetry_group_IT_number 47
_symmetry_cell_setting 'orthorhombic'
loop_
_space_group_symop_operation_xyz
x,y,z
-x,-y,z
x,-y,-z
-x,y,-z
-x,-y,-z
x,y,-z
-x,y,z
x,-y,z
loop_
_atom_site_type_symbol
_atom_site_label
_atom_site_fract_x
_atom_site_fract_y
_atom_site_fract_z
Si Si1 0.171257 0.307716 0.803587
Si Si2 0.000000 0.314319 0.283609
Si Si3 0.406218 0.000000 0.711777
Si Si4 0.085306 0.822850 0.290624
Si Si5 0.689131 0.000000 0.788154
Si Si6 0.547482 0.680269 0.715573
Si Si7 0.259983 0.688221 0.217292
O O1 0.174841 0.500000 0.815097
O O2 0.127010 0.273680 0.727788
O O3 0.214456 0.261083 0.720221
O O4 0.170594 0.235616 0.000000
O O5 0.042566 0.241669 0.218440
O O6 0.000000 0.500000 0.236403
O O7 0.000000 0.303694 0.500000
O O8 0.426961 0.165658 0.778605
O O9 0.412483 0.000000 0.500000
O O10 0.358443 0.000000 0.747080
O O11 0.078535 0.833482 0.500000
O O12 0.092961 0.000000 0.217592
O O13 0.709728 0.168592 0.726138
O O14 0.694323 0.000000 0.000000
O O15 0.549057 0.679697 0.500000
O O16 0.500000 0.699201 0.763910
O O17 0.561026 0.500000 0.772899
O O18 0.268726 0.500000 0.269989
O O19 0.258986 0.685245 0.000000
#
# Coordination Sequence:
#
# PCOD9382778 Si02
#       7
#     8   4   4   8   4   8   8
#     4   9  18  33  53  75  95 118 155 202 246 285
#     4   9  17  31  50  67  90 129 166 190 220 273
#     4  10  19  30  46  72 102 128 157 205 252 285
#     4  10  20  32  48  73 101 127 155 190 232 283
#     4  10  20  33  51  71  94 131 169 196 239 297
#     4   8  14  26  46  71  97 128 167 205 241 286
#     4   8  16  32  52  72  93 121 163 207 240 284
#
# _framework density 21.383106999999999
#
# number of rings (size 3 to 8) (size 9 to 14) (size 15 to 20)
#    0.000    3.000    0.000    2.727    1.273    4.364 
#    0.000    1.364    0.000    4.909    0.000    1.273 
#    0.000    0.000    0.000    0.000    0.000    0.000 
#
# Total GULP energy -245107.176570 kJ/mol
# GULP energy per Si atom -5570.617649 kJ/mol
# Density = 2.133444 g / cm^3
# Si number density = 21.383107 Si / 1000 Ang^3
#
#
#
# Elastic Constant Matrix: (Units=GPa)
#
#
# Indices 1 2 3 4 5 6 
#
# 1 170.5715 113.3019 1.3408 0.0000 0.0000 0.0000
# 2 113.3019 146.7481 7.7322 0.0000 0.0000 0.0000
# 3 1.3408 7.7322 43.4514 0.0000 0.0000 0.0000
# 4 0.0000 0.0000 0.0000 0.6834 0.0000 0.0000
# 5 0.0000 0.0000 0.0000 0.0000 40.2621 0.0000
# 6 0.0000 0.0000 0.0000 0.0000 0.0000 30.8723
#
#
#
# Elastic Compliance Matrix: (Units=1/GPa)
#
#
# Indices 1 2 3 4 5 6 
#
# 1 0.012107 -0.009416 0.001302 0.000000 0.000000 0.000000
# 2 -0.009416 0.014203 -0.002237 0.000000 0.000000 0.000000
# 3 0.001302 -0.002237 0.023372 0.000000 0.000000 0.000000
# 4 0.000000 0.000000 0.000000 1.463256 0.000000 0.000000
# 5 0.000000 0.000000 0.000000 0.000000 0.024837 0.000000
# 6 0.000000 0.000000 0.000000 0.000000 0.000000 0.032391
#
#
# Mechanical properties :
#
#
# Convention : Reuss Voigt Hill
#
# Bulk Modulus (GPa) = 34.50706 67.28008 50.89357
# Shear Modulus (GPa) = 3.12397 30.25663 16.69030
#
# Velocity S-wave (km/s) = 1.21001 3.76570 2.79684
# Velocity P-wave (km/s) = 4.25731 7.10210 5.85510
#
# Compressibility (1/GPa) = 0.02897958
#
# Stress axis : x y z
#
# Youngs Moduli (GPa) = 82.59496 70.40988 42.78607
#
# Poissons Ratio (x) = 0.66301 -0.05571
# Poissons Ratio (y) = 0.77775 0.09570
# Poissons Ratio (z) = -0.10754 0.15749
#
# Static dielectric constant tensor:
#      x y z
#    x 1.953290 0.000000 0.000000 
#    y 0.000000 1.775900 0.000000 
#    z 0.000000 0.000000 1.837080 
# 
# From -- ./inp_files/13718.got.cif
#   From: 2010.05.17/outbox.cif.g08.bks.cpg/sg47_7_cif.got.tgz:13718.got - 2010.06.03 20:15:42.
