data_PCOD9382839
_publ_section_title
;
Structure prediction by ZEFSAII (Michael W. Deem and Ramdas Pophale) SiO2 
 PCOD9382839
Probable space group: P M M M
;
_chemical_formula_sum "Si O2"
_cell_formula_units_Z 60
_cell_length_a 21.338787
_cell_length_b 7.663615
_cell_length_c 19.967807
_cell_angle_alpha 90.000000
_cell_angle_beta 90.000000
_cell_angle_gamma 90.000000
_cell_volume 3265.380369
_symmetry_space_group_name_H-M "P M M M"
_symmetry_group_IT_number 47
_symmetry_cell_setting 'orthorhombic'
loop_
_space_group_symop_operation_xyz
x,y,z
-x,-y,z
x,-y,-z
-x,y,-z
-x,-y,-z
x,y,-z
-x,y,z
x,-y,z
loop_
_atom_site_type_symbol
_atom_site_label
_atom_site_fract_x
_atom_site_fract_y
_atom_site_fract_z
Si Si1 0.796858 0.794967 0.573585
Si Si2 0.316315 0.789713 0.791663
Si Si3 0.000000 0.713582 0.077855
Si Si4 0.190330 0.789514 0.281437
Si Si5 0.128923 0.292490 0.855938
Si Si6 0.349269 0.288685 0.574493
Si Si7 0.741818 0.794421 0.925752
Si Si8 0.570537 0.708888 0.300065
O O1 0.812823 0.719200 0.500000
O O2 0.823342 0.722685 0.643661
O O3 0.721495 0.779918 0.580971
O O4 0.812952 0.000000 0.571027
O O5 0.258956 0.727447 0.744192
O O6 0.301555 0.722371 0.866191
O O7 0.383004 0.743656 0.761333
O O8 0.311701 0.000000 0.792955
O O9 0.937135 0.772153 0.115659
O O10 0.000000 0.500000 0.078762
O O11 0.000000 0.766315 0.000000
O O12 0.142383 0.745784 0.222044
O O13 0.193404 0.000000 0.285404
O O14 0.130401 0.500000 0.864641
O O15 0.187336 0.220480 0.898354
O O16 0.372196 0.242558 0.500000
O O17 0.345465 0.500000 0.578115
O O18 0.393951 0.224598 0.633505
O O19 0.727712 0.000000 0.930533
O O20 0.735912 0.718001 0.000000
O O21 0.500000 0.776951 0.292597
O O22 0.566392 0.500000 0.307420
#
# Coordination Sequence:
#
# PCOD9382839 Si02
#       8
#     8   8   4   8   8   8   8   8
#     4   9  16  27  45  66  89 119 151 186 232 278
#     4   9  17  30  47  66  86 112 144 182 229 274
#     4   9  18  32  47  67 100 133 158 186 217 253
#     4   9  17  30  46  67  95 121 151 193 234 269
#     4  10  19  30  48  72  97 128 160 186 215 259
#     4   9  17  28  42  61  86 116 150 187 226 269
#     4   9  18  33  51  71  95 118 144 184 230 271
#     4  10  20  31  43  61  86 117 152 188 227 272
#
# _framework density 18.374582
#
# number of rings (size 3 to 8) (size 9 to 14) (size 15 to 20)
#    0.000    2.733    1.333    1.600    0.000    4.000 
#    0.000    2.667    0.000    2.800    0.000    6.067 
#    0.000    3.733    0.000    0.000    0.000    0.000 
#
# Total GULP energy -334420.901441 kJ/mol
# GULP energy per Si atom -5573.681691 kJ/mol
# Density = 1.833276 g / cm^3
# Si number density = 18.374582 Si / 1000 Ang^3
#
#
#
# Elastic Constant Matrix: (Units=GPa)
#
#
# Indices 1 2 3 4 5 6 
#
# 1 68.7921 -10.2113 53.0747 0.0000 0.0000 0.0000
# 2 -10.2113 32.1698 0.4923 0.0000 0.0000 0.0000
# 3 53.0747 0.4923 177.3970 0.0000 0.0000 0.0000
# 4 0.0000 0.0000 0.0000 12.8635 0.0000 0.0000
# 5 0.0000 0.0000 0.0000 0.0000 21.2013 0.0000
# 6 0.0000 0.0000 0.0000 0.0000 0.0000 19.5637
#
#
#
# Elastic Compliance Matrix: (Units=1/GPa)
#
#
# Indices 1 2 3 4 5 6 
#
# 1 0.020171 0.006495 -0.006053 0.000000 0.000000 0.000000
# 2 0.006495 0.033178 -0.002035 0.000000 0.000000 0.000000
# 3 -0.006053 -0.002035 0.007454 0.000000 0.000000 0.000000
# 4 0.000000 0.000000 0.000000 0.077739 0.000000 0.000000
# 5 0.000000 0.000000 0.000000 0.000000 0.047167 0.000000
# 6 0.000000 0.000000 0.000000 0.000000 0.000000 0.051115
#
#
# Mechanical properties :
#
#
# Convention : Reuss Voigt Hill
#
# Bulk Modulus (GPa) = 17.35626 40.56337 28.95982
# Shear Modulus (GPa) = 19.28905 26.39259 22.84082
#
# Velocity S-wave (km/s) = 3.24353 3.79405 3.52954
# Velocity P-wave (km/s) = 4.84702 6.42782 5.69256
#
# Compressibility (1/GPa) = 0.05761609
#
# Stress axis : x y z
#
# Youngs Moduli (GPa) = 49.57734 30.14054 134.16290
#
# Poissons Ratio (x) = -0.19577 0.81206
# Poissons Ratio (y) = -0.32201 0.27306
# Poissons Ratio (z) = 0.30008 0.06135
#
# Static dielectric constant tensor:
#      x y z
#    x 1.598090 0.000000 0.000000 
#    y 0.000000 1.687860 0.000000 
#    z 0.000000 0.000000 1.685380 
# 
# From -- ./inp_files/31369.got.cif
#   From: 2010.05.17/outbox.cif.g08.bks.cpg/sg47_16_cif.got.tgz:31369.got - 2010.06.03 20:15:42.
