data_PCOD9382630
_publ_section_title
;
Structure prediction by ZEFSAII (Michael W. Deem and Ramdas Pophale) SiO2 
 PCOD9382630
Probable space group: P M M M
;
_chemical_formula_sum "Si O2"
_cell_formula_units_Z 44
_cell_length_a 14.051625
_cell_length_b 8.635631
_cell_length_c 21.771002
_cell_angle_alpha 90.000000
_cell_angle_beta 90.000000
_cell_angle_gamma 90.000000
_cell_volume 2641.794584
_symmetry_space_group_name_H-M "P M M M"
_symmetry_group_IT_number 47
_symmetry_cell_setting 'orthorhombic'
loop_
_space_group_symop_operation_xyz
x,y,z
-x,-y,z
x,-y,-z
-x,y,-z
-x,-y,-z
x,y,-z
-x,y,z
x,-y,z
loop_
_atom_site_type_symbol
_atom_site_label
_atom_site_fract_x
_atom_site_fract_y
_atom_site_fract_z
Si Si1 0.701797 0.185529 0.691067
Si Si2 0.105876 0.188052 0.751896
Si Si3 0.608795 0.314244 0.813467
Si Si4 0.110880 0.685689 0.000000
Si Si5 0.387837 0.313735 0.568949
Si Si6 0.207921 0.814211 0.877818
O O1 0.810085 0.235551 0.706029
O O2 0.637400 0.257450 0.745196
O O3 0.668222 0.237536 0.624454
O O4 0.696332 0.000000 0.696651
O O5 0.140754 0.231322 0.820183
O O6 0.000000 0.245997 0.738799
O O7 0.103033 0.000000 0.750537
O O8 0.500000 0.268254 0.827068
O O9 0.614841 0.500000 0.815160
O O10 0.687032 0.244798 0.859698
O O11 0.164935 0.746487 0.060174
O O12 0.112024 0.500000 0.000000
O O13 0.000000 0.737186 0.000000
O O14 0.357833 0.266701 0.500000
O O15 0.500000 0.276837 0.575226
O O16 0.379186 0.500000 0.572971
O O17 0.209529 0.000000 0.881233
#
# Coordination Sequence:
#
# PCOD9382630 Si02
#       6
#     8   8   8   4   8   8
#     4  10  19  29  47  75 100 125 161 204 245 286
#     4   8  15  29  48  70  96 124 155 194 240 286
#     4  10  20  34  52  73 101 136 167 198 243 299
#     4  11  23  37  54  77 106 137 167 202 246 299
#     4   9  18  32  48  66  92 128 164 196 239 296
#     4  10  20  34  54  78 101 128 166 211 252 290
#
# _framework density 16.655345000000001
#
# number of rings (size 3 to 8) (size 9 to 14) (size 15 to 20)
#    0.000    2.455    0.000    4.636    0.000    5.818 
#    0.000    1.364    0.000   14.182    0.000    3.818 
#    0.000    0.000    0.000    0.000    0.000    0.000 
#
# Total GULP energy -245412.353814 kJ/mol
# GULP energy per Si atom -5577.553496 kJ/mol
# Density = 1.661744 g / cm^3
# Si number density = 16.655345 Si / 1000 Ang^3
#
#
#
# Elastic Constant Matrix: (Units=GPa)
#
#
# Indices 1 2 3 4 5 6 
#
# 1 139.7293 37.4252 78.8802 0.0000 0.0000 0.0000
# 2 37.4252 40.0302 36.3515 0.0000 0.0000 0.0000
# 3 78.8802 36.3515 137.1500 0.0000 0.0000 0.0000
# 4 0.0000 0.0000 0.0000 28.4617 0.0000 0.0000
# 5 0.0000 0.0000 0.0000 0.0000 15.6920 0.0000
# 6 0.0000 0.0000 0.0000 0.0000 0.0000 18.6811
#
#
#
# Elastic Compliance Matrix: (Units=1/GPa)
#
#
# Indices 1 2 3 4 5 6 
#
# 1 0.011712 -0.006365 -0.005049 0.000000 0.000000 0.000000
# 2 -0.006365 0.036359 -0.005976 0.000000 0.000000 0.000000
# 3 -0.005049 -0.005976 0.011779 0.000000 0.000000 0.000000
# 4 0.000000 0.000000 0.000000 0.035135 0.000000 0.000000
# 5 0.000000 0.000000 0.000000 0.000000 0.063727 0.000000
# 6 0.000000 0.000000 0.000000 0.000000 0.000000 0.053530
#
#
# Mechanical properties :
#
#
# Convention : Reuss Voigt Hill
#
# Bulk Modulus (GPa) = 39.88856 69.13594 54.51225
# Shear Modulus (GPa) = 19.57888 23.51712 21.54800
#
# Velocity S-wave (km/s) = 3.43232 3.76172 3.60079
# Velocity P-wave (km/s) = 6.30152 7.77607 7.07730
#
# Compressibility (1/GPa) = 0.02506984
#
# Stress axis : x y z
#
# Youngs Moduli (GPa) = 85.38569 27.50374 84.89610
#
# Poissons Ratio (x) = 0.17505 0.42863
# Poissons Ratio (y) = 0.54344 0.50737
# Poissons Ratio (z) = 0.43110 0.16437
#
# Static dielectric constant tensor:
#      x y z
#    x 1.566820 0.000000 0.000000 
#    y 0.000000 1.564670 0.000000 
#    z 0.000000 0.000000 1.533730 
# 
# From -- ./inp_files/30771.got.cif
#   From: 2010.05.17/outbox.cif.g08.bks.cpg/sg47_16_cif.got.tgz:30771.got - 2010.06.03 20:15:42.
