data_PCOD9382881
_publ_section_title
;
Structure prediction by ZEFSAII (Michael W. Deem and Ramdas Pophale) SiO2 
 PCOD9382881
Probable space group: P M M M
;
_chemical_formula_sum "Si O2"
_cell_formula_units_Z 48
_cell_length_a 7.646626
_cell_length_b 36.348314
_cell_length_c 9.273449
_cell_angle_alpha 90.000000
_cell_angle_beta 90.000000
_cell_angle_gamma 90.000000
_cell_volume 2577.480618
_symmetry_space_group_name_H-M "P M M M"
_symmetry_group_IT_number 47
_symmetry_cell_setting 'orthorhombic'
loop_
_space_group_symop_operation_xyz
x,y,z
-x,-y,z
x,-y,-z
-x,y,-z
-x,-y,-z
x,y,-z
-x,y,z
x,-y,z
loop_
_atom_site_type_symbol
_atom_site_label
_atom_site_fract_x
_atom_site_fract_y
_atom_site_fract_z
Si Si1 0.000000 0.402558 0.825091
Si Si2 0.294883 0.734258 0.672246
Si Si3 0.208239 0.960416 0.325275
Si Si4 0.700398 0.541410 0.175297
Si Si5 0.789507 0.880898 0.335269
Si Si6 0.290345 0.192607 0.837580
Si Si7 0.000000 0.324237 0.326811
O O1 0.167808 0.426817 0.780107
O O2 0.000000 0.362758 0.754325
O O3 0.000000 0.399406 0.000000
O O4 0.282920 0.739909 0.500000
O O5 0.500000 0.727568 0.707030
O O6 0.232099 0.771471 0.749884
O O7 0.170189 0.700296 0.710163
O O8 0.224807 0.959709 0.500000
O O9 0.276465 0.920536 0.277077
O O10 0.000000 0.961242 0.294128
O O11 0.281079 0.000000 0.275537
O O12 0.500000 0.547647 0.220408
O O13 0.753342 0.500000 0.220429
O O14 0.702418 0.541132 0.000000
O O15 0.726158 0.875714 0.500000
O O16 0.748619 0.845513 0.241505
O O17 0.000000 0.883969 0.342087
O O18 0.500000 0.195510 0.843779
O O19 0.220777 0.192590 0.000000
O O20 0.000000 0.329923 0.500000
#
# Coordination Sequence:
#
# PCOD9382881 Si02
#       7
#     4   8   8   8   8   8   4
#     4  10  19  30  48  76 104 132 170 213 255 298
#     4   9  19  37  57  73  93 126 167 208 249 298
#     4   7  10  19  37  62  91 119 148 186 229 270
#     4   8  14  26  46  73 104 137 174 216 257 294
#     4   9  17  28  46  73  98 121 153 192 235 285
#     4  10  21  35  50  70  96 124 154 194 245 295
#     4  10  22  37  53  75 102 134 169 205 252 310
#
# _framework density 18.622837000000001
#
# number of rings (size 3 to 8) (size 9 to 14) (size 15 to 20)
#    0.000    3.167    0.000    2.750    1.167    3.667 
#    0.000    0.000    0.000    2.000    0.000    7.000 
#    0.000    0.000    0.000    0.000    0.000    0.000 
#
# Total GULP energy -267381.852562 kJ/mol
# GULP energy per Si atom -5570.455262 kJ/mol
# Density = 1.858045 g / cm^3
# Si number density = 18.622837 Si / 1000 Ang^3
#
#
#
# Elastic Constant Matrix: (Units=GPa)
#
#
# Indices 1 2 3 4 5 6 
#
# 1 68.6249 74.2554 28.1867 0.0000 0.0000 0.0000
# 2 74.2554 231.7947 64.6744 0.0000 0.0000 0.0000
# 3 28.1867 64.6744 33.6598 0.0000 0.0000 0.0000
# 4 0.0000 0.0000 0.0000 40.6498 0.0000 0.0000
# 5 0.0000 0.0000 0.0000 0.0000 9.8081 0.0000
# 6 0.0000 0.0000 0.0000 0.0000 0.0000 -14.3647
#
#
#
# Elastic Compliance Matrix: (Units=1/GPa)
#
#
# Indices 1 2 3 4 5 6 
#
# 1 0.024233 -0.004529 -0.011591 0.000000 0.000000 0.000000
# 2 -0.004529 0.010146 -0.015703 0.000000 0.000000 0.000000
# 3 -0.011591 -0.015703 0.069586 0.000000 0.000000 0.000000
# 4 0.000000 0.000000 0.000000 0.024600 0.000000 0.000000
# 5 0.000000 0.000000 0.000000 0.000000 0.101956 0.000000
# 6 0.000000 0.000000 0.000000 0.000000 0.000000 -0.069615
#
#
# Mechanical properties :
#
#
# Convention : Reuss Voigt Hill
#
# Bulk Modulus (GPa) = 24.80079 74.25694 49.52886
# Shear Modulus (GPa) = 21.00899 18.34950 19.67925
#
# Velocity S-wave (km/s) = 3.36241 3.14239 3.25426
# Velocity P-wave (km/s) = 5.33111 7.28882 6.38544
#
# Compressibility (1/GPa) = 0.04032130
#
# Stress axis : x y z
#
# Youngs Moduli (GPa) = 41.26525 98.55717 14.37063
#
# Poissons Ratio (x) = 0.44639 0.16656
# Poissons Ratio (y) = 0.18690 0.22566
# Poissons Ratio (z) = 0.47829 1.54761
#
# Static dielectric constant tensor:
#      x y z
#    x 1.692830 0.000000 0.000000 
#    y 0.000000 1.645270 0.000000 
#    z 0.000000 0.000000 1.632570 
# 
# From -- ./inp_files/2651.got.cif
#   From: 2010.05.17/outbox.cif.g08.bks.cpg/sg47_2_cif.got.tgz:2651.got - 2010.06.03 20:15:42.
