data_PCOD9382593
_publ_section_title
;
Structure prediction by ZEFSAII (Michael W. Deem and Ramdas Pophale) SiO2 
 PCOD9382593
Probable space group: P M M M
;
_chemical_formula_sum "Si O2"
_cell_formula_units_Z 52
_cell_length_a 14.668430
_cell_length_b 7.668997
_cell_length_c 22.007055
_cell_angle_alpha 90.000000
_cell_angle_beta 90.000000
_cell_angle_gamma 90.000000
_cell_volume 2475.620837
_symmetry_space_group_name_H-M "P M M M"
_symmetry_group_IT_number 47
_symmetry_cell_setting 'orthorhombic'
loop_
_space_group_symop_operation_xyz
x,y,z
-x,-y,z
x,-y,-z
-x,y,-z
-x,-y,-z
x,y,-z
-x,y,z
x,-y,z
loop_
_atom_site_type_symbol
_atom_site_label
_atom_site_fract_x
_atom_site_fract_y
_atom_site_fract_z
Si Si1 0.097614 0.702007 0.098348
Si Si2 0.100165 0.791477 0.238700
Si Si3 0.607285 0.801764 0.000000
Si Si4 0.393487 0.285516 0.761717
Si Si5 0.102053 0.791537 0.431018
Si Si6 0.250671 0.695503 0.668098
Si Si7 0.291376 0.297316 0.883624
O O1 0.097646 0.500000 0.077909
O O2 0.095997 0.713938 0.171633
O O3 0.197461 0.781005 0.088621
O O4 0.000000 0.778779 0.077643
O O5 0.177968 0.702840 0.277066
O O6 0.000000 0.768272 0.266893
O O7 0.116734 0.000000 0.235070
O O8 0.638997 0.711956 0.061465
O O9 0.500000 0.806759 0.000000
O O10 0.642282 0.000000 0.000000
O O11 0.500000 0.234734 0.764441
O O12 0.391473 0.500000 0.762223
O O13 0.340316 0.224643 0.700660
O O14 0.336744 0.225912 0.821754
O O15 0.117809 0.728034 0.500000
O O16 0.188379 0.760031 0.387535
O O17 0.000000 0.726959 0.411946
O O18 0.094566 0.000000 0.433106
O O19 0.276780 0.500000 0.651732
O O20 0.270289 0.500000 0.870229
#
# Coordination Sequence:
#
# PCOD9382593 Si02
#       7
#     8   8   4   8   8   8   8
#     4   9  17  31  52  79 108 133 165 212 258 304
#     4  10  19  29  44  70 105 142 173 201 245 307
#     4  11  25  41  56  79 108 136 175 231 282 317
#     4   9  18  33  53  78 107 136 172 221 272 319
#     4   9  19  36  55  76 107 146 182 215 258 316
#     4  11  20  31  50  78 107 137 176 222 267 307
#     4  10  19  36  60  82 104 139 180 216 265 326
#
# _framework density 21.004832
#
# number of rings (size 3 to 8) (size 9 to 14) (size 15 to 20)
#    0.000    2.231    1.538    2.538    0.000    5.231 
#    0.000    1.154    0.000    5.538    0.000    3.231 
#    0.000    0.000    0.000    0.000    0.000    0.000 
#
# Total GULP energy -289627.668955 kJ/mol
# GULP energy per Si atom -5569.762865 kJ/mol
# Density = 2.095702 g / cm^3
# Si number density = 21.004832 Si / 1000 Ang^3
#
#
#
# Elastic Constant Matrix: (Units=GPa)
#
#
# Indices 1 2 3 4 5 6 
#
# 1 159.8916 13.9460 48.8127 0.0000 0.0000 0.0000
# 2 13.9460 42.1735 4.0593 0.0000 0.0000 0.0000
# 3 48.8127 4.0593 100.9172 0.0000 0.0000 0.0000
# 4 0.0000 0.0000 0.0000 11.9297 0.0000 0.0000
# 5 0.0000 0.0000 0.0000 0.0000 6.0026 0.0000
# 6 0.0000 0.0000 0.0000 0.0000 0.0000 33.5940
#
#
#
# Elastic Compliance Matrix: (Units=1/GPa)
#
#
# Indices 1 2 3 4 5 6 
#
# 1 0.007527 -0.002147 -0.003554 0.000000 0.000000 0.000000
# 2 -0.002147 0.024416 0.000056 0.000000 0.000000 0.000000
# 3 -0.003554 0.000056 0.011626 0.000000 0.000000 0.000000
# 4 0.000000 0.000000 0.000000 0.083824 0.000000 0.000000
# 5 0.000000 0.000000 0.000000 0.000000 0.166594 0.000000
# 6 0.000000 0.000000 0.000000 0.000000 0.000000 0.029767
#
#
# Mechanical properties :
#
#
# Convention : Reuss Voigt Hill
#
# Bulk Modulus (GPa) = 30.97969 48.51314 39.74641
# Shear Modulus (GPa) = 14.45908 26.04954 20.25431
#
# Velocity S-wave (km/s) = 2.62653 3.52542 3.10864
# Velocity P-wave (km/s) = 4.89684 6.30221 5.64344
#
# Compressibility (1/GPa) = 0.03227922
#
# Stress axis : x y z
#
# Youngs Moduli (GPa) = 132.86356 40.95661 86.01438
#
# Poissons Ratio (x) = 0.08793 0.30571
# Poissons Ratio (y) = 0.28523 -0.00484
# Poissons Ratio (z) = 0.47222 -0.00230
#
# Static dielectric constant tensor:
#      x y z
#    x 1.832280 0.000000 0.000000 
#    y 0.000000 1.802140 0.000000 
#    z 0.000000 0.000000 1.748810 
# 
# From -- ./inp_files/6955.got.cif
#   From: 2010.05.17/outbox.cif.g08.bks.cpg/sg47_4_cif.got.tgz:6955.got - 2010.06.03 20:15:42.
