data_PCOD9382081
_publ_section_title
;
Structure prediction by ZEFSAII (Michael W. Deem and Ramdas Pophale) SiO2 
 PCOD9382081
Probable space group: P M M M
;
_chemical_formula_sum "Si O2"
_cell_formula_units_Z 56
_cell_length_a 8.769621
_cell_length_b 20.524335
_cell_length_c 15.646480
_cell_angle_alpha 90.000000
_cell_angle_beta 90.000000
_cell_angle_gamma 90.000000
_cell_volume 2816.219937
_symmetry_space_group_name_H-M "P M M M"
_symmetry_group_IT_number 47
_symmetry_cell_setting 'orthorhombic'
loop_
_space_group_symop_operation_xyz
x,y,z
-x,-y,z
x,-y,-z
-x,y,-z
-x,-y,-z
x,y,-z
-x,y,z
x,-y,z
loop_
_atom_site_type_symbol
_atom_site_label
_atom_site_fract_x
_atom_site_fract_y
_atom_site_fract_z
Si Si1 0.181709 0.796068 0.651715
Si Si2 0.182896 0.928791 0.153799
Si Si3 0.182307 0.424347 0.746203
Si Si4 0.680134 0.338142 0.596007
Si Si5 0.317143 0.928776 0.653054
Si Si6 0.317654 0.203031 0.156493
Si Si7 0.683117 0.346770 0.904482
O O1 0.240209 0.731916 0.604871
O O2 0.246353 0.863663 0.613838
O O3 0.245763 0.790902 0.748773
O O4 0.000000 0.798363 0.653731
O O5 0.251158 0.930252 0.250116
O O6 0.251900 0.862988 0.115077
O O7 0.000000 0.923022 0.158330
O O8 0.219000 0.000000 0.115020
O O9 0.228276 0.500000 0.746802
O O10 0.253896 0.386333 0.666526
O O11 0.237077 0.388488 0.831772
O O12 0.000000 0.420567 0.740372
O O13 0.703020 0.363378 0.500000
O O14 0.500000 0.329098 0.610869
O O15 0.500000 0.922507 0.656273
O O16 0.280797 0.000000 0.614688
O O17 0.500000 0.196851 0.164341
O O18 0.282667 0.270099 0.108444
O O19 0.500000 0.353529 0.895407
O O20 0.726780 0.366983 0.000000
#
# Coordination Sequence:
#
# PCOD9382081 Si02
#       7
#     8   8   8   8   8   8   8
#     4  11  20  31  53  82 116 155 196 246 303 358
#     4   9  16  25  40  67 104 145 192 245 300 356
#     4  11  25  44  67  96 128 160 194 238 295 357
#     4  11  24  42  65  92 122 159 203 247 293 351
#     4   9  16  26  43  70 106 149 198 248 297 351
#     4  10  18  30  52  79 111 151 198 249 298 352
#     4  10  22  40  63  91 123 162 206 250 297 352
#
# _framework density 19.884810000000002
#
# number of rings (size 3 to 8) (size 9 to 14) (size 15 to 20)
#    0.000    1.857    1.429    5.143    0.000    5.429 
#    0.000    2.857    0.000    0.857    0.000    6.000 
#    0.000    0.000    0.000    0.000    0.000    0.000 
#
# Total GULP energy -312732.560792 kJ/mol
# GULP energy per Si atom -5584.510014 kJ/mol
# Density = 1.983955 g / cm^3
# Si number density = 19.884810 Si / 1000 Ang^3
#
#
#
# Elastic Constant Matrix: (Units=GPa)
#
#
# Indices 1 2 3 4 5 6 
#
# 1 95.0535 73.9302 46.3986 0.0000 0.0000 0.0000
# 2 73.9302 172.7027 60.6858 0.0000 0.0000 0.0000
# 3 46.3986 60.6858 81.2056 0.0000 0.0000 0.0000
# 4 0.0000 0.0000 0.0000 -7.1345 0.0000 0.0000
# 5 0.0000 0.0000 0.0000 0.0000 46.3099 0.0000
# 6 0.0000 0.0000 0.0000 0.0000 0.0000 37.2950
#
#
#
# Elastic Compliance Matrix: (Units=1/GPa)
#
#
# Indices 1 2 3 4 5 6 
#
# 1 0.017717 -0.005461 -0.006042 0.000000 0.000000 0.000000
# 2 -0.005461 0.009536 -0.004006 0.000000 0.000000 0.000000
# 3 -0.006042 -0.004006 0.018760 0.000000 0.000000 0.000000
# 4 0.000000 0.000000 0.000000 -0.140163 0.000000 0.000000
# 5 0.000000 0.000000 0.000000 0.000000 0.021594 0.000000
# 6 0.000000 0.000000 0.000000 0.000000 0.000000 0.026813
#
#
# Mechanical properties :
#
#
# Convention : Reuss Voigt Hill
#
# Bulk Modulus (GPa) = 66.68745 78.99901 72.84323
# Shear Modulus (GPa) = -514.02627 26.49055 -243.76786
#
# Velocity S-wave (km/s) = -16.09544 3.65389 -11.08405
# Velocity P-wave (km/s) = 17.65808 7.59051 11.27369
#
# Compressibility (1/GPa) = 0.01499532
#
# Stress axis : x y z
#
# Youngs Moduli (GPa) = 56.44200 104.86868 53.30472
#
# Poissons Ratio (x) = 0.57272 0.32206
# Poissons Ratio (y) = 0.30825 0.21352
# Poissons Ratio (z) = 0.34101 0.42007
#
# Static dielectric constant tensor:
#      x y z
#    x 1.662850 0.000000 0.000000 
#    y 0.000000 1.730850 0.000000 
#    z 0.000000 0.000000 1.716810 
# 
# From -- ./inp_files/26943.got.cif
#   From: 2010.05.17/outbox.cif.g08.bks.cpg/sg47_14_cif.got.tgz:26943.got - 2010.06.03 20:15:42.
