data_PCOD9382770
_publ_section_title
;
Structure prediction by ZEFSAII (Michael W. Deem and Ramdas Pophale) SiO2 
 PCOD9382770
Probable space group: P M M M
;
_chemical_formula_sum "Si O2"
_cell_formula_units_Z 40
_cell_length_a 7.547853
_cell_length_b 31.114467
_cell_length_c 9.305999
_cell_angle_alpha 90.000000
_cell_angle_beta 90.000000
_cell_angle_gamma 90.000000
_cell_volume 2185.489884
_symmetry_space_group_name_H-M "P M M M"
_symmetry_group_IT_number 47
_symmetry_cell_setting 'orthorhombic'
loop_
_space_group_symop_operation_xyz
x,y,z
-x,-y,z
x,-y,-z
-x,y,-z
-x,-y,-z
x,y,-z
-x,y,z
x,-y,z
loop_
_atom_site_type_symbol
_atom_site_label
_atom_site_fract_x
_atom_site_fract_y
_atom_site_fract_z
Si Si1 0.000000 0.206756 0.173810
Si Si2 0.716522 0.368986 0.165449
Si Si3 0.296589 0.951925 0.325395
Si Si4 0.000000 0.115278 0.325636
Si Si5 0.702981 0.274498 0.174991
Si Si6 0.284063 0.547060 0.667174
O O1 0.830442 0.235719 0.214894
O O2 0.000000 0.161228 0.251183
O O3 0.000000 0.201508 0.000000
O O4 0.500000 0.368608 0.166967
O O5 0.767667 0.321831 0.222699
O O6 0.777832 0.410734 0.250649
O O7 0.772117 0.372615 0.000000
O O8 0.293738 0.952401 0.500000
O O9 0.500000 0.945637 0.280724
O O10 0.168699 0.913626 0.281711
O O11 0.239119 0.000000 0.279832
O O12 0.000000 0.119767 0.500000
O O13 0.500000 0.267983 0.221398
O O14 0.702538 0.276715 0.000000
O O15 0.234835 0.549563 0.500000
O O16 0.500000 0.547472 0.673208
O O17 0.227859 0.500000 0.723242
#
# Coordination Sequence:
#
# PCOD9382770 Si02
#       6
#     4   8   8   4   8   8
#     4  10  20  33  49  67  89 123 158 183 223 280
#     4   8  13  22  37  55  74  99 134 176 216 250
#     4   8  14  26  46  71  96 124 158 190 222 264
#     4  10  19  30  46  70  98 121 147 192 235 261
#     4   8  15  29  47  65  85 111 148 191 226 262
#     4   8  13  20  30  49  80 111 134 161 203 258
#
# _framework density 18.302533
#
# number of rings (size 3 to 8) (size 9 to 14) (size 15 to 20)
#    0.000    3.600    0.000    2.700    0.000    2.400 
#    0.000    3.000    0.000    2.400    0.000    2.100 
#    0.000    5.600    0.000    0.600    0.000    0.000 
#
# Total GULP energy -222765.210280 kJ/mol
# GULP energy per Si atom -5569.130257 kJ/mol
# Density = 1.826088 g / cm^3
# Si number density = 18.302533 Si / 1000 Ang^3
#
#
#
# Elastic Constant Matrix: (Units=GPa)
#
#
# Indices 1 2 3 4 5 6 
#
# 1 78.7666 82.8632 18.7007 0.0000 0.0000 0.0000
# 2 82.8632 237.2087 52.1252 0.0000 0.0000 0.0000
# 3 18.7007 52.1252 19.2894 0.0000 0.0000 0.0000
# 4 0.0000 0.0000 0.0000 35.6558 0.0000 0.0000
# 5 0.0000 0.0000 0.0000 0.0000 3.5295 0.0000
# 6 0.0000 0.0000 0.0000 0.0000 0.0000 -40.3437
#
#
#
# Elastic Compliance Matrix: (Units=1/GPa)
#
#
# Indices 1 2 3 4 5 6 
#
# 1 0.020085 -0.006739 -0.001261 0.000000 0.000000 0.000000
# 2 -0.006739 0.012640 -0.027623 0.000000 0.000000 0.000000
# 3 -0.001261 -0.027623 0.127708 0.000000 0.000000 0.000000
# 4 0.000000 0.000000 0.000000 0.028046 0.000000 0.000000
# 5 0.000000 0.000000 0.000000 0.000000 0.283323 0.000000
# 6 0.000000 0.000000 0.000000 0.000000 0.000000 -0.024787
#
#
# Mechanical properties :
#
#
# Convention : Reuss Voigt Hill
#
# Bulk Modulus (GPa) = 11.21239 71.40477 41.30858
# Shear Modulus (GPa) = 9.12428 11.87339 10.49883
#
# Velocity S-wave (km/s) = 2.23519 2.54978 2.39765
# Velocity P-wave (km/s) = 3.57783 6.91135 5.50308
#
# Compressibility (1/GPa) = 0.08918706
#
# Stress axis : x y z
#
# Youngs Moduli (GPa) = 49.78943 79.11596 7.83036
#
# Poissons Ratio (x) = 0.53316 0.00988
# Poissons Ratio (y) = 0.33553 0.21629
# Poissons Ratio (z) = 0.06279 2.18538
#
# Static dielectric constant tensor:
#      x y z
#    x 1.684700 0.000000 0.000000 
#    y 0.000000 1.626400 0.000000 
#    z 0.000000 0.000000 1.609320 
# 
# From -- ./inp_files/15090.got.cif
#   From: 2010.05.17/outbox.cif.g08.bks.cpg/sg47_8_cif.got.tgz:15090.got - 2010.06.03 20:15:42.
