data_PCOD9382470
_publ_section_title
;
Structure prediction by ZEFSAII (Michael W. Deem and Ramdas Pophale) SiO2 
 PCOD9382470
Probable space group: P M M M
;
_chemical_formula_sum "Si O2"
_cell_formula_units_Z 40
_cell_length_a 8.769436
_cell_length_b 20.212607
_cell_length_c 16.174004
_cell_angle_alpha 90.000000
_cell_angle_beta 90.000000
_cell_angle_gamma 90.000000
_cell_volume 2866.893375
_symmetry_space_group_name_H-M "P M M M"
_symmetry_group_IT_number 47
_symmetry_cell_setting 'orthorhombic'
loop_
_space_group_symop_operation_xyz
x,y,z
-x,-y,z
x,-y,-z
-x,y,-z
-x,-y,-z
x,y,-z
-x,y,z
x,-y,z
loop_
_atom_site_type_symbol
_atom_site_label
_atom_site_fract_x
_atom_site_fract_y
_atom_site_fract_z
Si Si1 0.813593 0.423368 0.680397
Si Si2 0.182942 0.345048 0.156867
Si Si3 0.317513 0.577900 0.000000
Si Si4 0.820543 0.927307 0.100078
Si Si5 0.681385 0.789177 0.097788
Si Si6 0.823661 0.419563 0.500000
O O1 0.768657 0.500000 0.694362
O O2 0.767275 0.377842 0.756649
O O3 0.757311 0.401063 0.589426
O O4 0.000000 0.423132 0.677125
O O5 0.250426 0.387018 0.080954
O O6 0.238459 0.270112 0.145857
O O7 0.000000 0.347549 0.152554
O O8 0.280675 0.500000 0.000000
O O9 0.500000 0.585765 0.000000
O O10 0.732373 0.861907 0.127182
O O11 0.000000 0.920971 0.119637
O O12 0.767176 0.000000 0.129285
O O13 0.808522 0.928402 0.000000
O O14 0.500000 0.782520 0.103515
O O15 0.723197 0.782953 0.000000
O O16 0.826165 0.500000 0.500000
O O17 0.000000 0.397077 0.500000
#
# Coordination Sequence:
#
# PCOD9382470 Si02
#       6
#     8   8   4   8   8   4
#     4   8  14  24  39  60  81 100 127 164 208 253
#     4  11  20  29  43  60  79 105 138 174 205 238
#     4  11  23  35  43  53  74 105 140 175 211 245
#     4   8  14  25  41  59  77  98 129 168 205 238
#     4  10  19  29  40  54  78 109 140 170 201 239
#     4   7  10  20  38  58  81 101 116 151 208 259
#
# _framework density 13.952385
#
# number of rings (size 3 to 8) (size 9 to 14) (size 15 to 20)
#    0.000    2.800    1.000    3.900    0.000    2.800 
#    0.000    2.000    0.000    0.000    0.000    2.800 
#    0.000   11.200    0.000    0.900    0.000   20.600 
#
# Total GULP energy -222709.907619 kJ/mol
# GULP energy per Si atom -5567.747690 kJ/mol
# Density = 1.392063 g / cm^3
# Si number density = 13.952385 Si / 1000 Ang^3
#
#
#
# Elastic Constant Matrix: (Units=GPa)
#
#
# Indices 1 2 3 4 5 6 
#
# 1 19.6866 32.0736 20.1307 0.0000 0.0000 0.0000
# 2 32.0736 109.9246 56.0209 0.0000 0.0000 0.0000
# 3 20.1307 56.0209 98.7453 0.0000 0.0000 0.0000
# 4 0.0000 0.0000 0.0000 4.2249 0.0000 0.0000
# 5 0.0000 0.0000 0.0000 0.0000 0.4100 0.0000
# 6 0.0000 0.0000 0.0000 0.0000 0.0000 16.8532
#
#
#
# Elastic Compliance Matrix: (Units=1/GPa)
#
#
# Indices 1 2 3 4 5 6 
#
# 1 0.098774 -0.026106 -0.005326 0.000000 0.000000 0.000000
# 2 -0.026106 0.019697 -0.005853 0.000000 0.000000 0.000000
# 3 -0.005326 -0.005853 0.014533 0.000000 0.000000 0.000000
# 4 0.000000 0.000000 0.000000 0.236692 0.000000 0.000000
# 5 0.000000 0.000000 0.000000 0.000000 2.438984 0.000000
# 6 0.000000 0.000000 0.000000 0.000000 0.000000 0.059336
#
#
# Mechanical properties :
#
#
# Convention : Reuss Voigt Hill
#
# Bulk Modulus (GPa) = 17.11299 49.42303 33.26801
# Shear Modulus (GPa) = 1.68801 12.30637 6.99719
#
# Velocity S-wave (km/s) = 1.10112 2.97312 2.24186
# Velocity P-wave (km/s) = 3.72941 6.87644 5.53145
#
# Compressibility (1/GPa) = 0.05843515
#
# Stress axis : x y z
#
# Youngs Moduli (GPa) = 10.12415 50.76950 68.80821
#
# Poissons Ratio (x) = 1.32538 0.36647
# Poissons Ratio (y) = 0.26430 0.40270
# Poissons Ratio (z) = 0.05392 0.29713
#
# Static dielectric constant tensor:
#      x y z
#    x 1.465860 0.000000 0.000000 
#    y 0.000000 1.463660 0.000000 
#    z 0.000000 0.000000 1.458310 
# 
# From -- ./inp_files/10824.got.cif
#   From: 2010.05.17/outbox.cif.g08.bks.cpg/sg47_6_cif.got.tgz:10824.got - 2010.06.03 20:15:42.
