data_PCOD9382665
_publ_section_title
;
Structure prediction by ZEFSAII (Michael W. Deem and Ramdas Pophale) SiO2 
 PCOD9382665
Probable space group: P M M M
;
_chemical_formula_sum "Si O2"
_cell_formula_units_Z 52
_cell_length_a 31.088048
_cell_length_b 12.670652
_cell_length_c 9.173274
_cell_angle_alpha 90.000000
_cell_angle_beta 90.000000
_cell_angle_gamma 90.000000
_cell_volume 3613.406178
_symmetry_space_group_name_H-M "P M M M"
_symmetry_group_IT_number 47
_symmetry_cell_setting 'orthorhombic'
loop_
_space_group_symop_operation_xyz
x,y,z
-x,-y,z
x,-y,-z
-x,y,-z
-x,-y,-z
x,y,-z
-x,y,z
x,-y,z
loop_
_atom_site_type_symbol
_atom_site_label
_atom_site_fract_x
_atom_site_fract_y
_atom_site_fract_z
Si Si1 0.185481 0.627668 0.170786
Si Si2 0.051576 0.500000 0.171434
Si Si3 0.900498 0.306664 0.673824
Si Si4 0.272391 0.628306 0.669829
Si Si5 0.452910 0.372188 0.172149
Si Si6 0.050709 0.125058 0.829436
Si Si7 0.367305 0.627065 0.672704
O O1 0.181936 0.500000 0.185668
O O2 0.147440 0.678281 0.264209
O O3 0.232062 0.660223 0.232571
O O4 0.181102 0.652760 0.000000
O O5 0.071119 0.397957 0.250093
O O6 0.000000 0.500000 0.180701
O O7 0.063797 0.500000 0.000000
O O8 0.901308 0.317766 0.500000
O O9 0.920535 0.196478 0.726254
O O10 0.266378 0.658522 0.500000
O O11 0.273316 0.500000 0.671924
O O12 0.319840 0.664603 0.720561
O O13 0.500000 0.335302 0.226047
O O14 0.453054 0.500000 0.188637
O O15 0.410045 0.331201 0.249754
O O16 0.450352 0.350913 0.000000
O O17 0.000000 0.146245 0.803888
O O18 0.057564 0.000000 0.809737
O O19 0.059357 0.150465 0.000000
O O20 0.370331 0.645076 0.500000
O O21 0.367248 0.500000 0.694655
#
# Coordination Sequence:
#
# PCOD9382665 Si02
#       7
#     8   4   8   8   8   8   8
#     4  10  19  30  44  60  81 109 140 169 200 245
#     4  11  23  37  51  67  91 121 149 175 204 247
#     4  12  23  33  49  71  95 119 142 174 214 251
#     4   8  14  24  36  49  68  91 118 154 195 237
#     4   8  13  19  25  34  50  72  99 136 181 226
#     4   9  19  37  58  75  92 117 146 174 206 245
#     4   8  13  20  29  41  56  77 105 140 183 231
#
# _framework density 14.390853999999999
#
# number of rings (size 3 to 8) (size 9 to 14) (size 15 to 20)
#    0.000    2.692    0.769    4.385    0.000    4.615 
#    0.000    5.385    0.000    0.000    0.000    0.000 
#    0.000    0.000    0.000    0.000    0.000    0.000 
#
# Total GULP energy -289577.186131 kJ/mol
# GULP energy per Si atom -5568.792041 kJ/mol
# Density = 1.435810 g / cm^3
# Si number density = 14.390854 Si / 1000 Ang^3
#
#
#
# Elastic Constant Matrix: (Units=GPa)
#
#
# Indices 1 2 3 4 5 6 
#
# 1 135.9158 27.1371 75.6928 0.0000 0.0000 0.0000
# 2 27.1371 18.8734 25.5192 0.0000 0.0000 0.0000
# 3 75.6928 25.5192 88.0807 0.0000 0.0000 0.0000
# 4 0.0000 0.0000 0.0000 10.3600 0.0000 0.0000
# 5 0.0000 0.0000 0.0000 0.0000 29.7001 0.0000
# 6 0.0000 0.0000 0.0000 0.0000 0.0000 7.2261
#
#
#
# Elastic Compliance Matrix: (Units=1/GPa)
#
#
# Indices 1 2 3 4 5 6 
#
# 1 0.014597 -0.006621 -0.010626 0.000000 0.000000 0.000000
# 2 -0.006621 0.090112 -0.020418 0.000000 0.000000 0.000000
# 3 -0.010626 -0.020418 0.026400 0.000000 0.000000 0.000000
# 4 0.000000 0.000000 0.000000 0.096525 0.000000 0.000000
# 5 0.000000 0.000000 0.000000 0.000000 0.033670 0.000000
# 6 0.000000 0.000000 0.000000 0.000000 0.000000 0.138387
#
#
# Mechanical properties :
#
#
# Convention : Reuss Voigt Hill
#
# Bulk Modulus (GPa) = 17.92762 55.50759 36.71760
# Shear Modulus (GPa) = 10.12936 17.09195 13.61066
#
# Velocity S-wave (km/s) = 2.65594 3.45003 3.07870
# Velocity P-wave (km/s) = 4.67868 7.38414 6.18124
#
# Compressibility (1/GPa) = 0.05577985
#
# Stress axis : x y z
#
# Youngs Moduli (GPa) = 68.50684 11.09729 37.87845
#
# Poissons Ratio (x) = 0.07347 0.40249
# Poissons Ratio (y) = 0.45358 0.77340
# Poissons Ratio (z) = 0.72794 0.22658
#
# Static dielectric constant tensor:
#      x y z
#    x 1.508400 0.000000 0.000000 
#    y 0.000000 1.444990 0.000000 
#    z 0.000000 0.000000 1.476930 
# 
# From -- ./inp_files/14142.got.cif
#   From: 2010.05.17/outbox.cif.g08.bks.cpg/sg47_8_cif.got.tgz:14142.got - 2010.06.03 20:15:42.
