data_PCOD9382118
_publ_section_title
;
Structure prediction by ZEFSAII (Michael W. Deem and Ramdas Pophale) SiO2 
 PCOD9382118
Probable space group: P M M M
;
_chemical_formula_sum "Si O2"
_cell_formula_units_Z 36
_cell_length_a 12.151357
_cell_length_b 7.593101
_cell_length_c 23.322010
_cell_angle_alpha 90.000000
_cell_angle_beta 90.000000
_cell_angle_gamma 90.000000
_cell_volume 2151.839792
_symmetry_space_group_name_H-M "P M M M"
_symmetry_group_IT_number 47
_symmetry_cell_setting 'orthorhombic'
loop_
_space_group_symop_operation_xyz
x,y,z
-x,-y,z
x,-y,-z
-x,y,-z
-x,-y,-z
x,y,-z
-x,y,z
x,-y,z
loop_
_atom_site_type_symbol
_atom_site_label
_atom_site_fract_x
_atom_site_fract_y
_atom_site_fract_z
Si Si1 0.267238 0.708489 0.887802
Si Si2 0.874284 0.788925 0.000000
Si Si3 0.873277 0.715478 0.218898
Si Si4 0.866140 0.298752 0.652964
Si Si5 0.134291 0.000000 0.565762
Si Si6 0.500000 0.716137 0.933211
O O1 0.280463 0.500000 0.878021
O O2 0.190605 0.730795 0.943439
O O3 0.205100 0.779299 0.831858
O O4 0.388294 0.777808 0.902867
O O5 0.000000 0.723744 0.000000
O O6 0.876534 0.000000 0.000000
O O7 0.874851 0.500000 0.218545
O O8 0.836414 0.765176 0.283043
O O9 0.000000 0.771640 0.209578
O O10 0.829201 0.500000 0.644928
O O11 0.830916 0.170030 0.602384
O O12 0.000000 0.301057 0.653200
O O13 0.171213 0.000000 0.500000
O O14 0.000000 0.000000 0.564938
O O15 0.500000 0.500000 0.933101
O O16 0.500000 0.768545 0.000000
#
# Coordination Sequence:
#
# PCOD9382118 Si02
#       6
#     8   4   8   8   4   4
#     4  10  18  31  50  65  81 111 147 181 221 270
#     4  11  23  34  41  60  90 109 136 185 232 269
#     4   8  14  25  42  62  80 104 143 181 216 262
#     4   8  14  25  38  54  80 111 144 182 217 254
#     4   9  16  24  36  58  84 114 151 176 202 252
#     4   9  16  28  46  68  86 104 140 185 221 266
#
# _framework density 16.729869999999998
#
# number of rings (size 3 to 8) (size 9 to 14) (size 15 to 20)
#    0.000    3.000    1.111    2.333    0.000    2.222 
#    2.000    3.333    0.000    0.000    0.000    0.000 
#    0.000    0.000    0.000    2.000    0.000   23.111 
#
# Total GULP energy -200645.627230 kJ/mol
# GULP energy per Si atom -5573.489645 kJ/mol
# Density = 1.669179 g / cm^3
# Si number density = 16.729870 Si / 1000 Ang^3
#
#
#
# Elastic Constant Matrix: (Units=GPa)
#
#
# Indices 1 2 3 4 5 6 
#
# 1 92.7718 15.0036 64.4517 0.0000 0.0000 0.0000
# 2 15.0036 52.4781 42.2507 0.0000 0.0000 0.0000
# 3 64.4517 42.2507 182.3289 0.0000 0.0000 0.0000
# 4 0.0000 0.0000 0.0000 44.6260 0.0000 0.0000
# 5 0.0000 0.0000 0.0000 0.0000 2.0992 0.0000
# 6 0.0000 0.0000 0.0000 0.0000 0.0000 4.4111
#
#
#
# Elastic Compliance Matrix: (Units=1/GPa)
#
#
# Indices 1 2 3 4 5 6 
#
# 1 0.014288 -0.000023 -0.005045 0.000000 0.000000 0.000000
# 2 -0.000023 0.023426 -0.005420 0.000000 0.000000 0.000000
# 3 -0.005045 -0.005420 0.008524 0.000000 0.000000 0.000000
# 4 0.000000 0.000000 0.000000 0.022408 0.000000 0.000000
# 5 0.000000 0.000000 0.000000 0.000000 0.476378 0.000000
# 6 0.000000 0.000000 0.000000 0.000000 0.000000 0.226700
#
#
# Mechanical properties :
#
#
# Convention : Reuss Voigt Hill
#
# Bulk Modulus (GPa) = 39.58673 63.44343 51.51508
# Shear Modulus (GPa) = 6.24124 23.95212 15.09668
#
# Velocity S-wave (km/s) = 1.93357 3.78788 3.00722
# Velocity P-wave (km/s) = 5.35711 7.55879 6.55110
#
# Compressibility (1/GPa) = 0.02526099
#
# Stress axis : x y z
#
# Youngs Moduli (GPa) = 69.98853 42.68739 117.31355
#
# Poissons Ratio (x) = 0.00098 0.59190
# Poissons Ratio (y) = 0.00160 0.63589
# Poissons Ratio (z) = 0.35312 0.23138
#
# Static dielectric constant tensor:
#      x y z
#    x 1.540830 0.000000 0.000000 
#    y 0.000000 1.620110 0.000000 
#    z 0.000000 0.000000 1.563760 
# 
# From -- ./inp_files/30281.got.cif
#   From: 2010.05.17/outbox.cif.g08.bks.cpg/sg47_16_cif.got.tgz:30281.got - 2010.06.03 20:15:42.
