data_PCOD9382793
_publ_section_title
;
Structure prediction by ZEFSAII (Michael W. Deem and Ramdas Pophale) SiO2 
 PCOD9382793
Probable space group: P M M M
;
_chemical_formula_sum "Si O2"
_cell_formula_units_Z 64
_cell_length_a 7.453398
_cell_length_b 15.525928
_cell_length_c 28.030675
_cell_angle_alpha 90.000000
_cell_angle_beta 90.000000
_cell_angle_gamma 90.000000
_cell_volume 3243.735519
_symmetry_space_group_name_H-M "P M M M"
_symmetry_group_IT_number 47
_symmetry_cell_setting 'orthorhombic'
loop_
_space_group_symop_operation_xyz
x,y,z
-x,-y,z
x,-y,-z
-x,y,-z
-x,-y,-z
x,y,-z
-x,y,z
x,-y,z
loop_
_atom_site_type_symbol
_atom_site_label
_atom_site_fract_x
_atom_site_fract_y
_atom_site_fract_z
Si Si1 0.216016 0.096407 0.445593
Si Si2 0.211105 0.904333 0.832027
Si Si3 0.287680 0.776272 0.360375
Si Si4 0.779913 0.278977 0.139352
Si Si5 0.716910 0.903179 0.279204
Si Si6 0.216692 0.597507 0.224482
Si Si7 0.290324 0.404776 0.335320
Si Si8 0.781384 0.402121 0.054468
O O1 0.276476 0.112202 0.500000
O O2 0.268214 0.168942 0.408254
O O3 0.000000 0.094279 0.446379
O O4 0.277710 0.000000 0.431234
O O5 0.283073 0.819582 0.858010
O O6 0.227651 0.888033 0.775260
O O7 0.000000 0.908727 0.843211
O O8 0.287578 0.000000 0.841450
O O9 0.500000 0.767314 0.351263
O O10 0.214854 0.832937 0.316445
O O11 0.212979 0.679507 0.360840
O O12 0.723360 0.331982 0.186395
O O13 0.722655 0.332522 0.093061
O O14 0.000000 0.278000 0.139724
O O15 0.500000 0.902523 0.280171
O O16 0.775293 0.000000 0.292764
O O17 0.270835 0.500000 0.210580
O O18 0.279037 0.612471 0.278463
O O19 0.000000 0.599155 0.225231
O O20 0.500000 0.410828 0.348186
O O21 0.210877 0.500000 0.343709
O O22 0.726957 0.500000 0.066962
O O23 0.000000 0.401842 0.054902
O O24 0.725783 0.384480 0.000000
#
# Coordination Sequence:
#
# PCOD9382793 Si02
#       8
#     8   8   8   8   8   8   8   8
#     4   9  19  35  52  71  95 118 139 170 216 264
#     4   9  17  27  38  54  78 109 141 167 195 239
#     4  10  19  30  47  69  90 116 150 182 212 250
#     4   9  15  23  36  53  76 105 134 168 208 245
#     4   9  17  28  41  60  87 113 138 173 212 246
#     4   9  16  25  39  60  83 107 138 174 211 252
#     4   9  18  31  44  61  90 123 150 179 214 249
#     4   8  13  21  34  53  76 101 129 162 204 253
#
# _framework density 19.730338
#
# number of rings (size 3 to 8) (size 9 to 14) (size 15 to 20)
#    0.000    3.000    0.000    2.250    0.000    3.500 
#    0.000    1.875    0.000    0.750    0.000    5.250 
#    0.000    2.000    0.000   12.000    0.000   11.500 
#
# Total GULP energy -357028.042709 kJ/mol
# GULP energy per Si atom -5578.563167 kJ/mol
# Density = 1.968543 g / cm^3
# Si number density = 19.730338 Si / 1000 Ang^3
#
#
#
# Elastic Constant Matrix: (Units=GPa)
#
#
# Indices 1 2 3 4 5 6 
#
# 1 58.5180 7.4584 -6.4097 0.0000 0.0000 0.0000
# 2 7.4584 211.5584 100.2774 0.0000 0.0000 0.0000
# 3 -6.4097 100.2774 71.5485 0.0000 0.0000 0.0000
# 4 0.0000 0.0000 0.0000 26.3612 0.0000 0.0000
# 5 0.0000 0.0000 0.0000 0.0000 12.8523 0.0000
# 6 0.0000 0.0000 0.0000 0.0000 0.0000 0.4573
#
#
#
# Elastic Compliance Matrix: (Units=1/GPa)
#
#
# Indices 1 2 3 4 5 6 
#
# 1 0.018472 -0.004277 0.007648 0.000000 0.000000 0.000000
# 2 -0.004277 0.015071 -0.021506 0.000000 0.000000 0.000000
# 3 0.007648 -0.021506 0.044803 0.000000 0.000000 0.000000
# 4 0.000000 0.000000 0.000000 0.037935 0.000000 0.000000
# 5 0.000000 0.000000 0.000000 0.000000 0.077807 0.000000
# 6 0.000000 0.000000 0.000000 0.000000 0.000000 2.186894
#
#
# Mechanical properties :
#
#
# Convention : Reuss Voigt Hill
#
# Bulk Modulus (GPa) = 23.76550 60.47523 42.12036
# Shear Modulus (GPa) = 2.05653 23.95406 13.00530
#
# Velocity S-wave (km/s) = 1.02205 3.48813 2.57018
# Velocity P-wave (km/s) = 3.66934 6.85129 5.49565
#
# Compressibility (1/GPa) = 0.04207780
#
# Stress axis : x y z
#
# Youngs Moduli (GPa) = 54.13717 66.35128 22.31992
#
# Poissons Ratio (x) = 0.28375 -0.17071
# Poissons Ratio (y) = 0.23152 0.48001
# Poissons Ratio (z) = -0.41407 1.42695
#
# Static dielectric constant tensor:
#      x y z
#    x 1.792420 0.000000 0.000000 
#    y 0.000000 1.734450 0.000000 
#    z 0.000000 0.000000 1.645490 
# 
# From -- ./inp_files/14341.got.cif
#   From: 2010.05.17/outbox.cif.g08.bks.cpg/sg47_8_cif.got.tgz:14341.got - 2010.06.03 20:15:42.
