data_PCOD9382697
_publ_section_title
;
Structure prediction by ZEFSAII (Michael W. Deem and Ramdas Pophale) SiO2 
 PCOD9382697
Probable space group: P M M M
;
_chemical_formula_sum "Si O2"
_cell_formula_units_Z 56
_cell_length_a 19.180916
_cell_length_b 19.830283
_cell_length_c 7.779016
_cell_angle_alpha 90.000000
_cell_angle_beta 90.000000
_cell_angle_gamma 90.000000
_cell_volume 2958.849804
_symmetry_space_group_name_H-M "P M M M"
_symmetry_group_IT_number 47
_symmetry_cell_setting 'orthorhombic'
loop_
_space_group_symop_operation_xyz
x,y,z
-x,-y,z
x,-y,-z
-x,y,-z
-x,-y,-z
x,y,-z
-x,y,z
x,-y,z
loop_
_atom_site_type_symbol
_atom_site_label
_atom_site_fract_x
_atom_site_fract_y
_atom_site_fract_z
Si Si1 0.077195 0.578054 0.707576
Si Si2 0.728484 0.074992 0.803237
Si Si3 0.278758 0.782597 0.206459
Si Si4 0.361052 0.574030 0.701795
Si Si5 0.575173 0.919125 0.696394
Si Si6 0.421736 0.284306 0.707897
Si Si7 0.777655 0.359120 0.797187
O O1 0.077811 0.578792 0.500000
O O2 0.085199 0.500000 0.762029
O O3 0.143261 0.619636 0.768818
O O4 0.000000 0.601213 0.763793
O O5 0.750649 0.146398 0.722459
O O6 0.644977 0.087604 0.803819
O O7 0.740497 0.000000 0.725620
O O8 0.753327 0.071554 0.000000
O O9 0.360271 0.766691 0.241562
O O10 0.239108 0.715887 0.270107
O O11 0.270665 0.786194 0.000000
O O12 0.379045 0.571396 0.500000
O O13 0.376574 0.500000 0.776295
O O14 0.399496 0.640717 0.771722
O O15 0.278641 0.590017 0.716469
O O16 0.585060 0.893538 0.500000
O O17 0.500000 0.894025 0.760736
O O18 0.569102 0.000000 0.683015
O O19 0.421938 0.285979 0.500000
O O20 0.500000 0.268097 0.765498
O O21 0.762766 0.359552 0.000000
#
# Coordination Sequence:
#
# PCOD9382697 Si02
#       7
#     8   8   8   8   8   8   8
#     4   9  18  32  49  70  97 126 151 174 201 234
#     4   9  17  29  44  59  75  99 134 174 212 253
#     4   9  19  33  45  60  84 113 143 176 219 266
#     4   9  17  29  45  63  83 110 144 182 223 261
#     4   8  14  24  36  51  73  98 122 155 206 262
#     4   9  18  31  45  61  80 105 142 185 225 266
#     4  10  19  30  45  65  91 120 147 176 209 249
#
# _framework density 18.926272999999998
#
# number of rings (size 3 to 8) (size 9 to 14) (size 15 to 20)
#    0.000    3.000    0.000    1.714    0.000    5.143 
#    0.000    6.429    0.000    0.000    0.000    4.000 
#    0.000    0.571    0.000    7.143    0.000    1.143 
#
# Total GULP energy -311862.956296 kJ/mol
# GULP energy per Si atom -5568.981362 kJ/mol
# Density = 1.888320 g / cm^3
# Si number density = 18.926273 Si / 1000 Ang^3
#
#
#
# Elastic Constant Matrix: (Units=GPa)
#
#
# Indices 1 2 3 4 5 6 
#
# 1 63.1850 24.4398 -7.4984 0.0000 0.0000 0.0000
# 2 24.4398 148.3644 1.7240 0.0000 0.0000 0.0000
# 3 -7.4984 1.7240 26.8879 0.0000 0.0000 0.0000
# 4 0.0000 0.0000 0.0000 -12.0934 0.0000 0.0000
# 5 0.0000 0.0000 0.0000 0.0000 -6.8150 0.0000
# 6 0.0000 0.0000 0.0000 0.0000 0.0000 5.9771
#
#
#
# Elastic Compliance Matrix: (Units=1/GPa)
#
#
# Indices 1 2 3 4 5 6 
#
# 1 0.017573 -0.002954 0.005090 0.000000 0.000000 0.000000
# 2 -0.002954 0.007242 -0.001288 0.000000 0.000000 0.000000
# 3 0.005090 -0.001288 0.038694 0.000000 0.000000 0.000000
# 4 0.000000 0.000000 0.000000 -0.082690 0.000000 0.000000
# 5 0.000000 0.000000 0.000000 0.000000 -0.146734 0.000000
# 6 0.000000 0.000000 0.000000 0.000000 0.000000 0.167305
#
#
# Mechanical properties :
#
#
# Convention : Reuss Voigt Hill
#
# Bulk Modulus (GPa) = 15.33632 30.64090 22.98861
# Shear Modulus (GPa) = 233.34447 12.06520 122.70484
#
# Velocity S-wave (km/s) = 11.11571 2.52758 8.06063
# Velocity P-wave (km/s) = 13.14785 4.97423 9.94005
#
# Compressibility (1/GPa) = 0.06520471
#
# Stress axis : x y z
#
# Youngs Moduli (GPa) = 56.90484 138.08854 25.84407
#
# Poissons Ratio (x) = 0.40791 -0.13155
# Poissons Ratio (y) = 0.16809 0.03329
# Poissons Ratio (z) = -0.28966 0.17788
#
# Static dielectric constant tensor:
#      x y z
#    x 1.636520 0.000000 0.000000 
#    y 0.000000 1.745840 0.000000 
#    z 0.000000 0.000000 1.709710 
# 
# From -- ./inp_files/9791.got.cif
#   From: 2010.05.17/outbox.cif.g08.bks.cpg/sg47_5_cif.got.tgz:9791.got - 2010.06.03 20:15:42.
