data_PCOD9382162
_publ_section_title
;
Structure prediction by ZEFSAII (Michael W. Deem and Ramdas Pophale) SiO2 
 PCOD9382162
Probable space group: P M M M
;
_chemical_formula_sum "Si O2"
_cell_formula_units_Z 52
_cell_length_a 12.030834
_cell_length_b 8.676241
_cell_length_c 28.956000
_cell_angle_alpha 90.000000
_cell_angle_beta 90.000000
_cell_angle_gamma 90.000000
_cell_volume 3022.497215
_symmetry_space_group_name_H-M "P M M M"
_symmetry_group_IT_number 47
_symmetry_cell_setting 'orthorhombic'
loop_
_space_group_symop_operation_xyz
x,y,z
-x,-y,z
x,-y,-z
-x,y,-z
-x,-y,-z
x,y,-z
-x,y,z
x,-y,z
loop_
_atom_site_type_symbol
_atom_site_label
_atom_site_fract_x
_atom_site_fract_y
_atom_site_fract_z
Si Si1 0.500000 0.315128 0.299943
Si Si2 0.500000 0.687068 0.193149
Si Si3 0.371994 0.185641 0.947125
Si Si4 0.263238 0.182193 0.313246
Si Si5 0.724467 0.685835 0.858033
Si Si6 0.133792 0.316770 0.398912
Si Si7 0.870523 0.312564 0.500000
Si Si8 0.872100 0.686560 0.773527
O O1 0.500000 0.500000 0.301971
O O2 0.500000 0.265345 0.246168
O O3 0.385712 0.251972 0.320278
O O4 0.500000 0.500000 0.192679
O O5 0.388718 0.737709 0.167614
O O6 0.500000 0.236467 0.936928
O O7 0.287075 0.249626 0.909433
O O8 0.371533 0.000000 0.945229
O O9 0.347466 0.231421 0.000000
O O10 0.188888 0.227574 0.357092
O O11 0.206013 0.251335 0.267226
O O12 0.270587 0.000000 0.308136
O O13 0.724703 0.500000 0.860524
O O14 0.823992 0.732075 0.823771
O O15 0.156209 0.500000 0.393642
O O16 0.175119 0.265648 0.449980
O O17 0.000000 0.299144 0.397756
O O18 0.869457 0.500000 0.500000
O O19 0.000000 0.265900 0.500000
O O20 0.868017 0.500000 0.771208
O O21 0.000000 0.735035 0.767259
#
# Coordination Sequence:
#
# PCOD9382162 Si02
#       8
#     4   4   8   8   8   8   4   8
#     4  11  21  39  59  73  99 139 180 215 254 307
#     4   9  16  29  50  74  96 121 162 211 256 298
#     4   9  18  31  46  69 101 132 161 197 248 310
#     4  12  24  35  50  78 112 140 171 213 261 311
#     4  10  18  31  51  75  99 125 163 213 258 299
#     4   9  17  32  55  80 106 140 180 219 261 307
#     4   7  12  26  51  80 103 128 175 229 261 295
#     4  10  21  37  55  74 100 139 181 215 253 304
#
# _framework density 17.204317
#
# number of rings (size 3 to 8) (size 9 to 14) (size 15 to 20)
#    0.000    2.231    2.308    3.462    0.000    3.385 
#    0.000    1.154    0.000    2.308    0.000    6.462 
#    0.000    0.000    0.000    0.000    0.000    0.000 
#
# Total GULP energy -289914.282348 kJ/mol
# GULP energy per Si atom -5575.274661 kJ/mol
# Density = 1.716516 g / cm^3
# Si number density = 17.204317 Si / 1000 Ang^3
#
#
#
# Elastic Constant Matrix: (Units=GPa)
#
#
# Indices 1 2 3 4 5 6 
#
# 1 73.3783 27.2657 26.7007 0.0000 0.0000 0.0000
# 2 27.2657 30.5687 25.9284 0.0000 0.0000 0.0000
# 3 26.7007 25.9284 108.0997 0.0000 0.0000 0.0000
# 4 0.0000 0.0000 0.0000 -51.2186 0.0000 0.0000
# 5 0.0000 0.0000 0.0000 0.0000 20.5803 0.0000
# 6 0.0000 0.0000 0.0000 0.0000 0.0000 10.2125
#
#
#
# Elastic Compliance Matrix: (Units=1/GPa)
#
#
# Indices 1 2 3 4 5 6 
#
# 1 0.020446 -0.017517 -0.000849 0.000000 0.000000 0.000000
# 2 -0.017517 0.056076 -0.009123 0.000000 0.000000 0.000000
# 3 -0.000849 -0.009123 0.011649 0.000000 0.000000 0.000000
# 4 0.000000 0.000000 0.000000 -0.019524 0.000000 0.000000
# 5 0.000000 0.000000 0.000000 0.000000 0.048590 0.000000
# 6 0.000000 0.000000 0.000000 0.000000 0.000000 0.097919
#
#
# Mechanical properties :
#
#
# Convention : Reuss Voigt Hill
#
# Bulk Modulus (GPa) = 30.12727 41.31514 35.72120
# Shear Modulus (GPa) = 17.78117 4.72497 11.25307
#
# Velocity S-wave (km/s) = 3.21834 1.65902 2.56028
# Velocity P-wave (km/s) = 5.59998 5.26653 5.43581
#
# Compressibility (1/GPa) = 0.03319252
#
# Stress axis : x y z
#
# Youngs Moduli (GPa) = 48.91037 17.83305 85.84692
#
# Poissons Ratio (x) = 0.31237 0.07285
# Poissons Ratio (y) = 0.85674 0.78322
# Poissons Ratio (z) = 0.04151 0.16270
#
# Static dielectric constant tensor:
#      x y z
#    x 1.576810 0.000000 0.000000 
#    y 0.000000 1.585030 0.000000 
#    z 0.000000 0.000000 1.599250 
# 
# From -- ./inp_files/33647.got.cif
#   From: 2010.05.17/outbox.cif.g08.bks.cpg/sg47_17_cif.got.tgz:33647.got - 2010.06.03 20:15:42.
