data_PCOD9382016
_publ_section_title
;
Structure prediction by ZEFSAII (Michael W. Deem and Ramdas Pophale) SiO2 
 PCOD9382016
Probable space group: P M M M
;
_chemical_formula_sum "Si O2"
_cell_formula_units_Z 44
_cell_length_a 10.446616
_cell_length_b 27.605178
_cell_length_c 8.703850
_cell_angle_alpha 90.000000
_cell_angle_beta 90.000000
_cell_angle_gamma 90.000000
_cell_volume 2510.022305
_symmetry_space_group_name_H-M "P M M M"
_symmetry_group_IT_number 47
_symmetry_cell_setting 'orthorhombic'
loop_
_space_group_symop_operation_xyz
x,y,z
-x,-y,z
x,-y,-z
-x,y,-z
-x,-y,-z
x,y,-z
-x,y,z
x,-y,z
loop_
_atom_site_type_symbol
_atom_site_label
_atom_site_fract_x
_atom_site_fract_y
_atom_site_fract_z
Si Si1 0.351098 0.103043 0.316197
Si Si2 0.852560 0.710074 0.184924
Si Si3 0.345059 0.000000 0.175428
Si Si4 0.749720 0.614663 0.314509
Si Si5 0.147931 0.821327 0.814412
Si Si6 0.500000 0.444154 0.312296
Si Si7 0.000000 0.555674 0.687430
O O1 0.350007 0.103715 0.500000
O O2 0.500000 0.111188 0.266041
O O3 0.252804 0.142613 0.252791
O O4 0.309296 0.049808 0.258456
O O5 0.762512 0.669051 0.253660
O O6 0.824127 0.765477 0.230161
O O7 0.000000 0.699852 0.232428
O O8 0.848045 0.707872 0.000000
O O9 0.500000 0.000000 0.173755
O O10 0.299080 0.000000 0.000000
O O11 0.749722 0.616161 0.500000
O O12 0.624963 0.585415 0.263884
O O13 0.874224 0.584522 0.263499
O O14 0.000000 0.832145 0.768738
O O15 0.152112 0.823801 0.000000
O O16 0.500000 0.500000 0.261121
O O17 0.500000 0.445356 0.500000
O O18 0.000000 0.500000 0.738534
O O19 0.000000 0.554966 0.500000
#
# Coordination Sequence:
#
# PCOD9382016 Si02
#       7
#     8   8   4   8   8   4   4
#     4  10  20  34  53  81 113 142 174 218 268 312
#     4   9  18  34  54  74  99 131 166 209 258 304
#     4   9  17  31  54  79 106 145 186 220 256 305
#     4  10  18  30  50  74  97 126 164 204 247 298
#     4   9  19  36  56  76 101 138 181 219 260 313
#     4   9  18  32  49  71 101 133 161 198 251 302
#     4   9  16  26  45  73  97 119 159 208 243 286
#
# _framework density 17.529724999999999
#
# number of rings (size 3 to 8) (size 9 to 14) (size 15 to 20)
#    0.000    2.636    0.909    2.455    0.000    5.455 
#    1.636    2.727    0.000    6.000    0.000    0.000 
#    0.000    0.000    0.000    0.000    0.000    0.000 
#
# Total GULP energy -245312.954248 kJ/mol
# GULP energy per Si atom -5575.294415 kJ/mol
# Density = 1.748983 g / cm^3
# Si number density = 17.529725 Si / 1000 Ang^3
#
#
#
# Elastic Constant Matrix: (Units=GPa)
#
#
# Indices 1 2 3 4 5 6 
#
# 1 132.1826 104.0503 29.9240 0.0000 0.0000 0.0000
# 2 104.0503 178.7056 36.8227 0.0000 0.0000 0.0000
# 3 29.9240 36.8227 21.2104 0.0000 0.0000 0.0000
# 4 0.0000 0.0000 0.0000 33.1918 0.0000 0.0000
# 5 0.0000 0.0000 0.0000 0.0000 18.3792 0.0000
# 6 0.0000 0.0000 0.0000 0.0000 0.0000 36.4831
#
#
#
# Elastic Compliance Matrix: (Units=1/GPa)
#
#
# Indices 1 2 3 4 5 6 
#
# 1 0.015079 -0.006845 -0.009391 0.000000 0.000000 0.000000
# 2 -0.006845 0.011819 -0.010862 0.000000 0.000000 0.000000
# 3 -0.009391 -0.010862 0.079254 0.000000 0.000000 0.000000
# 4 0.000000 0.000000 0.000000 0.030128 0.000000 0.000000
# 5 0.000000 0.000000 0.000000 0.000000 0.054409 0.000000
# 6 0.000000 0.000000 0.000000 0.000000 0.000000 0.027410
#
#
# Mechanical properties :
#
#
# Convention : Reuss Voigt Hill
#
# Bulk Modulus (GPa) = 19.24717 74.85472 47.05094
# Shear Modulus (GPa) = 17.26431 28.36428 22.81430
#
# Velocity S-wave (km/s) = 3.14165 4.02689 3.61149
# Velocity P-wave (km/s) = 4.91564 8.02592 6.65503
#
# Compressibility (1/GPa) = 0.05195570
#
# Stress axis : x y z
#
# Youngs Moduli (GPa) = 66.31612 84.60697 12.61769
#
# Poissons Ratio (x) = 0.57911 0.11849
# Poissons Ratio (y) = 0.45392 0.13706
# Poissons Ratio (z) = 0.62278 0.91904
#
# Static dielectric constant tensor:
#      x y z
#    x 1.587820 0.000000 0.000000 
#    y 0.000000 1.582440 0.000000 
#    z 0.000000 0.000000 1.598060 
# 
# From -- ./inp_files/2371.got.cif
#   From: 2010.05.17/outbox.cif.g08.bks.cpg/sg47_2_cif.got.tgz:2371.got - 2010.06.03 20:15:42.
