data_PCOD9382536
_publ_section_title
;
Structure prediction by ZEFSAII (Michael W. Deem and Ramdas Pophale) SiO2 
 PCOD9382536
Probable space group: P M M M
;
_chemical_formula_sum "Si O2"
_cell_formula_units_Z 64
_cell_length_a 24.617750
_cell_length_b 19.795673
_cell_length_c 8.174617
_cell_angle_alpha 90.000000
_cell_angle_beta 90.000000
_cell_angle_gamma 90.000000
_cell_volume 3983.694649
_symmetry_space_group_name_H-M "P M M M"
_symmetry_group_IT_number 47
_symmetry_cell_setting 'orthorhombic'
loop_
_space_group_symop_operation_xyz
x,y,z
-x,-y,z
x,-y,-z
-x,y,-z
-x,-y,-z
x,y,-z
-x,y,z
x,-y,z
loop_
_atom_site_type_symbol
_atom_site_label
_atom_site_fract_x
_atom_site_fract_y
_atom_site_fract_z
Si Si1 0.771520 0.786724 0.197464
Si Si2 0.725305 0.423587 0.199737
Si Si3 0.938679 0.421988 0.800330
Si Si4 0.664437 0.293512 0.196433
Si Si5 0.735266 0.924584 0.305550
Si Si6 0.611861 0.924391 0.806181
Si Si7 0.166294 0.343129 0.800451
Si Si8 0.439674 0.786506 0.693577
O O1 0.713490 0.755428 0.253131
O O2 0.773998 0.863076 0.257910
O O3 0.816804 0.732483 0.250784
O O4 0.771366 0.787714 0.000000
O O5 0.718001 0.500000 0.257909
O O6 0.680241 0.368930 0.252660
O O7 0.783896 0.392524 0.245968
O O8 0.724621 0.425153 0.000000
O O9 0.927766 0.500000 0.753640
O O10 0.890876 0.372876 0.743018
O O11 0.000000 0.404390 0.748104
O O12 0.938380 0.420709 0.000000
O O13 0.606726 0.263581 0.243160
O O14 0.667462 0.293834 0.000000
O O15 0.727024 0.923443 0.500000
O O16 0.676132 0.914030 0.224637
O O17 0.754154 0.000000 0.258514
O O18 0.579019 0.863044 0.729656
O O19 0.598345 0.000000 0.744371
O O20 0.602445 0.922935 0.000000
O O21 0.165260 0.342875 0.000000
O O22 0.441810 0.778039 0.500000
O O23 0.500000 0.774702 0.762753
#
# Coordination Sequence:
#
# PCOD9382536 Si02
#       8
#     8   8   8   8   8   8   8   8
#     4   9  16  26  41  61  84 111 142 175 212 252
#     4   8  13  22  39  62  84 105 133 175 221 257
#     4   8  12  17  27  47  81 126 164 185 207 244
#     4   9  17  29  45  64  83 105 136 172 212 257
#     4  10  19  29  43  63  86 112 139 167 205 253
#     4  10  20  33  49  67  86 109 137 168 202 244
#     4   8  13  20  32  54  85 117 148 181 213 247
#     4  11  23  35  47  63  83 109 140 173 209 251
#
# _framework density 16.065488999999999
#
# number of rings (size 3 to 8) (size 9 to 14) (size 15 to 20)
#    0.000    2.875    1.250    3.375    0.000    4.250 
#    0.000    1.250    0.000    0.750    0.000    2.625 
#    0.000    2.500    0.000    7.625    0.000    3.625 
#
# Total GULP energy -356538.620038 kJ/mol
# GULP energy per Si atom -5570.915938 kJ/mol
# Density = 1.602892 g / cm^3
# Si number density = 16.065489 Si / 1000 Ang^3
#
#
#
# Elastic Constant Matrix: (Units=GPa)
#
#
# Indices 1 2 3 4 5 6 
#
# 1 108.9412 72.5130 3.9329 0.0000 0.0000 0.0000
# 2 72.5130 133.3450 6.1144 0.0000 0.0000 0.0000
# 3 3.9329 6.1144 6.0011 0.0000 0.0000 0.0000
# 4 0.0000 0.0000 0.0000 -6.1308 0.0000 0.0000
# 5 0.0000 0.0000 0.0000 0.0000 -236.5225 0.0000
# 6 0.0000 0.0000 0.0000 0.0000 0.0000 23.6149
#
#
#
# Elastic Compliance Matrix: (Units=1/GPa)
#
#
# Indices 1 2 3 4 5 6 
#
# 1 0.014400 -0.007761 -0.001530 0.000000 0.000000 0.000000
# 2 -0.007761 0.012049 -0.007191 0.000000 0.000000 0.000000
# 3 -0.001530 -0.007191 0.174966 0.000000 0.000000 0.000000
# 4 0.000000 0.000000 0.000000 -0.163111 0.000000 0.000000
# 5 0.000000 0.000000 0.000000 0.000000 -0.004228 0.000000
# 6 0.000000 0.000000 0.000000 0.000000 0.000000 0.042346
#
#
# Mechanical properties :
#
#
# Convention : Reuss Voigt Hill
#
# Bulk Modulus (GPa) = 5.93639 45.93422 25.93530
# Shear Modulus (GPa) = 30.20472 -32.75924 -1.27726
#
# Velocity S-wave (km/s) = 4.34072 -4.52055 -0.89261
# Velocity P-wave (km/s) = 5.36894 1.18610 3.88795
#
# Compressibility (1/GPa) = 0.16845259
#
# Stress axis : x y z
#
# Youngs Moduli (GPa) = 69.44400 82.99245 5.71538
#
# Poissons Ratio (x) = 0.64407 0.00875
# Poissons Ratio (y) = 0.53893 0.04110
# Poissons Ratio (z) = 0.10627 0.59678
#
# Static dielectric constant tensor:
#      x y z
#    x 1.533740 0.000000 0.000000 
#    y 0.000000 1.558080 0.000000 
#    z 0.000000 0.000000 1.562100 
# 
# From -- ./inp_files/12916.got.cif
#   From: 2010.05.17/outbox.cif.g08.bks.cpg/sg47_7_cif.got.tgz:12916.got - 2010.06.03 20:15:42.
