data_PCOD9382686
_publ_section_title
;
Structure prediction by ZEFSAII (Michael W. Deem and Ramdas Pophale) SiO2 
 PCOD9382686
Probable space group: P M M M
;
_chemical_formula_sum "Si O2"
_cell_formula_units_Z 52
_cell_length_a 7.336552
_cell_length_b 15.510436
_cell_length_c 22.542836
_cell_angle_alpha 90.000000
_cell_angle_beta 90.000000
_cell_angle_gamma 90.000000
_cell_volume 2565.219648
_symmetry_space_group_name_H-M "P M M M"
_symmetry_group_IT_number 47
_symmetry_cell_setting 'orthorhombic'
loop_
_space_group_symop_operation_xyz
x,y,z
-x,-y,z
x,-y,-z
-x,y,-z
-x,-y,-z
x,y,-z
-x,y,z
x,-y,z
loop_
_atom_site_type_symbol
_atom_site_label
_atom_site_fract_x
_atom_site_fract_y
_atom_site_fract_z
Si Si1 0.212265 0.854939 0.565951
Si Si2 0.222743 0.399458 0.868845
Si Si3 0.221481 0.261872 0.231219
Si Si4 0.777644 0.902930 0.698105
Si Si5 0.793298 0.396056 0.000000
Si Si6 0.281395 0.348787 0.435859
Si Si7 0.208539 0.410096 0.311274
O O1 0.287592 0.879416 0.500000
O O2 0.285289 0.886368 0.629757
O O3 0.223535 0.751002 0.568757
O O4 0.000000 0.880880 0.564727
O O5 0.276235 0.500000 0.854999
O O6 0.277343 0.322424 0.824349
O O7 0.000000 0.401482 0.869314
O O8 0.286204 0.376193 0.935537
O O9 0.282034 0.167338 0.252826
O O10 0.282895 0.322598 0.285550
O O11 0.000000 0.255552 0.226863
O O12 0.000000 0.896693 0.695486
O O13 0.728812 0.000000 0.714795
O O14 0.803953 0.500000 0.000000
O O15 0.000000 0.361135 0.000000
O O16 0.223530 0.381356 0.500000
O O17 0.500000 0.351198 0.432938
O O18 0.208714 0.401846 0.381301
O O19 0.295097 0.500000 0.292754
O O20 0.000000 0.412408 0.289716
#
# Coordination Sequence:
#
# PCOD9382686 Si02
#       7
#     8   8   8   8   4   8   8
#     4   9  16  28  46  63  79 100 130 170 212 252
#     4   8  12  18  30  49  75 106 136 165 198 235
#     4   9  15  24  37  56  80 103 128 164 206 245
#     4   9  16  25  39  60  81  99 125 165 210 252
#     4   7  10  16  26  44  71 103 138 168 192 227
#     4  10  20  32  45  60  80 107 137 168 206 250
#     4  10  19  30  45  63  81 104 137 173 206 242
#
# _framework density 20.271167999999999
#
# number of rings (size 3 to 8) (size 9 to 14) (size 15 to 20)
#    0.000    3.000    1.538    1.846    0.000    3.692 
#    0.000    3.077    0.000    0.462    0.000    2.692 
#    0.000    4.308    0.000    0.692    0.000    8.692 
#
# Total GULP energy -289563.742454 kJ/mol
# GULP energy per Si atom -5568.533509 kJ/mol
# Density = 2.022503 g / cm^3
# Si number density = 20.271168 Si / 1000 Ang^3
#
#
#
# Elastic Constant Matrix: (Units=GPa)
#
#
# Indices 1 2 3 4 5 6 
#
# 1 76.6344 0.7977 0.2164 0.0000 0.0000 0.0000
# 2 0.7977 146.0911 79.4181 0.0000 0.0000 0.0000
# 3 0.2164 79.4181 157.3395 0.0000 0.0000 0.0000
# 4 0.0000 0.0000 0.0000 24.5382 0.0000 0.0000
# 5 0.0000 0.0000 0.0000 0.0000 204.1022 0.0000
# 6 0.0000 0.0000 0.0000 0.0000 0.0000 -228.5013
#
#
#
# Elastic Compliance Matrix: (Units=1/GPa)
#
#
# Indices 1 2 3 4 5 6 
#
# 1 0.013050 -0.000085 0.000025 0.000000 0.000000 0.000000
# 2 -0.000085 0.009434 -0.004762 0.000000 0.000000 0.000000
# 3 0.000025 -0.004762 0.008759 0.000000 0.000000 0.000000
# 4 0.000000 0.000000 0.000000 0.040753 0.000000 0.000000
# 5 0.000000 0.000000 0.000000 0.000000 0.004900 0.000000
# 6 0.000000 0.000000 0.000000 0.000000 0.000000 -0.004376
#
#
# Mechanical properties :
#
#
# Convention : Reuss Voigt Hill
#
# Bulk Modulus (GPa) = 46.29707 60.10327 53.20017
# Shear Modulus (GPa) = 55.95193 20.00335 37.97764
#
# Velocity S-wave (km/s) = 5.25943 3.14473 4.33307
# Velocity P-wave (km/s) = 7.73115 6.54979 7.16486
#
# Compressibility (1/GPa) = 0.02159964
#
# Stress axis : x y z
#
# Youngs Moduli (GPa) = 76.62959 105.99812 114.16557
#
# Poissons Ratio (x) = 0.00898 -0.00283
# Poissons Ratio (y) = 0.00649 0.54364
# Poissons Ratio (z) = -0.00190 0.50474
#
# Static dielectric constant tensor:
#      x y z
#    x 1.786410 0.000000 0.000000 
#    y 0.000000 1.706420 0.000000 
#    z 0.000000 0.000000 1.761870 
# 
# From -- ./inp_files/31999.got.cif
#   From: 2010.05.17/outbox.cif.g08.bks.cpg/sg47_16_cif.got.tgz:31999.got - 2010.06.03 20:15:42.
