data_PCOD9382350
_publ_section_title
;
Structure prediction by ZEFSAII (Michael W. Deem and Ramdas Pophale) SiO2 
 PCOD9382350
Probable space group: P M M M
;
_chemical_formula_sum "Si O2"
_cell_formula_units_Z 48
_cell_length_a 30.197202
_cell_length_b 7.903429
_cell_length_c 10.205939
_cell_angle_alpha 90.000000
_cell_angle_beta 90.000000
_cell_angle_gamma 90.000000
_cell_volume 2435.764119
_symmetry_space_group_name_H-M "P M M M"
_symmetry_group_IT_number 47
_symmetry_cell_setting 'orthorhombic'
loop_
_space_group_symop_operation_xyz
x,y,z
-x,-y,z
x,-y,-z
-x,y,-z
-x,-y,-z
x,y,-z
-x,y,z
x,-y,z
loop_
_atom_site_type_symbol
_atom_site_label
_atom_site_fract_x
_atom_site_fract_y
_atom_site_fract_z
Si Si1 0.125730 0.299322 0.350618
Si Si2 0.393594 0.798036 0.745712
Si Si3 0.302134 0.206178 0.847986
Si Si4 0.050858 0.795995 0.146668
Si Si5 0.448917 0.296798 0.000000
Si Si6 0.202522 0.203801 0.850443
Si Si7 0.550852 0.208106 0.500000
O O1 0.125948 0.228749 0.500000
O O2 0.126916 0.500000 0.361992
O O3 0.082612 0.254528 0.264634
O O4 0.167234 0.248314 0.260038
O O5 0.343665 0.731301 0.764118
O O6 0.422026 0.731954 0.625488
O O7 0.389407 0.000000 0.727676
O O8 0.422101 0.766146 0.874813
O O9 0.252344 0.263061 0.815814
O O10 0.301862 0.000000 0.841379
O O11 0.310497 0.250058 0.000000
O O12 0.000000 0.739518 0.165106
O O13 0.050741 0.000000 0.143135
O O14 0.065600 0.738996 0.000000
O O15 0.449111 0.500000 0.000000
O O16 0.500000 0.237941 0.000000
O O17 0.203671 0.000000 0.857385
O O18 0.191817 0.262711 0.000000
O O19 0.500000 0.263203 0.500000
O O20 0.550039 0.000000 0.500000
#
# Coordination Sequence:
#
# PCOD9382350 Si02
#       7
#     8   8   8   8   4   8   4
#     4  11  24  38  51  75 114 152 186 224 264 310
#     4  10  18  33  56  78 103 135 172 215 265 318
#     4   8  14  28  52  81 104 124 162 218 269 315
#     4   9  19  37  61  87 112 140 180 229 276 322
#     4  11  23  35  49  75 107 137 175 219 258 307
#     4   9  18  34  57  81 104 132 172 223 275 323
#     4   9  18  30  47  77 109 133 167 213 258 311
#
# _framework density 19.706340999999998
#
# number of rings (size 3 to 8) (size 9 to 14) (size 15 to 20)
#    0.000    2.500    0.833    3.250    0.000    6.000 
#    1.500    3.750    0.000    1.500    0.000    0.000 
#    0.000    0.000    0.000    0.000    0.000    0.000 
#
# Total GULP energy -267714.711589 kJ/mol
# GULP energy per Si atom -5577.389825 kJ/mol
# Density = 1.966149 g / cm^3
# Si number density = 19.706341 Si / 1000 Ang^3
#
#
#
# Elastic Constant Matrix: (Units=GPa)
#
#
# Indices 1 2 3 4 5 6 
#
# 1 177.5893 10.7709 120.8609 0.0000 0.0000 0.0000
# 2 10.7709 19.3271 5.9844 0.0000 0.0000 0.0000
# 3 120.8609 5.9844 185.3161 0.0000 0.0000 0.0000
# 4 0.0000 0.0000 0.0000 31.3004 0.0000 0.0000
# 5 0.0000 0.0000 0.0000 0.0000 45.7133 0.0000
# 6 0.0000 0.0000 0.0000 0.0000 0.0000 -84.6016
#
#
#
# Elastic Compliance Matrix: (Units=1/GPa)
#
#
# Indices 1 2 3 4 5 6 
#
# 1 0.010384 -0.003727 -0.006652 0.000000 0.000000 0.000000
# 2 -0.003727 0.053601 0.000700 0.000000 0.000000 0.000000
# 3 -0.006652 0.000700 0.009712 0.000000 0.000000 0.000000
# 4 0.000000 0.000000 0.000000 0.031949 0.000000 0.000000
# 5 0.000000 0.000000 0.000000 0.000000 0.021875 0.000000
# 6 0.000000 0.000000 0.000000 0.000000 0.000000 -0.011820
#
#
# Mechanical properties :
#
#
# Convention : Reuss Voigt Hill
#
# Bulk Modulus (GPa) = 18.40315 73.05166 45.72740
# Shear Modulus (GPa) = 32.64283 14.79017 23.71650
#
# Velocity S-wave (km/s) = 4.07438 2.74255 3.47291
# Velocity P-wave (km/s) = 5.61187 6.86872 6.27186
#
# Compressibility (1/GPa) = 0.05433853
#
# Stress axis : x y z
#
# Youngs Moduli (GPa) = 96.30010 18.65629 102.96557
#
# Poissons Ratio (x) = 0.06954 0.68494
# Poissons Ratio (y) = 0.35894 -0.07208
# Poissons Ratio (z) = 0.64060 -0.01306
#
# Static dielectric constant tensor:
#      x y z
#    x 1.701640 0.000000 0.000000 
#    y 0.000000 1.712830 0.000000 
#    z 0.000000 0.000000 1.620630 
# 
# From -- ./inp_files/13905.got.cif
#   From: 2010.05.17/outbox.cif.g08.bks.cpg/sg47_7_cif.got.tgz:13905.got - 2010.06.03 20:15:42.
