data_PCOD9382412
_publ_section_title
;
Structure prediction by ZEFSAII (Michael W. Deem and Ramdas Pophale) SiO2 
 PCOD9382412
Probable space group: P M M M
;
_chemical_formula_sum "Si O2"
_cell_formula_units_Z 52
_cell_length_a 23.702717
_cell_length_b 7.521963
_cell_length_c 13.994868
_cell_angle_alpha 90.000000
_cell_angle_beta 90.000000
_cell_angle_gamma 90.000000
_cell_volume 2495.158455
_symmetry_space_group_name_H-M "P M M M"
_symmetry_group_IT_number 47
_symmetry_cell_setting 'orthorhombic'
loop_
_space_group_symop_operation_xyz
x,y,z
-x,-y,z
x,-y,-z
-x,y,-z
-x,-y,-z
x,y,-z
-x,y,z
x,-y,z
loop_
_atom_site_type_symbol
_atom_site_label
_atom_site_fract_x
_atom_site_fract_y
_atom_site_fract_z
Si Si1 0.064572 0.216954 0.000000
Si Si2 0.117023 0.206173 0.395799
Si Si3 0.563714 0.711833 0.606214
Si Si4 0.751337 0.288178 0.607024
Si Si5 0.658797 0.803611 0.243995
Si Si6 0.249889 0.217993 0.889852
Si Si7 0.130130 0.782188 0.809887
O O1 0.095850 0.272796 0.903434
O O2 0.000000 0.273100 0.000000
O O3 0.066122 0.000000 0.000000
O O4 0.100285 0.283900 0.500000
O O5 0.185284 0.215336 0.392893
O O6 0.103508 0.280820 0.290660
O O7 0.099105 0.000000 0.397184
O O8 0.581871 0.778065 0.500000
O O9 0.500000 0.778912 0.624086
O O10 0.560346 0.500000 0.598065
O O11 0.606365 0.740428 0.693288
O O12 0.728654 0.264029 0.500000
O O13 0.753084 0.500000 0.625611
O O14 0.710354 0.196577 0.680743
O O15 0.691033 0.715568 0.154482
O O16 0.643025 0.000000 0.211880
O O17 0.195055 0.273231 0.828427
O O18 0.250493 0.000000 0.886870
O O19 0.242208 0.268844 0.000000
O O20 0.130116 0.000000 0.806023
#
# Coordination Sequence:
#
# PCOD9382412 Si02
#       7
#     4   8   8   8   8   8   8
#     4   9  16  24  40  68  97 127 166 207 240 280
#     4   9  16  26  41  62  88 120 157 192 234 291
#     4   9  19  36  54  70  93 128 163 193 234 287
#     4  10  19  28  39  60  93 127 153 182 226 280
#     4  11  20  29  46  71  94 120 158 198 236 281
#     4   9  16  27  43  65  91 122 155 192 243 293
#     4   9  14  24  41  61  90 125 158 197 242 283
#
# _framework density 20.840358999999999
#
# number of rings (size 3 to 8) (size 9 to 14) (size 15 to 20)
#    0.000    2.538    2.308    1.846    0.000    3.385 
#    0.000    0.769    0.000    2.769    0.000    6.462 
#    0.000    1.231    0.000    3.846    0.000    4.154 
#
# Total GULP energy -289712.656047 kJ/mol
# GULP energy per Si atom -5571.397232 kJ/mol
# Density = 2.079293 g / cm^3
# Si number density = 20.840359 Si / 1000 Ang^3
#
#
#
# Elastic Constant Matrix: (Units=GPa)
#
#
# Indices 1 2 3 4 5 6 
#
# 1 70.3544 -1.4146 42.6789 0.0000 0.0000 0.0000
# 2 -1.4146 50.2041 4.6770 0.0000 0.0000 0.0000
# 3 42.6789 4.6770 179.3853 0.0000 0.0000 0.0000
# 4 0.0000 0.0000 0.0000 14.2390 0.0000 0.0000
# 5 0.0000 0.0000 0.0000 0.0000 14.2017 0.0000
# 6 0.0000 0.0000 0.0000 0.0000 0.0000 9.5937
#
#
#
# Elastic Compliance Matrix: (Units=1/GPa)
#
#
# Indices 1 2 3 4 5 6 
#
# 1 0.016646 0.000840 -0.003982 0.000000 0.000000 0.000000
# 2 0.000840 0.020010 -0.000722 0.000000 0.000000 0.000000
# 3 -0.003982 -0.000722 0.006541 0.000000 0.000000 0.000000
# 4 0.000000 0.000000 0.000000 0.070230 0.000000 0.000000
# 5 0.000000 0.000000 0.000000 0.000000 0.070414 0.000000
# 6 0.000000 0.000000 0.000000 0.000000 0.000000 0.104236
#
#
# Mechanical properties :
#
#
# Convention : Reuss Voigt Hill
#
# Bulk Modulus (GPa) = 28.19353 43.53628 35.86491
# Shear Modulus (GPa) = 16.25345 24.54037 20.39691
#
# Velocity S-wave (km/s) = 2.79570 3.43525 3.13185
# Velocity P-wave (km/s) = 4.89683 6.05560 5.50678
#
# Compressibility (1/GPa) = 0.03546913
#
# Stress axis : x y z
#
# Youngs Moduli (GPa) = 60.07278 49.97606 152.88443
#
# Poissons Ratio (x) = -0.04198 0.60885
# Poissons Ratio (y) = -0.05046 0.11032
# Poissons Ratio (z) = 0.23923 0.03606
#
# Static dielectric constant tensor:
#      x y z
#    x 1.726370 0.000000 0.000000 
#    y 0.000000 1.782030 0.000000 
#    z 0.000000 0.000000 1.812960 
# 
# From -- ./inp_files/25458.got.cif
#   From: 2010.05.17/outbox.cif.g08.bks.cpg/sg47_13_cif.got.tgz:25458.got - 2010.06.03 20:15:42.
