data_PCOD9382161
_publ_section_title
;
Structure prediction by ZEFSAII (Michael W. Deem and Ramdas Pophale) SiO2 
 PCOD9382161
Probable space group: P M M M
;
_chemical_formula_sum "Si O2"
_cell_formula_units_Z 48
_cell_length_a 7.497656
_cell_length_b 17.360241
_cell_length_c 15.873076
_cell_angle_alpha 90.000000
_cell_angle_beta 90.000000
_cell_angle_gamma 90.000000
_cell_volume 2066.057272
_symmetry_space_group_name_H-M "P M M M"
_symmetry_group_IT_number 47
_symmetry_cell_setting 'orthorhombic'
loop_
_space_group_symop_operation_xyz
x,y,z
-x,-y,z
x,-y,-z
-x,y,-z
-x,-y,-z
x,y,-z
-x,y,z
x,-y,z
loop_
_atom_site_type_symbol
_atom_site_label
_atom_site_fract_x
_atom_site_fract_y
_atom_site_fract_z
Si Si1 0.288495 0.358545 0.778065
Si Si2 0.782994 0.840381 0.340014
Si Si3 0.786277 0.088258 0.163877
Si Si4 0.786949 0.500000 0.902259
Si Si5 0.706819 0.671112 0.595413
Si Si6 0.196430 0.000000 0.403050
Si Si7 0.711780 0.759326 0.089360
O O1 0.500000 0.346440 0.765379
O O2 0.267177 0.427574 0.844294
O O3 0.216608 0.367060 0.682119
O O4 0.212550 0.285360 0.829585
O O5 0.727130 0.863743 0.245939
O O6 0.714360 0.761936 0.380329
O O7 0.719794 0.918204 0.384977
O O8 0.000000 0.834959 0.344904
O O9 0.738630 0.149086 0.092554
O O10 0.000000 0.083066 0.166790
O O11 0.719223 0.000000 0.160531
O O12 0.000000 0.500000 0.907484
O O13 0.719622 0.500000 0.000000
O O14 0.782508 0.659963 0.500000
O O15 0.500000 0.647182 0.589333
O O16 0.167104 0.000000 0.500000
O O17 0.000000 0.000000 0.357305
O O18 0.500000 0.745052 0.090159
O O19 0.782992 0.728969 0.000000
#
# Coordination Sequence:
#
# PCOD9382161 Si02
#       7
#     8   8   8   4   8   4   8
#     4  10  21  40  65  90 120 158 194 230 281 347
#     4  10  18  31  51  75 104 144 193 241 289 343
#     4  10  20  34  52  76 109 149 195 246 299 352
#     4  11  25  43  66  99 130 152 183 233 288 337
#     4  10  21  37  58  86 118 151 191 237 282 333
#     4   9  16  26  43  69 100 137 186 240 289 337
#     4  10  21  37  58  83 109 145 196 244 288 347
#
# _framework density 23.232655999999999
#
# number of rings (size 3 to 8) (size 9 to 14) (size 15 to 20)
#    0.000    2.000    2.500    1.250    0.000    4.667 
#    0.000    2.500    0.000    4.000    0.000    0.000 
#    0.000    0.000    0.000    0.000    0.000    0.000 
#
# Total GULP energy -267423.977180 kJ/mol
# GULP energy per Si atom -5571.332858 kJ/mol
# Density = 2.317978 g / cm^3
# Si number density = 23.232656 Si / 1000 Ang^3
#
#
#
# Elastic Constant Matrix: (Units=GPa)
#
#
# Indices 1 2 3 4 5 6 
#
# 1 67.2009 -15.7001 9.3000 0.0000 0.0000 0.0000
# 2 -15.7001 100.5024 56.9951 0.0000 0.0000 0.0000
# 3 9.3000 56.9951 231.4050 0.0000 0.0000 0.0000
# 4 0.0000 0.0000 0.0000 23.5765 0.0000 0.0000
# 5 0.0000 0.0000 0.0000 0.0000 6.5246 0.0000
# 6 0.0000 0.0000 0.0000 0.0000 0.0000 23.5507
#
#
#
# Elastic Compliance Matrix: (Units=1/GPa)
#
#
# Indices 1 2 3 4 5 6 
#
# 1 0.015852 0.003298 -0.001449 0.000000 0.000000 0.000000
# 2 0.003298 0.012252 -0.003150 0.000000 0.000000 0.000000
# 3 -0.001449 -0.003150 0.005156 0.000000 0.000000 0.000000
# 4 0.000000 0.000000 0.000000 0.042415 0.000000 0.000000
# 5 0.000000 0.000000 0.000000 0.000000 0.153267 0.000000
# 6 0.000000 0.000000 0.000000 0.000000 0.000000 0.042462
#
#
# Mechanical properties :
#
#
# Convention : Reuss Voigt Hill
#
# Bulk Modulus (GPa) = 32.61939 55.58871 44.10405
# Shear Modulus (GPa) = 17.59174 33.96456 25.77815
#
# Velocity S-wave (km/s) = 2.75471 3.82767 3.33463
# Velocity P-wave (km/s) = 4.91820 6.59649 5.81818
#
# Compressibility (1/GPa) = 0.03065661
#
# Stress axis : x y z
#
# Youngs Moduli (GPa) = 63.08382 81.62117 193.96510
#
# Poissons Ratio (x) = -0.26921 0.28114
# Poissons Ratio (y) = -0.20807 0.61102
# Poissons Ratio (z) = 0.09144 0.25712
#
# Static dielectric constant tensor:
#      x y z
#    x 1.905370 0.000000 0.000000 
#    y 0.000000 3.960810 0.000000 
#    z 0.000000 0.000000 1.984370 
# 
# From -- ./inp_files/21065.got.cif
#   From: 2010.05.17/outbox.cif.g08.bks.cpg/sg47_11_cif.got.tgz:21065.got - 2010.06.03 20:15:42.
