data_PCOD9382489
_publ_section_title
;
Structure prediction by ZEFSAII (Michael W. Deem and Ramdas Pophale) SiO2 
 PCOD9382489
Probable space group: P M M M
;
_chemical_formula_sum "Si O2"
_cell_formula_units_Z 52
_cell_length_a 14.342309
_cell_length_b 7.630279
_cell_length_c 27.615010
_cell_angle_alpha 90.000000
_cell_angle_beta 90.000000
_cell_angle_gamma 90.000000
_cell_volume 3022.071241
_symmetry_space_group_name_H-M "P M M M"
_symmetry_group_IT_number 47
_symmetry_cell_setting 'orthorhombic'
loop_
_space_group_symop_operation_xyz
x,y,z
-x,-y,z
x,-y,-z
-x,y,-z
-x,-y,-z
x,y,-z
-x,y,z
x,-y,z
loop_
_atom_site_type_symbol
_atom_site_label
_atom_site_fract_x
_atom_site_fract_y
_atom_site_fract_z
Si Si1 0.606010 0.293658 0.605527
Si Si2 0.104996 0.214078 0.752609
Si Si3 0.288951 0.791965 0.297397
Si Si4 0.789151 0.786412 0.850312
Si Si5 0.605627 0.207830 0.500000
Si Si6 0.395197 0.785603 0.797669
Si Si7 0.107942 0.786110 0.054286
O O1 0.500000 0.216861 0.608330
O O2 0.597037 0.500000 0.610273
O O3 0.670415 0.236028 0.649601
O O4 0.646336 0.258255 0.551950
O O5 0.185034 0.273825 0.715092
O O6 0.142657 0.263128 0.805978
O O7 0.000000 0.276017 0.743857
O O8 0.102231 0.000000 0.751543
O O9 0.359370 0.727670 0.255479
O O10 0.284198 0.000000 0.290132
O O11 0.685047 0.731339 0.835275
O O12 0.827745 0.725103 0.901741
O O13 0.788995 0.000000 0.851223
O O14 0.500000 0.284115 0.500000
O O15 0.599638 0.000000 0.500000
O O16 0.500000 0.725627 0.807354
O O17 0.396814 0.000000 0.797830
O O18 0.000000 0.735728 0.062425
O O19 0.109670 0.000000 0.054557
O O20 0.135139 0.730307 0.000000
#
# Coordination Sequence:
#
# PCOD9382489 Si02
#       7
#     8   8   8   8   4   8   8
#     4  10  19  29  41  59  85 112 134 159 192 228
#     4   8  13  21  34  53  74  93 118 157 200 235
#     4   9  16  25  39  58  77 100 130 161 193 230
#     4   8  12  17  26  40  59  84 113 149 193 232
#     4   9  17  29  45  63  82 107 138 167 193 224
#     4   8  13  20  30  45  64  86 115 151 186 220
#     4   8  12  16  22  33  50  75 109 148 189 233
#
# _framework density 17.206741000000001
#
# number of rings (size 3 to 8) (size 9 to 14) (size 15 to 20)
#    0.000    3.462    0.000    3.923    0.000    4.308 
#    0.000    0.000    0.000    0.923    0.000    3.769 
#    0.000    4.308    0.000    0.000    0.000   12.308 
#
# Total GULP energy -289550.364299 kJ/mol
# GULP energy per Si atom -5568.276237 kJ/mol
# Density = 1.716758 g / cm^3
# Si number density = 17.206741 Si / 1000 Ang^3
#
#
#
# Elastic Constant Matrix: (Units=GPa)
#
#
# Indices 1 2 3 4 5 6 
#
# 1 141.9879 6.1411 94.4349 0.0000 0.0000 0.0000
# 2 6.1411 29.5556 -3.2958 0.0000 0.0000 0.0000
# 3 94.4349 -3.2958 159.7615 0.0000 0.0000 0.0000
# 4 0.0000 0.0000 0.0000 -49.4873 0.0000 0.0000
# 5 0.0000 0.0000 0.0000 0.0000 26.3335 0.0000
# 6 0.0000 0.0000 0.0000 0.0000 0.0000 -3.3869
#
#
#
# Elastic Compliance Matrix: (Units=1/GPa)
#
#
# Indices 1 2 3 4 5 6 
#
# 1 0.011912 -0.003268 -0.007109 0.000000 0.000000 0.000000
# 2 -0.003268 0.034809 0.002650 0.000000 0.000000 0.000000
# 3 -0.007109 0.002650 0.010516 0.000000 0.000000 0.000000
# 4 0.000000 0.000000 0.000000 -0.020207 0.000000 0.000000
# 5 0.000000 0.000000 0.000000 0.000000 0.037974 0.000000
# 6 0.000000 0.000000 0.000000 0.000000 0.000000 -0.295253
#
#
# Mechanical properties :
#
#
# Convention : Reuss Voigt Hill
#
# Bulk Modulus (GPa) = 23.93292 58.42947 41.18119
# Shear Modulus (GPa) = -26.19615 10.29351 -7.95132
#
# Velocity S-wave (km/s) = -3.90607 2.44852 -2.15199
# Velocity P-wave (km/s) = 2.53061 6.48265 4.22023
#
# Compressibility (1/GPa) = 0.04178346
#
# Stress axis : x y z
#
# Youngs Moduli (GPa) = 83.94846 28.72824 95.09416
#
# Poissons Ratio (x) = 0.09388 0.67599
# Poissons Ratio (y) = 0.27433 -0.25197
# Poissons Ratio (z) = 0.59676 -0.07612
#
# Static dielectric constant tensor:
#      x y z
#    x 1.596690 0.000000 0.000000 
#    y 0.000000 1.636660 0.000000 
#    z 0.000000 0.000000 1.605870 
# 
# From -- ./inp_files/13383.got.cif
#   From: 2010.05.17/outbox.cif.g08.bks.cpg/sg47_7_cif.got.tgz:13383.got - 2010.06.03 20:15:42.
