data_PCOD9382880
_publ_section_title
;
Structure prediction by ZEFSAII (Michael W. Deem and Ramdas Pophale) SiO2 
 PCOD9382880
Probable space group: P M M M
;
_chemical_formula_sum "Si O2"
_cell_formula_units_Z 48
_cell_length_a 9.781837
_cell_length_b 35.739043
_cell_length_c 7.582374
_cell_angle_alpha 90.000000
_cell_angle_beta 90.000000
_cell_angle_gamma 90.000000
_cell_volume 2650.748613
_symmetry_space_group_name_H-M "P M M M"
_symmetry_group_IT_number 47
_symmetry_cell_setting 'orthorhombic'
loop_
_space_group_symop_operation_xyz
x,y,z
-x,-y,z
x,-y,-z
-x,y,-z
-x,-y,-z
x,y,-z
-x,y,z
x,-y,z
loop_
_atom_site_type_symbol
_atom_site_label
_atom_site_fract_x
_atom_site_fract_y
_atom_site_fract_z
Si Si1 0.834045 0.458093 0.297787
Si Si2 0.661207 0.262409 0.291540
Si Si3 0.337551 0.324136 0.000000
Si Si4 0.342189 0.041771 0.784619
Si Si5 0.155374 0.109315 0.788916
Si Si6 0.844016 0.192662 0.711525
Si Si7 0.165873 0.399608 0.000000
O O1 0.790973 0.452225 0.500000
O O2 0.790268 0.500000 0.241787
O O3 0.794320 0.424986 0.168171
O O4 0.000000 0.458685 0.295971
O O5 0.687521 0.269351 0.500000
O O6 0.500000 0.253835 0.272583
O O7 0.690453 0.298224 0.170761
O O8 0.749831 0.226882 0.230422
O O9 0.244377 0.360649 0.000000
O O10 0.500000 0.333310 0.000000
O O11 0.500000 0.046624 0.731511
O O12 0.248564 0.075665 0.721186
O O13 0.296825 0.000000 0.731179
O O14 0.340603 0.042246 0.000000
O O15 0.208741 0.151164 0.754837
O O16 0.000000 0.107497 0.719321
O O17 0.148418 0.105063 0.000000
O O18 0.849603 0.194982 0.500000
O O19 0.000000 0.195619 0.779662
O O20 0.000000 0.394576 0.000000
#
# Coordination Sequence:
#
# PCOD9382880 Si02
#       7
#     8   8   4   8   8   8   4
#     4   8  14  26  46  73 104 135 167 208 255 295
#     4   9  19  36  54  70  91 123 163 201 238 288
#     4  10  22  37  51  71 100 134 167 201 248 298
#     4   8  14  25  40  59  85 115 146 181 219 259
#     4   9  17  27  41  65  91 113 140 177 222 272
#     4   9  18  32  49  69  93 119 146 184 236 285
#     4  10  19  30  48  76 102 128 168 211 247 290
#
# _framework density 18.108091999999999
#
# number of rings (size 3 to 8) (size 9 to 14) (size 15 to 20)
#    0.000    3.167    0.000    1.250    1.167    3.333 
#    0.000    1.667    0.000    1.500    0.000    4.667 
#    0.000    0.000    0.000    0.000    0.000    0.000 
#
# Total GULP energy -267482.292430 kJ/mol
# GULP energy per Si atom -5572.547759 kJ/mol
# Density = 1.806688 g / cm^3
# Si number density = 18.108092 Si / 1000 Ang^3
#
#
#
# Elastic Constant Matrix: (Units=GPa)
#
#
# Indices 1 2 3 4 5 6 
#
# 1 50.5981 88.0391 30.5743 0.0000 0.0000 0.0000
# 2 88.0391 205.0407 59.5241 0.0000 0.0000 0.0000
# 3 30.5743 59.5241 63.1390 0.0000 0.0000 0.0000
# 4 0.0000 0.0000 0.0000 -123.6843 0.0000 0.0000
# 5 0.0000 0.0000 0.0000 0.0000 8.5874 0.0000
# 6 0.0000 0.0000 0.0000 0.0000 0.0000 314.6715
#
#
#
# Elastic Compliance Matrix: (Units=1/GPa)
#
#
# Indices 1 2 3 4 5 6 
#
# 1 0.081648 -0.032465 -0.008931 0.000000 0.000000 0.000000
# 2 -0.032465 0.019623 -0.002779 0.000000 0.000000 0.000000
# 3 -0.008931 -0.002779 0.022783 0.000000 0.000000 0.000000
# 4 0.000000 0.000000 0.000000 -0.008085 0.000000 0.000000
# 5 0.000000 0.000000 0.000000 0.000000 0.116450 0.000000
# 6 0.000000 0.000000 0.000000 0.000000 0.000000 0.003178
#
#
# Mechanical properties :
#
#
# Convention : Reuss Voigt Hill
#
# Bulk Modulus (GPa) = 28.00789 75.00587 51.50688
# Shear Modulus (GPa) = 14.88767 49.29092 32.08930
#
# Velocity S-wave (km/s) = 2.87044 5.22298 4.21420
# Velocity P-wave (km/s) = 5.14650 8.82518 7.22393
#
# Compressibility (1/GPa) = 0.03570422
#
# Stress axis : x y z
#
# Youngs Moduli (GPa) = 12.24774 50.95954 43.89263
#
# Poissons Ratio (x) = 1.65439 0.39200
# Poissons Ratio (y) = 0.39762 0.12199
# Poissons Ratio (z) = 0.10938 0.14163
#
# Static dielectric constant tensor:
#      x y z
#    x 1.612000 0.000000 0.000000 
#    y 0.000000 1.598000 0.000000 
#    z 0.000000 0.000000 1.668050 
# 
# From -- ./inp_files/2798.got.cif
#   From: 2010.05.17/outbox.cif.g08.bks.cpg/sg47_2_cif.got.tgz:2798.got - 2010.06.03 20:15:42.
