data_PCOD9382408
_publ_section_title
;
Structure prediction by ZEFSAII (Michael W. Deem and Ramdas Pophale) SiO2 
 PCOD9382408
Probable space group: P M M M
;
_chemical_formula_sum "Si O2"
_cell_formula_units_Z 64
_cell_length_a 34.861936
_cell_length_b 9.378932
_cell_length_c 13.857132
_cell_angle_alpha 90.000000
_cell_angle_beta 90.000000
_cell_angle_gamma 90.000000
_cell_volume 4530.834955
_symmetry_space_group_name_H-M "P M M M"
_symmetry_group_IT_number 47
_symmetry_cell_setting 'orthorhombic'
loop_
_space_group_symop_operation_xyz
x,y,z
-x,-y,z
x,-y,-z
-x,y,-z
-x,-y,-z
x,y,-z
-x,y,z
x,-y,z
loop_
_atom_site_type_symbol
_atom_site_label
_atom_site_fract_x
_atom_site_fract_y
_atom_site_fract_z
Si Si1 0.112629 0.330608 0.390303
Si Si2 0.157815 0.667933 0.800192
Si Si3 0.956179 0.169621 0.706765
Si Si4 0.229881 0.167531 0.116170
Si Si5 0.693393 0.335718 0.117438
Si Si6 0.542940 0.665705 0.117285
Si Si7 0.074377 0.331149 0.888751
Si Si8 0.382228 0.835707 0.882262
O O1 0.124522 0.302158 0.500000
O O2 0.104276 0.500000 0.380854
O O3 0.144323 0.298749 0.308921
O O4 0.074668 0.243514 0.362704
O O5 0.167792 0.500000 0.806648
O O6 0.192783 0.762450 0.835662
O O7 0.119500 0.689928 0.864508
O O8 0.948779 0.238340 0.811986
O O9 0.000000 0.196486 0.677006
O O10 0.949948 0.000000 0.710321
O O11 0.268452 0.250561 0.146062
O O12 0.232980 0.000000 0.137948
O O13 0.226234 0.182183 0.000000
O O14 0.694163 0.500000 0.149106
O O15 0.654764 0.255008 0.148524
O O16 0.692900 0.336348 0.000000
O O17 0.500000 0.709521 0.148178
O O18 0.548916 0.500000 0.144018
O O19 0.578076 0.763063 0.149936
O O20 0.542988 0.669709 0.000000
O O21 0.066546 0.500000 0.873632
O O22 0.066510 0.296443 0.000000
O O23 0.379424 0.000000 0.852331
O O24 0.382375 0.834156 0.000000
#
# Coordination Sequence:
#
# PCOD9382408 Si02
#       8
#     8   8   8   8   8   8   8   8
#     4   9  19  36  55  71  86 107 136 168 200 234
#     4   9  17  30  47  65  84 104 128 159 194 231
#     4  10  21  34  47  67  94 118 139 166 200 237
#     4  10  19  28  39  58  83 107 130 156 187 226
#     4   9  16  25  36  48  64  90 122 152 184 224
#     4   8  13  20  28  37  50  71 102 140 182 229
#     4   9  18  32  49  67  87 114 146 174 197 226
#     4   9  15  21  29  41  58  79 105 142 187 232
#
# _framework density 14.125431000000001
#
# number of rings (size 3 to 8) (size 9 to 14) (size 15 to 20)
#    0.000    2.875    0.000    3.000    0.000    8.500 
#    0.000    3.750    0.000    0.000    0.000    0.000 
#    0.000    0.000    0.000    0.000    0.000    0.000 
#
# Total GULP energy -356530.193340 kJ/mol
# GULP energy per Si atom -5570.784271 kJ/mol
# Density = 1.409328 g / cm^3
# Si number density = 14.125431 Si / 1000 Ang^3
#
#
#
# Elastic Constant Matrix: (Units=GPa)
#
#
# Indices 1 2 3 4 5 6 
#
# 1 96.4573 70.0061 6.1129 0.0000 0.0000 0.0000
# 2 70.0061 90.5566 15.2790 0.0000 0.0000 0.0000
# 3 6.1129 15.2790 27.8357 0.0000 0.0000 0.0000
# 4 0.0000 0.0000 0.0000 8.0409 0.0000 0.0000
# 5 0.0000 0.0000 0.0000 0.0000 5.0213 0.0000
# 6 0.0000 0.0000 0.0000 0.0000 0.0000 98.7917
#
#
#
# Elastic Compliance Matrix: (Units=1/GPa)
#
#
# Indices 1 2 3 4 5 6 
#
# 1 0.024359 -0.019759 0.005496 0.000000 0.000000 0.000000
# 2 -0.019759 0.028197 -0.011138 0.000000 0.000000 0.000000
# 3 0.005496 -0.011138 0.040832 0.000000 0.000000 0.000000
# 4 0.000000 0.000000 0.000000 0.124364 0.000000 0.000000
# 5 0.000000 0.000000 0.000000 0.000000 0.199153 0.000000
# 6 0.000000 0.000000 0.000000 0.000000 0.000000 0.010122
#
#
# Mechanical properties :
#
#
# Convention : Reuss Voigt Hill
#
# Bulk Modulus (GPa) = 23.48161 44.18285 33.83223
# Shear Modulus (GPa) = 10.16211 30.60088 20.38150
#
# Velocity S-wave (km/s) = 2.68511 4.65948 3.80267
# Velocity P-wave (km/s) = 5.12570 7.76495 6.57903
#
# Compressibility (1/GPa) = 0.04258652
#
# Stress axis : x y z
#
# Youngs Moduli (GPa) = 41.05221 35.46509 24.49073
#
# Poissons Ratio (x) = 0.70074 -0.13460
# Poissons Ratio (y) = 0.81113 0.27278
# Poissons Ratio (z) = -0.22563 0.39501
#
# Static dielectric constant tensor:
#      x y z
#    x 1.461980 0.000000 0.000000 
#    y 0.000000 1.470180 0.000000 
#    z 0.000000 0.000000 1.440920 
# 
# From -- ./inp_files/25872.got.cif
#   From: 2010.05.17/outbox.cif.g08.bks.cpg/sg47_13_cif.got.tgz:25872.got - 2010.06.03 20:15:42.
