data_PCOD9382126
_publ_section_title
;
Structure prediction by ZEFSAII (Michael W. Deem and Ramdas Pophale) SiO2 
 PCOD9382126
Probable space group: P M M M
;
_chemical_formula_sum "Si O2"
_cell_formula_units_Z 64
_cell_length_a 14.558749
_cell_length_b 14.340067
_cell_length_c 19.521073
_cell_angle_alpha 90.000000
_cell_angle_beta 90.000000
_cell_angle_gamma 90.000000
_cell_volume 4075.481486
_symmetry_space_group_name_H-M "P M M M"
_symmetry_group_IT_number 47
_symmetry_cell_setting 'orthorhombic'
loop_
_space_group_symop_operation_xyz
x,y,z
-x,-y,z
x,-y,-z
-x,y,-z
-x,-y,-z
x,y,-z
-x,y,z
x,-y,z
loop_
_atom_site_type_symbol
_atom_site_label
_atom_site_fract_x
_atom_site_fract_y
_atom_site_fract_z
Si Si1 0.236292 0.111780 0.577239
Si Si2 0.608225 0.797013 0.340377
Si Si3 0.609379 0.110240 0.806193
Si Si4 0.393404 0.605188 0.724574
Si Si5 0.890636 0.892353 0.704869
Si Si6 0.891081 0.240117 0.833746
Si Si7 0.251561 0.392015 0.849860
Si Si8 0.728405 0.211018 0.078023
O O1 0.209454 0.138014 0.500000
O O2 0.329981 0.160187 0.600695
O O3 0.162019 0.134545 0.635727
O O4 0.248403 0.000000 0.578769
O O5 0.500000 0.812840 0.351752
O O6 0.633249 0.845542 0.267598
O O7 0.624892 0.687260 0.328879
O O8 0.500000 0.124466 0.815904
O O9 0.664767 0.158396 0.867357
O O10 0.627547 0.000000 0.804501
O O11 0.500000 0.617204 0.747047
O O12 0.383862 0.500000 0.697246
O O13 0.325335 0.614485 0.788639
O O14 0.870416 0.823146 0.767410
O O15 0.000000 0.889799 0.693349
O O16 0.865882 0.000000 0.722270
O O17 0.842758 0.341323 0.825934
O O18 0.833806 0.196664 0.897095
O O19 0.000000 0.244769 0.843856
O O20 0.239885 0.500000 0.868354
O O21 0.285093 0.322323 0.909661
O O22 0.712583 0.184342 0.000000
#
# Coordination Sequence:
#
# PCOD9382126 Si02
#       8
#     8   8   8   8   8   8   8   8
#     4  10  20  31  45  70 102 131 160 196 239 289
#     4  10  18  31  50  70  96 130 166 200 235 280
#     4  10  20  34  53  75  98 129 169 208 247 293
#     4   9  16  28  50  76  98 122 158 205 251 291
#     4   9  17  31  52  73  94 124 160 199 244 293
#     4   9  19  34  50  72  97 125 166 209 247 292
#     4   9  18  32  49  72  98 126 163 205 252 302
#     4  10  21  34  48  70  98 130 164 204 248 297
#
# _framework density 15.703666
#
# number of rings (size 3 to 8) (size 9 to 14) (size 15 to 20)
#    0.750    1.750    1.250    1.875    0.000    4.000 
#    0.000    2.500    0.000    1.125    0.000    7.000 
#    0.000    0.000    0.000   10.750    0.000    0.250 
#
# Total GULP energy -356274.460728 kJ/mol
# GULP energy per Si atom -5566.788449 kJ/mol
# Density = 1.566792 g / cm^3
# Si number density = 15.703666 Si / 1000 Ang^3
#
#
#
# Elastic Constant Matrix: (Units=GPa)
#
#
# Indices 1 2 3 4 5 6 
#
# 1 31.4293 15.9067 -0.6844 0.0000 0.0000 0.0000
# 2 15.9067 61.0233 15.2140 0.0000 0.0000 0.0000
# 3 -0.6844 15.2140 36.6695 0.0000 0.0000 0.0000
# 4 0.0000 0.0000 0.0000 17.9905 0.0000 0.0000
# 5 0.0000 0.0000 0.0000 0.0000 8.9403 0.0000
# 6 0.0000 0.0000 0.0000 0.0000 0.0000 24.8821
#
#
#
# Elastic Compliance Matrix: (Units=1/GPa)
#
#
# Indices 1 2 3 4 5 6 
#
# 1 0.037558 -0.011115 0.005312 0.000000 0.000000 0.000000
# 2 -0.011115 0.021567 -0.009156 0.000000 0.000000 0.000000
# 3 0.005312 -0.009156 0.031168 0.000000 0.000000 0.000000
# 4 0.000000 0.000000 0.000000 0.055585 0.000000 0.000000
# 5 0.000000 0.000000 0.000000 0.000000 0.111853 0.000000
# 6 0.000000 0.000000 0.000000 0.000000 0.000000 0.040190
#
#
# Mechanical properties :
#
#
# Convention : Reuss Voigt Hill
#
# Bulk Modulus (GPa) = 16.56228 21.11055 18.83642
# Shear Modulus (GPa) = 14.36933 16.94161 15.65547
#
# Velocity S-wave (km/s) = 3.02823 3.28812 3.16085
# Velocity P-wave (km/s) = 4.77457 5.28090 5.03411
#
# Compressibility (1/GPa) = 0.06037814
#
# Stress axis : x y z
#
# Youngs Moduli (GPa) = 26.62521 46.36705 32.08384
#
# Poissons Ratio (x) = 0.51536 -0.17044
# Poissons Ratio (y) = 0.29593 0.29374
# Poissons Ratio (z) = -0.14144 0.42451
#
# Static dielectric constant tensor:
#      x y z
#    x 1.534530 0.000000 0.000000 
#    y 0.000000 1.535680 0.000000 
#    z 0.000000 0.000000 1.495340 
# 
# From -- ./inp_files/28322.got.cif
#   From: 2010.05.17/outbox.cif.g08.bks.cpg/sg47_15_cif.got.tgz:28322.got - 2010.06.03 20:15:42.
