data_PCOD9382702
_publ_section_title
;
Structure prediction by ZEFSAII (Michael W. Deem and Ramdas Pophale) SiO2 
 PCOD9382702
Probable space group: P M M M
;
_chemical_formula_sum "Si O2"
_cell_formula_units_Z 64
_cell_length_a 23.283047
_cell_length_b 7.898114
_cell_length_c 16.805171
_cell_angle_alpha 90.000000
_cell_angle_beta 90.000000
_cell_angle_gamma 90.000000
_cell_volume 3090.339186
_symmetry_space_group_name_H-M "P M M M"
_symmetry_group_IT_number 47
_symmetry_cell_setting 'orthorhombic'
loop_
_space_group_symop_operation_xyz
x,y,z
-x,-y,z
x,-y,-z
-x,y,-z
-x,-y,-z
x,y,-z
-x,y,z
x,-y,z
loop_
_atom_site_type_symbol
_atom_site_label
_atom_site_fract_x
_atom_site_fract_y
_atom_site_fract_z
Si Si1 0.932734 0.706344 0.589415
Si Si2 0.659517 0.803999 0.588499
Si Si3 0.179080 0.204166 0.088129
Si Si4 0.565252 0.694286 0.293749
Si Si5 0.732367 0.694002 0.722664
Si Si6 0.563734 0.199247 0.112803
Si Si7 0.139884 0.296267 0.742790
Si Si8 0.310331 0.197096 0.881809
O O1 0.912021 0.760174 0.500000
O O2 0.929327 0.500000 0.589271
O O3 0.900992 0.765332 0.670667
O O4 0.000000 0.751501 0.594554
O O5 0.649781 0.742121 0.500000
O O6 0.603414 0.784463 0.641636
O O7 0.707814 0.703566 0.635214
O O8 0.676505 0.000000 0.586928
O O9 0.138597 0.256064 0.162324
O O10 0.246410 0.264880 0.095737
O O11 0.182010 0.000000 0.090805
O O12 0.158816 0.255838 0.000000
O O13 0.500000 0.688842 0.321872
O O14 0.586013 0.500000 0.282923
O O15 0.564596 0.780859 0.207958
O O16 0.734395 0.500000 0.749751
O O17 0.795971 0.766365 0.723490
O O18 0.692512 0.789383 0.785832
O O19 0.500000 0.268337 0.088339
O O20 0.627617 0.268323 0.089830
O O21 0.563456 0.000000 0.092388
O O22 0.137840 0.500000 0.737741
O O23 0.310546 0.000000 0.905112
#
# Coordination Sequence:
#
# PCOD9382702 Si02
#       8
#     8   8   8   8   8   8   8   8
#     4   8  14  27  50  80 112 144 177 213 255 306
#     4  11  23  35  45  58  81 116 155 194 239 295
#     4   9  18  32  50  73 102 139 180 217 257 308
#     4  10  20  32  46  63  82 106 142 192 246 299
#     4  10  19  30  45  66  91 117 150 195 245 294
#     4   9  16  26  43  65  86 111 146 189 240 301
#     4   9  18  31  51  80 108 135 170 214 258 301
#     4   9  16  28  47  66  88 119 154 195 241 295
#
# _framework density 20.709700000000002
#
# number of rings (size 3 to 8) (size 9 to 14) (size 15 to 20)
#    0.000    2.625    1.250    1.500    0.000    3.250 
#    0.000    2.500    0.000    1.500    0.000    6.125 
#    0.000    0.000    0.000    9.375    0.000    9.750 
#
# Total GULP energy -356276.538523 kJ/mol
# GULP energy per Si atom -5566.820914 kJ/mol
# Density = 2.066256 g / cm^3
# Si number density = 20.709700 Si / 1000 Ang^3
#
#
#
# Elastic Constant Matrix: (Units=GPa)
#
#
# Indices 1 2 3 4 5 6 
#
# 1 79.3414 4.3550 58.7275 0.0000 0.0000 0.0000
# 2 4.3550 31.5178 9.9665 0.0000 0.0000 0.0000
# 3 58.7275 9.9665 184.8331 0.0000 0.0000 0.0000
# 4 0.0000 0.0000 0.0000 18.0958 0.0000 0.0000
# 5 0.0000 0.0000 0.0000 0.0000 -226.7494 0.0000
# 6 0.0000 0.0000 0.0000 0.0000 0.0000 11.3576
#
#
#
# Elastic Compliance Matrix: (Units=1/GPa)
#
#
# Indices 1 2 3 4 5 6 
#
# 1 0.016492 -0.000633 -0.005206 0.000000 0.000000 0.000000
# 2 -0.000633 0.032303 -0.001541 0.000000 0.000000 0.000000
# 3 -0.005206 -0.001541 0.007147 0.000000 0.000000 0.000000
# 4 0.000000 0.000000 0.000000 0.055261 0.000000 0.000000
# 5 0.000000 0.000000 0.000000 0.000000 -0.004410 0.000000
# 6 0.000000 0.000000 0.000000 0.000000 0.000000 0.088047
#
#
# Mechanical properties :
#
#
# Convention : Reuss Voigt Hill
#
# Bulk Modulus (GPa) = 24.28160 49.08783 36.68472
# Shear Modulus (GPa) = 22.38876 -24.61633 -1.11378
#
# Velocity S-wave (km/s) = 3.29154 -3.45140 -0.73415
# Velocity P-wave (km/s) = 5.11819 2.80560 4.12718
#
# Compressibility (1/GPa) = 0.04118345
#
# Stress axis : x y z
#
# Youngs Moduli (GPa) = 60.63618 30.95707 139.91004
#
# Poissons Ratio (x) = 0.01958 0.72835
# Poissons Ratio (y) = 0.03836 0.21558
# Poissons Ratio (z) = 0.31566 0.04770
#
# Static dielectric constant tensor:
#      x y z
#    x 1.765350 0.000000 0.000000 
#    y 0.000000 1.774380 0.000000 
#    z 0.000000 0.000000 1.778680 
# 
# From -- ./inp_files/28927.got.cif
#   From: 2010.05.17/outbox.cif.g08.bks.cpg/sg47_15_cif.got.tgz:28927.got - 2010.06.03 20:15:42.
