data_PCOD9382800
_publ_section_title
;
Structure prediction by ZEFSAII (Michael W. Deem and Ramdas Pophale) SiO2 
 PCOD9382800
Probable space group: P M M M
;
_chemical_formula_sum "Si O2"
_cell_formula_units_Z 60
_cell_length_a 21.551727
_cell_length_b 8.644953
_cell_length_c 19.626937
_cell_angle_alpha 90.000000
_cell_angle_beta 90.000000
_cell_angle_gamma 90.000000
_cell_volume 3656.766604
_symmetry_space_group_name_H-M "P M M M"
_symmetry_group_IT_number 47
_symmetry_cell_setting 'orthorhombic'
loop_
_space_group_symop_operation_xyz
x,y,z
-x,-y,z
x,-y,-z
-x,y,-z
-x,-y,-z
x,y,-z
-x,y,z
x,-y,z
loop_
_atom_site_type_symbol
_atom_site_label
_atom_site_fract_x
_atom_site_fract_y
_atom_site_fract_z
Si Si1 0.000000 0.185559 0.579495
Si Si2 0.570710 0.812646 0.786259
Si Si3 0.752990 0.185266 0.578352
Si Si4 0.684388 0.685372 0.296287
Si Si5 0.123845 0.685829 0.352237
Si Si6 0.190672 0.314183 0.216812
Si Si7 0.220662 0.186297 0.923807
Si Si8 0.634691 0.188130 0.075302
O O1 0.060927 0.246221 0.617840
O O2 0.000000 0.236150 0.500000
O O3 0.000000 0.000000 0.580129
O O4 0.500000 0.764857 0.773516
O O5 0.620494 0.748119 0.733374
O O6 0.593447 0.760993 0.861397
O O7 0.573059 0.000000 0.784750
O O8 0.741012 0.225721 0.500000
O O9 0.701516 0.248946 0.629886
O O10 0.818250 0.256688 0.602716
O O11 0.756745 0.000000 0.584246
O O12 0.684099 0.500000 0.298316
O O13 0.741991 0.734109 0.247231
O O14 0.121606 0.500000 0.354429
O O15 0.140665 0.732532 0.274308
O O16 0.190381 0.500000 0.213295
O O17 0.184032 0.248759 0.141160
O O18 0.293178 0.233998 0.916089
O O19 0.219303 0.000000 0.922210
O O20 0.200456 0.235355 0.000000
O O21 0.633919 0.000000 0.075264
O O22 0.613847 0.238770 0.000000
#
# Coordination Sequence:
#
# PCOD9382800 Si02
#       8
#     4   8   8   8   8   8   8   8
#     4  11  23  37  53  77 110 145 180 209 237 280
#     4  10  19  30  47  69  92 124 165 205 248 298
#     4  10  20  34  54  79 103 126 157 200 246 291
#     4  10  20  33  49  69  95 127 161 200 247 297
#     4  10  21  35  52  77 108 141 174 204 239 286
#     4   9  18  31  47  70  97 127 166 206 244 289
#     4   9  16  26  44  69  95 126 163 204 251 297
#     4   8  14  25  41  64  93 123 159 202 246 293
#
# _framework density 16.407938999999999
#
# number of rings (size 3 to 8) (size 9 to 14) (size 15 to 20)
#    0.000    2.467    1.333    3.400    0.000    6.667 
#    0.000    1.333    0.000    0.800    0.000    4.200 
#    0.000    3.733    0.000    0.000    0.000    0.000 
#
# Total GULP energy -334533.252546 kJ/mol
# GULP energy per Si atom -5575.554209 kJ/mol
# Density = 1.637059 g / cm^3
# Si number density = 16.407939 Si / 1000 Ang^3
#
#
#
# Elastic Constant Matrix: (Units=GPa)
#
#
# Indices 1 2 3 4 5 6 
#
# 1 106.5678 28.1875 84.4453 0.0000 0.0000 0.0000
# 2 28.1875 26.2330 40.9596 0.0000 0.0000 0.0000
# 3 84.4453 40.9596 172.5443 0.0000 0.0000 0.0000
# 4 0.0000 0.0000 0.0000 12.2133 0.0000 0.0000
# 5 0.0000 0.0000 0.0000 0.0000 23.6704 0.0000
# 6 0.0000 0.0000 0.0000 0.0000 0.0000 18.6603
#
#
#
# Elastic Compliance Matrix: (Units=1/GPa)
#
#
# Indices 1 2 3 4 5 6 
#
# 1 0.016333 -0.008054 -0.006082 0.000000 0.000000 0.000000
# 2 -0.008054 0.064542 -0.011379 0.000000 0.000000 0.000000
# 3 -0.006082 -0.011379 0.011473 0.000000 0.000000 0.000000
# 4 0.000000 0.000000 0.000000 0.081878 0.000000 0.000000
# 5 0.000000 0.000000 0.000000 0.000000 0.042247 0.000000
# 6 0.000000 0.000000 0.000000 0.000000 0.000000 0.053590
#
#
# Mechanical properties :
#
#
# Convention : Reuss Voigt Hill
#
# Bulk Modulus (GPa) = 24.20273 68.05889 46.13081
# Shear Modulus (GPa) = 14.93131 21.02566 17.97848
#
# Velocity S-wave (km/s) = 3.01990 3.58359 3.31375
# Velocity P-wave (km/s) = 5.19061 7.66108 6.54349
#
# Compressibility (1/GPa) = 0.04131765
#
# Stress axis : x y z
#
# Youngs Moduli (GPa) = 61.22454 15.49376 87.15806
#
# Poissons Ratio (x) = 0.12479 0.53007
# Poissons Ratio (y) = 0.49313 0.99181
# Poissons Ratio (z) = 0.37235 0.17631
#
# Static dielectric constant tensor:
#      x y z
#    x 1.526720 0.000000 0.000000 
#    y 0.000000 1.555740 0.000000 
#    z 0.000000 0.000000 1.566300 
# 
# From -- ./inp_files/28798.got.cif
#   From: 2010.05.17/outbox.cif.g08.bks.cpg/sg47_15_cif.got.tgz:28798.got - 2010.06.03 20:15:42.
