data_PCOD9382021
_publ_section_title
;
Structure prediction by ZEFSAII (Michael W. Deem and Ramdas Pophale) SiO2 
 PCOD9382021
Probable space group: P M M M
;
_chemical_formula_sum "Si O2"
_cell_formula_units_Z 56
_cell_length_a 17.442685
_cell_length_b 20.502965
_cell_length_c 9.186018
_cell_angle_alpha 90.000000
_cell_angle_beta 90.000000
_cell_angle_gamma 90.000000
_cell_volume 3285.165855
_symmetry_space_group_name_H-M "P M M M"
_symmetry_group_IT_number 47
_symmetry_cell_setting 'orthorhombic'
loop_
_space_group_symop_operation_xyz
x,y,z
-x,-y,z
x,-y,-z
-x,y,-z
-x,-y,-z
x,y,-z
-x,y,z
x,-y,z
loop_
_atom_site_type_symbol
_atom_site_label
_atom_site_fract_x
_atom_site_fract_y
_atom_site_fract_z
Si Si1 0.411477 0.077370 0.326712
Si Si2 0.000000 0.392054 0.166653
Si Si3 0.308774 0.183079 0.174282
Si Si4 0.411493 0.690388 0.174384
Si Si5 0.156369 0.769103 0.672511
Si Si6 0.323787 0.572973 0.675141
Si Si7 0.845661 0.387917 0.671738
Si Si8 0.000000 0.766908 0.168618
O O1 0.402223 0.089160 0.500000
O O2 0.500000 0.093814 0.288538
O O3 0.352199 0.120301 0.236909
O O4 0.401489 0.000000 0.302358
O O5 0.921372 0.411445 0.245569
O O6 0.000000 0.312500 0.170564
O O7 0.000000 0.413152 0.000000
O O8 0.362438 0.245413 0.209171
O O9 0.227636 0.196234 0.250657
O O10 0.299942 0.179149 0.000000
O O11 0.500000 0.698610 0.217552
O O12 0.373906 0.628371 0.250935
O O13 0.408551 0.681576 0.000000
O O14 0.155241 0.781880 0.500000
O O15 0.163430 0.690407 0.691447
O O16 0.076483 0.788227 0.747894
O O17 0.326130 0.581090 0.500000
O O18 0.350210 0.500000 0.710824
O O19 0.234613 0.581010 0.719008
O O20 0.856277 0.400172 0.500000
O O21 0.000000 0.787075 0.000000
#
# Coordination Sequence:
#
# PCOD9382021 Si02
#       8
#     8   4   8   8   8   8   8   4
#     4   9  19  36  56  79 110 147 183 218 259 310
#     4   9  17  27  46  72  97 127 163 202 249 306
#     4  11  21  33  53  81 111 141 176 218 263 309
#     4  10  22  38  54  74 102 134 169 212 264 319
#     4  10  18  30  50  75 104 138 177 216 260 313
#     4  10  21  37  55  74  96 127 171 220 267 315
#     4   9  17  31  49  70  97 129 165 207 258 311
#     4   9  17  29  45  72 107 138 170 212 264 311
#
# _framework density 17.046323000000001
#
# number of rings (size 3 to 8) (size 9 to 14) (size 15 to 20)
#    0.000    2.286    1.429    2.143    0.000    5.429 
#    0.000    2.500    0.000    2.143    0.000    0.500 
#    0.000    4.000    0.000    0.000    0.000    0.000 
#
# Total GULP energy -312561.230614 kJ/mol
# GULP energy per Si atom -5581.450547 kJ/mol
# Density = 1.700753 g / cm^3
# Si number density = 17.046323 Si / 1000 Ang^3
#
#
#
# Elastic Constant Matrix: (Units=GPa)
#
#
# Indices 1 2 3 4 5 6 
#
# 1 145.3938 51.4772 64.3385 0.0000 0.0000 0.0000
# 2 51.4772 55.9463 41.5292 0.0000 0.0000 0.0000
# 3 64.3385 41.5292 65.4364 0.0000 0.0000 0.0000
# 4 0.0000 0.0000 0.0000 20.4095 0.0000 0.0000
# 5 0.0000 0.0000 0.0000 0.0000 31.1067 0.0000
# 6 0.0000 0.0000 0.0000 0.0000 0.0000 228.9653
#
#
#
# Elastic Compliance Matrix: (Units=1/GPa)
#
#
# Indices 1 2 3 4 5 6 
#
# 1 0.012771 -0.004594 -0.009641 0.000000 0.000000 0.000000
# 2 -0.004594 0.035448 -0.017980 0.000000 0.000000 0.000000
# 3 -0.009641 -0.017980 0.036172 0.000000 0.000000 0.000000
# 4 0.000000 0.000000 0.000000 0.048997 0.000000 0.000000
# 5 0.000000 0.000000 0.000000 0.000000 0.032147 0.000000
# 6 0.000000 0.000000 0.000000 0.000000 0.000000 0.004367
#
#
# Mechanical properties :
#
#
# Convention : Reuss Voigt Hill
#
# Bulk Modulus (GPa) = 50.09787 64.60735 57.35261
# Shear Modulus (GPa) = 20.74810 63.39175 42.06992
#
# Velocity S-wave (km/s) = 3.49257 6.10481 4.97326
# Velocity P-wave (km/s) = 6.76144 9.36349 8.16676
#
# Compressibility (1/GPa) = 0.01996093
#
# Stress axis : x y z
#
# Youngs Moduli (GPa) = 78.30540 28.21015 27.64566
#
# Poissons Ratio (x) = 0.12960 0.26652
# Poissons Ratio (y) = 0.35974 0.49708
# Poissons Ratio (z) = 0.75491 0.50722
#
# Static dielectric constant tensor:
#      x y z
#    x 1.561670 0.000000 0.000000 
#    y 0.000000 1.561060 0.000000 
#    z 0.000000 0.000000 1.566370 
# 
# From -- ./inp_files/7404.got.cif
#   From: 2010.05.17/outbox.cif.g08.bks.cpg/sg47_4_cif.got.tgz:7404.got - 2010.06.03 20:15:42.
