data_PCOD9382696
_publ_section_title
;
Structure prediction by ZEFSAII (Michael W. Deem and Ramdas Pophale) SiO2 
 PCOD9382696
Probable space group: P M M M
;
_chemical_formula_sum "Si O2"
_cell_formula_units_Z 64
_cell_length_a 18.668663
_cell_length_b 22.034214
_cell_length_c 7.424023
_cell_angle_alpha 90.000000
_cell_angle_beta 90.000000
_cell_angle_gamma 90.000000
_cell_volume 3053.866780
_symmetry_space_group_name_H-M "P M M M"
_symmetry_group_IT_number 47
_symmetry_cell_setting 'orthorhombic'
loop_
_space_group_symop_operation_xyz
x,y,z
-x,-y,z
x,-y,-z
-x,y,-z
-x,-y,-z
x,y,-z
-x,y,z
x,-y,z
loop_
_atom_site_type_symbol
_atom_site_label
_atom_site_fract_x
_atom_site_fract_y
_atom_site_fract_z
Si Si1 0.583405 0.433054 0.219444
Si Si2 0.085706 0.065539 0.717061
Si Si3 0.916712 0.801627 0.279824
Si Si4 0.414061 0.935146 0.216640
Si Si5 0.661868 0.315256 0.792408
Si Si6 0.416255 0.196434 0.220128
Si Si7 0.825682 0.312986 0.710310
Si Si8 0.917626 0.568057 0.217228
O O1 0.500000 0.424538 0.266207
O O2 0.606536 0.500000 0.280809
O O3 0.629847 0.376996 0.286789
O O4 0.587010 0.434356 0.000000
O O5 0.094002 0.064948 0.500000
O O6 0.111555 0.131831 0.779192
O O7 0.000000 0.065943 0.751799
O O8 0.113654 0.000000 0.783876
O O9 0.916563 0.801647 0.500000
O O10 0.871558 0.743830 0.217807
O O11 0.000000 0.795476 0.226165
O O12 0.500000 0.934717 0.247575
O O13 0.388549 0.869621 0.282566
O O14 0.386022 0.000000 0.285878
O O15 0.404491 0.935920 0.000000
O O16 0.629793 0.253214 0.714985
O O17 0.747061 0.316559 0.791097
O O18 0.637172 0.314956 0.000000
O O19 0.500000 0.203792 0.269122
O O20 0.414392 0.194427 0.000000
O O21 0.814732 0.301403 0.500000
O O22 0.868258 0.376056 0.728451
O O23 0.895411 0.500000 0.276381
O O24 0.000000 0.577786 0.276467
O O25 0.917941 0.567254 0.000000
#
# Coordination Sequence:
#
# PCOD9382696 Si02
#       8
#     8   8   8   8   8   8   8   8
#     4   8  14  26  46  70  89 105 134 179 226 268
#     4   7   9  15  31  56  82 105 134 179 231 271
#     4   8  14  25  41  61  85 114 149 188 227 264
#     4   7   9  14  27  51  82 109 134 176 237 292
#     4  10  19  30  45  65  90 120 152 188 228 268
#     4   8  13  22  39  62  84 110 150 197 239 280
#     4  11  22  33  46  67  98 133 162 188 221 267
#     4   9  19  37  59  79  97 118 148 189 233 273
#
# _framework density 20.957037
#
# number of rings (size 3 to 8) (size 9 to 14) (size 15 to 20)
#    0.000    3.500    0.000    4.125    0.000    3.000 
#    0.000    1.875    0.000    2.250    0.000    0.875 
#    0.000    1.500    0.000   17.250    0.000   14.000 
#
# Total GULP energy -356567.817722 kJ/mol
# GULP energy per Si atom -5571.372152 kJ/mol
# Density = 2.090934 g / cm^3
# Si number density = 20.957037 Si / 1000 Ang^3
#
#
#
# Elastic Constant Matrix: (Units=GPa)
#
#
# Indices 1 2 3 4 5 6 
#
# 1 58.2719 93.7322 -4.9542 0.0000 0.0000 0.0000
# 2 93.7322 267.9512 3.8374 0.0000 0.0000 0.0000
# 3 -4.9542 3.8374 63.1788 0.0000 0.0000 0.0000
# 4 0.0000 0.0000 0.0000 -30.2451 0.0000 0.0000
# 5 0.0000 0.0000 0.0000 0.0000 65.6104 0.0000
# 6 0.0000 0.0000 0.0000 0.0000 0.0000 -8.7380
#
#
#
# Elastic Compliance Matrix: (Units=1/GPa)
#
#
# Indices 1 2 3 4 5 6 
#
# 1 0.040233 -0.014131 0.004013 0.000000 0.000000 0.000000
# 2 -0.014131 0.008699 -0.001636 0.000000 0.000000 0.000000
# 3 0.004013 -0.001636 0.016242 0.000000 0.000000 0.000000
# 4 0.000000 0.000000 0.000000 -0.033063 0.000000 0.000000
# 5 0.000000 0.000000 0.000000 0.000000 0.015241 0.000000
# 6 0.000000 0.000000 0.000000 0.000000 0.000000 -0.114443
#
#
# Mechanical properties :
#
#
# Convention : Reuss Voigt Hill
#
# Bulk Modulus (GPa) = 24.00122 63.84808 43.92465
# Shear Modulus (GPa) = -168.39128 25.11122 -71.64003
#
# Velocity S-wave (km/s) = -8.97358 3.46529 -5.85307
# Velocity P-wave (km/s) = 9.79231 6.82227 4.96720
#
# Compressibility (1/GPa) = 0.04166455
#
# Stress axis : x y z
#
# Youngs Moduli (GPa) = 24.85524 114.95867 61.56809
#
# Poissons Ratio (x) = 1.62453 -0.24708
# Poissons Ratio (y) = 0.35124 0.10075
# Poissons Ratio (z) = -0.09975 0.18813
#
# Static dielectric constant tensor:
#      x y z
#    x 1.679500 0.000000 0.000000 
#    y 0.000000 1.812050 0.000000 
#    z 0.000000 0.000000 1.834470 
# 
# From -- ./inp_files/10008.got.cif
#   From: 2010.05.17/outbox.cif.g08.bks.cpg/sg47_6_cif.got.tgz:10008.got - 2010.06.03 20:15:42.
