data_PCOD9382959
_publ_section_title
;
Structure prediction by ZEFSAII (Michael W. Deem and Ramdas Pophale) SiO2 
 PCOD9382959
Probable space group: P M M M
;
_chemical_formula_sum "Si O2"
_cell_formula_units_Z 64
_cell_length_a 7.729770
_cell_length_b 24.455517
_cell_length_c 19.954371
_cell_angle_alpha 90.000000
_cell_angle_beta 90.000000
_cell_angle_gamma 90.000000
_cell_volume 3772.084931
_symmetry_space_group_name_H-M "P M M M"
_symmetry_group_IT_number 47
_symmetry_cell_setting 'orthorhombic'
loop_
_space_group_symop_operation_xyz
x,y,z
-x,-y,z
x,-y,-z
-x,y,-z
-x,-y,-z
x,y,-z
-x,y,z
x,-y,z
loop_
_atom_site_type_symbol
_atom_site_label
_atom_site_fract_x
_atom_site_fract_y
_atom_site_fract_z
Si Si1 0.711184 0.561385 0.922412
Si Si2 0.205239 0.162342 0.794854
Si Si3 0.791543 0.729780 0.717555
Si Si4 0.794744 0.250474 0.426697
Si Si5 0.293297 0.938875 0.706445
Si Si6 0.292122 0.776507 0.075499
Si Si7 0.709748 0.877339 0.425580
Si Si8 0.707911 0.668310 0.152726
O O1 0.500000 0.561210 0.920826
O O2 0.767660 0.500000 0.903834
O O3 0.772230 0.610672 0.875619
O O4 0.759726 0.571458 0.000000
O O5 0.275253 0.213067 0.749864
O O6 0.262012 0.104773 0.764965
O O7 0.251573 0.176165 0.871262
O O8 0.000000 0.164230 0.789255
O O9 0.725207 0.723405 0.641826
O O10 0.749349 0.682792 0.770695
O O11 0.000000 0.733854 0.714076
O O12 0.721131 0.265320 0.500000
O O13 0.771347 0.185120 0.418637
O O14 0.000000 0.261602 0.429196
O O15 0.500000 0.942783 0.698982
O O16 0.226538 0.913188 0.636577
O O17 0.225728 0.000000 0.718633
O O18 0.500000 0.772387 0.072217
O O19 0.227100 0.719550 0.108073
O O20 0.227174 0.784542 0.000000
O O21 0.761412 0.896904 0.500000
O O22 0.500000 0.876377 0.423784
O O23 0.500000 0.667884 0.146325
#
# Coordination Sequence:
#
# PCOD9382959 Si02
#       8
#     8   8   8   8   8   8   8   8
#     4   8  13  22  38  61  89 119 150 182 209 235
#     4  10  19  31  46  64  85 109 138 172 211 254
#     4   9  17  28  41  60  85 112 140 173 214 253
#     4   9  16  27  43  60  81 111 143 172 206 252
#     4  10  20  32  46  63  84 111 141 172 207 251
#     4   9  17  29  46  67  89 112 137 169 209 253
#     4   9  17  28  43  63  85 109 138 172 207 244
#     4   9  16  25  41  65  89 115 146 177 206 242
#
# _framework density 16.966743999999998
#
# number of rings (size 3 to 8) (size 9 to 14) (size 15 to 20)
#    0.000    2.875    1.250    1.125    0.000    3.250 
#    0.000    1.250    0.000    1.875    0.000    6.125 
#    0.000    0.500    0.000    6.250    0.000    0.000 
#
# Total GULP energy -356616.988416 kJ/mol
# GULP energy per Si atom -5572.140444 kJ/mol
# Density = 1.692813 g / cm^3
# Si number density = 16.966744 Si / 1000 Ang^3
#
#
#
# Elastic Constant Matrix: (Units=GPa)
#
#
# Indices 1 2 3 4 5 6 
#
# 1 24.0405 -1.9350 3.5860 0.0000 0.0000 0.0000
# 2 -1.9350 101.1437 84.5909 0.0000 0.0000 0.0000
# 3 3.5860 84.5909 166.4998 0.0000 0.0000 0.0000
# 4 0.0000 0.0000 0.0000 43.0227 0.0000 0.0000
# 5 0.0000 0.0000 0.0000 0.0000 8.1272 0.0000
# 6 0.0000 0.0000 0.0000 0.0000 0.0000 -41.8601
#
#
#
# Elastic Compliance Matrix: (Units=1/GPa)
#
#
# Indices 1 2 3 4 5 6 
#
# 1 0.042157 0.002723 -0.002291 0.000000 0.000000 0.000000
# 2 0.002723 0.017368 -0.008882 0.000000 0.000000 0.000000
# 3 -0.002291 -0.008882 0.010568 0.000000 0.000000 0.000000
# 4 0.000000 0.000000 0.000000 0.023244 0.000000 0.000000
# 5 0.000000 0.000000 0.000000 0.000000 0.123044 0.000000
# 6 0.000000 0.000000 0.000000 0.000000 0.000000 -0.023889
#
#
# Mechanical properties :
#
#
# Convention : Reuss Voigt Hill
#
# Bulk Modulus (GPa) = 18.79998 51.57422 35.18710
# Shear Modulus (GPa) = 22.01440 15.55408 18.78424
#
# Velocity S-wave (km/s) = 3.60599 3.03106 3.33095
# Velocity P-wave (km/s) = 5.33312 6.53552 5.96469
#
# Compressibility (1/GPa) = 0.05319155
#
# Stress axis : x y z
#
# Youngs Moduli (GPa) = 23.72059 57.57803 94.62442
#
# Poissons Ratio (x) = -0.15678 0.21682
# Poissons Ratio (y) = -0.06459 0.84049
# Poissons Ratio (z) = 0.05435 0.51143
#
# Static dielectric constant tensor:
#      x y z
#    x 1.625870 0.000000 0.000000 
#    y 0.000000 1.562610 0.000000 
#    z 0.000000 0.000000 1.604730 
# 
# From -- ./inp_files/11781.got.cif
#   From: 2010.05.17/outbox.cif.g08.bks.cpg/sg47_6_cif.got.tgz:11781.got - 2010.06.03 20:15:42.
