data_PCOD9382708
_publ_section_title
;
Structure prediction by ZEFSAII (Michael W. Deem and Ramdas Pophale) SiO2 
 PCOD9382708
Probable space group: P M M M
;
_chemical_formula_sum "Si O2"
_cell_formula_units_Z 46
_cell_length_a 8.916278
_cell_length_b 25.736871
_cell_length_c 12.117274
_cell_angle_alpha 90.000000
_cell_angle_beta 90.000000
_cell_angle_gamma 90.000000
_cell_volume 2780.636857
_symmetry_space_group_name_H-M "P M M M"
_symmetry_group_IT_number 47
_symmetry_cell_setting 'orthorhombic'
loop_
_space_group_symop_operation_xyz
x,y,z
-x,-y,z
x,-y,-z
-x,y,-z
-x,-y,-z
x,y,-z
-x,y,z
x,-y,z
loop_
_atom_site_type_symbol
_atom_site_label
_atom_site_fract_x
_atom_site_fract_y
_atom_site_fract_z
Si Si1 0.827333 0.393001 0.365763
Si Si2 0.318640 0.113620 0.500000
Si Si3 0.332385 0.000000 0.242946
Si Si4 0.673503 0.500000 0.634555
Si Si5 0.274291 0.000000 0.500000
Si Si6 0.677183 0.284870 0.632691
Si Si7 0.820934 0.903352 0.126042
Si Si8 0.178356 0.179524 0.303544
O O1 0.825428 0.394031 0.500000
O O2 0.754353 0.447160 0.328818
O O3 0.736021 0.341650 0.333668
O O4 0.000000 0.389208 0.331050
O O5 0.500000 0.102288 0.500000
O O6 0.220865 0.060303 0.500000
O O7 0.272283 0.147343 0.394351
O O8 0.249881 0.949149 0.198200
O O9 0.500000 0.000000 0.198535
O O10 0.340283 0.000000 0.375766
O O11 0.500000 0.500000 0.667166
O O12 0.677695 0.500000 0.500000
O O13 0.701110 0.279632 0.500000
O O14 0.500000 0.280033 0.652641
O O15 0.767105 0.238550 0.690052
O O16 0.793846 0.848936 0.187427
O O17 0.000000 0.911603 0.124776
O O18 0.766679 0.904697 0.000000
O O19 0.000000 0.176274 0.328180
#
# Coordination Sequence:
#
# PCOD9382708 Si02
#       8
#     8   4   4   4   2   8   8   8
#     4   9  16  25  38  57  84 120 163 207 243 284
#     4  12  22  37  54  73 102 132 155 193 249 300
#     4  12  23  38  58  81 104 129 161 197 241 294
#     4   9  15  23  35  53  81 119 164 207 246 289
#     4  12  25  38  55  80 111 134 153 196 253 298
#     4  10  19  30  45  66  94 127 158 197 249 297
#     4  10  23  42  58  74  99 130 162 200 247 294
#     4  11  22  35  53  75  96 125 163 203 242 295
#
# _framework density 16.542973
#
# number of rings (size 3 to 8) (size 9 to 14) (size 15 to 20)
#    0.000    1.652    2.609    3.391    0.000    5.913 
#    0.000    1.739    0.000    0.000    0.000    0.000 
#    0.000    0.000    0.000    0.783    0.000   16.261 
#
# Total GULP energy -256416.917709 kJ/mol
# GULP energy per Si atom -5574.280820 kJ/mol
# Density = 1.650532 g / cm^3
# Si number density = 16.542973 Si / 1000 Ang^3
#
#
#
# Elastic Constant Matrix: (Units=GPa)
#
#
# Indices 1 2 3 4 5 6 
#
# 1 65.2514 43.4569 28.0906 0.0000 0.0000 0.0000
# 2 43.4569 141.2625 30.9163 0.0000 0.0000 0.0000
# 3 28.0906 30.9163 69.4924 0.0000 0.0000 0.0000
# 4 0.0000 0.0000 0.0000 2.9633 0.0000 0.0000
# 5 0.0000 0.0000 0.0000 0.0000 -1.9014 0.0000
# 6 0.0000 0.0000 0.0000 0.0000 0.0000 -42.5753
#
#
#
# Elastic Compliance Matrix: (Units=1/GPa)
#
#
# Indices 1 2 3 4 5 6 
#
# 1 0.021561 -0.005235 -0.006387 0.000000 0.000000 0.000000
# 2 -0.005235 0.009114 -0.001938 0.000000 0.000000 0.000000
# 3 -0.006387 -0.001938 0.017834 0.000000 0.000000 0.000000
# 4 0.000000 0.000000 0.000000 0.337462 0.000000 0.000000
# 5 0.000000 0.000000 0.000000 0.000000 -0.525932 0.000000
# 6 0.000000 0.000000 0.000000 0.000000 0.000000 -0.023488
#
#
# Mechanical properties :
#
#
# Convention : Reuss Voigt Hill
#
# Bulk Modulus (GPa) = 46.75342 53.43710 50.09526
# Shear Modulus (GPa) = -38.70025 3.26683 -17.71671
#
# Velocity S-wave (km/s) = -4.84196 1.40678 -3.27609
# Velocity P-wave (km/s) = 1.71355 5.91700 4.00466
#
# Compressibility (1/GPa) = 0.02138881
#
# Stress axis : x y z
#
# Youngs Moduli (GPa) = 46.37931 109.72411 56.07256
#
# Poissons Ratio (x) = 0.57443 0.35811
# Poissons Ratio (y) = 0.24281 0.10869
# Poissons Ratio (z) = 0.29620 0.21269
#
# Static dielectric constant tensor:
#      x y z
#    x 1.563410 0.000000 0.000000 
#    y 0.000000 1.558250 0.000000 
#    z 0.000000 0.000000 1.529100 
# 
# From -- ./inp_files/15351.got.cif
#   From: 2010.05.17/outbox.cif.g08.bks.cpg/sg47_8_cif.got.tgz:15351.got - 2010.06.03 20:15:42.
