data_PCOD9382577
_publ_section_title
;
Structure prediction by ZEFSAII (Michael W. Deem and Ramdas Pophale) SiO2 
 PCOD9382577
Probable space group: P M M M
;
_chemical_formula_sum "Si O2"
_cell_formula_units_Z 64
_cell_length_a 19.551441
_cell_length_b 24.219253
_cell_length_c 8.951193
_cell_angle_alpha 90.000000
_cell_angle_beta 90.000000
_cell_angle_gamma 90.000000
_cell_volume 4238.580511
_symmetry_space_group_name_H-M "P M M M"
_symmetry_group_IT_number 47
_symmetry_cell_setting 'orthorhombic'
loop_
_space_group_symop_operation_xyz
x,y,z
-x,-y,z
x,-y,-z
-x,y,-z
-x,-y,-z
x,y,-z
-x,y,z
x,-y,z
loop_
_atom_site_type_symbol
_atom_site_label
_atom_site_fract_x
_atom_site_fract_y
_atom_site_fract_z
Si Si1 0.715474 0.936689 0.179989
Si Si2 0.920730 0.563712 0.320248
Si Si3 0.422648 0.245028 0.321730
Si Si4 0.152627 0.334551 0.821767
Si Si5 0.789279 0.835250 0.678564
Si Si6 0.713356 0.730673 0.821454
Si Si7 0.077861 0.769389 0.679113
Si Si8 0.423392 0.124054 0.821763
O O1 0.766713 0.893591 0.255511
O O2 0.638465 0.916417 0.217458
O O3 0.725937 0.000000 0.225041
O O4 0.722277 0.933228 0.000000
O O5 0.916414 0.567990 0.500000
O O6 0.906414 0.500000 0.279588
O O7 0.871062 0.607768 0.246302
O O8 0.000000 0.575654 0.278985
O O9 0.414898 0.245857 0.500000
O O10 0.500000 0.263385 0.284081
O O11 0.361583 0.278439 0.245201
O O12 0.416433 0.181983 0.263539
O O13 0.230108 0.315721 0.784632
O O14 0.104311 0.286254 0.756845
O O15 0.146315 0.335750 0.000000
O O16 0.780031 0.834456 0.500000
O O17 0.742452 0.787539 0.751670
O O18 0.867105 0.817090 0.713306
O O19 0.709880 0.736629 0.000000
O O20 0.079995 0.760578 0.500000
O O21 0.000000 0.782094 0.721737
O O22 0.500000 0.102004 0.792432
O O23 0.418691 0.135250 0.000000
#
# Coordination Sequence:
#
# PCOD9382577 Si02
#       8
#     8   8   8   8   8   8   8   8
#     4  10  20  32  46  64  87 115 146 181 220 269
#     4   9  18  32  48  66  93 132 171 199 225 263
#     4  10  19  29  44  67  92 117 148 186 225 266
#     4  10  20  30  44  70  99 124 155 194 228 263
#     4  10  19  31  48  67  86 111 144 182 226 271
#     4  10  19  31  46  65  92 123 152 183 224 273
#     4   9  18  32  49  68  90 116 146 183 228 277
#     4   9  17  29  45  63  85 115 146 176 214 262
#
# _framework density 15.099394999999999
#
# number of rings (size 3 to 8) (size 9 to 14) (size 15 to 20)
#    0.000    2.375    1.250    2.250    0.000    5.500 
#    0.000    1.875    0.000    0.375    0.000    5.250 
#    0.000    0.500    0.000    5.500    0.000    4.000 
#
# Total GULP energy -356857.604756 kJ/mol
# GULP energy per Si atom -5575.900074 kJ/mol
# Density = 1.506503 g / cm^3
# Si number density = 15.099395 Si / 1000 Ang^3
#
#
#
# Elastic Constant Matrix: (Units=GPa)
#
#
# Indices 1 2 3 4 5 6 
#
# 1 140.0159 70.7363 50.6653 0.0000 0.0000 0.0000
# 2 70.7363 97.2776 38.4786 0.0000 0.0000 0.0000
# 3 50.6653 38.4786 35.5675 0.0000 0.0000 0.0000
# 4 0.0000 0.0000 0.0000 29.8255 0.0000 0.0000
# 5 0.0000 0.0000 0.0000 0.0000 23.8905 0.0000
# 6 0.0000 0.0000 0.0000 0.0000 0.0000 23.8179
#
#
#
# Elastic Compliance Matrix: (Units=1/GPa)
#
#
# Indices 1 2 3 4 5 6 
#
# 1 0.015801 -0.004521 -0.017617 0.000000 0.000000 0.000000
# 2 -0.004521 0.019263 -0.014399 0.000000 0.000000 0.000000
# 3 -0.017617 -0.014399 0.068788 0.000000 0.000000 0.000000
# 4 0.000000 0.000000 0.000000 0.033528 0.000000 0.000000
# 5 0.000000 0.000000 0.000000 0.000000 0.041858 0.000000
# 6 0.000000 0.000000 0.000000 0.000000 0.000000 0.041985
#
#
# Mechanical properties :
#
#
# Convention : Reuss Voigt Hill
#
# Bulk Modulus (GPa) = 32.49122 65.84685 49.16904
# Shear Modulus (GPa) = 16.41724 23.03883 19.72804
#
# Velocity S-wave (km/s) = 3.30097 3.91040 3.61854
# Velocity P-wave (km/s) = 6.00778 8.00574 7.07762
#
# Compressibility (1/GPa) = 0.03077755
#
# Stress axis : x y z
#
# Youngs Moduli (GPa) = 63.28725 51.91192 14.53738
#
# Poissons Ratio (x) = 0.23472 0.25610
# Poissons Ratio (y) = 0.28615 0.20933
# Poissons Ratio (z) = 1.11491 0.74750
#
# Static dielectric constant tensor:
#      x y z
#    x 1.524460 0.000000 0.000000 
#    y 0.000000 1.468870 0.000000 
#    z 0.000000 0.000000 1.503840 
# 
# From -- ./inp_files/10153.got.cif
#   From: 2010.05.17/outbox.cif.g08.bks.cpg/sg47_6_cif.got.tgz:10153.got - 2010.06.03 20:15:42.
