data_PCOD9382097
_publ_section_title
;
Structure prediction by ZEFSAII (Michael W. Deem and Ramdas Pophale) SiO2 
 PCOD9382097
Probable space group: P M M M
;
_chemical_formula_sum "Si O2"
_cell_formula_units_Z 64
_cell_length_a 20.664244
_cell_length_b 20.856917
_cell_length_c 8.010778
_cell_angle_alpha 90.000000
_cell_angle_beta 90.000000
_cell_angle_gamma 90.000000
_cell_volume 3452.584612
_symmetry_space_group_name_H-M "P M M M"
_symmetry_group_IT_number 47
_symmetry_cell_setting 'orthorhombic'
loop_
_space_group_symop_operation_xyz
x,y,z
-x,-y,z
x,-y,-z
-x,y,-z
-x,-y,-z
x,y,-z
-x,y,z
x,-y,z
loop_
_atom_site_type_symbol
_atom_site_label
_atom_site_fract_x
_atom_site_fract_y
_atom_site_fract_z
Si Si1 0.393927 0.757711 0.701010
Si Si2 0.753017 0.793584 0.300007
Si Si3 0.287584 0.930514 0.799287
Si Si4 0.569409 0.897375 0.801637
Si Si5 0.074584 0.428475 0.798786
Si Si6 0.184513 0.668635 0.701204
Si Si7 0.570578 0.615938 0.197305
Si Si8 0.709071 0.569766 0.301192
O O1 0.400055 0.757225 0.500000
O O2 0.317903 0.765213 0.743975
O O3 0.427046 0.821077 0.772562
O O4 0.421619 0.691873 0.770573
O O5 0.755967 0.795537 0.500000
O O6 0.752753 0.867214 0.243921
O O7 0.805335 0.741664 0.238145
O O8 0.361815 0.922547 0.734482
O O9 0.262588 0.000000 0.742913
O O10 0.291578 0.931337 0.000000
O O11 0.500000 0.920663 0.734054
O O12 0.569361 0.910702 0.000000
O O13 0.096254 0.500000 0.741127
O O14 0.120664 0.371119 0.743651
O O15 0.000000 0.419958 0.744777
O O16 0.074935 0.429596 0.000000
O O17 0.188545 0.671567 0.500000
O O18 0.244812 0.625698 0.765058
O O19 0.500000 0.595320 0.262292
O O20 0.633723 0.583697 0.273924
O O21 0.572136 0.603771 0.000000
O O22 0.719693 0.568201 0.500000
O O23 0.726017 0.500000 0.230679
#
# Coordination Sequence:
#
# PCOD9382097 Si02
#       8
#     8   8   8   8   8   8   8   8
#     4  10  18  31  48  65  87 116 152 198 251 303
#     4   9  18  32  50  71  96 124 159 204 251 295
#     4   9  18  31  46  66  93 125 161 201 247 302
#     4   9  17  28  42  62  88 116 150 194 246 304
#     4   9  19  35  53  78 115 152 180 205 238 286
#     4  10  19  34  55  79 104 131 169 213 250 289
#     4  11  23  35  47  64  88 118 155 204 259 311
#     4  10  21  37  54  71  93 122 159 205 254 302
#
# _framework density 18.536837999999999
#
# number of rings (size 3 to 8) (size 9 to 14) (size 15 to 20)
#    0.000    2.375    1.250    1.875    0.000    6.250 
#    0.000    3.125    0.000    0.000    0.000    3.500 
#    0.000    0.500    0.000    5.500    0.000    4.000 
#
# Total GULP energy -356937.048984 kJ/mol
# GULP energy per Si atom -5577.141390 kJ/mol
# Density = 1.849465 g / cm^3
# Si number density = 18.536838 Si / 1000 Ang^3
#
#
#
# Elastic Constant Matrix: (Units=GPa)
#
#
# Indices 1 2 3 4 5 6 
#
# 1 70.9886 59.0637 5.8894 0.0000 0.0000 0.0000
# 2 59.0637 147.1220 8.9548 0.0000 0.0000 0.0000
# 3 5.8894 8.9548 11.6981 0.0000 0.0000 0.0000
# 4 0.0000 0.0000 0.0000 15.0164 0.0000 0.0000
# 5 0.0000 0.0000 0.0000 0.0000 19.0262 0.0000
# 6 0.0000 0.0000 0.0000 0.0000 0.0000 37.6143
#
#
#
# Elastic Compliance Matrix: (Units=1/GPa)
#
#
# Indices 1 2 3 4 5 6 
#
# 1 0.021365 -0.008310 -0.004395 0.000000 0.000000 0.000000
# 2 -0.008310 0.010361 -0.003748 0.000000 0.000000 0.000000
# 3 -0.004395 -0.003748 0.090566 0.000000 0.000000 0.000000
# 4 0.000000 0.000000 0.000000 0.066594 0.000000 0.000000
# 5 0.000000 0.000000 0.000000 0.000000 0.052559 0.000000
# 6 0.000000 0.000000 0.000000 0.000000 0.000000 0.026586
#
#
# Mechanical properties :
#
#
# Convention : Reuss Voigt Hill
#
# Bulk Modulus (GPa) = 11.18735 41.95827 26.57281
# Shear Modulus (GPa) = 15.11795 24.72477 19.92136
#
# Velocity S-wave (km/s) = 2.85890 3.65611 3.28180
# Velocity P-wave (km/s) = 4.11656 6.36452 5.35972
#
# Compressibility (1/GPa) = 0.08938665
#
# Stress axis : x y z
#
# Youngs Moduli (GPa) = 46.80488 96.51335 11.04167
#
# Poissons Ratio (x) = 0.80201 0.04853
# Poissons Ratio (y) = 0.38894 0.04138
# Poissons Ratio (z) = 0.20572 0.36173
#
# Static dielectric constant tensor:
#      x y z
#    x 1.641330 0.000000 0.000000 
#    y 0.000000 1.680510 0.000000 
#    z 0.000000 0.000000 1.662930 
# 
# From -- ./inp_files/11844.got.cif
#   From: 2010.05.17/outbox.cif.g08.bks.cpg/sg47_6_cif.got.tgz:11844.got - 2010.06.03 20:15:42.
