data_PCOD9382796
_publ_section_title
;
Structure prediction by ZEFSAII (Michael W. Deem and Ramdas Pophale) SiO2 
 PCOD9382796
Probable space group: P M M M
;
_chemical_formula_sum "Si O2"
_cell_formula_units_Z 48
_cell_length_a 24.479944
_cell_length_b 7.872413
_cell_length_c 14.351034
_cell_angle_alpha 90.000000
_cell_angle_beta 90.000000
_cell_angle_gamma 90.000000
_cell_volume 2765.677160
_symmetry_space_group_name_H-M "P M M M"
_symmetry_group_IT_number 47
_symmetry_cell_setting 'orthorhombic'
loop_
_space_group_symop_operation_xyz
x,y,z
-x,-y,z
x,-y,-z
-x,y,-z
-x,-y,-z
x,y,-z
-x,y,z
x,-y,z
loop_
_atom_site_type_symbol
_atom_site_label
_atom_site_fract_x
_atom_site_fract_y
_atom_site_fract_z
Si Si1 0.230849 0.208296 0.394106
Si Si2 0.268025 0.700366 0.894517
Si Si3 0.335136 0.798635 0.723658
Si Si4 0.562247 0.704763 0.605207
Si Si5 0.061872 0.792206 0.107114
Si Si6 0.836544 0.800131 0.222818
O O1 0.224600 0.265068 0.500000
O O2 0.288678 0.262172 0.349340
O O3 0.184517 0.268296 0.321865
O O4 0.230427 0.000000 0.394384
O O5 0.257179 0.500000 0.897737
O O6 0.318609 0.728259 0.824566
O O7 0.214836 0.783102 0.847091
O O8 0.276926 0.761959 0.000000
O O9 0.393878 0.758692 0.681289
O O10 0.329269 0.000000 0.730699
O O11 0.577443 0.763008 0.500000
O O12 0.500000 0.761744 0.623666
O O13 0.561701 0.500000 0.603420
O O14 0.109183 0.728278 0.175253
O O15 0.000000 0.741207 0.131615
O O16 0.062974 0.000000 0.107765
O O17 0.072744 0.741234 0.000000
O O18 0.846639 0.000000 0.236928
#
# Coordination Sequence:
#
# PCOD9382796 Si02
#       6
#     8   8   8   8   8   8
#     4   8  14  24  38  59  86 112 138 172 216 259
#     4  10  20  32  46  65  90 118 145 178 226 280
#     4  10  19  30  47  69  91 118 152 189 225 262
#     4   9  18  32  49  70  98 130 158 184 219 264
#     4   8  13  21  35  57  83 109 140 181 225 266
#     4   9  16  26  43  64  84 111 147 184 219 260
#
# _framework density 17.355604
#
# number of rings (size 3 to 8) (size 9 to 14) (size 15 to 20)
#    0.000    3.000    0.000    4.000    0.000    3.333 
#    0.000    0.833    0.000    6.000    0.000    9.333 
#    0.000    0.000    0.000    6.000    0.000    7.333 
#
# Total GULP energy -267464.882676 kJ/mol
# GULP energy per Si atom -5572.185056 kJ/mol
# Density = 1.731610 g / cm^3
# Si number density = 17.355604 Si / 1000 Ang^3
#
#
#
# Elastic Constant Matrix: (Units=GPa)
#
#
# Indices 1 2 3 4 5 6 
#
# 1 91.0817 -7.0612 67.2939 0.0000 0.0000 0.0000
# 2 -7.0612 15.8355 -1.3794 0.0000 0.0000 0.0000
# 3 67.2939 -1.3794 151.8605 0.0000 0.0000 0.0000
# 4 0.0000 0.0000 0.0000 9.7273 0.0000 0.0000
# 5 0.0000 0.0000 0.0000 0.0000 26.5386 0.0000
# 6 0.0000 0.0000 0.0000 0.0000 0.0000 -71.7203
#
#
#
# Elastic Compliance Matrix: (Units=1/GPa)
#
#
# Indices 1 2 3 4 5 6 
#
# 1 0.017055 0.006952 -0.007495 0.000000 0.000000 0.000000
# 2 0.006952 0.066033 -0.002481 0.000000 0.000000 0.000000
# 3 -0.007495 -0.002481 0.009884 0.000000 0.000000 0.000000
# 4 0.000000 0.000000 0.000000 0.102803 0.000000 0.000000
# 5 0.000000 0.000000 0.000000 0.000000 0.037681 0.000000
# 6 0.000000 0.000000 0.000000 0.000000 0.000000 -0.013943
#
#
# Mechanical properties :
#
#
# Convention : Reuss Voigt Hill
#
# Bulk Modulus (GPa) = 11.50407 41.83159 26.66783
# Shear Modulus (GPa) = 19.64365 6.23742 12.94054
#
# Velocity S-wave (km/s) = 3.36792 1.89781 2.73355
# Velocity P-wave (km/s) = 4.66548 5.38119 5.03607
#
# Compressibility (1/GPa) = 0.08692575
#
# Stress axis : x y z
#
# Youngs Moduli (GPa) = 58.63261 15.14386 101.17849
#
# Poissons Ratio (x) = -0.10529 0.75829
# Poissons Ratio (y) = -0.40763 0.25102
# Poissons Ratio (z) = 0.43943 0.03757
#
# Static dielectric constant tensor:
#      x y z
#    x 1.585630 0.000000 0.000000 
#    y 0.000000 1.633460 0.000000 
#    z 0.000000 0.000000 1.592930 
# 
# From -- ./inp_files/7498.got.cif
#   From: 2010.05.17/outbox.cif.g08.bks.cpg/sg47_4_cif.got.tgz:7498.got - 2010.06.03 20:15:42.
