data_PCOD9382278
_publ_section_title
;
Structure prediction by ZEFSAII (Michael W. Deem and Ramdas Pophale) SiO2 
 PCOD9382278
Probable space group: P M M M
;
_chemical_formula_sum "Si O2"
_cell_formula_units_Z 44
_cell_length_a 15.067285
_cell_length_b 18.172322
_cell_length_c 7.486761
_cell_angle_alpha 90.000000
_cell_angle_beta 90.000000
_cell_angle_gamma 90.000000
_cell_volume 2049.931722
_symmetry_space_group_name_H-M "P M M M"
_symmetry_group_IT_number 47
_symmetry_cell_setting 'orthorhombic'
loop_
_space_group_symop_operation_xyz
x,y,z
-x,-y,z
x,-y,-z
-x,y,-z
-x,-y,-z
x,y,-z
-x,y,z
x,-y,z
loop_
_atom_site_type_symbol
_atom_site_label
_atom_site_fract_x
_atom_site_fract_y
_atom_site_fract_z
Si Si1 0.898767 0.280372 0.719415
Si Si2 0.404938 0.413717 0.214844
Si Si3 0.790035 0.416872 0.709952
Si Si4 0.217151 0.855307 0.710804
Si Si5 0.897901 0.000000 0.786237
Si Si6 0.598069 0.086049 0.717846
O O1 0.897750 0.280158 0.500000
O O2 0.859575 0.358261 0.781515
O O3 0.835898 0.214459 0.782759
O O4 0.000000 0.269082 0.774040
O O5 0.500000 0.381941 0.276024
O O6 0.404719 0.500000 0.269505
O O7 0.309876 0.384676 0.274164
O O8 0.404927 0.411850 0.000000
O O9 0.808103 0.423790 0.500000
O O10 0.792172 0.500000 0.786398
O O11 0.228654 0.842060 0.500000
O O12 0.156617 0.927893 0.729834
O O13 0.315609 0.870848 0.783577
O O14 0.000000 0.000000 0.720148
O O15 0.900996 0.000000 0.000000
O O16 0.598980 0.087628 0.500000
O O17 0.500000 0.111787 0.774613
O O18 0.607184 0.000000 0.767688
#
# Coordination Sequence:
#
# PCOD9382278 Si02
#       6
#     8   8   8   8   4   8
#     4   9  18  31  47  70  98 125 159 207 251 285
#     4   8  14  26  45  68  93 122 156 194 239 291
#     4   9  17  29  46  69  96 127 163 202 247 296
#     4  10  18  32  54  75  94 124 166 203 235 280
#     4  11  23  35  48  71 102 130 157 195 244 293
#     4   8  13  23  43  72  99 119 146 188 233 274
#
# _framework density 21.464130000000001
#
# number of rings (size 3 to 8) (size 9 to 14) (size 15 to 20)
#    0.000    3.000    0.909    1.909    0.000    2.182 
#    0.000    5.455    0.000    6.000    0.000    2.545 
#    0.000    0.000    0.000    0.000    0.000    0.000 
#
# Total GULP energy -245371.984960 kJ/mol
# GULP energy per Si atom -5576.636022 kJ/mol
# Density = 2.141528 g / cm^3
# Si number density = 21.464130 Si / 1000 Ang^3
#
#
#
# Elastic Constant Matrix: (Units=GPa)
#
#
# Indices 1 2 3 4 5 6 
#
# 1 225.4929 91.2680 4.2408 0.0000 0.0000 0.0000
# 2 91.2680 100.9093 2.0886 0.0000 0.0000 0.0000
# 3 4.2408 2.0886 57.9743 0.0000 0.0000 0.0000
# 4 0.0000 0.0000 0.0000 -14.2968 0.0000 0.0000
# 5 0.0000 0.0000 0.0000 0.0000 43.9425 0.0000
# 6 0.0000 0.0000 0.0000 0.0000 0.0000 44.0279
#
#
#
# Elastic Compliance Matrix: (Units=1/GPa)
#
#
# Indices 1 2 3 4 5 6 
#
# 1 0.007000 -0.006326 -0.000284 0.000000 0.000000 0.000000
# 2 -0.006326 0.015633 -0.000100 0.000000 0.000000 0.000000
# 3 -0.000284 -0.000100 0.017273 0.000000 0.000000 0.000000
# 4 0.000000 0.000000 0.000000 -0.069946 0.000000 0.000000
# 5 0.000000 0.000000 0.000000 0.000000 0.022757 0.000000
# 6 0.000000 0.000000 0.000000 0.000000 0.000000 0.022713
#
#
# Mechanical properties :
#
#
# Convention : Reuss Voigt Hill
#
# Bulk Modulus (GPa) = 37.75522 64.39682 51.07602
# Shear Modulus (GPa) = 132.69361 33.85332 83.27347
#
# Velocity S-wave (km/s) = 7.87117 3.97571 6.23545
# Velocity P-wave (km/s) = 10.01175 7.15138 8.69993
#
# Compressibility (1/GPa) = 0.02648640
#
# Stress axis : x y z
#
# Youngs Moduli (GPa) = 142.84949 63.96629 57.89241
#
# Poissons Ratio (x) = 0.40463 0.01645
# Poissons Ratio (y) = 0.90362 0.00582
# Poissons Ratio (z) = 0.04060 0.00643
#
# Static dielectric constant tensor:
#      x y z
#    x 1.795850 0.000000 0.000000 
#    y 0.000000 1.793990 0.000000 
#    z 0.000000 0.000000 1.795460 
# 
# From -- ./inp_files/6162.got.cif
#   From: 2010.05.17/outbox.cif.g08.bks.cpg/sg47_4_cif.got.tgz:6162.got - 2010.06.03 20:15:42.
