data_PCOD9382210
_publ_section_title
;
Structure prediction by ZEFSAII (Michael W. Deem and Ramdas Pophale) SiO2 
 PCOD9382210
Probable space group: P M M M
;
_chemical_formula_sum "Si O2"
_cell_formula_units_Z 64
_cell_length_a 15.879111
_cell_length_b 8.216048
_cell_length_c 25.511937
_cell_angle_alpha 90.000000
_cell_angle_beta 90.000000
_cell_angle_gamma 90.000000
_cell_volume 3328.377567
_symmetry_space_group_name_H-M "P M M M"
_symmetry_group_IT_number 47
_symmetry_cell_setting 'orthorhombic'
loop_
_space_group_symop_operation_xyz
x,y,z
-x,-y,z
x,-y,-z
-x,y,-z
-x,-y,-z
x,y,-z
-x,y,z
x,-y,z
loop_
_atom_site_type_symbol
_atom_site_label
_atom_site_fract_x
_atom_site_fract_y
_atom_site_fract_z
Si Si1 0.091588 0.309362 0.596579
Si Si2 0.729260 0.194534 0.558210
Si Si3 0.594200 0.803378 0.642879
Si Si4 0.692191 0.689363 0.263625
Si Si5 0.277444 0.194492 0.149216
Si Si6 0.091099 0.198138 0.172006
Si Si7 0.128816 0.189311 0.709453
Si Si8 0.404245 0.696642 0.060376
O O1 0.095454 0.500000 0.584056
O O2 0.174073 0.227448 0.572926
O O3 0.097499 0.286028 0.659362
O O4 0.000000 0.245441 0.579201
O O5 0.711625 0.259352 0.500000
O O6 0.665242 0.257498 0.602398
O O7 0.717669 0.000000 0.557017
O O8 0.500000 0.761055 0.625534
O O9 0.613802 0.732899 0.700131
O O10 0.599578 0.000000 0.646070
O O11 0.713416 0.500000 0.269143
O O12 0.684453 0.731139 0.202514
O O13 0.770525 0.792745 0.286018
O O14 0.179296 0.250937 0.146105
O O15 0.334389 0.239123 0.099938
O O16 0.276064 0.000000 0.155624
O O17 0.096614 0.243722 0.233554
O O18 0.000000 0.253285 0.150956
O O19 0.091215 0.000000 0.170485
O O20 0.106531 0.000000 0.702234
O O21 0.500000 0.747796 0.074508
O O22 0.402644 0.500000 0.061903
O O23 0.388994 0.746306 0.000000
#
# Coordination Sequence:
#
# PCOD9382210 Si02
#       8
#     8   8   8   8   8   8   8   8
#     4  11  23  36  53  80 111 144 180 220 272 329
#     4  10  22  40  61  82 105 138 180 227 278 333
#     4  10  21  38  60  84 110 140 177 224 276 333
#     4  11  21  34  54  80 114 151 183 218 269 330
#     4  10  20  33  54  84 115 148 187 232 276 322
#     4   8  15  28  47  74 108 144 180 218 263 313
#     4  10  18  31  53  79 107 141 182 226 272 321
#     4   9  19  37  59  81 108 145 188 234 286 341
#
# _framework density 19.228587999999998
#
# number of rings (size 3 to 8) (size 9 to 14) (size 15 to 20)
#    0.000    2.125    1.250    3.750    0.000    3.500 
#    0.000    3.125    0.000    7.875    0.000    4.375 
#    0.000    0.000    0.000    0.000    0.000    0.000 
#
# Total GULP energy -357140.400201 kJ/mol
# GULP energy per Si atom -5580.318753 kJ/mol
# Density = 1.918482 g / cm^3
# Si number density = 19.228588 Si / 1000 Ang^3
#
#
#
# Elastic Constant Matrix: (Units=GPa)
#
#
# Indices 1 2 3 4 5 6 
#
# 1 131.4492 12.0004 69.5769 0.0000 0.0000 0.0000
# 2 12.0004 23.4265 9.2930 0.0000 0.0000 0.0000
# 3 69.5769 9.2930 87.3456 0.0000 0.0000 0.0000
# 4 0.0000 0.0000 0.0000 -123.0585 0.0000 0.0000
# 5 0.0000 0.0000 0.0000 0.0000 1.9490 0.0000
# 6 0.0000 0.0000 0.0000 0.0000 0.0000 -0.3366
#
#
#
# Elastic Compliance Matrix: (Units=1/GPa)
#
#
# Indices 1 2 3 4 5 6 
#
# 1 0.013318 -0.002729 -0.010319 0.000000 0.000000 0.000000
# 2 -0.002729 0.045127 -0.002627 0.000000 0.000000 0.000000
# 3 -0.010319 -0.002627 0.019948 0.000000 0.000000 0.000000
# 4 0.000000 0.000000 0.000000 -0.008126 0.000000 0.000000
# 5 0.000000 0.000000 0.000000 0.000000 0.513080 0.000000
# 6 0.000000 0.000000 0.000000 0.000000 0.000000 -2.970451
#
#
# Mechanical properties :
#
#
# Convention : Reuss Voigt Hill
#
# Bulk Modulus (GPa) = 21.25712 47.10687 34.18200
# Shear Modulus (GPa) = -2.13669 -14.19915 -8.16792
#
# Velocity S-wave (km/s) = -1.05528 -2.72037 -2.06325
# Velocity P-wave (km/s) = 3.09744 3.83201 3.48414
#
# Compressibility (1/GPa) = 0.04704306
#
# Stress axis : x y z
#
# Youngs Moduli (GPa) = 75.08416 22.15970 50.13079
#
# Poissons Ratio (x) = 0.06048 0.51728
# Poissons Ratio (y) = 0.20492 0.13170
# Poissons Ratio (z) = 0.77477 0.05822
#
# Static dielectric constant tensor:
#      x y z
#    x 1.709900 0.000000 0.000000 
#    y 0.000000 1.673450 0.000000 
#    z 0.000000 0.000000 1.651560 
# 
# From -- ./inp_files/32770.got.cif
#   From: 2010.05.17/outbox.cif.g08.bks.cpg/sg47_17_cif.got.tgz:32770.got - 2010.06.03 20:15:42.
