data_PCOD9382599
_publ_section_title
;
Structure prediction by ZEFSAII (Michael W. Deem and Ramdas Pophale) SiO2 
 PCOD9382599
Probable space group: P M M M
;
_chemical_formula_sum "Si O2"
_cell_formula_units_Z 64
_cell_length_a 18.725030
_cell_length_b 9.194709
_cell_length_c 23.505978
_cell_angle_alpha 90.000000
_cell_angle_beta 90.000000
_cell_angle_gamma 90.000000
_cell_volume 4047.052483
_symmetry_space_group_name_H-M "P M M M"
_symmetry_group_IT_number 47
_symmetry_cell_setting 'orthorhombic'
loop_
_space_group_symop_operation_xyz
x,y,z
-x,-y,z
x,-y,-z
-x,y,-z
-x,-y,-z
x,y,-z
-x,y,z
x,-y,z
loop_
_atom_site_type_symbol
_atom_site_label
_atom_site_fract_x
_atom_site_fract_y
_atom_site_fract_z
Si Si1 0.178687 0.826332 0.655190
Si Si2 0.083493 0.336030 0.744270
Si Si3 0.785022 0.335540 0.065094
Si Si4 0.580984 0.674640 0.189707
Si Si5 0.613166 0.328402 0.937383
Si Si6 0.707815 0.171387 0.744830
Si Si7 0.081225 0.328047 0.568162
Si Si8 0.840251 0.832289 0.832276
O O1 0.120854 0.774571 0.701512
O O2 0.254171 0.782543 0.685154
O O3 0.146527 0.753172 0.598731
O O4 0.179664 0.000000 0.649531
O O5 0.112221 0.500000 0.736787
O O6 0.101372 0.275149 0.806278
O O7 0.000000 0.339237 0.733847
O O8 0.800101 0.500000 0.085999
O O9 0.699140 0.319682 0.065163
O O10 0.819425 0.217040 0.105198
O O11 0.808683 0.324252 0.000000
O O12 0.500000 0.702425 0.208895
O O13 0.592558 0.500000 0.188075
O O14 0.587364 0.728999 0.123795
O O15 0.639742 0.743895 0.231107
O O16 0.593589 0.500000 0.938361
O O17 0.590959 0.268683 0.000000
O O18 0.769767 0.186710 0.792699
O O19 0.691109 0.000000 0.740259
O O20 0.085773 0.313230 0.500000
O O21 0.085187 0.500000 0.582151
O O22 0.000000 0.279117 0.584801
O O23 0.861989 0.000000 0.828668
#
# Coordination Sequence:
#
# PCOD9382599 Si02
#       8
#     8   8   8   8   8   8   8   8
#     4  10  20  32  48  71  97 126 164 203 233 265
#     4  10  20  32  47  67  90 118 151 186 229 278
#     4   9  16  27  45  65  83 109 145 181 222 276
#     4  10  19  29  45  68  90 116 153 195 237 283
#     4   8  14  25  41  62  87 113 143 182 227 276
#     4   9  19  33  45  62  89 121 155 189 231 279
#     4   9  18  32  49  72 105 142 174 198 225 269
#     4  10  19  30  46  66  87 112 144 185 231 275
#
# _framework density 15.813978000000001
#
# number of rings (size 3 to 8) (size 9 to 14) (size 15 to 20)
#    0.000    2.625    1.250    3.375    0.000    6.250 
#    0.000    1.875    0.000    0.750    0.000    3.500 
#    0.000    0.500    0.000    5.500    0.000    4.000 
#
# Total GULP energy -356276.996421 kJ/mol
# GULP energy per Si atom -5566.828069 kJ/mol
# Density = 1.577798 g / cm^3
# Si number density = 15.813978 Si / 1000 Ang^3
#
#
#
# Elastic Constant Matrix: (Units=GPa)
#
#
# Indices 1 2 3 4 5 6 
#
# 1 58.7851 26.4842 36.3594 0.0000 0.0000 0.0000
# 2 26.4842 31.7991 28.1194 0.0000 0.0000 0.0000
# 3 36.3594 28.1194 64.1301 0.0000 0.0000 0.0000
# 4 0.0000 0.0000 0.0000 30.3979 0.0000 0.0000
# 5 0.0000 0.0000 0.0000 0.0000 48.9228 0.0000
# 6 0.0000 0.0000 0.0000 0.0000 0.0000 16.2323
#
#
#
# Elastic Compliance Matrix: (Units=1/GPa)
#
#
# Indices 1 2 3 4 5 6 
#
# 1 0.030804 -0.016679 -0.010152 0.000000 0.000000 0.000000
# 2 -0.016679 0.060393 -0.017025 0.000000 0.000000 0.000000
# 3 -0.010152 -0.017025 0.028814 0.000000 0.000000 0.000000
# 4 0.000000 0.000000 0.000000 0.032897 0.000000 0.000000
# 5 0.000000 0.000000 0.000000 0.000000 0.020440 0.000000
# 6 0.000000 0.000000 0.000000 0.000000 0.000000 0.061606
#
#
# Mechanical properties :
#
#
# Convention : Reuss Voigt Hill
#
# Bulk Modulus (GPa) = 30.95869 37.40448 34.18159
# Shear Modulus (GPa) = 14.99560 23.36066 19.17813
#
# Velocity S-wave (km/s) = 3.08271 3.84763 3.48621
# Velocity P-wave (km/s) = 5.68243 6.59114 6.15358
#
# Compressibility (1/GPa) = 0.03230111
#
# Stress axis : x y z
#
# Youngs Moduli (GPa) = 32.46302 16.55823 34.70560
#
# Poissons Ratio (x) = 0.27617 0.35232
# Poissons Ratio (y) = 0.54144 0.59085
# Poissons Ratio (z) = 0.32956 0.28190
#
# Static dielectric constant tensor:
#      x y z
#    x 1.530590 0.000000 0.000000 
#    y 0.000000 1.536380 0.000000 
#    z 0.000000 0.000000 1.563340 
# 
# From -- ./inp_files/32887.got.cif
#   From: 2010.05.17/outbox.cif.g08.bks.cpg/sg47_17_cif.got.tgz:32887.got - 2010.06.03 20:15:42.
