data_PCOD9382143
_publ_section_title
;
Structure prediction by ZEFSAII (Michael W. Deem and Ramdas Pophale) SiO2 
 PCOD9382143
Probable space group: P M M M
;
_chemical_formula_sum "Si O2"
_cell_formula_units_Z 48
_cell_length_a 14.575015
_cell_length_b 7.437851
_cell_length_c 21.326347
_cell_angle_alpha 90.000000
_cell_angle_beta 90.000000
_cell_angle_gamma 90.000000
_cell_volume 2311.920818
_symmetry_space_group_name_H-M "P M M M"
_symmetry_group_IT_number 47
_symmetry_cell_setting 'orthorhombic'
loop_
_space_group_symop_operation_xyz
x,y,z
-x,-y,z
x,-y,-z
-x,y,-z
-x,-y,-z
x,y,-z
-x,y,z
x,-y,z
loop_
_atom_site_type_symbol
_atom_site_label
_atom_site_fract_x
_atom_site_fract_y
_atom_site_fract_z
Si Si1 0.106157 0.717774 0.752681
Si Si2 0.797432 0.288892 0.626278
Si Si3 0.105876 0.220816 0.000000
Si Si4 0.396806 0.780388 0.183042
Si Si5 0.784733 0.209480 0.878970
Si Si6 0.106679 0.279726 0.500000
Si Si7 0.397621 0.783545 0.672383
O O1 0.109198 0.500000 0.753358
O O2 0.159204 0.784207 0.690757
O O3 0.154875 0.779185 0.816102
O O4 0.000000 0.772359 0.750711
O O5 0.819880 0.500000 0.626795
O O6 0.842307 0.216520 0.562914
O O7 0.687920 0.271358 0.630335
O O8 0.159611 0.282852 0.062021
O O9 0.000000 0.278219 0.000000
O O10 0.103858 0.000000 0.000000
O O11 0.500000 0.727081 0.165090
O O12 0.314874 0.714455 0.139212
O O13 0.381109 0.724501 0.255461
O O14 0.394591 0.000000 0.183350
O O15 0.769353 0.000000 0.893695
O O16 0.109558 0.500000 0.500000
O O17 0.000000 0.228598 0.500000
O O18 0.500000 0.722723 0.653823
O O19 0.399010 0.000000 0.673102
#
# Coordination Sequence:
#
# PCOD9382143 Si02
#       7
#     8   8   4   8   8   4   8
#     4  10  20  32  47  71 100 124 155 204 250 286
#     4  10  19  32  52  76  99 126 165 207 244 287
#     4   9  18  30  44  68 100 129 161 203 246 285
#     4   8  14  26  46  71  96 122 155 196 241 286
#     4  10  18  31  51  71  94 128 166 200 239 289
#     4   9  18  34  54  73  98 136 171 199 246 303
#     4   9  17  31  51  74 101 131 160 197 249 300
#
# _framework density 20.761955
#
# number of rings (size 3 to 8) (size 9 to 14) (size 15 to 20)
#    0.000    2.667    1.667    2.000    0.000    3.333 
#    0.000    1.667    0.000    9.000    0.000    0.000 
#    0.000    1.333    0.000    0.000    0.000    0.000 
#
# Total GULP energy -267947.490913 kJ/mol
# GULP energy per Si atom -5582.239394 kJ/mol
# Density = 2.071470 g / cm^3
# Si number density = 20.761955 Si / 1000 Ang^3
#
#
#
# Elastic Constant Matrix: (Units=GPa)
#
#
# Indices 1 2 3 4 5 6 
#
# 1 193.5412 -7.7374 107.9606 0.0000 0.0000 0.0000
# 2 -7.7374 60.9511 -1.1484 0.0000 0.0000 0.0000
# 3 107.9606 -1.1484 166.3940 0.0000 0.0000 0.0000
# 4 0.0000 0.0000 0.0000 3.2609 0.0000 0.0000
# 5 0.0000 0.0000 0.0000 0.0000 37.5617 0.0000
# 6 0.0000 0.0000 0.0000 0.0000 0.0000 13.6179
#
#
#
# Elastic Compliance Matrix: (Units=1/GPa)
#
#
# Indices 1 2 3 4 5 6 
#
# 1 0.008151 0.000935 -0.005282 0.000000 0.000000 0.000000
# 2 0.000935 0.016516 -0.000493 0.000000 0.000000 0.000000
# 3 -0.005282 -0.000493 0.009433 0.000000 0.000000 0.000000
# 4 0.000000 0.000000 0.000000 0.306666 0.000000 0.000000
# 5 0.000000 0.000000 0.000000 0.000000 0.026623 0.000000
# 6 0.000000 0.000000 0.000000 0.000000 0.000000 0.073433
#
#
# Mechanical properties :
#
#
# Convention : Reuss Voigt Hill
#
# Bulk Modulus (GPa) = 40.94820 68.78176 54.86498
# Shear Modulus (GPa) = 10.90178 32.34219 21.62199
#
# Velocity S-wave (km/s) = 2.29396 3.95113 3.23061
# Velocity P-wave (km/s) = 5.17512 7.34955 6.35601
#
# Compressibility (1/GPa) = 0.02442110
#
# Stress axis : x y z
#
# Youngs Moduli (GPa) = 122.69137 60.54728 106.00624
#
# Poissons Ratio (x) = -0.05662 0.55991
# Poissons Ratio (y) = -0.11473 0.05224
# Poissons Ratio (z) = 0.64803 0.02984
#
# Static dielectric constant tensor:
#      x y z
#    x 1.733660 0.000000 0.000000 
#    y 0.000000 1.818940 0.000000 
#    z 0.000000 0.000000 1.705290 
# 
# From -- ./inp_files/26568.got.cif
#   From: 2010.05.17/outbox.cif.g08.bks.cpg/sg47_14_cif.got.tgz:26568.got - 2010.06.03 20:15:42.
