data_PCOD9382976
_publ_section_title
;
Structure prediction by ZEFSAII (Michael W. Deem and Ramdas Pophale) SiO2 
 PCOD9382976
Probable space group: P M M M
;
_chemical_formula_sum "Si O2"
_cell_formula_units_Z 52
_cell_length_a 15.365022
_cell_length_b 7.536980
_cell_length_c 23.591876
_cell_angle_alpha 90.000000
_cell_angle_beta 90.000000
_cell_angle_gamma 90.000000
_cell_volume 2732.077572
_symmetry_space_group_name_H-M "P M M M"
_symmetry_group_IT_number 47
_symmetry_cell_setting 'orthorhombic'
loop_
_space_group_symop_operation_xyz
x,y,z
-x,-y,z
x,-y,-z
-x,y,-z
-x,-y,-z
x,y,-z
-x,y,z
x,-y,z
loop_
_atom_site_type_symbol
_atom_site_label
_atom_site_fract_x
_atom_site_fract_y
_atom_site_fract_z
Si Si1 0.158578 0.215173 0.646639
Si Si2 0.098908 0.289146 0.000000
Si Si3 0.099511 0.210555 0.124051
Si Si4 0.000000 0.216757 0.566141
Si Si5 0.354430 0.704554 0.620245
Si Si6 0.789352 0.217149 0.230042
Si Si7 0.404782 0.794716 0.744017
Si Si8 0.397384 0.298716 0.500000
O O1 0.251221 0.286538 0.627134
O O2 0.156087 0.265179 0.713297
O O3 0.083209 0.272322 0.603716
O O4 0.160703 0.000000 0.644952
O O5 0.136757 0.236533 0.939272
O O6 0.094313 0.500000 0.000000
O O7 0.000000 0.214277 0.000000
O O8 0.161032 0.279054 0.173947
O O9 0.000000 0.282474 0.125783
O O10 0.092901 0.000000 0.133047
O O11 0.000000 0.274234 0.500000
O O12 0.000000 0.000000 0.564851
O O13 0.384906 0.500000 0.619608
O O14 0.395817 0.789900 0.675754
O O15 0.373596 0.787382 0.559416
O O16 0.688603 0.280006 0.235008
O O17 0.785386 0.000000 0.229789
O O18 0.500000 0.716962 0.759227
O O19 0.406286 0.000000 0.762181
O O20 0.357996 0.500000 0.500000
O O21 0.500000 0.315464 0.500000
#
# Coordination Sequence:
#
# PCOD9382976 Si02
#       8
#     8   4   8   4   8   8   8   4
#     4   9  18  32  48  66  91 118 151 192 233 274
#     4   9  17  29  43  63  94 127 154 180 219 263
#     4   9  16  26  44  67  92 121 155 187 216 256
#     4   9  18  30  47  69  89 118 157 194 232 277
#     4  10  19  31  47  64  85 113 146 184 231 281
#     4   8  15  27  44  69  93 117 149 187 227 267
#     4   9  17  31  49  68  92 119 147 185 232 276
#     4   9  18  30  43  60  81 106 138 177 225 281
#
# _framework density 19.033134
#
# number of rings (size 3 to 8) (size 9 to 14) (size 15 to 20)
#    0.000    3.000    0.000    2.077    2.154    1.846 
#    0.000    4.615    0.000    3.231    0.000    0.538 
#    0.000    4.308    0.000    0.000    0.000    0.000 
#
# Total GULP energy -289619.699054 kJ/mol
# GULP energy per Si atom -5569.609597 kJ/mol
# Density = 1.898981 g / cm^3
# Si number density = 19.033134 Si / 1000 Ang^3
#
#
#
# Elastic Constant Matrix: (Units=GPa)
#
#
# Indices 1 2 3 4 5 6 
#
# 1 109.9685 2.1989 74.6625 0.0000 0.0000 0.0000
# 2 2.1989 48.4906 1.8852 0.0000 0.0000 0.0000
# 3 74.6625 1.8852 163.8694 0.0000 0.0000 0.0000
# 4 0.0000 0.0000 0.0000 27.0261 0.0000 0.0000
# 5 0.0000 0.0000 0.0000 0.0000 8.3641 0.0000
# 6 0.0000 0.0000 0.0000 0.0000 0.0000 3.1610
#
#
#
# Elastic Compliance Matrix: (Units=1/GPa)
#
#
# Indices 1 2 3 4 5 6 
#
# 1 0.013173 -0.000364 -0.005998 0.000000 0.000000 0.000000
# 2 -0.000364 0.020642 -0.000072 0.000000 0.000000 0.000000
# 3 -0.005998 -0.000072 0.008836 0.000000 0.000000 0.000000
# 4 0.000000 0.000000 0.000000 0.037001 0.000000 0.000000
# 5 0.000000 0.000000 0.000000 0.000000 0.119559 0.000000
# 6 0.000000 0.000000 0.000000 0.000000 0.000000 0.316354
#
#
# Mechanical properties :
#
#
# Convention : Reuss Voigt Hill
#
# Bulk Modulus (GPa) = 33.57519 53.31350 43.44434
# Shear Modulus (GPa) = 9.28747 23.94902 16.61824
#
# Velocity S-wave (km/s) = 2.21138 3.55107 2.95807
# Velocity P-wave (km/s) = 4.91925 6.69964 5.87725
#
# Compressibility (1/GPa) = 0.02978390
#
# Stress axis : x y z
#
# Youngs Moduli (GPa) = 75.91354 48.44523 113.17451
#
# Poissons Ratio (x) = 0.01764 0.67878
# Poissons Ratio (y) = 0.02765 0.00810
# Poissons Ratio (z) = 0.45530 0.00347
#
# Static dielectric constant tensor:
#      x y z
#    x 1.667690 0.000000 0.000000 
#    y 0.000000 1.714200 0.000000 
#    z 0.000000 0.000000 1.678480 
# 
# From -- ./inp_files/32700.got.cif
#   From: 2010.05.17/outbox.cif.g08.bks.cpg/sg47_17_cif.got.tgz:32700.got - 2010.06.03 20:15:42.
