data_PCOD9382739
_publ_section_title
;
Structure prediction by ZEFSAII (Michael W. Deem and Ramdas Pophale) SiO2 
 PCOD9382739
Probable space group: P M M M
;
_chemical_formula_sum "Si O2"
_cell_formula_units_Z 64
_cell_length_a 34.770582
_cell_length_b 9.491532
_cell_length_c 13.949563
_cell_angle_alpha 90.000000
_cell_angle_beta 90.000000
_cell_angle_gamma 90.000000
_cell_volume 4603.719758
_symmetry_space_group_name_H-M "P M M M"
_symmetry_group_IT_number 47
_symmetry_cell_setting 'orthorhombic'
loop_
_space_group_symop_operation_xyz
x,y,z
-x,-y,z
x,-y,-z
-x,y,-z
-x,-y,-z
x,y,-z
-x,y,z
x,-y,z
loop_
_atom_site_type_symbol
_atom_site_label
_atom_site_fract_x
_atom_site_fract_y
_atom_site_fract_z
Si Si1 0.693035 0.168031 0.886557
Si Si2 0.850071 0.832741 0.887816
Si Si3 0.543117 0.163538 0.116551
Si Si4 0.190263 0.667904 0.610791
Si Si5 0.616953 0.661949 0.883249
Si Si6 0.228909 0.167668 0.778157
Si Si7 0.889294 0.667651 0.279197
Si Si8 0.954918 0.166289 0.613514
O O1 0.655147 0.252546 0.856045
O O2 0.730825 0.207326 0.826771
O O3 0.686537 0.000000 0.876468
O O4 0.699828 0.194493 0.000000
O O5 0.806454 0.806482 0.851477
O O6 0.877585 0.741233 0.820423
O O7 0.857549 0.000000 0.874021
O O8 0.853709 0.800625 0.000000
O O9 0.500000 0.206673 0.146841
O O10 0.578074 0.260549 0.149705
O O11 0.549137 0.000000 0.143394
O O12 0.543278 0.167235 0.000000
O O13 0.193598 0.710380 0.500000
O O14 0.196872 0.500000 0.617558
O O15 0.218695 0.749489 0.681713
O O16 0.147050 0.693917 0.649911
O O17 0.618399 0.500000 0.852316
O O18 0.616109 0.663170 0.000000
O O19 0.229630 0.000000 0.759572
O O20 0.893686 0.500000 0.268541
O O21 0.926692 0.738721 0.324629
O O22 0.948764 0.192116 0.500000
O O23 0.000000 0.192466 0.633536
O O24 0.947478 0.000000 0.630698
#
# Coordination Sequence:
#
# PCOD9382739 Si02
#       8
#     8   8   8   8   8   8   8   8
#     4   9  16  26  39  53  73 101 130 163 202 240
#     4   9  17  30  47  65  86 112 142 175 209 244
#     4   8  13  21  32  44  59  83 117 156 197 239
#     4   9  18  31  44  60  85 113 136 160 195 239
#     4   9  16  23  31  46  67  91 122 159 197 236
#     4   9  17  28  43  63  81 101 135 173 205 237
#     4  10  19  30  46  68  92 116 141 169 202 241
#     4   9  18  32  49  69  92 116 141 169 202 242
#
# _framework density 13.901802
#
# number of rings (size 3 to 8) (size 9 to 14) (size 15 to 20)
#    0.000    3.000    0.000    2.250    0.000    5.750 
#    0.000    1.875    0.000    2.625    0.000    2.625 
#    0.000    0.000    0.000    0.000    0.000    0.625 
#
# Total GULP energy -356450.419200 kJ/mol
# GULP energy per Si atom -5569.537800 kJ/mol
# Density = 1.387016 g / cm^3
# Si number density = 13.901802 Si / 1000 Ang^3
#
#
#
# Elastic Constant Matrix: (Units=GPa)
#
#
# Indices 1 2 3 4 5 6 
#
# 1 118.7435 74.6017 57.6264 0.0000 0.0000 0.0000
# 2 74.6017 67.5618 52.3676 0.0000 0.0000 0.0000
# 3 57.6264 52.3676 81.5788 0.0000 0.0000 0.0000
# 4 0.0000 0.0000 0.0000 16.8967 0.0000 0.0000
# 5 0.0000 0.0000 0.0000 0.0000 11.8656 0.0000
# 6 0.0000 0.0000 0.0000 0.0000 0.0000 18.9777
#
#
#
# Elastic Compliance Matrix: (Units=1/GPa)
#
#
# Indices 1 2 3 4 5 6 
#
# 1 0.027497 -0.030465 0.000133 0.000000 0.000000 0.000000
# 2 -0.030465 0.063212 -0.019057 0.000000 0.000000 0.000000
# 3 0.000133 -0.019057 0.024398 0.000000 0.000000 0.000000
# 4 0.000000 0.000000 0.000000 0.059183 0.000000 0.000000
# 5 0.000000 0.000000 0.000000 0.000000 0.084277 0.000000
# 6 0.000000 0.000000 0.000000 0.000000 0.000000 0.052693
#
#
# Mechanical properties :
#
#
# Convention : Reuss Voigt Hill
#
# Bulk Modulus (GPa) = 61.24613 70.78616 66.01615
# Shear Modulus (GPa) = 12.03418 15.10055 13.56737
#
# Velocity S-wave (km/s) = 2.94540 3.29938 3.12740
# Velocity P-wave (km/s) = 7.46452 8.09591 7.78662
#
# Compressibility (1/GPa) = 0.01632756
#
# Stress axis : x y z
#
# Youngs Moduli (GPa) = 36.36744 15.81970 40.98728
#
# Poissons Ratio (x) = 0.48195 -0.00544
# Poissons Ratio (y) = 1.10794 0.78111
# Poissons Ratio (z) = -0.00483 0.30148
#
# Static dielectric constant tensor:
#      x y z
#    x 1.450710 0.000000 0.000000 
#    y 0.000000 1.460170 0.000000 
#    z 0.000000 0.000000 1.426520 
# 
# From -- ./inp_files/25840.got.cif
#   From: 2010.05.17/outbox.cif.g08.bks.cpg/sg47_13_cif.got.tgz:25840.got - 2010.06.03 20:15:42.
