data_PCOD9382160
_publ_section_title
;
Structure prediction by ZEFSAII (Michael W. Deem and Ramdas Pophale) SiO2 
 PCOD9382160
Probable space group: P M M M
;
_chemical_formula_sum "Si O2"
_cell_formula_units_Z 52
_cell_length_a 23.963522
_cell_length_b 14.721202
_cell_length_c 8.099915
_cell_angle_alpha 90.000000
_cell_angle_beta 90.000000
_cell_angle_gamma 90.000000
_cell_volume 2857.421983
_symmetry_space_group_name_H-M "P M M M"
_symmetry_group_IT_number 47
_symmetry_cell_setting 'orthorhombic'
loop_
_space_group_symop_operation_xyz
x,y,z
-x,-y,z
x,-y,-z
-x,y,-z
-x,-y,-z
x,y,-z
-x,y,z
x,-y,z
loop_
_atom_site_type_symbol
_atom_site_label
_atom_site_fract_x
_atom_site_fract_y
_atom_site_fract_z
Si Si1 0.169034 0.285952 0.304061
Si Si2 0.722360 0.605169 0.702130
Si Si3 0.389053 0.291347 0.698307
Si Si4 0.937107 0.397002 0.801378
Si Si5 0.780311 0.898268 0.801054
Si Si6 0.348064 0.897835 0.199155
Si Si7 0.500000 0.394691 0.702366
O O1 0.170823 0.292546 0.500000
O O2 0.221515 0.345034 0.238858
O O3 0.110796 0.327801 0.247849
O O4 0.180190 0.182198 0.255869
O O5 0.722371 0.606878 0.500000
O O6 0.721004 0.500000 0.751964
O O7 0.667242 0.658752 0.758547
O O8 0.388875 0.298698 0.500000
O O9 0.385321 0.185433 0.742220
O O10 0.444422 0.342323 0.758003
O O11 0.923906 0.500000 0.743425
O O12 0.000000 0.374231 0.743975
O O13 0.938630 0.399607 0.000000
O O14 0.716208 0.881439 0.745359
O O15 0.796080 0.000000 0.746241
O O16 0.779457 0.898306 0.000000
O O17 0.364023 0.000000 0.253091
O O18 0.347896 0.897764 0.000000
O O19 0.500000 0.500000 0.752956
O O20 0.500000 0.394187 0.500000
#
# Coordination Sequence:
#
# PCOD9382160 Si02
#       7
#     8   8   8   8   8   8   4
#     4  11  20  30  49  79 109 134 164 208 262 310
#     4   9  17  28  43  68 102 132 158 197 250 302
#     4  10  18  31  51  74  98 129 170 213 251 294
#     4   9  19  36  55  74 101 141 183 215 245 290
#     4   9  18  33  52  73 100 135 172 209 252 307
#     4   9  18  33  52  73  99 131 165 205 256 309
#     4   9  18  32  52  75  98 132 175 211 248 299
#
# _framework density 18.198222000000001
#
# number of rings (size 3 to 8) (size 9 to 14) (size 15 to 20)
#    0.000    2.538    1.538    2.769    0.000    3.692 
#    0.000    3.077    0.000    6.000    0.000    3.231 
#    0.000    0.000    0.000    0.000    0.000    0.000 
#
# Total GULP energy -290068.622132 kJ/mol
# GULP energy per Si atom -5578.242733 kJ/mol
# Density = 1.815680 g / cm^3
# Si number density = 18.198222 Si / 1000 Ang^3
#
#
#
# Elastic Constant Matrix: (Units=GPa)
#
#
# Indices 1 2 3 4 5 6 
#
# 1 136.6147 105.8061 14.7339 0.0000 0.0000 0.0000
# 2 105.8061 175.8423 9.6608 0.0000 0.0000 0.0000
# 3 14.7339 9.6608 9.8318 0.0000 0.0000 0.0000
# 4 0.0000 0.0000 0.0000 18.8719 0.0000 0.0000
# 5 0.0000 0.0000 0.0000 0.0000 13.8409 0.0000
# 6 0.0000 0.0000 0.0000 0.0000 0.0000 33.3816
#
#
#
# Elastic Compliance Matrix: (Units=1/GPa)
#
#
# Indices 1 2 3 4 5 6 
#
# 1 0.015529 -0.008526 -0.014895 0.000000 0.000000 0.000000
# 2 -0.008526 0.010692 0.002271 0.000000 0.000000 0.000000
# 3 -0.014895 0.002271 0.121801 0.000000 0.000000 0.000000
# 4 0.000000 0.000000 0.000000 0.052989 0.000000 0.000000
# 5 0.000000 0.000000 0.000000 0.000000 0.072249 0.000000
# 6 0.000000 0.000000 0.000000 0.000000 0.000000 0.029957
#
#
# Mechanical properties :
#
#
# Convention : Reuss Voigt Hill
#
# Bulk Modulus (GPa) = 9.45874 64.74339 37.10107
# Shear Modulus (GPa) = 13.13168 26.02473 19.57821
#
# Velocity S-wave (km/s) = 2.68916 3.78573 3.28354
# Velocity P-wave (km/s) = 3.85370 7.40020 5.89975
#
# Compressibility (1/GPa) = 0.10572227
#
# Stress axis : x y z
#
# Youngs Moduli (GPa) = 64.39373 93.52526 8.21013
#
# Poissons Ratio (x) = 0.79739 0.12229
# Poissons Ratio (y) = 0.54902 -0.01864
# Poissons Ratio (z) = 0.95913 -0.21236
#
# Static dielectric constant tensor:
#      x y z
#    x 1.617100 0.000000 0.000000 
#    y 0.000000 1.622750 0.000000 
#    z 0.000000 0.000000 1.649080 
# 
# From -- ./inp_files/10979.got.cif
#   From: 2010.05.17/outbox.cif.g08.bks.cpg/sg47_6_cif.got.tgz:10979.got - 2010.06.03 20:15:42.
