data_PCOD9382727
_publ_section_title
;
Structure prediction by ZEFSAII (Michael W. Deem and Ramdas Pophale) SiO2 
 PCOD9382727
Probable space group: P M M M
;
_chemical_formula_sum "Si O2"
_cell_formula_units_Z 44
_cell_length_a 36.209665
_cell_length_b 7.539679
_cell_length_c 7.420800
_cell_angle_alpha 90.000000
_cell_angle_beta 90.000000
_cell_angle_gamma 90.000000
_cell_volume 2025.947048
_symmetry_space_group_name_H-M "P M M M"
_symmetry_group_IT_number 47
_symmetry_cell_setting 'orthorhombic'
loop_
_space_group_symop_operation_xyz
x,y,z
-x,-y,z
x,-y,-z
-x,y,-z
-x,-y,-z
x,y,-z
-x,y,z
x,-y,z
loop_
_atom_site_type_symbol
_atom_site_label
_atom_site_fract_x
_atom_site_fract_y
_atom_site_fract_z
Si Si1 0.683058 0.500000 0.715152
Si Si2 0.180867 0.788585 0.716970
Si Si3 0.100630 0.782955 0.707774
Si Si4 0.596436 0.500000 0.215637
Si Si5 0.261393 0.795377 0.279499
Si Si6 0.541254 0.796865 0.219722
Si Si7 0.957854 0.216849 0.000000
O O1 0.687403 0.500000 0.500000
O O2 0.639717 0.500000 0.748974
O O3 0.705219 0.672248 0.781553
O O4 0.179608 0.766359 0.500000
O O5 0.140897 0.722887 0.779660
O O6 0.220965 0.723314 0.777793
O O7 0.182011 0.000000 0.752489
O O8 0.096563 0.729547 0.500000
O O9 0.066330 0.727577 0.828277
O O10 0.101778 0.000000 0.710587
O O11 0.573948 0.670837 0.282680
O O12 0.592606 0.500000 0.000000
O O13 0.260771 0.796151 0.500000
O O14 0.265507 0.000000 0.223838
O O15 0.500000 0.736330 0.272686
O O16 0.545943 0.000000 0.276727
O O17 0.541535 0.796470 0.000000
O O18 0.000000 0.277747 0.000000
O O19 0.958683 0.000000 0.000000
#
# Coordination Sequence:
#
# PCOD9382727 Si02
#       7
#     4   8   8   4   8   8   4
#     4  10  20  31  45  67  92 124 162 189 220 277
#     4   7  10  19  37  56  70  92 131 177 222 261
#     4   8  13  21  33  48  67  96 137 181 224 274
#     4  10  19  30  46  66  92 124 148 180 235 281
#     4   8  14  26  44  64  86 114 151 193 231 270
#     4   8  14  26  46  71  92 112 150 199 236 271
#     4   9  16  22  28  44  74 109 141 177 222 275
#
# _framework density 21.718239000000001
#
# number of rings (size 3 to 8) (size 9 to 14) (size 15 to 20)
#    0.000    3.727    0.000    3.000    0.000    2.182 
#    0.000    1.818    2.000    1.091    0.000    1.273 
#    0.000    0.000    0.000    1.636    0.000   22.182 
#
# Total GULP energy -245368.670041 kJ/mol
# GULP energy per Si atom -5576.560683 kJ/mol
# Density = 2.166881 g / cm^3
# Si number density = 21.718239 Si / 1000 Ang^3
#
#
#
# Elastic Constant Matrix: (Units=GPa)
#
#
# Indices 1 2 3 4 5 6 
#
# 1 271.4321 87.4940 37.3044 0.0000 0.0000 0.0000
# 2 87.4940 85.8268 14.3551 0.0000 0.0000 0.0000
# 3 37.3044 14.3551 75.4827 0.0000 0.0000 0.0000
# 4 0.0000 0.0000 0.0000 -6.7001 0.0000 0.0000
# 5 0.0000 0.0000 0.0000 0.0000 22.7486 0.0000
# 6 0.0000 0.0000 0.0000 0.0000 0.0000 -59.0445
#
#
#
# Elastic Compliance Matrix: (Units=1/GPa)
#
#
# Indices 1 2 3 4 5 6 
#
# 1 0.005708 -0.005522 -0.001771 0.000000 0.000000 0.000000
# 2 -0.005522 0.017377 -0.000576 0.000000 0.000000 0.000000
# 3 -0.001771 -0.000576 0.014233 0.000000 0.000000 0.000000
# 4 0.000000 0.000000 0.000000 -0.149252 0.000000 0.000000
# 5 0.000000 0.000000 0.000000 0.000000 0.043959 0.000000
# 6 0.000000 0.000000 0.000000 0.000000 0.000000 -0.016936
#
#
# Mechanical properties :
#
#
# Convention : Reuss Voigt Hill
#
# Bulk Modulus (GPa) = 46.33805 79.00541 62.67173
# Shear Modulus (GPa) = -80.66861 10.97335 -34.84763
#
# Velocity S-wave (km/s) = -6.10114 2.25024 -4.01001
# Velocity P-wave (km/s) = 5.31503 6.57327 2.73480
#
# Compressibility (1/GPa) = 0.02158054
#
# Stress axis : x y z
#
# Youngs Moduli (GPa) = 175.20594 57.54658 70.26151
#
# Poissons Ratio (x) = 0.31779 0.12440
# Poissons Ratio (y) = 0.96754 0.04044
# Poissons Ratio (z) = 0.31021 0.03312
#
# Static dielectric constant tensor:
#      x y z
#    x 1.775200 0.000000 0.000000 
#    y 0.000000 1.846000 0.000000 
#    z 0.000000 0.000000 1.841080 
# 
# From -- ./inp_files/13724.got.cif
#   From: 2010.05.17/outbox.cif.g08.bks.cpg/sg47_7_cif.got.tgz:13724.got - 2010.06.03 20:15:42.
