data_PCOD9382033
_publ_section_title
;
Structure prediction by ZEFSAII (Michael W. Deem and Ramdas Pophale) SiO2 
 PCOD9382033
Probable space group: P M M M
;
_chemical_formula_sum "Si O2"
_cell_formula_units_Z 64
_cell_length_a 32.507087
_cell_length_b 14.622439
_cell_length_c 9.038402
_cell_angle_alpha 90.000000
_cell_angle_beta 90.000000
_cell_angle_gamma 90.000000
_cell_volume 4296.249804
_symmetry_space_group_name_H-M "P M M M"
_symmetry_group_IT_number 47
_symmetry_cell_setting 'orthorhombic'
loop_
_space_group_symop_operation_xyz
x,y,z
-x,-y,z
x,-y,-z
-x,y,-z
-x,-y,-z
x,y,-z
-x,y,z
x,-y,z
loop_
_atom_site_type_symbol
_atom_site_label
_atom_site_fract_x
_atom_site_fract_y
_atom_site_fract_z
Si Si1 0.073516 0.104185 0.823581
Si Si2 0.878439 0.608603 0.824144
Si Si3 0.837652 0.102573 0.675190
Si Si4 0.199519 0.706999 0.677924
Si Si5 0.953895 0.714040 0.676051
Si Si6 0.718080 0.606011 0.680505
Si Si7 0.544781 0.389387 0.174543
Si Si8 0.372262 0.611341 0.671666
O O1 0.120823 0.112699 0.769760
O O2 0.049519 0.183403 0.739607
O O3 0.060238 0.000000 0.789386
O O4 0.070819 0.117095 0.000000
O O5 0.878572 0.500000 0.797752
O O6 0.837922 0.653100 0.752810
O O7 0.918509 0.654930 0.752730
O O8 0.878537 0.625120 0.000000
O O9 0.848587 0.109682 0.500000
O O10 0.807235 0.185677 0.708971
O O11 0.821240 0.000000 0.699777
O O12 0.196641 0.694443 0.500000
O O13 0.243366 0.666982 0.726717
O O14 0.947072 0.715605 0.500000
O O15 0.000000 0.678659 0.704974
O O16 0.716539 0.606505 0.500000
O O17 0.724457 0.500000 0.724669
O O18 0.672814 0.638207 0.731278
O O19 0.500000 0.357514 0.232385
O O20 0.544906 0.500000 0.191541
O O21 0.586653 0.355388 0.248175
O O22 0.546190 0.370768 0.000000
O O23 0.374942 0.637200 0.500000
O O24 0.371918 0.500000 0.677793
#
# Coordination Sequence:
#
# PCOD9382033 Si02
#       8
#     8   8   8   8   8   8   8   8
#     4  10  20  34  54  78 102 126 147 171 210 257
#     4  11  24  39  54  73  96 119 145 182 223 259
#     4   9  17  29  47  72  98 120 145 177 210 248
#     4  10  18  30  51  72  90 118 150 178 213 257
#     4  11  24  40  57  76  96 120 150 181 213 253
#     4   8  14  24  38  58  82 108 142 181 215 249
#     4   8  13  20  29  42  62  90 126 168 211 253
#     4   8  13  21  32  46  67  95 129 172 214 247
#
# _framework density 14.896713
#
# number of rings (size 3 to 8) (size 9 to 14) (size 15 to 20)
#    0.000    2.625    1.250    2.625    0.000    4.000 
#    0.000    4.375    0.000    2.250    0.000    0.000 
#    0.000    0.000    0.000    0.000    0.000    0.625 
#
# Total GULP energy -356520.142114 kJ/mol
# GULP energy per Si atom -5570.627221 kJ/mol
# Density = 1.486281 g / cm^3
# Si number density = 14.896713 Si / 1000 Ang^3
#
#
#
# Elastic Constant Matrix: (Units=GPa)
#
#
# Indices 1 2 3 4 5 6 
#
# 1 147.0214 54.7963 44.4981 0.0000 0.0000 0.0000
# 2 54.7963 59.9800 29.3636 0.0000 0.0000 0.0000
# 3 44.4981 29.3636 31.5082 0.0000 0.0000 0.0000
# 4 0.0000 0.0000 0.0000 15.7886 0.0000 0.0000
# 5 0.0000 0.0000 0.0000 0.0000 -46.5081 0.0000
# 6 0.0000 0.0000 0.0000 0.0000 0.0000 2.9864
#
#
#
# Elastic Compliance Matrix: (Units=1/GPa)
#
#
# Indices 1 2 3 4 5 6 
#
# 1 0.012701 -0.005190 -0.013101 0.000000 0.000000 0.000000
# 2 -0.005190 0.032781 -0.023221 0.000000 0.000000 0.000000
# 3 -0.013101 -0.023221 0.071880 0.000000 0.000000 0.000000
# 4 0.000000 0.000000 0.000000 0.063337 0.000000 0.000000
# 5 0.000000 0.000000 0.000000 0.000000 -0.021502 0.000000
# 6 0.000000 0.000000 0.000000 0.000000 0.000000 0.334853
#
#
# Mechanical properties :
#
#
# Convention : Reuss Voigt Hill
#
# Bulk Modulus (GPa) = 29.12079 55.09174 42.10627
# Shear Modulus (GPa) = 8.49588 1.77683 5.13636
#
# Velocity S-wave (km/s) = 2.39073 1.09332 1.85889
# Velocity P-wave (km/s) = 5.21648 6.21744 5.73883
#
# Compressibility (1/GPa) = 0.03433972
#
# Stress axis : x y z
#
# Youngs Moduli (GPa) = 78.73253 30.50505 13.91203
#
# Poissons Ratio (x) = 0.15832 0.18226
# Poissons Ratio (y) = 0.40861 0.32305
# Poissons Ratio (z) = 1.03147 0.70835
#
# Static dielectric constant tensor:
#      x y z
#    x 1.510180 0.000000 0.000000 
#    y 0.000000 1.485710 0.000000 
#    z 0.000000 0.000000 1.498620 
# 
# From -- ./inp_files/14359.got.cif
#   From: 2010.05.17/outbox.cif.g08.bks.cpg/sg47_8_cif.got.tgz:14359.got - 2010.06.03 20:15:42.
