data_PCOD9382568
_publ_section_title
;
Structure prediction by ZEFSAII (Michael W. Deem and Ramdas Pophale) SiO2 
 PCOD9382568
Probable space group: P M M M
;
_chemical_formula_sum "Si O2"
_cell_formula_units_Z 64
_cell_length_a 8.968759
_cell_length_b 23.326896
_cell_length_c 18.693256
_cell_angle_alpha 90.000000
_cell_angle_beta 90.000000
_cell_angle_gamma 90.000000
_cell_volume 3910.877933
_symmetry_space_group_name_H-M "P M M M"
_symmetry_group_IT_number 47
_symmetry_cell_setting 'orthorhombic'
loop_
_space_group_symop_operation_xyz
x,y,z
-x,-y,z
x,-y,-z
-x,y,-z
-x,-y,-z
x,y,-z
-x,y,z
x,-y,z
loop_
_atom_site_type_symbol
_atom_site_label
_atom_site_fract_x
_atom_site_fract_y
_atom_site_fract_z
Si Si1 0.174110 0.156801 0.687293
Si Si2 0.168454 0.563836 0.733853
Si Si3 0.668050 0.764390 0.582125
Si Si4 0.823126 0.685846 0.919033
Si Si5 0.322782 0.564890 0.115708
Si Si6 0.674507 0.243439 0.208844
Si Si7 0.678455 0.931940 0.581782
Si Si8 0.667414 0.340120 0.666709
O O1 0.205736 0.204249 0.626287
O O2 0.250339 0.186401 0.756988
O O3 0.247320 0.101936 0.647642
O O4 0.000000 0.147756 0.700202
O O5 0.177762 0.500000 0.703917
O O6 0.280846 0.567702 0.800432
O O7 0.212285 0.611579 0.677855
O O8 0.000000 0.572534 0.761330
O O9 0.673521 0.779466 0.500000
O O10 0.500000 0.780224 0.609787
O O11 0.681268 0.696953 0.595395
O O12 0.755996 0.621312 0.915124
O O13 0.750513 0.727981 0.860475
O O14 0.000000 0.682301 0.905602
O O15 0.798571 0.707034 0.000000
O O16 0.500000 0.569452 0.104804
O O17 0.276931 0.500000 0.091581
O O18 0.500000 0.232735 0.195284
O O19 0.683660 0.293109 0.269778
O O20 0.726992 0.915298 0.500000
O O21 0.500000 0.922328 0.584371
O O22 0.704931 0.000000 0.588209
O O23 0.500000 0.364104 0.671656
#
# Coordination Sequence:
#
# PCOD9382568 Si02
#       8
#     8   8   8   8   8   8   8   8
#     4  11  21  31  48  74 104 135 167 208 250 288
#     4  10  19  29  44  65  87 112 144 187 239 291
#     4   9  18  32  48  66  91 123 159 198 240 288
#     4  11  23  36  51  72  99 128 157 198 254 307
#     4  10  20  33  49  68  91 122 160 198 236 289
#     4  10  20  35  53  71  93 125 166 205 240 288
#     4   9  18  33  52  74 105 147 188 219 248 287
#     4   9  17  29  47  68  86 110 147 193 239 284
#
# _framework density 16.364611
#
# number of rings (size 3 to 8) (size 9 to 14) (size 15 to 20)
#    0.000    2.125    1.250    4.125    0.000    7.000 
#    0.000    1.875    0.000    0.375    0.000    2.625 
#    0.000    0.500    0.000    5.250    0.000    2.250 
#
# Total GULP energy -356550.520537 kJ/mol
# GULP energy per Si atom -5571.101883 kJ/mol
# Density = 1.632736 g / cm^3
# Si number density = 16.364611 Si / 1000 Ang^3
#
#
#
# Elastic Constant Matrix: (Units=GPa)
#
#
# Indices 1 2 3 4 5 6 
#
# 1 80.5918 44.0724 38.4650 0.0000 0.0000 0.0000
# 2 44.0724 83.7606 46.3571 0.0000 0.0000 0.0000
# 3 38.4650 46.3571 64.3654 0.0000 0.0000 0.0000
# 4 0.0000 0.0000 0.0000 17.7023 0.0000 0.0000
# 5 0.0000 0.0000 0.0000 0.0000 18.3764 0.0000
# 6 0.0000 0.0000 0.0000 0.0000 0.0000 -90.7794
#
#
#
# Elastic Compliance Matrix: (Units=1/GPa)
#
#
# Indices 1 2 3 4 5 6 
#
# 1 0.019126 -0.006215 -0.006953 0.000000 0.000000 0.000000
# 2 -0.006215 0.021871 -0.012038 0.000000 0.000000 0.000000
# 3 -0.006953 -0.012038 0.028362 0.000000 0.000000 0.000000
# 4 0.000000 0.000000 0.000000 0.056490 0.000000 0.000000
# 5 0.000000 0.000000 0.000000 0.000000 0.054418 0.000000
# 6 0.000000 0.000000 0.000000 0.000000 0.000000 -0.011016
#
#
# Mechanical properties :
#
#
# Convention : Reuss Voigt Hill
#
# Bulk Modulus (GPa) = 52.78210 54.05630 53.41920
# Shear Modulus (GPa) = 22.12599 -4.28524 8.92037
#
# Velocity S-wave (km/s) = 3.68103 -1.61997 2.33727
# Velocity P-wave (km/s) = 7.09862 5.44106 6.32438
#
# Compressibility (1/GPa) = 0.01894582
#
# Stress axis : x y z
#
# Youngs Moduli (GPa) = 52.28568 45.72189 35.25886
#
# Poissons Ratio (x) = 0.28416 0.24517
# Poissons Ratio (y) = 0.32496 0.42445
# Poissons Ratio (z) = 0.36356 0.55040
#
# Static dielectric constant tensor:
#      x y z
#    x 1.571590 0.000000 0.000000 
#    y 0.000000 1.573180 0.000000 
#    z 0.000000 0.000000 1.560450 
# 
# From -- ./inp_files/27123.got.cif
#   From: 2010.05.17/outbox.cif.g08.bks.cpg/sg47_14_cif.got.tgz:27123.got - 2010.06.03 20:15:42.
