data_PCOD9382678
_publ_section_title
;
Structure prediction by ZEFSAII (Michael W. Deem and Ramdas Pophale) SiO2 
 PCOD9382678
Probable space group: P M M M
;
_chemical_formula_sum "Si O2"
_cell_formula_units_Z 52
_cell_length_a 13.968164
_cell_length_b 8.930774
_cell_length_c 27.343836
_cell_angle_alpha 90.000000
_cell_angle_beta 90.000000
_cell_angle_gamma 90.000000
_cell_volume 3411.048272
_symmetry_space_group_name_H-M "P M M M"
_symmetry_group_IT_number 47
_symmetry_cell_setting 'orthorhombic'
loop_
_space_group_symop_operation_xyz
x,y,z
-x,-y,z
x,-y,-z
-x,y,-z
-x,-y,-z
x,y,-z
-x,y,z
x,-y,z
loop_
_atom_site_type_symbol
_atom_site_label
_atom_site_fract_x
_atom_site_fract_y
_atom_site_fract_z
Si Si1 0.109570 0.319130 0.844484
Si Si2 0.707161 0.178656 0.797078
Si Si3 0.385840 0.677837 0.702471
Si Si4 0.798343 0.681420 0.945900
Si Si5 0.608550 0.680273 0.109421
Si Si6 0.383283 0.326816 0.500000
Si Si7 0.616386 0.172280 0.600538
O O1 0.121369 0.500000 0.841498
O O2 0.187927 0.241968 0.810318
O O3 0.135063 0.273779 0.900458
O O4 0.000000 0.282596 0.833035
O O5 0.669818 0.239627 0.745554
O O6 0.638569 0.242577 0.839930
O O7 0.706727 0.000000 0.797959
O O8 0.500000 0.706934 0.707994
O O9 0.371451 0.500000 0.705785
O O10 0.356193 0.737280 0.649048
O O11 0.803274 0.500000 0.947753
O O12 0.689737 0.720348 0.930113
O O13 0.822404 0.738164 0.000000
O O14 0.500000 0.718000 0.095517
O O15 0.613972 0.500000 0.116377
O O16 0.354923 0.500000 0.500000
O O17 0.500000 0.322721 0.500000
O O18 0.351407 0.246030 0.450290
O O19 0.500000 0.173820 0.599353
O O20 0.646884 0.000000 0.603881
#
# Coordination Sequence:
#
# PCOD9382678 Si02
#       7
#     8   8   8   8   8   4   8
#     4   9  18  33  51  68  86 109 137 170 212 262
#     4  11  21  31  45  64  86 111 141 178 217 259
#     4  10  19  30  44  62  86 116 149 184 221 261
#     4   8  14  25  43  69  94 110 132 171 214 253
#     4   9  17  29  44  62  86 116 147 176 208 249
#     4   9  15  23  35  51  75 111 154 193 226 259
#     4   9  16  25  37  55  80 111 149 190 227 260
#
# _framework density 15.244579999999999
#
# number of rings (size 3 to 8) (size 9 to 14) (size 15 to 20)
#    0.000    2.692    0.000    3.923    0.000    6.769 
#    0.000    3.077    0.000    7.385    0.000    8.615 
#    0.000    0.000    0.000    0.692    0.000   12.846 
#
# Total GULP energy -289783.128010 kJ/mol
# GULP energy per Si atom -5572.752462 kJ/mol
# Density = 1.520988 g / cm^3
# Si number density = 15.244580 Si / 1000 Ang^3
#
#
#
# Elastic Constant Matrix: (Units=GPa)
#
#
# Indices 1 2 3 4 5 6 
#
# 1 46.4596 24.5773 14.5794 0.0000 0.0000 0.0000
# 2 24.5773 54.6956 35.6789 0.0000 0.0000 0.0000
# 3 14.5794 35.6789 99.2357 0.0000 0.0000 0.0000
# 4 0.0000 0.0000 0.0000 -14.0113 0.0000 0.0000
# 5 0.0000 0.0000 0.0000 0.0000 9.5031 0.0000
# 6 0.0000 0.0000 0.0000 0.0000 0.0000 10.1840
#
#
#
# Elastic Compliance Matrix: (Units=1/GPa)
#
#
# Indices 1 2 3 4 5 6 
#
# 1 0.028258 -0.013050 0.000540 0.000000 0.000000 0.000000
# 2 -0.013050 0.029912 -0.008837 0.000000 0.000000 0.000000
# 3 0.000540 -0.008837 0.013175 0.000000 0.000000 0.000000
# 4 0.000000 0.000000 0.000000 -0.071371 0.000000 0.000000
# 5 0.000000 0.000000 0.000000 0.000000 0.105229 0.000000
# 6 0.000000 0.000000 0.000000 0.000000 0.000000 0.098193
#
#
# Mechanical properties :
#
#
# Convention : Reuss Voigt Hill
#
# Bulk Modulus (GPa) = 34.90287 38.89580 36.89934
# Shear Modulus (GPa) = 19.55876 9.50551 14.53213
#
# Velocity S-wave (km/s) = 3.58578 2.49978 3.09085
# Velocity P-wave (km/s) = 6.33157 5.82252 6.08237
#
# Compressibility (1/GPa) = 0.02865094
#
# Stress axis : x y z
#
# Youngs Moduli (GPa) = 35.38808 33.43179 75.90219
#
# Poissons Ratio (x) = 0.43629 -0.04102
# Poissons Ratio (y) = 0.46182 0.67075
# Poissons Ratio (z) = -0.01913 0.29544
#
# Static dielectric constant tensor:
#      x y z
#    x 1.490460 0.000000 0.000000 
#    y 0.000000 1.508720 0.000000 
#    z 0.000000 0.000000 1.502340 
# 
# From -- ./inp_files/13427.got.cif
#   From: 2010.05.17/outbox.cif.g08.bks.cpg/sg47_7_cif.got.tgz:13427.got - 2010.06.03 20:15:42.
