data_PCOD9382574
_publ_section_title
;
Structure prediction by ZEFSAII (Michael W. Deem and Ramdas Pophale) SiO2 
 PCOD9382574
Probable space group: P M M M
;
_chemical_formula_sum "Si O2"
_cell_formula_units_Z 56
_cell_length_a 14.536451
_cell_length_b 14.393121
_cell_length_c 18.232698
_cell_angle_alpha 90.000000
_cell_angle_beta 90.000000
_cell_angle_gamma 90.000000
_cell_volume 3814.734382
_symmetry_space_group_name_H-M "P M M M"
_symmetry_group_IT_number 47
_symmetry_cell_setting 'orthorhombic'
loop_
_space_group_symop_operation_xyz
x,y,z
-x,-y,z
x,-y,-z
-x,y,-z
-x,-y,-z
x,y,-z
-x,y,z
x,-y,z
loop_
_atom_site_type_symbol
_atom_site_label
_atom_site_fract_x
_atom_site_fract_y
_atom_site_fract_z
Si Si1 0.202285 0.113471 0.083965
Si Si2 0.387895 0.893374 0.500000
Si Si3 0.289075 0.892599 0.228724
Si Si4 0.103065 0.712806 0.587225
Si Si5 0.609899 0.781559 0.354382
Si Si6 0.000000 0.105395 0.910916
Si Si7 0.711926 0.607853 0.411797
Si Si8 0.895806 0.103118 0.318985
O O1 0.277468 0.138828 0.144659
O O2 0.099580 0.148005 0.105810
O O3 0.196943 0.000000 0.084960
O O4 0.221914 0.140717 0.000000
O O5 0.500000 0.893119 0.500000
O O6 0.358611 0.840892 0.573946
O O7 0.357041 0.000000 0.500000
O O8 0.347954 0.828295 0.282136
O O9 0.184932 0.892723 0.260046
O O10 0.322132 0.000000 0.231904
O O11 0.105637 0.726572 0.500000
O O12 0.184426 0.641917 0.605408
O O13 0.117895 0.811757 0.625903
O O14 0.000000 0.679825 0.606812
O O15 0.500000 0.784462 0.351439
O O16 0.645359 0.677920 0.369412
O O17 0.000000 0.000000 0.880797
O O18 0.000000 0.098360 0.000000
O O19 0.697857 0.618633 0.500000
O O20 0.698929 0.500000 0.394037
O O21 0.000000 0.111302 0.288516
O O22 0.889802 0.000000 0.353831
#
# Coordination Sequence:
#
# PCOD9382574 Si02
#       8
#     8   4   8   8   8   4   8   8
#     4   8  14  24  39  61  90 122 155 188 221 261
#     4   9  18  32  49  65  84 113 147 187 231 275
#     4  10  19  29  44  66  92 125 158 187 226 272
#     4   9  17  30  46  64  90 122 155 187 220 266
#     4  11  21  34  48  66  90 115 153 198 239 279
#     4   7  10  18  34  58  86 117 152 187 218 253
#     4  10  20  34  51  69  88 113 150 193 239 283
#     4   9  17  27  40  62  92 124 156 188 222 262
#
# _framework density 14.679919999999999
#
# number of rings (size 3 to 8) (size 9 to 14) (size 15 to 20)
#    0.000    2.714    2.143    1.286    1.000    1.714 
#    0.000    3.571    0.000    0.429    0.000    2.000 
#    0.000    0.571    0.000    1.286    0.000    9.714 
#
# Total GULP energy -311811.506245 kJ/mol
# GULP energy per Si atom -5568.062612 kJ/mol
# Density = 1.464651 g / cm^3
# Si number density = 14.679920 Si / 1000 Ang^3
#
#
#
# Elastic Constant Matrix: (Units=GPa)
#
#
# Indices 1 2 3 4 5 6 
#
# 1 58.7703 34.8434 41.6522 0.0000 0.0000 0.0000
# 2 34.8434 82.1419 42.1102 0.0000 0.0000 0.0000
# 3 41.6522 42.1102 75.8229 0.0000 0.0000 0.0000
# 4 0.0000 0.0000 0.0000 5.4379 0.0000 0.0000
# 5 0.0000 0.0000 0.0000 0.0000 18.4512 0.0000
# 6 0.0000 0.0000 0.0000 0.0000 0.0000 12.9645
#
#
#
# Elastic Compliance Matrix: (Units=1/GPa)
#
#
# Indices 1 2 3 4 5 6 
#
# 1 0.029802 -0.005940 -0.013072 0.000000 0.000000 0.000000
# 2 -0.005940 0.018204 -0.006847 0.000000 0.000000 0.000000
# 3 -0.013072 -0.006847 0.024172 0.000000 0.000000 0.000000
# 4 0.000000 0.000000 0.000000 0.183893 0.000000 0.000000
# 5 0.000000 0.000000 0.000000 0.000000 0.054197 0.000000
# 6 0.000000 0.000000 0.000000 0.000000 0.000000 0.077134
#
#
# Mechanical properties :
#
#
# Convention : Reuss Voigt Hill
#
# Bulk Modulus (GPa) = 48.87684 50.43850 49.65767
# Shear Modulus (GPa) = 11.21228 13.91267 12.56248
#
# Velocity S-wave (km/s) = 2.76666 3.08187 2.92851
# Velocity P-wave (km/s) = 6.60100 6.86275 6.73315
#
# Compressibility (1/GPa) = 0.02045959
#
# Stress axis : x y z
#
# Youngs Moduli (GPa) = 33.55514 54.93363 41.36978
#
# Poissons Ratio (x) = 0.32630 0.54079
# Poissons Ratio (y) = 0.19932 0.28325
# Poissons Ratio (z) = 0.43864 0.37613
#
# Static dielectric constant tensor:
#      x y z
#    x 1.519840 0.000000 0.000000 
#    y 0.000000 1.460390 0.000000 
#    z 0.000000 0.000000 1.498920 
# 
# From -- ./inp_files/24036.got.cif
#   From: 2010.05.17/outbox.cif.g08.bks.cpg/sg47_13_cif.got.tgz:24036.got - 2010.06.03 20:15:42.
