data_PCOD9382720
_publ_section_title
;
Structure prediction by ZEFSAII (Michael W. Deem and Ramdas Pophale) SiO2 
 PCOD9382720
Probable space group: P M M M
;
_chemical_formula_sum "Si O2"
_cell_formula_units_Z 52
_cell_length_a 7.795935
_cell_length_b 13.396810
_cell_length_c 26.961144
_cell_angle_alpha 90.000000
_cell_angle_beta 90.000000
_cell_angle_gamma 90.000000
_cell_volume 2815.839673
_symmetry_space_group_name_H-M "P M M M"
_symmetry_group_IT_number 47
_symmetry_cell_setting 'orthorhombic'
loop_
_space_group_symop_operation_xyz
x,y,z
-x,-y,z
x,-y,-z
-x,y,-z
-x,-y,-z
x,y,-z
-x,y,z
x,-y,z
loop_
_atom_site_type_symbol
_atom_site_label
_atom_site_fract_x
_atom_site_fract_y
_atom_site_fract_z
Si Si1 0.289901 0.695326 0.942867
Si Si2 0.796242 0.696415 0.711487
Si Si3 0.292828 0.500000 0.117310
Si Si4 0.706818 0.112260 0.117369
Si Si5 0.793474 0.111570 0.768058
Si Si6 0.795792 0.613828 0.500000
Si Si7 0.205861 0.500000 0.232843
Si Si8 0.703090 0.614571 0.607664
O O1 0.500000 0.695450 0.942335
O O2 0.233620 0.599756 0.910955
O O3 0.231938 0.798596 0.917703
O O4 0.236683 0.687445 0.000000
O O5 0.726406 0.799790 0.733380
O O6 0.725618 0.599678 0.740549
O O7 0.771164 0.678271 0.653325
O O8 0.000000 0.698315 0.720966
O O9 0.500000 0.500000 0.115411
O O10 0.241413 0.500000 0.174607
O O11 0.500000 0.110273 0.113918
O O12 0.753095 0.133652 0.174468
O O13 0.769425 0.000000 0.105322
O O14 0.000000 0.107812 0.763296
O O15 0.727037 0.000000 0.756991
O O16 0.724253 0.500000 0.500000
O O17 0.741163 0.656842 0.552913
O O18 0.000000 0.609453 0.500000
O O19 0.000000 0.500000 0.239827
O O20 0.500000 0.608425 0.613203
O O21 0.773576 0.500000 0.610436
#
# Coordination Sequence:
#
# PCOD9382720 Si02
#       8
#     8   8   4   8   8   4   4   8
#     4   9  17  29  45  65  87 111 143 183 224 269
#     4  10  19  31  47  67  94 126 158 192 231 279
#     4  10  19  30  46  64  83 113 150 183 218 267
#     4   9  17  29  46  67  88 111 142 183 230 277
#     4   9  18  32  49  68  91 122 157 191 230 278
#     4   9  17  29  47  67  94 135 172 199 231 277
#     4  10  20  31  45  66  93 122 150 183 229 279
#     4  10  19  30  45  69 100 130 162 200 238 274
#
# _framework density 18.46696
#
# number of rings (size 3 to 8) (size 9 to 14) (size 15 to 20)
#    0.000    2.538    0.769    1.846    0.000    4.000 
#    0.000    1.538    0.000    2.308    0.000    2.692 
#    0.000    4.308    0.000    0.000    0.000    0.000 
#
# Total GULP energy -290063.406915 kJ/mol
# GULP energy per Si atom -5578.142441 kJ/mol
# Density = 1.842493 g / cm^3
# Si number density = 18.466960 Si / 1000 Ang^3
#
#
#
# Elastic Constant Matrix: (Units=GPa)
#
#
# Indices 1 2 3 4 5 6 
#
# 1 20.5765 7.0451 -11.9286 0.0000 0.0000 0.0000
# 2 7.0451 118.8330 92.1129 0.0000 0.0000 0.0000
# 3 -11.9286 92.1129 143.8805 0.0000 0.0000 0.0000
# 4 0.0000 0.0000 0.0000 7.3247 0.0000 0.0000
# 5 0.0000 0.0000 0.0000 0.0000 27.2731 0.0000
# 6 0.0000 0.0000 0.0000 0.0000 0.0000 0.5169
#
#
#
# Elastic Compliance Matrix: (Units=1/GPa)
#
#
# Indices 1 2 3 4 5 6 
#
# 1 0.062552 -0.015342 0.015008 0.000000 0.000000 0.000000
# 2 -0.015342 0.020468 -0.014375 0.000000 0.000000 0.000000
# 3 0.015008 -0.014375 0.017398 0.000000 0.000000 0.000000
# 4 0.000000 0.000000 0.000000 0.136524 0.000000 0.000000
# 5 0.000000 0.000000 0.000000 0.000000 0.036666 0.000000
# 6 0.000000 0.000000 0.000000 0.000000 0.000000 1.934768
#
#
# Mechanical properties :
#
#
# Convention : Reuss Voigt Hill
#
# Bulk Modulus (GPa) = 14.08469 50.86095 32.47282
# Shear Modulus (GPa) = 2.21096 20.09364 11.15230
#
# Velocity S-wave (km/s) = 1.09538 3.30219 2.46011
# Velocity P-wave (km/s) = 3.04028 6.49159 5.06873
#
# Compressibility (1/GPa) = 0.07099907
#
# Stress axis : x y z
#
# Youngs Moduli (GPa) = 15.98663 48.85722 57.47882
#
# Poissons Ratio (x) = 0.74955 -0.86263
# Poissons Ratio (y) = 0.24526 0.82629
# Poissons Ratio (z) = -0.23992 0.70235
#
# Static dielectric constant tensor:
#      x y z
#    x 1.666420 0.000000 0.000000 
#    y 0.000000 1.654690 0.000000 
#    z 0.000000 0.000000 1.612600 
# 
# From -- ./inp_files/33279.got.cif
#   From: 2010.05.17/outbox.cif.g08.bks.cpg/sg47_17_cif.got.tgz:33279.got - 2010.06.03 20:15:42.
