data_PCOD9382083
_publ_section_title
;
Structure prediction by ZEFSAII (Michael W. Deem and Ramdas Pophale) SiO2 
 PCOD9382083
Probable space group: P M M M
;
_chemical_formula_sum "Si O2"
_cell_formula_units_Z 64
_cell_length_a 10.399276
_cell_length_b 14.701000
_cell_length_c 24.096713
_cell_angle_alpha 90.000000
_cell_angle_beta 90.000000
_cell_angle_gamma 90.000000
_cell_volume 3683.899615
_symmetry_space_group_name_H-M "P M M M"
_symmetry_group_IT_number 47
_symmetry_cell_setting 'orthorhombic'
loop_
_space_group_symop_operation_xyz
x,y,z
-x,-y,z
x,-y,-z
-x,y,-z
-x,-y,-z
x,y,-z
-x,y,z
x,-y,z
loop_
_atom_site_type_symbol
_atom_site_label
_atom_site_fract_x
_atom_site_fract_y
_atom_site_fract_z
Si Si1 0.348925 0.608202 0.830542
Si Si2 0.654538 0.899857 0.125274
Si Si3 0.852927 0.607734 0.370587
Si Si4 0.653566 0.900854 0.366742
Si Si5 0.348366 0.277083 0.566020
Si Si6 0.655913 0.719574 0.937466
Si Si7 0.858558 0.696854 0.249952
Si Si8 0.775617 0.897758 0.246665
O O1 0.500000 0.631736 0.820674
O O2 0.335598 0.500000 0.825274
O O3 0.315115 0.642096 0.892489
O O4 0.255336 0.659193 0.788222
O O5 0.500000 0.897670 0.124049
O O6 0.701194 0.815551 0.088510
O O7 0.697608 0.891419 0.189098
O O8 0.696380 0.000000 0.105144
O O9 0.839176 0.500000 0.361312
O O10 0.744760 0.644341 0.411949
O O11 0.838231 0.659922 0.312130
O O12 0.000000 0.624387 0.390324
O O13 0.500000 0.902439 0.371409
O O14 0.695969 0.815252 0.402977
O O15 0.689554 0.891793 0.302130
O O16 0.703352 0.000000 0.385664
O O17 0.339296 0.266702 0.500000
O O18 0.500000 0.293447 0.579551
O O19 0.500000 0.723844 0.940281
O O20 0.703187 0.704824 0.000000
O O21 0.858099 0.806326 0.248937
O O22 0.000000 0.664191 0.231367
O O23 0.834965 0.000000 0.247375
#
# Coordination Sequence:
#
# PCOD9382083 Si02
#       8
#     8   8   8   8   8   8   8   8
#     4  10  21  36  55  80 108 140 180 225 273 323
#     4   9  16  26  44  73 107 139 173 218 268 317
#     4  10  22  40  59  79 105 140 181 222 269 325
#     4   9  17  30  51  80 112 145 178 215 264 320
#     4  10  21  36  56  83 112 142 180 226 268 309
#     4   9  17  29  47  73 105 141 180 221 265 315
#     4  11  22  37  58  83 112 142 173 218 271 325
#     4  10  18  30  52  80 107 139 177 216 262 322
#
# _framework density 17.372893999999999
#
# number of rings (size 3 to 8) (size 9 to 14) (size 15 to 20)
#    0.000    2.250    2.500    0.750    0.000    5.000 
#    0.000    5.000    0.000    0.750    0.000    1.750 
#    0.000    2.000    0.000    0.000    0.000    0.000 
#
# Total GULP energy -356510.364743 kJ/mol
# GULP energy per Si atom -5570.474449 kJ/mol
# Density = 1.733335 g / cm^3
# Si number density = 17.372894 Si / 1000 Ang^3
#
#
#
# Elastic Constant Matrix: (Units=GPa)
#
#
# Indices 1 2 3 4 5 6 
#
# 1 45.3591 38.3559 30.4533 0.0000 0.0000 0.0000
# 2 38.3559 92.0642 29.8540 0.0000 0.0000 0.0000
# 3 30.4533 29.8540 66.8195 0.0000 0.0000 0.0000
# 4 0.0000 0.0000 0.0000 10.3109 0.0000 0.0000
# 5 0.0000 0.0000 0.0000 0.0000 7.6243 0.0000
# 6 0.0000 0.0000 0.0000 0.0000 0.0000 13.7105
#
#
#
# Elastic Compliance Matrix: (Units=1/GPa)
#
#
# Indices 1 2 3 4 5 6 
#
# 1 0.042196 -0.013266 -0.013304 0.000000 0.000000 0.000000
# 2 -0.013266 0.016873 -0.001493 0.000000 0.000000 0.000000
# 3 -0.013304 -0.001493 0.021696 0.000000 0.000000 0.000000
# 4 0.000000 0.000000 0.000000 0.096985 0.000000 0.000000
# 5 0.000000 0.000000 0.000000 0.000000 0.131160 0.000000
# 6 0.000000 0.000000 0.000000 0.000000 0.000000 0.072937
#
#
# Mechanical properties :
#
#
# Convention : Reuss Voigt Hill
#
# Bulk Modulus (GPa) = 40.58447 44.61881 42.60164
# Shear Modulus (GPa) = 11.20612 13.36776 12.28694
#
# Velocity S-wave (km/s) = 2.54251 2.77693 2.66230
# Velocity P-wave (km/s) = 5.65956 6.00171 5.83314
#
# Compressibility (1/GPa) = 0.02463997
#
# Stress axis : x y z
#
# Youngs Moduli (GPa) = 23.69898 59.26728 46.09140
#
# Poissons Ratio (x) = 0.78621 0.61321
# Poissons Ratio (y) = 0.31438 0.06880
# Poissons Ratio (z) = 0.31529 0.08846
#
# Static dielectric constant tensor:
#      x y z
#    x 1.567890 0.000000 0.000000 
#    y 0.000000 1.623400 0.000000 
#    z 0.000000 0.000000 1.565930 
# 
# From -- ./inp_files/27626.got.cif
#   From: 2010.05.17/outbox.cif.g08.bks.cpg/sg47_14_cif.got.tgz:27626.got - 2010.06.03 20:15:42.
