data_PCOD9382550
_publ_section_title
;
Structure prediction by ZEFSAII (Michael W. Deem and Ramdas Pophale) SiO2 
 PCOD9382550
Probable space group: P M M M
;
_chemical_formula_sum "Si O2"
_cell_formula_units_Z 52
_cell_length_a 23.825764
_cell_length_b 14.895800
_cell_length_c 7.395027
_cell_angle_alpha 90.000000
_cell_angle_beta 90.000000
_cell_angle_gamma 90.000000
_cell_volume 2624.523297
_symmetry_space_group_name_H-M "P M M M"
_symmetry_group_IT_number 47
_symmetry_cell_setting 'orthorhombic'
loop_
_space_group_symop_operation_xyz
x,y,z
-x,-y,z
x,-y,-z
-x,y,-z
-x,-y,-z
x,y,-z
-x,y,z
x,-y,z
loop_
_atom_site_type_symbol
_atom_site_label
_atom_site_fract_x
_atom_site_fract_y
_atom_site_fract_z
Si Si1 0.216199 0.400674 0.716100
Si Si2 0.651310 0.400149 0.216784
Si Si3 0.936673 0.103250 0.720252
Si Si4 0.500000 0.896385 0.778228
Si Si5 0.829325 0.786445 0.721428
Si Si6 0.719913 0.102600 0.281967
Si Si7 0.392581 0.785877 0.213089
O O1 0.208743 0.403352 0.500000
O O2 0.202119 0.500000 0.787419
O O3 0.282455 0.385339 0.748705
O O4 0.181719 0.315228 0.782973
O O5 0.636789 0.500000 0.285509
O O6 0.617680 0.314181 0.287911
O O7 0.644417 0.402164 0.000000
O O8 0.936433 0.104039 0.500000
O O9 0.887427 0.168940 0.780366
O O10 0.000000 0.126933 0.777179
O O11 0.925376 0.000000 0.773846
O O12 0.555322 0.843283 0.716285
O O13 0.500000 0.000000 0.720512
O O14 0.500000 0.898101 0.000000
O O15 0.829323 0.786138 0.500000
O O16 0.776278 0.846910 0.778189
O O17 0.721901 0.100278 0.500000
O O18 0.664786 0.158346 0.232098
O O19 0.717131 0.000000 0.217416
O O20 0.403407 0.774672 0.000000
#
# Coordination Sequence:
#
# PCOD9382550 Si02
#       7
#     8   8   8   4   8   8   8
#     4   9  16  26  42  63  86 114 145 173 210 266
#     4   9  17  29  45  66  90 112 138 178 222 258
#     4   8  13  21  34  53  79 114 151 179 207 251
#     4   9  18  32  48  64  84 115 151 179 208 255
#     4   9  15  24  38  58  85 113 142 178 218 255
#     4  10  19  29  43  65  91 115 141 179 225 262
#     4  10  19  32  49  66  86 115 148 179 213 259
#
# _framework density 19.813122
#
# number of rings (size 3 to 8) (size 9 to 14) (size 15 to 20)
#    0.000    2.846    1.538    1.385    0.000    2.769 
#    0.000    0.769    0.000    4.154    0.000    3.231 
#    0.000    6.154    0.000   12.308    0.000   11.692 
#
# Total GULP energy -290177.902760 kJ/mol
# GULP energy per Si atom -5580.344284 kJ/mol
# Density = 1.976803 g / cm^3
# Si number density = 19.813122 Si / 1000 Ang^3
#
#
#
# Elastic Constant Matrix: (Units=GPa)
#
#
# Indices 1 2 3 4 5 6 
#
# 1 153.5565 123.9405 0.5815 0.0000 0.0000 0.0000
# 2 123.9405 225.7822 7.0177 0.0000 0.0000 0.0000
# 3 0.5815 7.0177 67.4281 0.0000 0.0000 0.0000
# 4 0.0000 0.0000 0.0000 2.7447 0.0000 0.0000
# 5 0.0000 0.0000 0.0000 0.0000 9.2164 0.0000
# 6 0.0000 0.0000 0.0000 0.0000 0.0000 34.7091
#
#
#
# Elastic Compliance Matrix: (Units=1/GPa)
#
#
# Indices 1 2 3 4 5 6 
#
# 1 0.011715 -0.006448 0.000570 0.000000 0.000000 0.000000
# 2 -0.006448 0.007993 -0.000776 0.000000 0.000000 0.000000
# 3 0.000570 -0.000776 0.014906 0.000000 0.000000 0.000000
# 4 0.000000 0.000000 0.000000 0.364339 0.000000 0.000000
# 5 0.000000 0.000000 0.000000 0.000000 0.108503 0.000000
# 6 0.000000 0.000000 0.000000 0.000000 0.000000 0.028811
#
#
# Mechanical properties :
#
#
# Convention : Reuss Voigt Hill
#
# Bulk Modulus (GPa) = 46.93717 78.87181 62.90449
# Shear Modulus (GPa) = 8.98186 30.34917 19.66552
#
# Velocity S-wave (km/s) = 2.13146 3.91803 3.15389
# Velocity P-wave (km/s) = 5.45883 7.76931 6.71421
#
# Compressibility (1/GPa) = 0.02130508
#
# Stress axis : x y z
#
# Youngs Moduli (GPa) = 85.36160 125.10976 67.08493
#
# Poissons Ratio (x) = 0.80677 -0.03825
# Poissons Ratio (y) = 0.55045 0.05208
# Poissons Ratio (z) = -0.04867 0.09712
#
# Static dielectric constant tensor:
#      x y z
#    x 1.646160 0.000000 0.000000 
#    y 0.000000 1.708600 0.000000 
#    z 0.000000 0.000000 1.831220 
# 
# From -- ./inp_files/10945.got.cif
#   From: 2010.05.17/outbox.cif.g08.bks.cpg/sg47_6_cif.got.tgz:10945.got - 2010.06.03 20:15:42.
