data_PCOD9382597
_publ_section_title
;
Structure prediction by ZEFSAII (Michael W. Deem and Ramdas Pophale) SiO2 
 PCOD9382597
Probable space group: P M M M
;
_chemical_formula_sum "Si O2"
_cell_formula_units_Z 52
_cell_length_a 14.023298
_cell_length_b 29.294509
_cell_length_c 7.937555
_cell_angle_alpha 90.000000
_cell_angle_beta 90.000000
_cell_angle_gamma 90.000000
_cell_volume 3260.792278
_symmetry_space_group_name_H-M "P M M M"
_symmetry_group_IT_number 47
_symmetry_cell_setting 'orthorhombic'
loop_
_space_group_symop_operation_xyz
x,y,z
-x,-y,z
x,-y,-z
-x,y,-z
-x,-y,-z
x,y,-z
-x,y,z
x,-y,z
loop_
_atom_site_type_symbol
_atom_site_label
_atom_site_fract_x
_atom_site_fract_y
_atom_site_fract_z
Si Si1 0.116230 0.052580 0.000000
Si Si2 0.892593 0.217842 0.299457
Si Si3 0.199936 0.689573 0.197118
Si Si4 0.606071 0.644664 0.699735
Si Si5 0.893500 0.596449 0.794038
Si Si6 0.116122 0.117116 0.305169
Si Si7 0.698275 0.550836 0.204207
O O1 0.146184 0.079600 0.831196
O O2 0.000000 0.052811 0.000000
O O3 0.147082 0.000000 0.000000
O O4 0.900774 0.212710 0.500000
O O5 0.827811 0.261476 0.267457
O O6 0.856598 0.168089 0.242959
O O7 0.000000 0.226089 0.231283
O O8 0.308951 0.674545 0.223625
O O9 0.136334 0.647315 0.264948
O O10 0.180163 0.691717 0.000000
O O11 0.607259 0.652312 0.500000
O O12 0.500000 0.654429 0.765041
O O13 0.632457 0.591795 0.732710
O O14 0.806974 0.563327 0.744640
O O15 0.000000 0.584376 0.738430
O O16 0.893846 0.596792 0.000000
O O17 0.146858 0.109312 0.500000
O O18 0.000000 0.117504 0.308386
O O19 0.672181 0.500000 0.260164
O O20 0.695170 0.551917 0.000000
#
# Coordination Sequence:
#
# PCOD9382597 Si02
#       7
#     4   8   8   8   8   8   8
#     4   9  16  24  36  54  76 110 157 203 240 271
#     4   9  17  28  42  62  90 121 149 181 221 261
#     4  10  19  29  45  68  88 109 140 176 216 263
#     4  10  21  36  51  64  81 107 138 174 215 262
#     4   8  14  25  40  61  88 111 133 162 197 242
#     4   8  15  26  37  53  80 113 150 193 236 272
#     4   9  18  31  47  68  89 108 134 169 209 252
#
# _framework density 15.947043000000001
#
# number of rings (size 3 to 8) (size 9 to 14) (size 15 to 20)
#    0.000    3.000    0.000    3.231    1.077    3.385 
#    0.000    4.615    0.000    4.154    0.000    4.308 
#    0.000    0.000    0.000    0.000    0.000    1.538 
#
# Total GULP energy -289629.974387 kJ/mol
# GULP energy per Si atom -5569.807200 kJ/mol
# Density = 1.591075 g / cm^3
# Si number density = 15.947043 Si / 1000 Ang^3
#
#
#
# Elastic Constant Matrix: (Units=GPa)
#
#
# Indices 1 2 3 4 5 6 
#
# 1 33.9226 3.4478 -9.5679 0.0000 0.0000 0.0000
# 2 3.4478 106.0529 19.5698 0.0000 0.0000 0.0000
# 3 -9.5679 19.5698 27.8470 0.0000 0.0000 0.0000
# 4 0.0000 0.0000 0.0000 3.6336 0.0000 0.0000
# 5 0.0000 0.0000 0.0000 0.0000 11.7842 0.0000
# 6 0.0000 0.0000 0.0000 0.0000 0.0000 7.8933
#
#
#
# Elastic Compliance Matrix: (Units=1/GPa)
#
#
# Indices 1 2 3 4 5 6 
#
# 1 0.033882 -0.003734 0.014266 0.000000 0.000000 0.000000
# 2 -0.003734 0.011246 -0.009186 0.000000 0.000000 0.000000
# 3 0.014266 -0.009186 0.047268 0.000000 0.000000 0.000000
# 4 0.000000 0.000000 0.000000 0.275210 0.000000 0.000000
# 5 0.000000 0.000000 0.000000 0.000000 0.084859 0.000000
# 6 0.000000 0.000000 0.000000 0.000000 0.000000 0.126689
#
#
# Mechanical properties :
#
#
# Convention : Reuss Voigt Hill
#
# Bulk Modulus (GPa) = 10.51671 21.63575 16.07623
# Shear Modulus (GPa) = 8.22155 14.95375 11.58765
#
# Velocity S-wave (km/s) = 2.27304 3.06553 2.69854
# Velocity P-wave (km/s) = 3.67397 5.11143 4.45111
#
# Compressibility (1/GPa) = 0.09508673
#
# Stress axis : x y z
#
# Youngs Moduli (GPa) = 29.51416 88.92273 21.15614
#
# Poissons Ratio (x) = 0.33203 -0.30180
# Poissons Ratio (y) = 0.11020 0.19434
# Poissons Ratio (z) = -0.42104 0.81684
#
# Static dielectric constant tensor:
#      x y z
#    x 1.521980 0.000000 0.000000 
#    y 0.000000 1.546330 0.000000 
#    z 0.000000 0.000000 1.579100 
# 
# From -- ./inp_files/8039.got.cif
#   From: 2010.05.17/outbox.cif.g08.bks.cpg/sg47_5_cif.got.tgz:8039.got - 2010.06.03 20:15:42.
