data_PCOD9382181
_publ_section_title
;
Structure prediction by ZEFSAII (Michael W. Deem and Ramdas Pophale) SiO2 
 PCOD9382181
Probable space group: P M M M
;
_chemical_formula_sum "Si O2"
_cell_formula_units_Z 64
_cell_length_a 20.595541
_cell_length_b 21.023485
_cell_length_c 7.562920
_cell_angle_alpha 90.000000
_cell_angle_beta 90.000000
_cell_angle_gamma 90.000000
_cell_volume 3274.669088
_symmetry_space_group_name_H-M "P M M M"
_symmetry_group_IT_number 47
_symmetry_cell_setting 'orthorhombic'
loop_
_space_group_symop_operation_xyz
x,y,z
-x,-y,z
x,-y,-z
-x,y,-z
-x,-y,-z
x,y,-z
-x,y,z
x,-y,z
loop_
_atom_site_type_symbol
_atom_site_label
_atom_site_fract_x
_atom_site_fract_y
_atom_site_fract_z
Si Si1 0.926077 0.572564 0.783827
Si Si2 0.853861 0.069070 0.213741
Si Si3 0.710330 0.105646 0.216920
Si Si4 0.926105 0.800442 0.707485
Si Si5 0.709607 0.747696 0.789900
Si Si6 0.429550 0.092956 0.204873
Si Si7 0.163952 0.315962 0.795617
Si Si8 0.430294 0.758683 0.711019
O O1 0.911009 0.500000 0.732327
O O2 0.875966 0.625257 0.717868
O O3 0.000000 0.587426 0.728813
O O4 0.926326 0.574239 0.000000
O O5 0.778428 0.075199 0.269502
O O6 0.894450 0.130080 0.271889
O O7 0.879335 0.000000 0.271081
O O8 0.854026 0.070495 0.000000
O O9 0.713423 0.179476 0.276062
O O10 0.641616 0.076137 0.278489
O O11 0.707743 0.104139 0.000000
O O12 0.927674 0.785436 0.500000
O O13 0.881117 0.746736 0.792848
O O14 0.000000 0.799661 0.775650
O O15 0.767111 0.704618 0.715534
O O16 0.636239 0.724684 0.761384
O O17 0.720380 0.752732 0.000000
O O18 0.500000 0.074501 0.283340
O O19 0.428214 0.170141 0.209628
O O20 0.430667 0.073080 0.000000
O O21 0.176292 0.333418 0.000000
O O22 0.429927 0.766343 0.500000
O O23 0.500000 0.730065 0.763202
#
# Coordination Sequence:
#
# PCOD9382181 Si02
#       8
#     8   8   8   8   8   8   8   8
#     4   8  14  25  44  73 104 130 158 193 231 270
#     4  10  20  35  54  71  88 116 157 202 243 288
#     4   8  13  25  42  62  86 110 143 186 228 270
#     4  11  24  38  51  70  96 122 150 193 247 294
#     4   9  16  26  42  63  89 120 152 188 230 273
#     4   8  13  22  38  58  82 114 147 179 219 268
#     4  10  18  31  52  75  99 128 162 196 229 274
#     4   9  16  24  35  56  87 119 151 187 227 272
#
# _framework density 19.543959999999998
#
# number of rings (size 3 to 8) (size 9 to 14) (size 15 to 20)
#    0.000    2.875    1.250    2.250    0.000    3.250 
#    0.000    1.250    0.000    0.750    0.000    4.375 
#    0.000    0.500    0.000   23.125    0.000   17.125 
#
# Total GULP energy -356793.670323 kJ/mol
# GULP energy per Si atom -5574.901099 kJ/mol
# Density = 1.949948 g / cm^3
# Si number density = 19.543960 Si / 1000 Ang^3
#
#
#
# Elastic Constant Matrix: (Units=GPa)
#
#
# Indices 1 2 3 4 5 6 
#
# 1 162.4385 64.1179 -3.6830 0.0000 0.0000 0.0000
# 2 64.1179 87.9500 -1.6036 0.0000 0.0000 0.0000
# 3 -3.6830 -1.6036 46.2457 0.0000 0.0000 0.0000
# 4 0.0000 0.0000 0.0000 -39.3858 0.0000 0.0000
# 5 0.0000 0.0000 0.0000 0.0000 21.8037 0.0000
# 6 0.0000 0.0000 0.0000 0.0000 0.0000 30.8620
#
#
#
# Elastic Compliance Matrix: (Units=1/GPa)
#
#
# Indices 1 2 3 4 5 6 
#
# 1 0.008654 -0.006300 0.000471 0.000000 0.000000 0.000000
# 2 -0.006300 0.015964 0.000052 0.000000 0.000000 0.000000
# 3 0.000471 0.000052 0.021663 0.000000 0.000000 0.000000
# 4 0.000000 0.000000 0.000000 -0.025390 0.000000 0.000000
# 5 0.000000 0.000000 0.000000 0.000000 0.045864 0.000000
# 6 0.000000 0.000000 0.000000 0.000000 0.000000 0.032402
#
#
# Mechanical properties :
#
#
# Convention : Reuss Voigt Hill
#
# Bulk Modulus (GPa) = 28.79740 46.03299 37.41519
# Shear Modulus (GPa) = 40.88735 18.50951 29.69843
#
# Velocity S-wave (km/s) = 4.57888 3.08079 3.90240
# Velocity P-wave (km/s) = 6.53617 6.02160 6.28416
#
# Compressibility (1/GPa) = 0.03472535
#
# Stress axis : x y z
#
# Youngs Moduli (GPa) = 115.55810 62.64084 46.16180
#
# Poissons Ratio (x) = 0.39465 -0.02173
# Poissons Ratio (y) = 0.72803 -0.00239
# Poissons Ratio (z) = -0.05439 -0.00325
#
# Static dielectric constant tensor:
#      x y z
#    x 1.746080 0.000000 0.000000 
#    y 0.000000 1.658160 0.000000 
#    z 0.000000 0.000000 1.751790 
# 
# From -- ./inp_files/11838.got.cif
#   From: 2010.05.17/outbox.cif.g08.bks.cpg/sg47_6_cif.got.tgz:11838.got - 2010.06.03 20:15:42.
