data_PCOD9382558
_publ_section_title
;
Structure prediction by ZEFSAII (Michael W. Deem and Ramdas Pophale) SiO2 
 PCOD9382558
Probable space group: P M M M
;
_chemical_formula_sum "Si O2"
_cell_formula_units_Z 60
_cell_length_a 15.716154
_cell_length_b 7.346195
_cell_length_c 22.912571
_cell_angle_alpha 90.000000
_cell_angle_beta 90.000000
_cell_angle_gamma 90.000000
_cell_volume 2645.346413
_symmetry_space_group_name_H-M "P M M M"
_symmetry_group_IT_number 47
_symmetry_cell_setting 'orthorhombic'
loop_
_space_group_symop_operation_xyz
x,y,z
-x,-y,z
x,-y,-z
-x,y,-z
-x,-y,-z
x,y,-z
-x,y,z
x,-y,z
loop_
_atom_site_type_symbol
_atom_site_label
_atom_site_fract_x
_atom_site_fract_y
_atom_site_fract_z
Si Si1 0.278141 0.722288 0.893227
Si Si2 0.090671 0.778668 0.396463
Si Si3 0.857079 0.219539 0.731535
Si Si4 0.723182 0.222192 0.436323
Si Si5 0.599266 0.278800 0.000000
Si Si6 0.590298 0.712631 0.197736
Si Si7 0.672379 0.218896 0.688131
Si Si8 0.093732 0.288733 0.136351
O O1 0.272426 0.500000 0.893952
O O2 0.342895 0.774539 0.944630
O O3 0.326864 0.785434 0.834830
O O4 0.180428 0.787489 0.892359
O O5 0.094855 0.728470 0.327929
O O6 0.178392 0.721219 0.426369
O O7 0.000000 0.719048 0.421334
O O8 0.092232 0.000000 0.398761
O O9 0.760860 0.279984 0.717839
O O10 0.891260 0.284260 0.793505
O O11 0.858965 0.000000 0.734334
O O12 0.693339 0.281439 0.500000
O O13 0.672144 0.281212 0.378783
O O14 0.722476 0.000000 0.436082
O O15 0.595390 0.500000 0.000000
O O16 0.500000 0.218042 0.000000
O O17 0.500000 0.792131 0.178669
O O18 0.588165 0.500000 0.182239
O O19 0.600325 0.726714 0.266951
O O20 0.674413 0.000000 0.686784
O O21 0.089971 0.500000 0.118829
O O22 0.000000 0.209220 0.123997
#
# Coordination Sequence:
#
# PCOD9382558 Si02
#       8
#     8   8   8   8   4   8   8   8
#     4   9  17  30  46  69 101 128 155 196 233 271
#     4   8  13  20  32  54  83 113 148 192 235 272
#     4   9  16  27  43  63  90 125 162 195 229 273
#     4   8  14  24  38  57  83 117 154 190 231 281
#     4   9  16  28  49  73  96 127 163 195 236 288
#     4  10  19  31  50  74  97 122 151 188 239 289
#     4   9  17  29  46  69  95 122 154 193 238 285
#     4  10  19  29  43  66  97 131 161 190 232 279
#
# _framework density 22.681341
#
# number of rings (size 3 to 8) (size 9 to 14) (size 15 to 20)
#    0.000    3.000    1.333    2.400    0.000    2.933 
#    0.000    1.667    0.000    2.800    0.000    4.667 
#    0.000    4.267    0.000   14.133    0.000   10.667 
#
# Total GULP energy -334598.649723 kJ/mol
# GULP energy per Si atom -5576.644162 kJ/mol
# Density = 2.262972 g / cm^3
# Si number density = 22.681341 Si / 1000 Ang^3
#
#
#
# Elastic Constant Matrix: (Units=GPa)
#
#
# Indices 1 2 3 4 5 6 
#
# 1 165.3736 8.4594 60.4432 0.0000 0.0000 0.0000
# 2 8.4594 84.0274 -6.3509 0.0000 0.0000 0.0000
# 3 60.4432 -6.3509 114.7686 0.0000 0.0000 0.0000
# 4 0.0000 0.0000 0.0000 9.0895 0.0000 0.0000
# 5 0.0000 0.0000 0.0000 0.0000 21.3095 0.0000
# 6 0.0000 0.0000 0.0000 0.0000 0.0000 -2.2179
#
#
#
# Elastic Compliance Matrix: (Units=1/GPa)
#
#
# Indices 1 2 3 4 5 6 
#
# 1 0.007583 -0.001070 -0.004053 0.000000 0.000000 0.000000
# 2 -0.001070 0.012102 0.001233 0.000000 0.000000 0.000000
# 3 -0.004053 0.001233 0.010916 0.000000 0.000000 0.000000
# 4 0.000000 0.000000 0.000000 0.110017 0.000000 0.000000
# 5 0.000000 0.000000 0.000000 0.000000 0.046927 0.000000
# 6 0.000000 0.000000 0.000000 0.000000 0.000000 -0.450886
#
#
# Mechanical properties :
#
#
# Convention : Reuss Voigt Hill
#
# Bulk Modulus (GPa) = 43.81811 54.36366 49.09088
# Shear Modulus (GPa) = -20.16494 25.74409 2.78957
#
# Velocity S-wave (km/s) = -2.98494 3.37268 1.11021
# Velocity P-wave (km/s) = 2.73517 6.25996 4.83054
#
# Compressibility (1/GPa) = 0.02282162
#
# Stress axis : x y z
#
# Youngs Moduli (GPa) = 131.87588 82.63261 91.61036
#
# Poissons Ratio (x) = 0.08839 0.37127
# Poissons Ratio (y) = 0.14107 -0.11296
# Poissons Ratio (z) = 0.53446 -0.10189
#
# Static dielectric constant tensor:
#      x y z
#    x 1.855910 0.000000 0.000000 
#    y 0.000000 1.910740 0.000000 
#    z 0.000000 0.000000 1.840110 
# 
# From -- ./inp_files/31220.got.cif
#   From: 2010.05.17/outbox.cif.g08.bks.cpg/sg47_16_cif.got.tgz:31220.got - 2010.06.03 20:15:42.
