data_PCOD9382200
_publ_section_title
;
Structure prediction by ZEFSAII (Michael W. Deem and Ramdas Pophale) SiO2 
 PCOD9382200
Probable space group: P M M M
;
_chemical_formula_sum "Si O2"
_cell_formula_units_Z 52
_cell_length_a 16.878022
_cell_length_b 8.742692
_cell_length_c 21.320471
_cell_angle_alpha 90.000000
_cell_angle_beta 90.000000
_cell_angle_gamma 90.000000
_cell_volume 3146.034798
_symmetry_space_group_name_H-M "P M M M"
_symmetry_group_IT_number 47
_symmetry_cell_setting 'orthorhombic'
loop_
_space_group_symop_operation_xyz
x,y,z
-x,-y,z
x,-y,-z
-x,y,-z
-x,-y,-z
x,y,-z
-x,y,z
x,-y,z
loop_
_atom_site_type_symbol
_atom_site_label
_atom_site_fract_x
_atom_site_fract_y
_atom_site_fract_z
Si Si1 0.675855 0.318147 0.376977
Si Si2 0.000000 0.815263 0.717391
Si Si3 0.740967 0.182704 0.819823
Si Si4 0.407016 0.183736 0.500000
Si Si5 0.000000 0.685139 0.857855
Si Si6 0.825380 0.815558 0.311122
Si Si7 0.409233 0.183668 0.256184
Si Si8 0.839844 0.315807 0.071491
O O1 0.676855 0.500000 0.382464
O O2 0.638176 0.245256 0.438900
O O3 0.763861 0.258011 0.359626
O O4 0.621582 0.266335 0.318414
O O5 0.000000 0.751925 0.788096
O O6 0.082566 0.769835 0.684510
O O7 0.000000 0.000000 0.721179
O O8 0.794890 0.225179 0.759226
O O9 0.651764 0.221658 0.799235
O O10 0.771150 0.261004 0.882374
O O11 0.747282 0.000000 0.827062
O O12 0.500000 0.231232 0.500000
O O13 0.405299 0.000000 0.500000
O O14 0.077841 0.733586 0.896126
O O15 0.000000 0.500000 0.853685
O O16 0.819312 0.000000 0.316580
O O17 0.500000 0.220525 0.242781
O O18 0.402725 0.000000 0.266974
O O19 0.840572 0.500000 0.070000
O O20 0.833321 0.260574 0.000000
#
# Coordination Sequence:
#
# PCOD9382200 Si02
#       8
#     8   4   8   4   4   8   8   8
#     4  11  22  34  52  80 112 139 168 206 248 295
#     4  10  18  31  53  76 101 132 171 216 254 292
#     4   9  17  30  49  71  94 122 162 210 254 298
#     4  11  23  39  59  80 107 144 177 205 246 299
#     4  10  19  30  46  68  97 131 167 206 251 303
#     4   9  18  33  52  74 102 136 172 210 253 299
#     4   9  18  34  54  74  99 131 165 203 251 304
#     4  10  20  32  45  64  95 134 169 202 249 308
#
# _framework density 16.528742000000001
#
# number of rings (size 3 to 8) (size 9 to 14) (size 15 to 20)
#    0.000    2.231    1.538    3.231    0.000    7.077 
#    0.000    0.000    0.000    2.308    0.000    6.462 
#    0.000    0.000    0.000    0.000    0.000    0.000 
#
# Total GULP energy -290066.702064 kJ/mol
# GULP energy per Si atom -5578.205809 kJ/mol
# Density = 1.649112 g / cm^3
# Si number density = 16.528742 Si / 1000 Ang^3
#
#
#
# Elastic Constant Matrix: (Units=GPa)
#
#
# Indices 1 2 3 4 5 6 
#
# 1 166.7523 45.1575 76.7937 0.0000 0.0000 0.0000
# 2 45.1575 29.6941 35.5734 0.0000 0.0000 0.0000
# 3 76.7937 35.5734 113.4273 0.0000 0.0000 0.0000
# 4 0.0000 0.0000 0.0000 29.7348 0.0000 0.0000
# 5 0.0000 0.0000 0.0000 0.0000 19.5159 0.0000
# 6 0.0000 0.0000 0.0000 0.0000 0.0000 15.2180
#
#
#
# Elastic Compliance Matrix: (Units=1/GPa)
#
#
# Indices 1 2 3 4 5 6 
#
# 1 0.011013 -0.012519 -0.003530 0.000000 0.000000 0.000000
# 2 -0.012519 0.068176 -0.012906 0.000000 0.000000 0.000000
# 3 -0.003530 -0.012906 0.015253 0.000000 0.000000 0.000000
# 4 0.000000 0.000000 0.000000 0.033631 0.000000 0.000000
# 5 0.000000 0.000000 0.000000 0.000000 0.051240 0.000000
# 6 0.000000 0.000000 0.000000 0.000000 0.000000 0.065712
#
#
# Mechanical properties :
#
#
# Convention : Reuss Voigt Hill
#
# Bulk Modulus (GPa) = 27.37231 69.43588 48.40410
# Shear Modulus (GPa) = 15.86739 23.05035 19.45887
#
# Velocity S-wave (km/s) = 3.10173 3.73843 3.43487
# Velocity P-wave (km/s) = 5.42439 7.79326 6.71412
#
# Compressibility (1/GPa) = 0.03653327
#
# Stress axis : x y z
#
# Youngs Moduli (GPa) = 90.80485 14.66787 65.55901
#
# Poissons Ratio (x) = 0.18363 0.23140
# Poissons Ratio (y) = 1.13679 0.84609
# Poissons Ratio (z) = 0.32051 0.18930
#
# Static dielectric constant tensor:
#      x y z
#    x 1.573620 0.000000 0.000000 
#    y 0.000000 1.559020 0.000000 
#    z 0.000000 0.000000 1.524020 
# 
# From -- ./inp_files/28551.got.cif
#   From: 2010.05.17/outbox.cif.g08.bks.cpg/sg47_15_cif.got.tgz:28551.got - 2010.06.03 20:15:42.
