data_PCOD9382343
_publ_section_title
;
Structure prediction by ZEFSAII (Michael W. Deem and Ramdas Pophale) SiO2 
 PCOD9382343
Probable space group: P M M M
;
_chemical_formula_sum "Si O2"
_cell_formula_units_Z 48
_cell_length_a 15.421340
_cell_length_b 17.971885
_cell_length_c 8.151884
_cell_angle_alpha 90.000000
_cell_angle_beta 90.000000
_cell_angle_gamma 90.000000
_cell_volume 2259.299126
_symmetry_space_group_name_H-M "P M M M"
_symmetry_group_IT_number 47
_symmetry_cell_setting 'orthorhombic'
loop_
_space_group_symop_operation_xyz
x,y,z
-x,-y,z
x,-y,-z
-x,y,-z
-x,-y,-z
x,y,-z
-x,y,z
x,-y,z
loop_
_atom_site_type_symbol
_atom_site_label
_atom_site_fract_x
_atom_site_fract_y
_atom_site_fract_z
Si Si1 0.599074 0.000000 0.695917
Si Si2 0.099089 0.823795 0.302742
Si Si3 0.165650 0.664684 0.691918
Si Si4 0.278807 0.134153 0.806624
Si Si5 0.593435 0.740418 0.697842
Si Si6 0.661111 0.584519 0.700348
Si Si7 0.000000 0.587478 0.813066
O O1 0.654233 0.071549 0.748332
O O2 0.500000 0.000000 0.760393
O O3 0.593846 0.000000 0.500000
O O4 0.092932 0.819215 0.500000
O O5 0.133912 0.743857 0.237872
O O6 0.181481 0.875660 0.263391
O O7 0.000000 0.839455 0.244216
O O8 0.185750 0.678287 0.500000
O O9 0.246477 0.617692 0.758075
O O10 0.082992 0.613666 0.714656
O O11 0.324801 0.212108 0.757403
O O12 0.271352 0.131274 0.000000
O O13 0.595618 0.744250 0.500000
O O14 0.500000 0.771170 0.753654
O O15 0.599221 0.653400 0.744238
O O16 0.661285 0.580550 0.500000
O O17 0.644393 0.500000 0.757840
O O18 0.000000 0.500000 0.825116
O O19 0.000000 0.618114 0.000000
#
# Coordination Sequence:
#
# PCOD9382343 Si02
#       7
#     4   8   8   8   8   8   4
#     4  11  25  47  76 105 132 165 205 250 300 357
#     4  10  20  38  64  91 121 162 211 258 303 360
#     4  10  18  33  55  76 104 148 204 261 309 362
#     4  12  25  41  65  97 134 167 198 249 308 370
#     4  10  20  36  59  85 118 162 211 261 312 372
#     4   9  17  30  51  80 112 148 199 263 318 362
#     4  11  23  33  43  69 111 150 191 252 321 383
#
# _framework density 21.245525000000001
#
# number of rings (size 3 to 8) (size 9 to 14) (size 15 to 20)
#    0.000    1.667    2.500    3.000    0.000    5.667 
#    0.000    2.083    0.000    3.000    0.000    1.167 
#    0.000    0.000    0.000    0.000    0.000    0.000 
#
# Total GULP energy -267686.069338 kJ/mol
# GULP energy per Si atom -5576.793111 kJ/mol
# Density = 2.119717 g / cm^3
# Si number density = 21.245525 Si / 1000 Ang^3
#
#
#
# Elastic Constant Matrix: (Units=GPa)
#
#
# Indices 1 2 3 4 5 6 
#
# 1 183.4364 49.6385 16.9063 0.0000 0.0000 0.0000
# 2 49.6385 90.5009 8.8390 0.0000 0.0000 0.0000
# 3 16.9063 8.8390 26.0833 0.0000 0.0000 0.0000
# 4 0.0000 0.0000 0.0000 285.3535 0.0000 0.0000
# 5 0.0000 0.0000 0.0000 0.0000 -13.9920 0.0000
# 6 0.0000 0.0000 0.0000 0.0000 0.0000 18.8561
#
#
#
# Elastic Compliance Matrix: (Units=1/GPa)
#
#
# Indices 1 2 3 4 5 6 
#
# 1 0.006647 -0.003335 -0.003178 0.000000 0.000000 0.000000
# 2 -0.003335 0.013102 -0.002278 0.000000 0.000000 0.000000
# 3 -0.003178 -0.002278 0.041171 0.000000 0.000000 0.000000
# 4 0.000000 0.000000 0.000000 0.003504 0.000000 0.000000
# 5 0.000000 0.000000 0.000000 0.000000 -0.071469 0.000000
# 6 0.000000 0.000000 0.000000 0.000000 0.000000 0.053033
#
#
# Mechanical properties :
#
#
# Convention : Reuss Voigt Hill
#
# Bulk Modulus (GPa) = 23.07529 50.08757 36.58143
# Shear Modulus (GPa) = 64.08982 73.01929 68.55455
#
# Velocity S-wave (km/s) = 5.49834 5.86889 5.68663
# Velocity P-wave (km/s) = 7.15499 8.33978 7.77000
#
# Compressibility (1/GPa) = 0.04333640
#
# Stress axis : x y z
#
# Youngs Moduli (GPa) = 150.44500 76.32713 24.28917
#
# Poissons Ratio (x) = 0.25458 0.07719
# Poissons Ratio (y) = 0.50179 0.05533
# Poissons Ratio (z) = 0.47812 0.17387
#
# Static dielectric constant tensor:
#      x y z
#    x 1.791720 0.000000 0.000000 
#    y 0.000000 1.795300 0.000000 
#    z 0.000000 0.000000 1.765790 
# 
# From -- ./inp_files/6517.got.cif
#   From: 2010.05.17/outbox.cif.g08.bks.cpg/sg47_4_cif.got.tgz:6517.got - 2010.06.03 20:15:42.
