data_PCOD9382632
_publ_section_title
;
Structure prediction by ZEFSAII (Michael W. Deem and Ramdas Pophale) SiO2 
 PCOD9382632
Probable space group: P M M M
;
_chemical_formula_sum "Si O2"
_cell_formula_units_Z 60
_cell_length_a 9.085167
_cell_length_b 18.861903
_cell_length_c 20.947199
_cell_angle_alpha 90.000000
_cell_angle_beta 90.000000
_cell_angle_gamma 90.000000
_cell_volume 3589.586146
_symmetry_space_group_name_H-M "P M M M"
_symmetry_group_IT_number 47
_symmetry_cell_setting 'orthorhombic'
loop_
_space_group_symop_operation_xyz
x,y,z
-x,-y,z
x,-y,-z
-x,y,-z
-x,-y,-z
x,y,-z
-x,y,z
x,-y,z
loop_
_atom_site_type_symbol
_atom_site_label
_atom_site_fract_x
_atom_site_fract_y
_atom_site_fract_z
Si Si1 0.676467 0.353364 0.365233
Si Si2 0.823047 0.917245 0.426856
Si Si3 0.679032 0.418232 0.500000
Si Si4 0.325415 0.810151 0.670836
Si Si5 0.675816 0.422240 0.110828
Si Si6 0.168391 0.389623 0.239932
Si Si7 0.168146 0.222731 0.203120
Si Si8 0.822731 0.723172 0.070869
O O1 0.500000 0.363723 0.358717
O O2 0.724052 0.379119 0.435052
O O3 0.705720 0.269739 0.354721
O O4 0.758841 0.395621 0.309189
O O5 0.780651 0.899239 0.500000
O O6 0.748499 0.866285 0.376057
O O7 0.000000 0.910927 0.422536
O O8 0.785929 0.000000 0.416220
O O9 0.726945 0.500000 0.500000
O O10 0.500000 0.417894 0.500000
O O11 0.500000 0.819283 0.671368
O O12 0.263004 0.815053 0.742765
O O13 0.500000 0.413433 0.109017
O O14 0.712018 0.500000 0.083257
O O15 0.733378 0.421500 0.183729
O O16 0.752062 0.354645 0.078610
O O17 0.164900 0.305509 0.223893
O O18 0.000000 0.414966 0.238020
O O19 0.224565 0.227450 0.130225
O O20 0.000000 0.196131 0.204035
O O21 0.000000 0.715430 0.077155
O O22 0.789688 0.750489 0.000000
#
# Coordination Sequence:
#
# PCOD9382632 Si02
#       8
#     8   8   4   8   8   8   8   8
#     4   9  18  31  47  67  90 116 152 197 243 293
#     4   9  19  35  52  72 102 138 171 201 236 283
#     4   9  18  32  47  61  82 115 152 192 241 297
#     4  10  19  29  48  74 100 128 160 203 243 279
#     4  10  20  31  43  61  85 114 150 189 232 291
#     4   9  17  30  47  64  82 106 141 188 239 284
#     4   8  15  29  47  66  91 120 153 190 230 279
#     4   9  18  32  49  68  91 120 153 194 244 291
#
# _framework density 16.715019000000002
#
# number of rings (size 3 to 8) (size 9 to 14) (size 15 to 20)
#    0.000    2.867    0.000    2.400    0.933    6.400 
#    0.000    3.667    0.000    0.400    0.000    0.000 
#    0.000    0.533    0.000    6.133    0.000    1.733 
#
# Total GULP energy -334351.083782 kJ/mol
# GULP energy per Si atom -5572.518063 kJ/mol
# Density = 1.667697 g / cm^3
# Si number density = 16.715019 Si / 1000 Ang^3
#
#
#
# Elastic Constant Matrix: (Units=GPa)
#
#
# Indices 1 2 3 4 5 6 
#
# 1 30.5633 27.1285 36.6136 0.0000 0.0000 0.0000
# 2 27.1285 44.5657 44.6248 0.0000 0.0000 0.0000
# 3 36.6136 44.6248 157.7342 0.0000 0.0000 0.0000
# 4 0.0000 0.0000 0.0000 2.2522 0.0000 0.0000
# 5 0.0000 0.0000 0.0000 0.0000 18.2207 0.0000
# 6 0.0000 0.0000 0.0000 0.0000 0.0000 16.1246
#
#
#
# Elastic Compliance Matrix: (Units=1/GPa)
#
#
# Indices 1 2 3 4 5 6 
#
# 1 0.075418 -0.039597 -0.006304 0.000000 0.000000 0.000000
# 2 -0.039597 0.052098 -0.005548 0.000000 0.000000 0.000000
# 3 -0.006304 -0.005548 0.009373 0.000000 0.000000 0.000000
# 4 0.000000 0.000000 0.000000 0.444003 0.000000 0.000000
# 5 0.000000 0.000000 0.000000 0.000000 0.054883 0.000000
# 6 0.000000 0.000000 0.000000 0.000000 0.000000 0.062017
#
#
# Mechanical properties :
#
#
# Convention : Reuss Voigt Hill
#
# Bulk Modulus (GPa) = 29.41944 49.95521 39.68733
# Shear Modulus (GPa) = 6.15750 15.61924 10.88837
#
# Velocity S-wave (km/s) = 1.92141 3.06018 2.55505
# Velocity P-wave (km/s) = 4.74987 6.51441 5.70083
#
# Compressibility (1/GPa) = 0.03399113
#
# Stress axis : x y z
#
# Youngs Moduli (GPa) = 13.25949 19.19463 106.69509
#
# Poissons Ratio (x) = 0.76005 0.67257
# Poissons Ratio (y) = 0.52504 0.59191
# Poissons Ratio (z) = 0.08358 0.10649
#
# Static dielectric constant tensor:
#      x y z
#    x 1.557420 0.000000 0.000000 
#    y 0.000000 1.547510 0.000000 
#    z 0.000000 0.000000 1.586740 
# 
# From -- ./inp_files/29972.got.cif
#   From: 2010.05.17/outbox.cif.g08.bks.cpg/sg47_15_cif.got.tgz:29972.got - 2010.06.03 20:15:42.
