data_PCOD9382808
_publ_section_title
;
Structure prediction by ZEFSAII (Michael W. Deem and Ramdas Pophale) SiO2 
 PCOD9382808
Probable space group: P M M M
;
_chemical_formula_sum "Si O2"
_cell_formula_units_Z 64
_cell_length_a 8.988029
_cell_length_b 19.360370
_cell_length_c 24.035218
_cell_angle_alpha 90.000000
_cell_angle_beta 90.000000
_cell_angle_gamma 90.000000
_cell_volume 4182.405948
_symmetry_space_group_name_H-M "P M M M"
_symmetry_group_IT_number 47
_symmetry_cell_setting 'orthorhombic'
loop_
_space_group_symop_operation_xyz
x,y,z
-x,-y,z
x,-y,-z
-x,y,-z
-x,-y,-z
x,y,-z
-x,y,z
x,-y,z
loop_
_atom_site_type_symbol
_atom_site_label
_atom_site_fract_x
_atom_site_fract_y
_atom_site_fract_z
Si Si1 0.822446 0.337213 0.336219
Si Si2 0.676738 0.703407 0.838081
Si Si3 0.822706 0.211683 0.936385
Si Si4 0.178504 0.579952 0.223742
Si Si5 0.176798 0.078907 0.764290
Si Si6 0.323050 0.212079 0.724198
Si Si7 0.677205 0.078908 0.886511
Si Si8 0.678616 0.419594 0.564603
O O1 0.787255 0.389291 0.284914
O O2 0.747205 0.264756 0.319955
O O3 0.759712 0.370133 0.392321
O O4 0.000000 0.329475 0.338736
O O5 0.500000 0.699945 0.845979
O O6 0.753773 0.735998 0.891752
O O7 0.741877 0.629470 0.820385
O O8 0.705732 0.753339 0.784942
O O9 0.751935 0.136812 0.924194
O O10 0.000000 0.207835 0.928584
O O11 0.791779 0.232013 0.000000
O O12 0.222227 0.500000 0.219875
O O13 0.000000 0.584790 0.216429
O O14 0.247649 0.137320 0.725689
O O15 0.253291 0.084963 0.824866
O O16 0.000000 0.089959 0.770122
O O17 0.201256 0.000000 0.745068
O O18 0.500000 0.207075 0.716981
O O19 0.500000 0.090584 0.883143
O O20 0.702556 0.000000 0.905709
O O21 0.714811 0.405186 0.500000
O O22 0.500000 0.413297 0.570794
O O23 0.717379 0.500000 0.575692
#
# Coordination Sequence:
#
# PCOD9382808 Si02
#       8
#     8   8   8   8   8   8   8   8
#     4  10  19  30  47  72 101 131 165 205 242 280
#     4  10  20  33  50  71  93 119 151 190 235 284
#     4  11  23  36  51  69  90 119 154 193 236 284
#     4   9  18  32  50  72  98 126 153 188 236 286
#     4  10  19  30  47  70  96 127 159 193 236 285
#     4  10  19  31  48  70  96 127 161 197 240 287
#     4  10  20  33  49  69  93 122 155 191 231 277
#     4   9  18  32  48  67  97 138 177 210 245 285
#
# _framework density 15.302197
#
# number of rings (size 3 to 8) (size 9 to 14) (size 15 to 20)
#    0.000    2.125    1.250    3.000    0.000    5.500 
#    0.000    1.875    0.000    0.375    0.000    2.625 
#    0.000    0.500    0.000    5.250    0.000    2.250 
#
# Total GULP energy -357156.743675 kJ/mol
# GULP energy per Si atom -5580.574120 kJ/mol
# Density = 1.526737 g / cm^3
# Si number density = 15.302197 Si / 1000 Ang^3
#
#
#
# Elastic Constant Matrix: (Units=GPa)
#
#
# Indices 1 2 3 4 5 6 
#
# 1 61.3335 55.3731 49.7039 0.0000 0.0000 0.0000
# 2 55.3731 106.4670 54.4107 0.0000 0.0000 0.0000
# 3 49.7039 54.4107 85.7146 0.0000 0.0000 0.0000
# 4 0.0000 0.0000 0.0000 27.0044 0.0000 0.0000
# 5 0.0000 0.0000 0.0000 0.0000 23.5015 0.0000
# 6 0.0000 0.0000 0.0000 0.0000 0.0000 29.0638
#
#
#
# Elastic Compliance Matrix: (Units=1/GPa)
#
#
# Indices 1 2 3 4 5 6 
#
# 1 0.040614 -0.013451 -0.015013 0.000000 0.000000 0.000000
# 2 -0.013451 0.018358 -0.003853 0.000000 0.000000 0.000000
# 3 -0.015013 -0.003853 0.022818 0.000000 0.000000 0.000000
# 4 0.000000 0.000000 0.000000 0.037031 0.000000 0.000000
# 5 0.000000 0.000000 0.000000 0.000000 0.042550 0.000000
# 6 0.000000 0.000000 0.000000 0.000000 0.000000 0.034407
#
#
# Mechanical properties :
#
#
# Convention : Reuss Voigt Hill
#
# Bulk Modulus (GPa) = 58.28848 63.61006 60.94927
# Shear Modulus (GPa) = 18.78773 22.18244 20.48509
#
# Velocity S-wave (km/s) = 3.50777 3.81152 3.66280
# Velocity P-wave (km/s) = 7.38784 7.81215 7.60296
#
# Compressibility (1/GPa) = 0.01715605
#
# Stress axis : x y z
#
# Youngs Moduli (GPa) = 24.62194 54.47328 43.82470
#
# Poissons Ratio (x) = 0.73272 0.65793
# Poissons Ratio (y) = 0.33119 0.16887
# Poissons Ratio (z) = 0.36964 0.20990
#
# Static dielectric constant tensor:
#      x y z
#    x 1.506090 0.000000 0.000000 
#    y 0.000000 1.507790 0.000000 
#    z 0.000000 0.000000 1.481750 
# 
# From -- ./inp_files/10059.got.cif
#   From: 2010.05.17/outbox.cif.g08.bks.cpg/sg47_6_cif.got.tgz:10059.got - 2010.06.03 20:15:42.
