data_PCOD9382240
_publ_section_title
;
Structure prediction by ZEFSAII (Michael W. Deem and Ramdas Pophale) SiO2 
 PCOD9382240
Probable space group: P M M M
;
_chemical_formula_sum "Si O2"
_cell_formula_units_Z 52
_cell_length_a 7.468473
_cell_length_b 12.445007
_cell_length_c 26.468164
_cell_angle_alpha 90.000000
_cell_angle_beta 90.000000
_cell_angle_gamma 90.000000
_cell_volume 2460.088764
_symmetry_space_group_name_H-M "P M M M"
_symmetry_group_IT_number 47
_symmetry_cell_setting 'orthorhombic'
loop_
_space_group_symop_operation_xyz
x,y,z
-x,-y,z
x,-y,-z
-x,y,-z
-x,-y,-z
x,y,-z
-x,y,z
x,-y,z
loop_
_atom_site_type_symbol
_atom_site_label
_atom_site_fract_x
_atom_site_fract_y
_atom_site_fract_z
Si Si1 0.784811 0.714231 0.836758
Si Si2 0.780409 0.260888 0.652593
Si Si3 0.205565 0.761354 0.943246
Si Si4 0.218054 0.876068 0.443614
Si Si5 0.700936 0.000000 0.939253
Si Si6 0.781289 0.124407 0.248530
Si Si7 0.799736 0.500000 0.662630
Si Si8 0.293338 0.500000 0.224961
O O1 0.711613 0.707684 0.893829
O O2 0.722434 0.814067 0.802341
O O3 0.746750 0.605783 0.806882
O O4 0.000000 0.725546 0.840981
O O5 0.724030 0.196991 0.602720
O O6 0.725988 0.195837 0.702995
O O7 0.717285 0.384164 0.650374
O O8 0.000000 0.263830 0.654249
O O9 0.000000 0.725675 0.947488
O O10 0.206722 0.887639 0.928085
O O11 0.284511 0.750435 0.000000
O O12 0.274280 0.842105 0.500000
O O13 0.000000 0.875134 0.443240
O O14 0.272235 0.000000 0.436131
O O15 0.500000 0.000000 0.918373
O O16 0.689942 0.000000 0.000000
O O17 0.000000 0.123809 0.248613
O O18 0.724276 0.000000 0.251414
O O19 0.812867 0.500000 0.723203
O O20 0.000000 0.500000 0.639917
O O21 0.500000 0.500000 0.239570
#
# Coordination Sequence:
#
# PCOD9382240 Si02
#       8
#     8   8   8   8   4   8   4   4
#     4  10  20  35  56  76 100 131 166 207 252 304
#     4   9  15  24  41  64  93 129 169 206 241 291
#     4   9  18  32  51  76 102 129 166 212 256 300
#     4   8  13  21  34  57  94 136 169 199 244 298
#     4   9  17  29  47  71 103 143 175 199 240 301
#     4   9  16  25  43  72  98 122 159 203 244 292
#     4  10  18  32  51  71  95 130 172 208 250 298
#     4  12  24  38  55  74  99 130 170 211 254 308
#
# _framework density 21.137449
#
# number of rings (size 3 to 8) (size 9 to 14) (size 15 to 20)
#    0.000    2.692    1.538    1.846    1.077    3.385 
#    0.000    0.769    0.000    4.615    0.000    0.000 
#    0.000    1.231    0.000    1.692    0.000    1.538 
#
# Total GULP energy -290017.962110 kJ/mol
# GULP energy per Si atom -5577.268502 kJ/mol
# Density = 2.108934 g / cm^3
# Si number density = 21.137449 Si / 1000 Ang^3
#
#
#
# Elastic Constant Matrix: (Units=GPa)
#
#
# Indices 1 2 3 4 5 6 
#
# 1 65.5741 0.4957 12.5937 0.0000 0.0000 0.0000
# 2 0.4957 130.9162 74.9619 0.0000 0.0000 0.0000
# 3 12.5937 74.9619 155.7441 0.0000 0.0000 0.0000
# 4 0.0000 0.0000 0.0000 54.9114 0.0000 0.0000
# 5 0.0000 0.0000 0.0000 0.0000 -15.8006 0.0000
# 6 0.0000 0.0000 0.0000 0.0000 0.0000 7.6022
#
#
#
# Elastic Compliance Matrix: (Units=1/GPa)
#
#
# Indices 1 2 3 4 5 6 
#
# 1 0.015569 0.000914 -0.001699 0.000000 0.000000 0.000000
# 2 0.000914 0.010598 -0.005175 0.000000 0.000000 0.000000
# 3 -0.001699 -0.005175 0.009049 0.000000 0.000000 0.000000
# 4 0.000000 0.000000 0.000000 0.018211 0.000000 0.000000
# 5 0.000000 0.000000 0.000000 0.000000 -0.063289 0.000000
# 6 0.000000 0.000000 0.000000 0.000000 0.000000 0.131542
#
#
# Mechanical properties :
#
#
# Convention : Reuss Voigt Hill
#
# Bulk Modulus (GPa) = 42.92497 58.70411 50.81454
# Shear Modulus (GPa) = 35.36924 26.95481 31.16203
#
# Velocity S-wave (km/s) = 4.09503 3.57489 3.84377
# Velocity P-wave (km/s) = 6.53534 6.69870 6.61753
#
# Compressibility (1/GPa) = 0.02329647
#
# Stress axis : x y z
#
# Youngs Moduli (GPa) = 64.22909 94.35610 110.51046
#
# Poissons Ratio (x) = -0.08622 0.18773
# Poissons Ratio (y) = -0.05869 0.57188
# Poissons Ratio (z) = 0.10911 0.48829
#
# Static dielectric constant tensor:
#      x y z
#    x 1.800640 0.000000 0.000000 
#    y 0.000000 1.679340 0.000000 
#    z 0.000000 0.000000 1.765140 
# 
# From -- ./inp_files/33333.got.cif
#   From: 2010.05.17/outbox.cif.g08.bks.cpg/sg47_17_cif.got.tgz:33333.got - 2010.06.03 20:15:42.
