data_PCOD9382399
_publ_section_title
;
Structure prediction by ZEFSAII (Michael W. Deem and Ramdas Pophale) SiO2 
 PCOD9382399
Probable space group: P M M M
;
_chemical_formula_sum "Si O2"
_cell_formula_units_Z 64
_cell_length_a 32.278198
_cell_length_b 14.976443
_cell_length_c 7.483129
_cell_angle_alpha 90.000000
_cell_angle_beta 90.000000
_cell_angle_gamma 90.000000
_cell_volume 3617.438790
_symmetry_space_group_name_H-M "P M M M"
_symmetry_group_IT_number 47
_symmetry_cell_setting 'orthorhombic'
loop_
_space_group_symop_operation_xyz
x,y,z
-x,-y,z
x,-y,-z
-x,y,-z
-x,-y,-z
x,y,-z
-x,y,z
x,-y,z
loop_
_atom_site_type_symbol
_atom_site_label
_atom_site_fract_x
_atom_site_fract_y
_atom_site_fract_z
Si Si1 0.044548 0.896100 0.714896
Si Si2 0.788907 0.782266 0.788790
Si Si3 0.707296 0.102541 0.715926
Si Si4 0.546581 0.897129 0.717797
Si Si5 0.626065 0.787528 0.280921
Si Si6 0.246977 0.400773 0.215636
Si Si7 0.864357 0.898128 0.211514
Si Si8 0.344558 0.598464 0.712622
O O1 0.043955 0.895951 0.500000
O O2 0.089264 0.859558 0.767844
O O3 0.000000 0.857789 0.775462
O O4 0.045099 0.000000 0.774280
O O5 0.748124 0.843224 0.769297
O O6 0.778587 0.683945 0.715468
O O7 0.828395 0.835165 0.713693
O O8 0.796464 0.770043 0.000000
O O9 0.706435 0.100969 0.500000
O O10 0.665876 0.154081 0.774742
O O11 0.708416 0.000000 0.778168
O O12 0.546794 0.896231 0.500000
O O13 0.500000 0.872032 0.774182
O O14 0.583541 0.833526 0.777367
O O15 0.554177 0.000000 0.770893
O O16 0.626277 0.787172 0.500000
O O17 0.632121 0.685852 0.218965
O O18 0.234854 0.500000 0.279167
O O19 0.295397 0.387649 0.260471
O O20 0.244266 0.401243 0.000000
O O21 0.863103 0.000000 0.284998
O O22 0.856860 0.906070 0.000000
O O23 0.351723 0.595470 0.500000
O O24 0.355028 0.500000 0.785666
#
# Coordination Sequence:
#
# PCOD9382399 Si02
#       8
#     8   8   8   8   8   8   8   8
#     4   8  14  25  40  57  77 102 134 171 205 233
#     4  10  19  30  42  57  82 112 138 167 203 243
#     4  10  19  28  39  57  80 107 138 168 197 233
#     4   8  13  21  34  52  74 102 133 162 196 239
#     4   9  15  24  37  54  77 102 130 166 202 236
#     4   9  17  29  44  60  78 103 137 174 207 239
#     4   9  17  27  38  54  78 109 139 162 191 235
#     4   9  16  26  41  59  78 101 129 162 203 248
#
# _framework density 17.692074999999999
#
# number of rings (size 3 to 8) (size 9 to 14) (size 15 to 20)
#    0.000    3.000    1.250    1.500    0.000    3.000 
#    0.000    2.500    0.000    0.375    0.000    2.625 
#    0.000    2.500    0.000   16.250    0.000   10.750 
#
# Total GULP energy -356668.974673 kJ/mol
# GULP energy per Si atom -5572.952729 kJ/mol
# Density = 1.765181 g / cm^3
# Si number density = 17.692075 Si / 1000 Ang^3
#
#
#
# Elastic Constant Matrix: (Units=GPa)
#
#
# Indices 1 2 3 4 5 6 
#
# 1 154.7795 93.6377 -2.7674 0.0000 0.0000 0.0000
# 2 93.6377 144.3503 3.5639 0.0000 0.0000 0.0000
# 3 -2.7674 3.5639 47.3671 0.0000 0.0000 0.0000
# 4 0.0000 0.0000 0.0000 4.3384 0.0000 0.0000
# 5 0.0000 0.0000 0.0000 0.0000 14.3088 0.0000
# 6 0.0000 0.0000 0.0000 0.0000 0.0000 8.3560
#
#
#
# Elastic Compliance Matrix: (Units=1/GPa)
#
#
# Indices 1 2 3 4 5 6 
#
# 1 0.010696 -0.006967 0.001149 0.000000 0.000000 0.000000
# 2 -0.006967 0.011478 -0.001271 0.000000 0.000000 0.000000
# 3 0.001149 -0.001271 0.021274 0.000000 0.000000 0.000000
# 4 0.000000 0.000000 0.000000 0.230502 0.000000 0.000000
# 5 0.000000 0.000000 0.000000 0.000000 0.069887 0.000000
# 6 0.000000 0.000000 0.000000 0.000000 0.000000 0.119674
#
#
# Mechanical properties :
#
#
# Convention : Reuss Voigt Hill
#
# Bulk Modulus (GPa) = 34.16221 59.48501 46.82361
# Shear Modulus (GPa) = 10.25754 22.20481 16.23118
#
# Velocity S-wave (km/s) = 2.41048 3.54654 3.03219
# Velocity P-wave (km/s) = 5.20562 7.10394 6.22754
#
# Compressibility (1/GPa) = 0.02927211
#
# Stress axis : x y z
#
# Youngs Moduli (GPa) = 93.49256 87.12198 47.00473
#
# Poissons Ratio (x) = 0.60695 -0.05401
# Poissons Ratio (y) = 0.65134 0.05973
# Poissons Ratio (z) = -0.10743 0.11070
#
# Static dielectric constant tensor:
#      x y z
#    x 1.599700 0.000000 0.000000 
#    y 0.000000 1.613790 0.000000 
#    z 0.000000 0.000000 1.710360 
# 
# From -- ./inp_files/14311.got.cif
#   From: 2010.05.17/outbox.cif.g08.bks.cpg/sg47_8_cif.got.tgz:14311.got - 2010.06.03 20:15:42.
