data_PCOD9382085
_publ_section_title
;
Structure prediction by ZEFSAII (Michael W. Deem and Ramdas Pophale) SiO2 
 PCOD9382085
Probable space group: P M M M
;
_chemical_formula_sum "Si O2"
_cell_formula_units_Z 52
_cell_length_a 9.101621
_cell_length_b 22.497187
_cell_length_c 13.415095
_cell_angle_alpha 90.000000
_cell_angle_beta 90.000000
_cell_angle_gamma 90.000000
_cell_volume 2746.886519
_symmetry_space_group_name_H-M "P M M M"
_symmetry_group_IT_number 47
_symmetry_cell_setting 'orthorhombic'
loop_
_space_group_symop_operation_xyz
x,y,z
-x,-y,z
x,-y,-z
-x,y,-z
-x,-y,-z
x,y,-z
-x,y,z
x,-y,z
loop_
_atom_site_type_symbol
_atom_site_label
_atom_site_fract_x
_atom_site_fract_y
_atom_site_fract_z
Si Si1 0.172508 0.893397 0.883251
Si Si2 0.678787 0.430841 0.000000
Si Si3 0.822284 0.685304 0.383912
Si Si4 0.674696 0.064258 0.302952
Si Si5 0.663849 0.224353 0.119572
Si Si6 0.166536 0.180654 0.380793
Si Si7 0.325614 0.357885 0.194826
O O1 0.268642 0.932923 0.810469
O O2 0.216972 0.825507 0.855794
O O3 0.000000 0.903728 0.868829
O O4 0.206116 0.902088 0.000000
O O5 0.727000 0.399268 0.103152
O O6 0.718260 0.500000 0.000000
O O7 0.500000 0.425828 0.000000
O O8 0.781435 0.673640 0.500000
O O9 0.774454 0.753237 0.356497
O O10 0.755764 0.641323 0.301259
O O11 0.000000 0.684840 0.379189
O O12 0.500000 0.067597 0.307408
O O13 0.742417 0.122847 0.352024
O O14 0.720830 0.000000 0.346483
O O15 0.500000 0.205461 0.154595
O O16 0.692576 0.290451 0.156070
O O17 0.659324 0.227221 0.000000
O O18 0.157480 0.181749 0.500000
O O19 0.000000 0.174936 0.341418
O O20 0.500000 0.368658 0.209497
#
# Coordination Sequence:
#
# PCOD9382085 Si02
#       7
#     8   4   8   8   8   8   8
#     4  10  21  35  51  72  97 127 167 214 263 318
#     4   9  18  34  55  81 117 157 190 223 266 307
#     4   9  19  35  54  79 111 143 174 217 276 329
#     4  11  24  38  51  70  97 131 171 214 262 317
#     4   9  16  28  47  73 105 133 161 205 265 326
#     4   9  19  37  59  80 103 132 167 210 262 319
#     4  10  18  30  52  81 110 143 185 225 261 312
#
# _framework density 18.930524999999999
#
# number of rings (size 3 to 8) (size 9 to 14) (size 15 to 20)
#    0.000    2.385    0.769    2.769    0.000    7.077 
#    0.000    5.000    0.000    1.385    0.000    3.231 
#    0.000    0.000    0.000    0.000    0.000    0.000 
#
# Total GULP energy -289949.524758 kJ/mol
# GULP energy per Si atom -5575.952399 kJ/mol
# Density = 1.888744 g / cm^3
# Si number density = 18.930525 Si / 1000 Ang^3
#
#
#
# Elastic Constant Matrix: (Units=GPa)
#
#
# Indices 1 2 3 4 5 6 
#
# 1 31.5756 30.8274 25.0802 0.0000 0.0000 0.0000
# 2 30.8274 74.8843 63.1371 0.0000 0.0000 0.0000
# 3 25.0802 63.1371 98.3655 0.0000 0.0000 0.0000
# 4 0.0000 0.0000 0.0000 13.6643 0.0000 0.0000
# 5 0.0000 0.0000 0.0000 0.0000 28.9177 0.0000
# 6 0.0000 0.0000 0.0000 0.0000 0.0000 6.3476
#
#
#
# Elastic Compliance Matrix: (Units=1/GPa)
#
#
# Indices 1 2 3 4 5 6 
#
# 1 0.053004 -0.022722 0.001070 0.000000 0.000000 0.000000
# 2 -0.022722 0.038845 -0.019140 0.000000 0.000000 0.000000
# 3 0.001070 -0.019140 0.022178 0.000000 0.000000 0.000000
# 4 0.000000 0.000000 0.000000 0.073183 0.000000 0.000000
# 5 0.000000 0.000000 0.000000 0.000000 0.034581 0.000000
# 6 0.000000 0.000000 0.000000 0.000000 0.000000 0.157540
#
#
# Mechanical properties :
#
#
# Convention : Reuss Voigt Hill
#
# Bulk Modulus (GPa) = 30.82261 49.21276 40.01769
# Shear Modulus (GPa) = 10.59928 15.50464 13.05196
#
# Velocity S-wave (km/s) = 2.36880 2.86497 2.62862
# Velocity P-wave (km/s) = 4.87841 6.08252 5.51344
#
# Compressibility (1/GPa) = 0.03244371
#
# Stress axis : x y z
#
# Youngs Moduli (GPa) = 18.86662 25.74313 45.08878
#
# Poissons Ratio (x) = 0.58494 -0.04825
# Poissons Ratio (y) = 0.42869 0.86299
# Poissons Ratio (z) = -0.02019 0.49272
#
# Static dielectric constant tensor:
#      x y z
#    x 1.656380 0.000000 0.000000 
#    y 0.000000 1.655000 0.000000 
#    z 0.000000 0.000000 1.708960 
# 
# From -- ./inp_files/21483.got.cif
#   From: 2010.05.17/outbox.cif.g08.bks.cpg/sg47_11_cif.got.tgz:21483.got - 2010.06.03 20:15:42.
