data_PCOD9382280
_publ_section_title
;
Structure prediction by ZEFSAII (Michael W. Deem and Ramdas Pophale) SiO2 
 PCOD9382280
Probable space group: P M M M
;
_chemical_formula_sum "Si O2"
_cell_formula_units_Z 52
_cell_length_a 12.445900
_cell_length_b 28.379560
_cell_length_c 7.862236
_cell_angle_alpha 90.000000
_cell_angle_beta 90.000000
_cell_angle_gamma 90.000000
_cell_volume 2777.013819
_symmetry_space_group_name_H-M "P M M M"
_symmetry_group_IT_number 47
_symmetry_cell_setting 'orthorhombic'
loop_
_space_group_symop_operation_xyz
x,y,z
-x,-y,z
x,-y,-z
-x,y,-z
-x,-y,-z
x,y,-z
-x,y,z
x,-y,z
loop_
_atom_site_type_symbol
_atom_site_label
_atom_site_fract_x
_atom_site_fract_y
_atom_site_fract_z
Si Si1 0.000000 0.555094 0.791717
Si Si2 0.376122 0.500000 0.703988
Si Si3 0.375250 0.323915 0.791988
Si Si4 0.500000 0.945440 0.291060
Si Si5 0.620867 0.781213 0.202674
Si Si6 0.767789 0.410104 0.796263
Si Si7 0.694161 0.880139 0.302363
Si Si8 0.875615 0.948280 0.794738
O O1 0.888603 0.579064 0.733271
O O2 0.000000 0.500000 0.742106
O O3 0.000000 0.555877 0.000000
O O4 0.500000 0.500000 0.766107
O O5 0.378929 0.500000 0.500000
O O6 0.309803 0.545654 0.762033
O O7 0.500000 0.333066 0.743012
O O8 0.346227 0.270731 0.735488
O O9 0.292848 0.363551 0.730368
O O10 0.373731 0.325178 0.000000
O O11 0.500000 0.946908 0.500000
O O12 0.602915 0.915375 0.230828
O O13 0.500000 0.000000 0.235084
O O14 0.500000 0.791052 0.268700
O O15 0.690561 0.827191 0.235144
O O16 0.613484 0.776572 0.000000
O O17 0.777119 0.405124 0.000000
O O18 0.670077 0.875965 0.500000
O O19 0.805586 0.906294 0.275178
O O20 0.000000 0.944798 0.745418
O O21 0.834731 0.000000 0.738666
O O22 0.870931 0.947219 0.000000
#
# Coordination Sequence:
#
# PCOD9382280 Si02
#       8
#     4   4   8   4   8   8   8   8
#     4   9  16  28  48  78 106 128 162 210 247 280
#     4  11  23  34  45  70 108 137 162 203 256 303
#     4   8  15  28  49  75  96 122 167 216 255 293
#     4   9  18  30  43  67 105 137 161 198 243 286
#     4   9  17  31  50  71  99 133 168 209 255 301
#     4  10  18  32  54  75  99 133 172 209 247 295
#     4  11  20  31  50  75 104 136 170 205 246 299
#     4   9  19  36  55  74  98 129 166 209 255 302
#
# _framework density 18.725149999999999
#
# number of rings (size 3 to 8) (size 9 to 14) (size 15 to 20)
#    0.000    2.538    1.538    3.000    0.000    2.462 
#    0.000    2.308    1.692    2.769    0.000    0.000 
#    0.000    0.000    0.000    0.000    0.000    0.000 
#
# Total GULP energy -289953.624845 kJ/mol
# GULP energy per Si atom -5576.031247 kJ/mol
# Density = 1.868253 g / cm^3
# Si number density = 18.725150 Si / 1000 Ang^3
#
#
#
# Elastic Constant Matrix: (Units=GPa)
#
#
# Indices 1 2 3 4 5 6 
#
# 1 114.0763 90.6180 3.0171 0.0000 0.0000 0.0000
# 2 90.6180 188.0849 6.8079 0.0000 0.0000 0.0000
# 3 3.0171 6.8079 14.9205 0.0000 0.0000 0.0000
# 4 0.0000 0.0000 0.0000 -16.9823 0.0000 0.0000
# 5 0.0000 0.0000 0.0000 0.0000 8.3234 0.0000
# 6 0.0000 0.0000 0.0000 0.0000 0.0000 19.9187
#
#
#
# Elastic Compliance Matrix: (Units=1/GPa)
#
#
# Indices 1 2 3 4 5 6 
#
# 1 0.014202 -0.006852 0.000254 0.000000 0.000000 0.000000
# 2 -0.006852 0.008712 -0.002589 0.000000 0.000000 0.000000
# 3 0.000254 -0.002589 0.068152 0.000000 0.000000 0.000000
# 4 0.000000 0.000000 0.000000 -0.058885 0.000000 0.000000
# 5 0.000000 0.000000 0.000000 0.000000 0.120144 0.000000
# 6 0.000000 0.000000 0.000000 0.000000 0.000000 0.050204
#
#
# Mechanical properties :
#
#
# Convention : Reuss Voigt Hill
#
# Bulk Modulus (GPa) = 13.75661 57.55196 35.65429
# Shear Modulus (GPa) = 20.39714 16.69453 18.54584
#
# Velocity S-wave (km/s) = 3.30402 2.98913 3.15051
# Velocity P-wave (km/s) = 4.68166 6.53568 5.68476
#
# Compressibility (1/GPa) = 0.07269232
#
# Stress axis : x y z
#
# Youngs Moduli (GPa) = 70.41250 114.79017 14.67310
#
# Poissons Ratio (x) = 0.78650 -0.00373
# Poissons Ratio (y) = 0.48244 0.03799
# Poissons Ratio (z) = -0.01792 0.29724
#
# Static dielectric constant tensor:
#      x y z
#    x 1.640050 0.000000 0.000000 
#    y 0.000000 1.660080 0.000000 
#    z 0.000000 0.000000 1.681000 
# 
# From -- ./inp_files/4639.got.cif
#   From: 2010.05.17/outbox.cif.g08.bks.cpg/sg47_3_cif.got.tgz:4639.got - 2010.06.03 20:15:42.
