data_PCOD9382418
_publ_section_title
;
Structure prediction by ZEFSAII (Michael W. Deem and Ramdas Pophale) SiO2 
 PCOD9382418
Probable space group: P M M M
;
_chemical_formula_sum "Si O2"
_cell_formula_units_Z 56
_cell_length_a 21.984195
_cell_length_b 18.613928
_cell_length_c 9.179551
_cell_angle_alpha 90.000000
_cell_angle_beta 90.000000
_cell_angle_gamma 90.000000
_cell_volume 3756.384470
_symmetry_space_group_name_H-M "P M M M"
_symmetry_group_IT_number 47
_symmetry_cell_setting 'orthorhombic'
loop_
_space_group_symop_operation_xyz
x,y,z
-x,-y,z
x,-y,-z
-x,y,-z
-x,-y,-z
x,y,-z
-x,y,z
x,-y,z
loop_
_atom_site_type_symbol
_atom_site_label
_atom_site_fract_x
_atom_site_fract_y
_atom_site_fract_z
Si Si1 0.867699 0.199471 0.333314
Si Si2 0.318840 0.839934 0.675121
Si Si3 0.570922 0.915160 0.826896
Si Si4 0.182236 0.416330 0.173419
Si Si5 0.746412 0.700646 0.333295
Si Si6 0.204351 0.084360 0.826958
Si Si7 0.931047 0.340362 0.675591
O O1 0.878782 0.176378 0.500000
O O2 0.806854 0.249064 0.333850
O O3 0.851161 0.132377 0.233304
O O4 0.918845 0.256468 0.286704
O O5 0.314613 0.845611 0.500000
O O6 0.382400 0.868573 0.734745
O O7 0.305617 0.756474 0.713739
O O8 0.265168 0.887224 0.747239
O O9 0.500000 0.900021 0.795994
O O10 0.581333 0.000000 0.798200
O O11 0.580938 0.904061 0.000000
O O12 0.191186 0.500000 0.207862
O O13 0.236393 0.366554 0.234538
O O14 0.119958 0.387937 0.246807
O O15 0.177711 0.407815 0.000000
O O16 0.735838 0.677638 0.500000
O O17 0.196098 0.000000 0.798274
O O18 0.211116 0.094968 0.000000
O O19 0.922874 0.345630 0.500000
O O20 0.000000 0.361094 0.711429
#
# Coordination Sequence:
#
# PCOD9382418 Si02
#       7
#     8   8   8   8   8   8   8
#     4   8  15  28  44  61  80 102 133 175 215 249
#     4  10  19  29  43  64  87 111 145 185 217 249
#     4   9  18  31  44  60  87 123 158 187 215 250
#     4  10  20  31  44  66  93 115 137 169 207 247
#     4   8  16  30  45  62  84 111 142 174 210 253
#     4  10  19  28  40  60  84 109 138 173 215 262
#     4   9  18  32  48  64  82 108 142 173 203 248
#
# _framework density 14.907952
#
# number of rings (size 3 to 8) (size 9 to 14) (size 15 to 20)
#    0.000    2.857    0.000    3.857    0.000   10.857 
#    0.000    2.143    0.000    0.429    0.000    3.000 
#    0.000    0.571    0.000    6.286    0.000    4.571 
#
# Total GULP energy -311905.894903 kJ/mol
# GULP energy per Si atom -5569.748123 kJ/mol
# Density = 1.487402 g / cm^3
# Si number density = 14.907952 Si / 1000 Ang^3
#
#
#
# Elastic Constant Matrix: (Units=GPa)
#
#
# Indices 1 2 3 4 5 6 
#
# 1 48.0345 44.6920 30.9158 0.0000 0.0000 0.0000
# 2 44.6920 113.2142 65.7208 0.0000 0.0000 0.0000
# 3 30.9158 65.7208 58.4226 0.0000 0.0000 0.0000
# 4 0.0000 0.0000 0.0000 26.5943 0.0000 0.0000
# 5 0.0000 0.0000 0.0000 0.0000 20.8539 0.0000
# 6 0.0000 0.0000 0.0000 0.0000 0.0000 18.7193
#
#
#
# Elastic Compliance Matrix: (Units=1/GPa)
#
#
# Indices 1 2 3 4 5 6 
#
# 1 0.034279 -0.008651 -0.008408 0.000000 0.000000 0.000000
# 2 -0.008651 0.027639 -0.026514 0.000000 0.000000 0.000000
# 3 -0.008408 -0.026514 0.051392 0.000000 0.000000 0.000000
# 4 0.000000 0.000000 0.000000 0.037602 0.000000 0.000000
# 5 0.000000 0.000000 0.000000 0.000000 0.047953 0.000000
# 6 0.000000 0.000000 0.000000 0.000000 0.000000 0.053421
#
#
# Mechanical properties :
#
#
# Convention : Reuss Voigt Hill
#
# Bulk Modulus (GPa) = 38.21981 55.81427 47.01704
# Shear Modulus (GPa) = 14.36148 18.45633 16.40891
#
# Velocity S-wave (km/s) = 3.10715 3.52237 3.32125
# Velocity P-wave (km/s) = 6.21010 7.35277 6.80546
#
# Compressibility (1/GPa) = 0.02616444
#
# Stress axis : x y z
#
# Youngs Moduli (GPa) = 29.17258 36.18021 19.45820
#
# Poissons Ratio (x) = 0.31300 0.16360
# Poissons Ratio (y) = 0.25238 0.51592
# Poissons Ratio (z) = 0.24527 0.95929
#
# Static dielectric constant tensor:
#      x y z
#    x 1.492090 0.000000 0.000000 
#    y 0.000000 1.496420 0.000000 
#    z 0.000000 0.000000 1.497880 
# 
# From -- ./inp_files/12797.got.cif
#   From: 2010.05.17/outbox.cif.g08.bks.cpg/sg47_7_cif.got.tgz:12797.got - 2010.06.03 20:15:42.
