data_PCOD9382643
_publ_section_title
;
Structure prediction by ZEFSAII (Michael W. Deem and Ramdas Pophale) SiO2 
 PCOD9382643
Probable space group: P M M M
;
_chemical_formula_sum "Si O2"
_cell_formula_units_Z 48
_cell_length_a 18.565860
_cell_length_b 22.660445
_cell_length_c 9.031648
_cell_angle_alpha 90.000000
_cell_angle_beta 90.000000
_cell_angle_gamma 90.000000
_cell_volume 3799.710495
_symmetry_space_group_name_H-M "P M M M"
_symmetry_group_IT_number 47
_symmetry_cell_setting 'orthorhombic'
loop_
_space_group_symop_operation_xyz
x,y,z
-x,-y,z
x,-y,-z
-x,y,-z
-x,-y,-z
x,y,-z
-x,y,z
x,-y,z
loop_
_atom_site_type_symbol
_atom_site_label
_atom_site_fract_x
_atom_site_fract_y
_atom_site_fract_z
Si Si1 0.579917 0.928476 0.327723
Si Si2 0.087538 0.620351 0.329581
Si Si3 0.914240 0.257056 0.176692
Si Si4 0.000000 0.932793 0.320283
Si Si5 0.727707 0.929917 0.823763
Si Si6 0.087836 0.500000 0.171276
Si Si7 0.141849 0.140173 0.321746
O O1 0.590275 0.911739 0.500000
O O2 0.500000 0.908271 0.279813
O O3 0.648245 0.910994 0.230671
O O4 0.578334 0.000000 0.323761
O O5 0.110982 0.623680 0.500000
O O6 0.107417 0.679077 0.240057
O O7 0.111613 0.559676 0.253007
O O8 0.000000 0.618771 0.329591
O O9 0.870820 0.204812 0.254732
O O10 0.000000 0.248941 0.209249
O O11 0.905502 0.255232 0.000000
O O12 0.071803 0.898247 0.276074
O O13 0.000000 0.934358 0.500000
O O14 0.000000 0.000000 0.266222
O O15 0.788129 0.892236 0.741143
O O16 0.736560 0.000000 0.788609
O O17 0.734101 0.923270 0.000000
O O18 0.000000 0.500000 0.174029
O O19 0.109583 0.500000 0.000000
O O20 0.144395 0.142794 0.500000
#
# Coordination Sequence:
#
# PCOD9382643 Si02
#       7
#     8   8   8   4   8   4   8
#     4   8  14  26  44  63  80  98 120 145 177 222
#     4   9  16  25  38  54  72  93 120 150 183 224
#     4  10  19  30  42  55  73  95 122 157 198 237
#     4   9  18  30  43  57  69  86 119 162 203 239
#     4  10  20  31  42  59  81 101 122 152 194 238
#     4   9  15  23  35  53  75  95 115 143 186 227
#     4  11  20  31  45  57  73  96 128 164 198 236
#
# _framework density 12.632541
#
# number of rings (size 3 to 8) (size 9 to 14) (size 15 to 20)
#    0.000    2.500    0.833    3.250    0.000    5.667 
#    0.000    1.667    0.000    2.000    0.000    0.000 
#    0.000    0.000    0.000    0.000    0.000    0.000 
#
# Total GULP energy -267466.048815 kJ/mol
# GULP energy per Si atom -5572.209350 kJ/mol
# Density = 1.260379 g / cm^3
# Si number density = 12.632541 Si / 1000 Ang^3
#
#
#
# Elastic Constant Matrix: (Units=GPa)
#
#
# Indices 1 2 3 4 5 6 
#
# 1 70.9627 39.5269 38.9541 0.0000 0.0000 0.0000
# 2 39.5269 97.1695 48.1594 0.0000 0.0000 0.0000
# 3 38.9541 48.1594 72.1359 0.0000 0.0000 0.0000
# 4 0.0000 0.0000 0.0000 21.5796 0.0000 0.0000
# 5 0.0000 0.0000 0.0000 0.0000 14.0210 0.0000
# 6 0.0000 0.0000 0.0000 0.0000 0.0000 1.7643
#
#
#
# Elastic Compliance Matrix: (Units=1/GPa)
#
#
# Indices 1 2 3 4 5 6 
#
# 1 0.021224 -0.004414 -0.008515 0.000000 0.000000 0.000000
# 2 -0.004414 0.016298 -0.008498 0.000000 0.000000 0.000000
# 3 -0.008515 -0.008498 0.024134 0.000000 0.000000 0.000000
# 4 0.000000 0.000000 0.000000 0.046340 0.000000 0.000000
# 5 0.000000 0.000000 0.000000 0.000000 0.071322 0.000000
# 6 0.000000 0.000000 0.000000 0.000000 0.000000 0.566806
#
#
# Mechanical properties :
#
#
# Convention : Reuss Voigt Hill
#
# Bulk Modulus (GPa) = 53.17854 54.83880 54.00867
# Shear Modulus (GPa) = 6.28737 15.04814 10.66776
#
# Velocity S-wave (km/s) = 2.23337 3.45515 2.90912
# Velocity P-wave (km/s) = 6.98845 7.70859 7.35734
#
# Compressibility (1/GPa) = 0.01880458
#
# Stress axis : x y z
#
# Youngs Moduli (GPa) = 47.11552 61.35595 41.43523
#
# Poissons Ratio (x) = 0.27080 0.35281
# Poissons Ratio (y) = 0.20795 0.35210
# Poissons Ratio (z) = 0.40118 0.52139
#
# Static dielectric constant tensor:
#      x y z
#    x 1.394800 0.000000 0.000000 
#    y 0.000000 1.399670 0.000000 
#    z 0.000000 0.000000 1.418790 
# 
# From -- ./inp_files/9721.got.cif
#   From: 2010.05.17/outbox.cif.g08.bks.cpg/sg47_5_cif.got.tgz:9721.got - 2010.06.03 20:15:42.
