data_PCOD9382284
_publ_section_title
;
Structure prediction by ZEFSAII (Michael W. Deem and Ramdas Pophale) SiO2 
 PCOD9382284
Probable space group: P M M M
;
_chemical_formula_sum "Si O2"
_cell_formula_units_Z 40
_cell_length_a 12.179152
_cell_length_b 7.886404
_cell_length_c 21.286244
_cell_angle_alpha 90.000000
_cell_angle_beta 90.000000
_cell_angle_gamma 90.000000
_cell_volume 2044.537628
_symmetry_space_group_name_H-M "P M M M"
_symmetry_group_IT_number 47
_symmetry_cell_setting 'orthorhombic'
loop_
_space_group_symop_operation_xyz
x,y,z
-x,-y,z
x,-y,-z
-x,y,-z
-x,-y,-z
x,y,-z
-x,y,z
x,-y,z
loop_
_atom_site_type_symbol
_atom_site_label
_atom_site_fract_x
_atom_site_fract_y
_atom_site_fract_z
Si Si1 0.624954 0.704555 0.691052
Si Si2 0.000000 0.193743 0.750171
Si Si3 0.764516 0.797144 0.568413
Si Si4 0.770982 0.698119 0.195427
Si Si5 0.127017 0.707400 0.928782
Si Si6 0.000000 0.694542 0.612387
O O1 0.500000 0.766083 0.686647
O O2 0.622995 0.500000 0.695867
O O3 0.693279 0.744334 0.628371
O O4 0.686265 0.771420 0.753710
O O5 0.109199 0.285852 0.773248
O O6 0.000000 0.194592 0.675064
O O7 0.000000 0.000000 0.772988
O O8 0.720223 0.742090 0.500000
O O9 0.888217 0.729508 0.575693
O O10 0.769813 0.000000 0.568986
O O11 0.742691 0.500000 0.187811
O O12 0.791162 0.769457 0.125515
O O13 0.127735 0.500000 0.927292
O O14 0.000000 0.757269 0.915655
O O15 0.153734 0.759020 0.000000
O O16 0.000000 0.500000 0.633371
#
# Coordination Sequence:
#
# PCOD9382284 Si02
#       6
#     8   4   8   8   8   4
#     4  10  22  38  56  78 103 138 187 236 274 314
#     4  12  22  31  50  81 112 139 172 217 268 320
#     4  11  24  40  58  82 111 141 174 218 271 324
#     4  10  18  32  54  76 104 142 181 220 267 320
#     4   8  13  22  42  75 108 137 174 216 260 316
#     4  12  23  37  58  84 113 143 174 210 261 326
#
# _framework density 19.564325
#
# number of rings (size 3 to 8) (size 9 to 14) (size 15 to 20)
#    0.000    1.800    3.000    3.300    0.000    3.600 
#    0.000    2.000    0.000    1.800    0.000    4.200 
#    0.000    0.000    0.000    3.600    0.000    4.000 
#
# Total GULP energy -223210.101525 kJ/mol
# GULP energy per Si atom -5580.252538 kJ/mol
# Density = 1.951980 g / cm^3
# Si number density = 19.564325 Si / 1000 Ang^3
#
#
#
# Elastic Constant Matrix: (Units=GPa)
#
#
# Indices 1 2 3 4 5 6 
#
# 1 124.5283 2.9864 80.5950 0.0000 0.0000 0.0000
# 2 2.9864 35.7883 8.3055 0.0000 0.0000 0.0000
# 3 80.5950 8.3055 188.1557 0.0000 0.0000 0.0000
# 4 0.0000 0.0000 0.0000 -361.5977 0.0000 0.0000
# 5 0.0000 0.0000 0.0000 0.0000 -0.9805 0.0000
# 6 0.0000 0.0000 0.0000 0.0000 0.0000 -14.0390
#
#
#
# Elastic Compliance Matrix: (Units=1/GPa)
#
#
# Indices 1 2 3 4 5 6 
#
# 1 0.011111 0.000179 -0.004767 0.000000 0.000000 0.000000
# 2 0.000179 0.028234 -0.001323 0.000000 0.000000 0.000000
# 3 -0.004767 -0.001323 0.007415 0.000000 0.000000 0.000000
# 4 0.000000 0.000000 0.000000 -0.002766 0.000000 0.000000
# 5 0.000000 0.000000 0.000000 0.000000 -1.019851 0.000000
# 6 0.000000 0.000000 0.000000 0.000000 0.000000 -0.071230
#
#
# Mechanical properties :
#
#
# Convention : Reuss Voigt Hill
#
# Bulk Modulus (GPa) = 28.62186 59.13845 43.88015
# Shear Modulus (GPa) = -4.88464 -58.21776 -31.55120
#
# Velocity S-wave (km/s) = -1.58181 -5.46092 -4.02019
# Velocity P-wave (km/s) = 3.36529 3.07717 0.96339
#
# Compressibility (1/GPa) = 0.03493833
#
# Stress axis : x y z
#
# Youngs Moduli (GPa) = 89.99689 35.41804 134.85740
#
# Poissons Ratio (x) = -0.00635 0.64292
# Poissons Ratio (y) = -0.01613 0.17842
# Poissons Ratio (z) = 0.42905 0.04686
#
# Static dielectric constant tensor:
#      x y z
#    x 1.655900 0.000000 0.000000 
#    y 0.000000 1.709500 0.000000 
#    z 0.000000 0.000000 1.726890 
# 
# From -- ./inp_files/4110.got.cif
#   From: 2010.05.17/outbox.cif.g08.bks.cpg/sg47_3_cif.got.tgz:4110.got - 2010.06.03 20:15:42.
