data_PCOD9382390
_publ_section_title
;
Structure prediction by ZEFSAII (Michael W. Deem and Ramdas Pophale) SiO2 
 PCOD9382390
Probable space group: P M M M
;
_chemical_formula_sum "Si O2"
_cell_formula_units_Z 64
_cell_length_a 24.396723
_cell_length_b 7.603293
_cell_length_c 19.888359
_cell_angle_alpha 90.000000
_cell_angle_beta 90.000000
_cell_angle_gamma 90.000000
_cell_volume 3689.199769
_symmetry_space_group_name_H-M "P M M M"
_symmetry_group_IT_number 47
_symmetry_cell_setting 'orthorhombic'
loop_
_space_group_symop_operation_xyz
x,y,z
-x,-y,z
x,-y,-z
-x,y,-z
-x,-y,-z
x,y,-z
-x,y,z
x,-y,z
loop_
_atom_site_type_symbol
_atom_site_label
_atom_site_fract_x
_atom_site_fract_y
_atom_site_fract_z
Si Si1 0.739835 0.284842 0.574951
Si Si2 0.170912 0.707193 0.152707
Si Si3 0.061576 0.212154 0.923175
Si Si4 0.387495 0.712413 0.425095
Si Si5 0.560436 0.207626 0.284486
Si Si6 0.278580 0.793679 0.074649
Si Si7 0.220429 0.294893 0.712670
Si Si8 0.331345 0.785000 0.210666
O O1 0.757122 0.231272 0.500000
O O2 0.739956 0.500000 0.576429
O O3 0.676066 0.232321 0.584043
O O4 0.775720 0.220081 0.637554
O O5 0.182560 0.500000 0.155480
O O6 0.110074 0.733127 0.125719
O O7 0.216098 0.781099 0.101230
O O8 0.182886 0.780642 0.227497
O O9 0.000000 0.270917 0.904794
O O10 0.061080 0.000000 0.924228
O O11 0.072674 0.271271 0.000000
O O12 0.405211 0.769291 0.500000
O O13 0.388166 0.500000 0.424452
O O14 0.423187 0.773389 0.362599
O O15 0.500000 0.283118 0.272403
O O16 0.610775 0.277134 0.239917
O O17 0.557955 0.000000 0.269862
O O18 0.316394 0.724350 0.135244
O O19 0.291560 0.000000 0.069838
O O20 0.284035 0.716425 0.000000
O O21 0.205497 0.500000 0.705360
O O22 0.281965 0.280264 0.742252
O O23 0.329609 0.000000 0.212295
#
# Coordination Sequence:
#
# PCOD9382390 Si02
#       8
#     8   8   8   8   8   8   8   8
#     4   8  13  23  41  61  80 105 135 165 198 238
#     4  10  19  27  40  66  94 115 136 168 209 247
#     4   9  18  32  47  61  82 118 158 184 200 227
#     4   9  17  29  45  62  78 101 136 172 200 234
#     4  10  20  31  42  57  79 106 133 165 208 255
#     4   9  17  29  45  62  80 105 136 170 206 245
#     4   9  16  27  43  62  85 109 134 167 206 246
#     4   9  17  29  43  58  77 102 133 166 203 249
#
# _framework density 17.347935
#
# number of rings (size 3 to 8) (size 9 to 14) (size 15 to 20)
#    0.000    2.875    1.250    1.875    0.000    3.500 
#    0.000    1.875    0.000    0.750    0.000    2.625 
#    0.000    0.500    0.000   13.625    0.000    8.750 
#
# Total GULP energy -356628.114243 kJ/mol
# GULP energy per Si atom -5572.314285 kJ/mol
# Density = 1.730845 g / cm^3
# Si number density = 17.347935 Si / 1000 Ang^3
#
#
#
# Elastic Constant Matrix: (Units=GPa)
#
#
# Indices 1 2 3 4 5 6 
#
# 1 99.6960 -6.9515 64.0381 0.0000 0.0000 0.0000
# 2 -6.9515 34.2454 -6.6598 0.0000 0.0000 0.0000
# 3 64.0381 -6.6598 138.0538 0.0000 0.0000 0.0000
# 4 0.0000 0.0000 0.0000 12.6325 0.0000 0.0000
# 5 0.0000 0.0000 0.0000 0.0000 23.8452 0.0000
# 6 0.0000 0.0000 0.0000 0.0000 0.0000 -24.2926
#
#
#
# Elastic Compliance Matrix: (Units=1/GPa)
#
#
# Indices 1 2 3 4 5 6 
#
# 1 0.014378 0.001637 -0.006590 0.000000 0.000000 0.000000
# 2 0.001637 0.029664 0.000672 0.000000 0.000000 0.000000
# 3 -0.006590 0.000672 0.010333 0.000000 0.000000 0.000000
# 4 0.000000 0.000000 0.000000 0.079161 0.000000 0.000000
# 5 0.000000 0.000000 0.000000 0.000000 0.041937 0.000000
# 6 0.000000 0.000000 0.000000 0.000000 0.000000 -0.041165
#
#
# Mechanical properties :
#
#
# Convention : Reuss Voigt Hill
#
# Bulk Modulus (GPa) = 21.82872 41.42764 31.62818
# Shear Modulus (GPa) = 31.61712 17.20825 24.41269
#
# Velocity S-wave (km/s) = 4.27374 3.15294 3.75539
# Velocity P-wave (km/s) = 6.07975 6.09811 6.08894
#
# Compressibility (1/GPa) = 0.04581121
#
# Stress axis : x y z
#
# Youngs Moduli (GPa) = 69.55132 33.71102 96.77723
#
# Poissons Ratio (x) = -0.05518 0.63780
# Poissons Ratio (y) = -0.11385 -0.06501
# Poissons Ratio (z) = 0.45837 -0.02264
#
# Static dielectric constant tensor:
#      x y z
#    x 1.567570 0.000000 0.000000 
#    y 0.000000 1.676890 0.000000 
#    z 0.000000 0.000000 1.629240 
# 
# From -- ./inp_files/12953.got.cif
#   From: 2010.05.17/outbox.cif.g08.bks.cpg/sg47_7_cif.got.tgz:12953.got - 2010.06.03 20:15:42.
