data_PCOD9382165
_publ_section_title
;
Structure prediction by ZEFSAII (Michael W. Deem and Ramdas Pophale) SiO2 
 PCOD9382165
Probable space group: P M M M
;
_chemical_formula_sum "Si O2"
_cell_formula_units_Z 44
_cell_length_a 15.865967
_cell_length_b 14.089737
_cell_length_c 10.354901
_cell_angle_alpha 90.000000
_cell_angle_beta 90.000000
_cell_angle_gamma 90.000000
_cell_volume 2314.810184
_symmetry_space_group_name_H-M "P M M M"
_symmetry_group_IT_number 47
_symmetry_cell_setting 'orthorhombic'
loop_
_space_group_symop_operation_xyz
x,y,z
-x,-y,z
x,-y,-z
-x,y,-z
-x,-y,-z
x,y,-z
-x,y,z
x,-y,z
loop_
_atom_site_type_symbol
_atom_site_label
_atom_site_fract_x
_atom_site_fract_y
_atom_site_fract_z
Si Si1 0.599946 0.796864 0.355964
Si Si2 0.726585 0.886476 0.150353
Si Si3 0.674166 0.608992 0.728322
Si Si4 0.909696 0.813120 0.153919
Si Si5 0.406783 0.385442 0.000000
Si Si6 0.852970 0.604847 0.848492
O O1 0.611650 0.838703 0.500000
O O2 0.500000 0.797437 0.327010
O O3 0.655206 0.847802 0.246186
O O4 0.634472 0.688874 0.359816
O O5 0.819612 0.853408 0.197929
O O6 0.724559 0.000000 0.149322
O O7 0.715704 0.853720 0.000000
O O8 0.649979 0.500000 0.698001
O O9 0.774280 0.610932 0.751016
O O10 0.639429 0.637504 0.869167
O O11 0.906275 0.699234 0.170101
O O12 0.000000 0.848677 0.206437
O O13 0.910319 0.832826 0.000000
O O14 0.412003 0.500000 0.000000
O O15 0.500000 0.344264 0.000000
O O16 0.892234 0.500000 0.832681
O O17 0.823763 0.607894 0.000000
#
# Coordination Sequence:
#
# PCOD9382165 Si02
#       6
#     8   8   8   8   4   8
#     4  11  25  41  58  84 117 154 192 232 286 346
#     4  10  22  41  64  88 113 144 188 242 294 343
#     4  10  18  31  51  78 113 152 192 233 275 326
#     4   9  17  30  52  85 121 151 181 225 283 341
#     4   9  16  24  40  72 106 140 185 232 278 318
#     4   9  15  25  45  76 115 153 187 226 274 328
#
# _framework density 19.008037999999999
#
# number of rings (size 3 to 8) (size 9 to 14) (size 15 to 20)
#    0.000    2.273    2.727    0.545    1.273    3.273 
#    0.000    6.364    0.000    0.545    0.000    1.273 
#    0.000    2.909    0.000    0.000    0.000    0.000 
#
# Total GULP energy -245081.570210 kJ/mol
# GULP energy per Si atom -5570.035687 kJ/mol
# Density = 1.896478 g / cm^3
# Si number density = 19.008038 Si / 1000 Ang^3
#
#
#
# Elastic Constant Matrix: (Units=GPa)
#
#
# Indices 1 2 3 4 5 6 
#
# 1 131.7220 38.1567 49.8805 0.0000 0.0000 0.0000
# 2 38.1567 74.8647 27.8547 0.0000 0.0000 0.0000
# 3 49.8805 27.8547 69.1114 0.0000 0.0000 0.0000
# 4 0.0000 0.0000 0.0000 6.4321 0.0000 0.0000
# 5 0.0000 0.0000 0.0000 0.0000 -14.3586 0.0000
# 6 0.0000 0.0000 0.0000 0.0000 0.0000 49.3474
#
#
#
# Elastic Compliance Matrix: (Units=1/GPa)
#
#
# Indices 1 2 3 4 5 6 
#
# 1 0.011038 -0.003131 -0.006704 0.000000 0.000000 0.000000
# 2 -0.003131 0.016602 -0.004431 0.000000 0.000000 0.000000
# 3 -0.006704 -0.004431 0.021094 0.000000 0.000000 0.000000
# 4 0.000000 0.000000 0.000000 0.155471 0.000000 0.000000
# 5 0.000000 0.000000 0.000000 0.000000 -0.069645 0.000000
# 6 0.000000 0.000000 0.000000 0.000000 0.000000 0.020264
#
#
# Mechanical properties :
#
#
# Convention : Reuss Voigt Hill
#
# Bulk Modulus (GPa) = 49.50465 56.38687 52.94576
# Shear Modulus (GPa) = 26.30312 18.93793 22.62052
#
# Velocity S-wave (km/s) = 3.72397 3.15986 3.45345
# Velocity P-wave (km/s) = 6.67766 6.56065 6.61942
#
# Compressibility (1/GPa) = 0.02020012
#
# Stress axis : x y z
#
# Youngs Moduli (GPa) = 90.60002 60.23344 47.40649
#
# Poissons Ratio (x) = 0.18860 0.31783
# Poissons Ratio (y) = 0.28368 0.21008
# Poissons Ratio (z) = 0.60741 0.26692
#
# Static dielectric constant tensor:
#      x y z
#    x 1.702280 0.000000 0.000000 
#    y 0.000000 1.687990 0.000000 
#    z 0.000000 0.000000 1.659520 
# 
# From -- ./inp_files/17400.got.cif
#   From: 2010.05.17/outbox.cif.g08.bks.cpg/sg47_9_cif.got.tgz:17400.got - 2010.06.03 20:15:42.
