data_PCOD9382863
_publ_section_title
;
Structure prediction by ZEFSAII (Michael W. Deem and Ramdas Pophale) SiO2 
 PCOD9382863
Probable space group: P M M M
;
_chemical_formula_sum "Si O2"
_cell_formula_units_Z 48
_cell_length_a 7.910881
_cell_length_b 9.425790
_cell_length_c 35.460887
_cell_angle_alpha 90.000000
_cell_angle_beta 90.000000
_cell_angle_gamma 90.000000
_cell_volume 2644.187245
_symmetry_space_group_name_H-M "P M M M"
_symmetry_group_IT_number 47
_symmetry_cell_setting 'orthorhombic'
loop_
_space_group_symop_operation_xyz
x,y,z
-x,-y,z
x,-y,-z
-x,y,-z
-x,-y,-z
x,y,-z
-x,y,z
x,-y,z
loop_
_atom_site_type_symbol
_atom_site_label
_atom_site_fract_x
_atom_site_fract_y
_atom_site_fract_z
Si Si1 0.000000 0.672438 0.096856
Si Si2 0.311920 0.172405 0.770391
Si Si3 0.691753 0.672306 0.043100
Si Si4 0.202837 0.659780 0.385023
Si Si5 0.000000 0.172356 0.176603
Si Si6 0.794994 0.165034 0.312692
Si Si7 0.703940 0.162886 0.542046
O O1 0.834769 0.714336 0.072577
O O2 0.000000 0.749914 0.136756
O O3 0.000000 0.500000 0.101133
O O4 0.500000 0.217591 0.781741
O O5 0.273334 0.217513 0.727492
O O6 0.164719 0.214082 0.799006
O O7 0.308311 0.000000 0.769411
O O8 0.500000 0.717737 0.052463
O O9 0.691682 0.500000 0.042739
O O10 0.730056 0.716981 0.000000
O O11 0.269821 0.500000 0.385706
O O12 0.264868 0.746238 0.348615
O O13 0.239792 0.739694 0.423842
O O14 0.000000 0.653576 0.381259
O O15 0.000000 0.000000 0.172282
O O16 0.000000 0.169709 0.310724
O O17 0.746744 0.000000 0.317546
O O18 0.760354 0.207841 0.500000
O O19 0.500000 0.162039 0.541737
O O20 0.760412 0.000000 0.547973
#
# Coordination Sequence:
#
# PCOD9382863 Si02
#       7
#     4   8   8   8   4   8   8
#     4  10  19  30  48  74 100 130 168 209 255 304
#     4   9  17  31  53  76  95 124 169 213 252 298
#     4   8  14  26  46  72 100 130 168 215 259 298
#     4  10  21  34  49  75 108 137 161 191 241 303
#     4  10  20  35  51  71 102 136 169 209 254 304
#     4   9  16  30  52  73  94 122 159 206 252 290
#     4   9  19  36  55  73  95 127 169 213 250 286
#
# _framework density 18.153027000000002
#
# number of rings (size 3 to 8) (size 9 to 14) (size 15 to 20)
#    0.000    2.833    0.833    1.750    0.000    4.333 
#    0.000    5.000    0.000    2.000    0.000    1.167 
#    0.000    0.000    0.000    0.000    0.000    0.000 
#
# Total GULP energy -267600.554434 kJ/mol
# GULP energy per Si atom -5575.011551 kJ/mol
# Density = 1.811171 g / cm^3
# Si number density = 18.153027 Si / 1000 Ang^3
#
#
#
# Elastic Constant Matrix: (Units=GPa)
#
#
# Indices 1 2 3 4 5 6 
#
# 1 91.0408 34.8765 86.0628 0.0000 0.0000 0.0000
# 2 34.8765 45.9336 63.8757 0.0000 0.0000 0.0000
# 3 86.0628 63.8757 188.0088 0.0000 0.0000 0.0000
# 4 0.0000 0.0000 0.0000 64.4527 0.0000 0.0000
# 5 0.0000 0.0000 0.0000 0.0000 187.6073 0.0000
# 6 0.0000 0.0000 0.0000 0.0000 0.0000 8.2344
#
#
#
# Elastic Compliance Matrix: (Units=1/GPa)
#
#
# Indices 1 2 3 4 5 6 
#
# 1 0.019867 -0.004622 -0.007524 0.000000 0.000000 0.000000
# 2 -0.004622 0.042343 -0.012270 0.000000 0.000000 0.000000
# 3 -0.007524 -0.012270 0.012932 0.000000 0.000000 0.000000
# 4 0.000000 0.000000 0.000000 0.015515 0.000000 0.000000
# 5 0.000000 0.000000 0.000000 0.000000 0.005330 0.000000
# 6 0.000000 0.000000 0.000000 0.000000 0.000000 0.121442
#
#
# Mechanical properties :
#
#
# Convention : Reuss Voigt Hill
#
# Bulk Modulus (GPa) = 38.00847 77.17925 57.59386
# Shear Modulus (GPa) = 18.17963 61.40342 39.79152
#
# Velocity S-wave (km/s) = 3.16803 5.82227 4.68696
# Velocity P-wave (km/s) = 5.86218 9.37052 7.81575
#
# Compressibility (1/GPa) = 0.02630993
#
# Stress axis : x y z
#
# Youngs Moduli (GPa) = 50.33352 23.61667 77.32691
#
# Poissons Ratio (x) = 0.10915 0.58184
# Poissons Ratio (y) = 0.23262 0.94883
# Poissons Ratio (z) = 0.37873 0.28979
#
# Static dielectric constant tensor:
#      x y z
#    x 1.652210 0.000000 0.000000 
#    y 0.000000 1.611920 0.000000 
#    z 0.000000 0.000000 1.598290 
# 
# From -- ./inp_files/2765.got.cif
#   From: 2010.05.17/outbox.cif.g08.bks.cpg/sg47_2_cif.got.tgz:2765.got - 2010.06.03 20:15:42.
