data_PCOD9382230
_publ_section_title
;
Structure prediction by ZEFSAII (Michael W. Deem and Ramdas Pophale) SiO2 
 PCOD9382230
Probable space group: P M M M
;
_chemical_formula_sum "Si O2"
_cell_formula_units_Z 48
_cell_length_a 7.839147
_cell_length_b 19.596329
_cell_length_c 15.588620
_cell_angle_alpha 90.000000
_cell_angle_beta 90.000000
_cell_angle_gamma 90.000000
_cell_volume 2394.700479
_symmetry_space_group_name_H-M "P M M M"
_symmetry_group_IT_number 47
_symmetry_cell_setting 'orthorhombic'
loop_
_space_group_symop_operation_xyz
x,y,z
-x,-y,z
x,-y,-z
-x,y,-z
-x,-y,-z
x,y,-z
-x,y,z
x,-y,z
loop_
_atom_site_type_symbol
_atom_site_label
_atom_site_fract_x
_atom_site_fract_y
_atom_site_fract_z
Si Si1 0.696889 0.177030 0.852406
Si Si2 0.203605 0.576986 0.254530
Si Si3 0.294168 0.669987 0.904388
Si Si4 0.793558 0.675750 0.404199
Si Si5 0.000000 0.921890 0.644240
Si Si6 0.689366 0.827293 0.644692
Si Si7 0.000000 0.921687 0.854213
O O1 0.500000 0.165559 0.880185
O O2 0.754512 0.252114 0.882272
O O3 0.697148 0.177458 0.748566
O O4 0.831270 0.119962 0.880988
O O5 0.272539 0.500000 0.253078
O O6 0.233488 0.617352 0.166722
O O7 0.270643 0.623954 0.331858
O O8 0.000000 0.572310 0.267045
O O9 0.500000 0.669123 0.902995
O O10 0.235258 0.652584 0.000000
O O11 0.751285 0.652306 0.500000
O O12 0.723844 0.751522 0.389322
O O13 0.000000 0.680543 0.397402
O O14 0.834231 0.879690 0.616502
O O15 0.000000 0.922343 0.749237
O O16 0.000000 0.000000 0.615747
O O17 0.500000 0.849736 0.620241
O O18 0.000000 0.000000 0.882908
#
# Coordination Sequence:
#
# PCOD9382230 Si02
#       7
#     8   8   8   8   4   8   4
#     4   9  18  32  53  80 112 152 196 242 290 342
#     4  10  22  38  58  86 119 152 188 237 294 349
#     4  10  21  37  58  83 111 151 200 242 288 346
#     4  10  20  35  58  84 114 155 197 238 289 348
#     4   9  18  32  51  81 119 153 189 238 295 350
#     4  10  18  31  55  82 111 151 197 242 289 343
#     4   9  18  30  51  83 115 151 193 238 293 352
#
# _framework density 20.044257999999999
#
# number of rings (size 3 to 8) (size 9 to 14) (size 15 to 20)
#    0.000    2.333    2.500    0.000    1.167    2.333 
#    0.000    6.667    0.000    2.000    0.000    5.833 
#    0.000    0.000    0.000    0.000    0.000    0.000 
#
# Total GULP energy -268076.495432 kJ/mol
# GULP energy per Si atom -5584.926988 kJ/mol
# Density = 1.999864 g / cm^3
# Si number density = 20.044258 Si / 1000 Ang^3
#
#
#
# Elastic Constant Matrix: (Units=GPa)
#
#
# Indices 1 2 3 4 5 6 
#
# 1 84.8202 66.6131 35.2488 0.0000 0.0000 0.0000
# 2 66.6131 178.3069 57.6607 0.0000 0.0000 0.0000
# 3 35.2488 57.6607 82.1303 0.0000 0.0000 0.0000
# 4 0.0000 0.0000 0.0000 -10.1013 0.0000 0.0000
# 5 0.0000 0.0000 0.0000 0.0000 -1.2697 0.0000
# 6 0.0000 0.0000 0.0000 0.0000 0.0000 4.3644
#
#
#
# Elastic Compliance Matrix: (Units=1/GPa)
#
#
# Indices 1 2 3 4 5 6 
#
# 1 0.017552 -0.005332 -0.003790 0.000000 0.000000 0.000000
# 2 -0.005332 0.008875 -0.003943 0.000000 0.000000 0.000000
# 3 -0.003790 -0.003943 0.016570 0.000000 0.000000 0.000000
# 4 0.000000 0.000000 0.000000 -0.098998 0.000000 0.000000
# 5 0.000000 0.000000 0.000000 0.000000 -0.787592 0.000000
# 6 0.000000 0.000000 0.000000 0.000000 0.000000 0.229124
#
#
# Mechanical properties :
#
#
# Convention : Reuss Voigt Hill
#
# Bulk Modulus (GPa) = 59.28010 73.81141 66.54575
# Shear Modulus (GPa) = -8.58049 10.98101 1.20026
#
# Velocity S-wave (km/s) = -2.07125 2.34313 0.77466
# Velocity P-wave (km/s) = 4.89068 6.65015 5.83709
#
# Compressibility (1/GPa) = 0.01686907
#
# Stress axis : x y z
#
# Youngs Moduli (GPa) = 56.97465 112.67501 60.34898
#
# Poissons Ratio (x) = 0.60073 0.22871
# Poissons Ratio (y) = 0.30376 0.23794
# Poissons Ratio (z) = 0.21592 0.44424
#
# Static dielectric constant tensor:
#      x y z
#    x 1.728880 0.000000 0.000000 
#    y 0.000000 1.659220 0.000000 
#    z 0.000000 0.000000 1.717240 
# 
# From -- ./inp_files/21096.got.cif
#   From: 2010.05.17/outbox.cif.g08.bks.cpg/sg47_11_cif.got.tgz:21096.got - 2010.06.03 20:15:42.
