data_PCOD9382852
_publ_section_title
;
Structure prediction by ZEFSAII (Michael W. Deem and Ramdas Pophale) SiO2 
 PCOD9382852
Probable space group: P M M M
;
_chemical_formula_sum "Si O2"
_cell_formula_units_Z 48
_cell_length_a 7.367809
_cell_length_b 13.191282
_cell_length_c 19.140266
_cell_angle_alpha 90.000000
_cell_angle_beta 90.000000
_cell_angle_gamma 90.000000
_cell_volume 1860.258650
_symmetry_space_group_name_H-M "P M M M"
_symmetry_group_IT_number 47
_symmetry_cell_setting 'orthorhombic'
loop_
_space_group_symop_operation_xyz
x,y,z
-x,-y,z
x,-y,-z
-x,y,-z
-x,-y,-z
x,y,-z
-x,y,z
x,-y,z
loop_
_atom_site_type_symbol
_atom_site_label
_atom_site_fract_x
_atom_site_fract_y
_atom_site_fract_z
Si Si1 0.277000 0.333457 0.921119
Si Si2 0.780332 0.110498 0.727939
Si Si3 0.208134 0.608637 0.614379
Si Si4 0.221758 0.828230 0.424776
Si Si5 0.710179 0.661721 0.229777
Si Si6 0.293098 0.893244 0.083270
O O1 0.500000 0.333789 0.922225
O O2 0.223574 0.378457 0.845748
O O3 0.211194 0.217664 0.910480
O O4 0.223769 0.368192 0.000000
O O5 0.724230 0.118916 0.646815
O O6 0.721201 0.214675 0.764891
O O7 0.000000 0.112110 0.731426
O O8 0.718013 0.000000 0.752945
O O9 0.291623 0.500000 0.597509
O O10 0.285104 0.711794 0.583250
O O11 0.204240 0.622460 0.698603
O O12 0.000000 0.606128 0.590286
O O13 0.277813 0.869429 0.500000
O O14 0.000000 0.829145 0.423689
O O15 0.500000 0.633636 0.234418
O O16 0.500000 0.889923 0.110791
O O17 0.205831 0.000000 0.105331
O O18 0.308758 0.900100 0.000000
#
# Coordination Sequence:
#
# PCOD9382852 Si02
#       6
#     8   8   8   8   8   8
#     4   8  14  24  38  59  87 116 147 190 245 291
#     4   9  18  32  48  67  97 137 171 196 229 276
#     4   9  18  33  52  72  96 127 157 187 234 295
#     4   8  14  26  47  76 102 120 151 202 245 274
#     4  10  19  30  48  73  97 122 158 204 245 285
#     4   7   9  14  25  42  67  99 131 163 204 255
#
# _framework density 25.802862999999999
#
# number of rings (size 3 to 8) (size 9 to 14) (size 15 to 20)
#    0.000    3.500    0.000    3.000    0.000    2.000 
#    0.000    5.000    0.000   10.500    0.000   14.000 
#    0.000    0.000    0.000    0.000    0.000    0.000 
#
# Total GULP energy -267573.765571 kJ/mol
# GULP energy per Si atom -5574.453449 kJ/mol
# Density = 2.574413 g / cm^3
# Si number density = 25.802863 Si / 1000 Ang^3
#
#
#
# Elastic Constant Matrix: (Units=GPa)
#
#
# Indices 1 2 3 4 5 6 
#
# 1 97.9234 -2.5246 -5.2311 0.0000 0.0000 0.0000
# 2 -2.5246 104.5441 4.2542 0.0000 0.0000 0.0000
# 3 -5.2311 4.2542 198.7876 0.0000 0.0000 0.0000
# 4 0.0000 0.0000 0.0000 -20.9003 0.0000 0.0000
# 5 0.0000 0.0000 0.0000 0.0000 9.0661 0.0000
# 6 0.0000 0.0000 0.0000 0.0000 0.0000 -39.4479
#
#
#
# Elastic Compliance Matrix: (Units=1/GPa)
#
#
# Indices 1 2 3 4 5 6 
#
# 1 0.010232 0.000236 0.000264 0.000000 0.000000 0.000000
# 2 0.000236 0.009579 -0.000199 0.000000 0.000000 0.000000
# 3 0.000264 -0.000199 0.005042 0.000000 0.000000 0.000000
# 4 0.000000 0.000000 0.000000 -0.047846 0.000000 0.000000
# 5 0.000000 0.000000 0.000000 0.000000 0.110301 0.000000
# 6 0.000000 0.000000 0.000000 0.000000 0.000000 -0.025350
#
#
# Mechanical properties :
#
#
# Convention : Reuss Voigt Hill
#
# Bulk Modulus (GPa) = 39.28250 43.80581 41.54415
# Shear Modulus (GPa) = 71.59254 16.72736 44.15995
#
# Velocity S-wave (km/s) = 5.27316 2.54889 4.14144
# Velocity P-wave (km/s) = 7.23409 5.06719 6.24534
#
# Compressibility (1/GPa) = 0.02545663
#
# Stress axis : x y z
#
# Youngs Moduli (GPa) = 97.73006 104.39356 198.34574
#
# Poissons Ratio (x) = -0.02467 -0.05240
# Poissons Ratio (y) = -0.02310 0.03943
# Poissons Ratio (z) = -0.02582 0.02075
#
# Static dielectric constant tensor:
#      x y z
#    x 1.991500 0.000000 0.000000 
#    y 0.000000 2.002190 0.000000 
#    z 0.000000 0.000000 2.024080 
# 
# From -- ./inp_files/29455.got.cif
#   From: 2010.05.17/outbox.cif.g08.bks.cpg/sg47_15_cif.got.tgz:29455.got - 2010.06.03 20:15:42.
