data_PCOD9382876
_publ_section_title
;
Structure prediction by ZEFSAII (Michael W. Deem and Ramdas Pophale) SiO2 
 PCOD9382876
Probable space group: P M M M
;
_chemical_formula_sum "Si O2"
_cell_formula_units_Z 56
_cell_length_a 7.331850
_cell_length_b 25.079941
_cell_length_c 12.773518
_cell_angle_alpha 90.000000
_cell_angle_beta 90.000000
_cell_angle_gamma 90.000000
_cell_volume 2348.824705
_symmetry_space_group_name_H-M "P M M M"
_symmetry_group_IT_number 47
_symmetry_cell_setting 'orthorhombic'
loop_
_space_group_symop_operation_xyz
x,y,z
-x,-y,z
x,-y,-z
-x,y,-z
-x,-y,-z
x,y,-z
-x,y,z
x,-y,z
loop_
_atom_site_type_symbol
_atom_site_label
_atom_site_fract_x
_atom_site_fract_y
_atom_site_fract_z
Si Si1 0.279687 0.381465 0.619646
Si Si2 0.223442 0.212322 0.880403
Si Si3 0.280516 0.500000 0.374753
Si Si4 0.201748 0.131563 0.701442
Si Si5 0.208597 0.328335 0.817807
Si Si6 0.780795 0.557022 0.123843
Si Si7 0.223028 0.063926 0.500000
Si Si8 0.284862 0.936922 0.112090
O O1 0.222832 0.375376 0.500000
O O2 0.500000 0.381722 0.621782
O O3 0.216410 0.440559 0.658507
O O4 0.211724 0.333961 0.692556
O O5 0.283538 0.177552 0.778661
O O6 0.282859 0.273236 0.860075
O O7 0.000000 0.209694 0.878779
O O8 0.279145 0.197663 0.000000
O O9 0.500000 0.500000 0.368519
O O10 0.239339 0.500000 0.500000
O O11 0.280833 0.099812 0.601076
O O12 0.188789 0.085827 0.788348
O O13 0.000000 0.150784 0.668830
O O14 0.295048 0.385170 0.846578
O O15 0.000000 0.329923 0.856548
O O16 0.710776 0.500000 0.167640
O O17 0.000000 0.557279 0.139727
O O18 0.751605 0.554259 0.000000
O O19 0.000000 0.062204 0.500000
O O20 0.278406 0.000000 0.500000
O O21 0.500000 0.923958 0.118509
O O22 0.269769 0.000000 0.111936
O O23 0.214530 0.917300 0.000000
#
# Coordination Sequence:
#
# PCOD9382876 Si02
#       8
#     8   8   4   8   8   8   4   8
#     4   9  18  33  50  68  94 130 168 205 253 316
#     4   9  18  33  52  76 105 136 173 217 264 313
#     4   7  12  26  47  65  84 119 164 202 245 310
#     4  10  19  33  54  78 103 140 184 220 254 304
#     4  10  19  30  48  74  99 126 163 214 266 306
#     4   8  14  25  42  65  93 124 156 193 246 313
#     4   9  18  32  51  79 113 141 170 216 265 300
#     4   9  18  32  50  76 111 143 169 208 264 313
#
# _framework density 23.841709999999999
#
# number of rings (size 3 to 8) (size 9 to 14) (size 15 to 20)
#    0.000    3.000    0.000    3.000    1.000    3.714 
#    1.286    1.786    0.000    5.143    0.000    1.000 
#    0.000    0.000    0.000    0.000    0.000    0.000 
#
# Total GULP energy -312101.927479 kJ/mol
# GULP energy per Si atom -5573.248705 kJ/mol
# Density = 2.378744 g / cm^3
# Si number density = 23.841710 Si / 1000 Ang^3
#
#
#
# Elastic Constant Matrix: (Units=GPa)
#
#
# Indices 1 2 3 4 5 6 
#
# 1 82.9906 16.4480 8.3719 0.0000 0.0000 0.0000
# 2 16.4480 175.0085 78.2037 0.0000 0.0000 0.0000
# 3 8.3719 78.2037 150.9688 0.0000 0.0000 0.0000
# 4 0.0000 0.0000 0.0000 53.7513 0.0000 0.0000
# 5 0.0000 0.0000 0.0000 0.0000 18.7891 0.0000
# 6 0.0000 0.0000 0.0000 0.0000 0.0000 -7.9476
#
#
#
# Elastic Compliance Matrix: (Units=1/GPa)
#
#
# Indices 1 2 3 4 5 6 
#
# 1 0.012280 -0.001106 -0.000108 0.000000 0.000000 0.000000
# 2 -0.001106 0.007535 -0.003842 0.000000 0.000000 0.000000
# 3 -0.000108 -0.003842 0.008620 0.000000 0.000000 0.000000
# 4 0.000000 0.000000 0.000000 0.018604 0.000000 0.000000
# 5 0.000000 0.000000 0.000000 0.000000 0.053222 0.000000
# 6 0.000000 0.000000 0.000000 0.000000 0.000000 -0.125824
#
#
# Mechanical properties :
#
#
# Convention : Reuss Voigt Hill
#
# Bulk Modulus (GPa) = 54.57645 68.33501 61.45573
# Shear Modulus (GPa) = -535.07281 33.31484 -250.87899
#
# Velocity S-wave (km/s) = -14.99715 3.74215 -10.26915
# Velocity P-wave (km/s) = 16.64167 6.88446 10.71329
#
# Compressibility (1/GPa) = 0.01832292
#
# Stress axis : x y z
#
# Youngs Moduli (GPa) = 81.43579 132.72060 116.01014
#
# Poissons Ratio (x) = 0.14676 0.01255
# Poissons Ratio (y) = 0.09005 0.44568
# Poissons Ratio (z) = 0.00881 0.50987
#
# Static dielectric constant tensor:
#      x y z
#    x 1.948620 0.000000 0.000000 
#    y 0.000000 1.920920 0.000000 
#    z 0.000000 0.000000 1.988810 
# 
# From -- ./inp_files/16768.got.cif
#   From: 2010.05.17/outbox.cif.g08.bks.cpg/sg47_9_cif.got.tgz:16768.got - 2010.06.03 20:15:42.
