data_PCOD9382407
_publ_section_title
;
Structure prediction by ZEFSAII (Michael W. Deem and Ramdas Pophale) SiO2 
 PCOD9382407
Probable space group: P M M M
;
_chemical_formula_sum "Si O2"
_cell_formula_units_Z 60
_cell_length_a 9.100709
_cell_length_b 18.651519
_cell_length_c 24.421521
_cell_angle_alpha 90.000000
_cell_angle_beta 90.000000
_cell_angle_gamma 90.000000
_cell_volume 4145.358961
_symmetry_space_group_name_H-M "P M M M"
_symmetry_group_IT_number 47
_symmetry_cell_setting 'orthorhombic'
loop_
_space_group_symop_operation_xyz
x,y,z
-x,-y,z
x,-y,-z
-x,y,-z
-x,-y,-z
x,y,-z
-x,y,z
x,-y,z
loop_
_atom_site_type_symbol
_atom_site_label
_atom_site_fract_x
_atom_site_fract_y
_atom_site_fract_z
Si Si1 0.822741 0.652539 0.780874
Si Si2 0.324998 0.917353 0.666671
Si Si3 0.177326 0.152577 0.561433
Si Si4 0.830417 0.412916 0.000000
Si Si5 0.168126 0.296672 0.613255
Si Si6 0.325590 0.583692 0.325799
Si Si7 0.326458 0.586376 0.112778
Si Si8 0.831997 0.204817 0.726327
O O1 0.755982 0.608300 0.729816
O O2 0.755955 0.622694 0.836619
O O3 0.784551 0.736416 0.770868
O O4 0.000000 0.646706 0.779754
O O5 0.500000 0.910569 0.662242
O O6 0.252788 0.892472 0.609317
O O7 0.266008 0.863672 0.713284
O O8 0.287237 0.000000 0.677543
O O9 0.214562 0.129069 0.500000
O O10 0.216662 0.236678 0.569871
O O11 0.000000 0.148393 0.568270
O O12 0.746086 0.391382 0.944820
O O13 0.831146 0.500000 0.000000
O O14 0.000000 0.389151 0.000000
O O15 0.267131 0.365097 0.625834
O O16 0.167206 0.251177 0.669995
O O17 0.000000 0.318448 0.601798
O O18 0.500000 0.593811 0.318534
O O19 0.296834 0.500000 0.336062
O O20 0.500000 0.602338 0.113570
O O21 0.310581 0.500000 0.117821
O O22 0.000000 0.182761 0.736984
#
# Coordination Sequence:
#
# PCOD9382407 Si02
#       8
#     8   8   8   4   8   8   8   8
#     4  10  19  29  42  61  83 107 139 177 212 247
#     4  10  20  31  44  65  90 112 134 161 194 236
#     4   9  18  32  48  64  81 103 133 166 198 236
#     4   9  17  29  43  57  77 111 152 189 224 257
#     4   8  15  28  44  60  77  99 129 164 201 242
#     4  10  19  28  39  58  82 105 131 165 206 251
#     4  10  19  29  41  59  84 114 149 186 221 256
#     4   8  16  30  45  61  81 107 138 168 200 242
#
# _framework density 14.474017999999999
#
# number of rings (size 3 to 8) (size 9 to 14) (size 15 to 20)
#    0.000    2.733    0.000    3.800    0.000   11.200 
#    0.000    1.333    0.000    0.400    0.000    2.800 
#    0.000    0.000    0.000    0.600    0.000   11.200 
#
# Total GULP energy -334227.263475 kJ/mol
# GULP energy per Si atom -5570.454391 kJ/mol
# Density = 1.444107 g / cm^3
# Si number density = 14.474018 Si / 1000 Ang^3
#
#
#
# Elastic Constant Matrix: (Units=GPa)
#
#
# Indices 1 2 3 4 5 6 
#
# 1 66.0695 52.9377 21.6651 0.0000 0.0000 0.0000
# 2 52.9377 87.2762 21.0380 0.0000 0.0000 0.0000
# 3 21.6651 21.0380 31.2694 0.0000 0.0000 0.0000
# 4 0.0000 0.0000 0.0000 13.8893 0.0000 0.0000
# 5 0.0000 0.0000 0.0000 0.0000 18.3688 0.0000
# 6 0.0000 0.0000 0.0000 0.0000 0.0000 23.6288
#
#
#
# Elastic Compliance Matrix: (Units=1/GPa)
#
#
# Indices 1 2 3 4 5 6 
#
# 1 0.032328 -0.016960 -0.010988 0.000000 0.000000 0.000000
# 2 -0.016960 0.022573 -0.003437 0.000000 0.000000 0.000000
# 3 -0.010988 -0.003437 0.041905 0.000000 0.000000 0.000000
# 4 0.000000 0.000000 0.000000 0.071998 0.000000 0.000000
# 5 0.000000 0.000000 0.000000 0.000000 0.054440 0.000000
# 6 0.000000 0.000000 0.000000 0.000000 0.000000 0.042321
#
#
# Mechanical properties :
#
#
# Convention : Reuss Voigt Hill
#
# Bulk Modulus (GPa) = 29.37919 41.76633 35.57276
# Shear Modulus (GPa) = 14.71976 17.10899 15.91437
#
# Velocity S-wave (km/s) = 3.19247 3.44182 3.31949
# Velocity P-wave (km/s) = 5.82504 6.68682 6.27075
#
# Compressibility (1/GPa) = 0.03403770
#
# Stress axis : x y z
#
# Youngs Moduli (GPa) = 30.93339 44.30011 23.86341
#
# Poissons Ratio (x) = 0.75132 0.26220
# Poissons Ratio (y) = 0.52462 0.08201
# Poissons Ratio (z) = 0.33989 0.15224
#
# Static dielectric constant tensor:
#      x y z
#    x 1.484250 0.000000 0.000000 
#    y 0.000000 1.480360 0.000000 
#    z 0.000000 0.000000 1.468760 
# 
# From -- ./inp_files/32230.got.cif
#   From: 2010.05.17/outbox.cif.g08.bks.cpg/sg47_17_cif.got.tgz:32230.got - 2010.06.03 20:15:42.
