data_PCOD9382511
_publ_section_title
;
Structure prediction by ZEFSAII (Michael W. Deem and Ramdas Pophale) SiO2 
 PCOD9382511
Probable space group: P M M M
;
_chemical_formula_sum "Si O2"
_cell_formula_units_Z 56
_cell_length_a 29.798849
_cell_length_b 14.013701
_cell_length_c 9.053950
_cell_angle_alpha 90.000000
_cell_angle_beta 90.000000
_cell_angle_gamma 90.000000
_cell_volume 3780.858537
_symmetry_space_group_name_H-M "P M M M"
_symmetry_group_IT_number 47
_symmetry_cell_setting 'orthorhombic'
loop_
_space_group_symop_operation_xyz
x,y,z
-x,-y,z
x,-y,-z
-x,y,-z
-x,-y,-z
x,y,-z
-x,y,z
x,-y,z
loop_
_atom_site_type_symbol
_atom_site_label
_atom_site_fract_x
_atom_site_fract_y
_atom_site_fract_z
Si Si1 0.771339 0.889409 0.822557
Si Si2 0.549838 0.384319 0.328124
Si Si3 0.190070 0.609686 0.823522
Si Si4 0.273737 0.711567 0.323636
Si Si5 0.641597 0.613904 0.824647
Si Si6 0.134524 0.791800 0.175951
Si Si7 0.050717 0.111037 0.677741
O O1 0.738922 0.815670 0.740278
O O2 0.822521 0.858269 0.786276
O O3 0.763965 0.000000 0.786108
O O4 0.766335 0.877178 0.000000
O O5 0.556350 0.357389 0.500000
O O6 0.500000 0.351774 0.280672
O O7 0.548941 0.500000 0.324018
O O8 0.592225 0.355610 0.230692
O O9 0.179073 0.500000 0.793164
O O10 0.234178 0.642911 0.736859
O O11 0.150814 0.684669 0.787820
O O12 0.199188 0.619442 0.000000
O O13 0.274135 0.712504 0.500000
O O14 0.320162 0.671751 0.259798
O O15 0.646700 0.500000 0.793847
O O16 0.645961 0.626921 0.000000
O O17 0.089897 0.825605 0.255514
O O18 0.127914 0.798294 0.000000
O O19 0.052442 0.115240 0.500000
O O20 0.000000 0.138270 0.723285
O O21 0.057637 0.000000 0.720476
#
# Coordination Sequence:
#
# PCOD9382511 Si02
#       7
#     8   8   8   8   8   8   8
#     4   9  18  33  50  66  88 117 145 175 214 261
#     4   8  14  25  40  58  82 112 145 182 224 266
#     4   9  18  33  49  63  85 117 149 181 217 257
#     4  11  21  30  43  65  91 116 146 184 221 259
#     4  10  19  29  42  60  85 119 155 188 221 259
#     4   9  17  29  47  70  89 108 140 178 214 252
#     4   9  18  31  45  63  89 118 143 169 208 258
#
# _framework density 14.811450000000001
#
# number of rings (size 3 to 8) (size 9 to 14) (size 15 to 20)
#    0.000    2.714    0.000    4.286    0.000    6.857 
#    0.000    2.143    0.000    0.429    0.000    3.000 
#    0.000    0.571    0.000    6.000    0.000    2.857 
#
# Total GULP energy -312081.578177 kJ/mol
# GULP energy per Si atom -5572.885325 kJ/mol
# Density = 1.477774 g / cm^3
# Si number density = 14.811450 Si / 1000 Ang^3
#
#
#
# Elastic Constant Matrix: (Units=GPa)
#
#
# Indices 1 2 3 4 5 6 
#
# 1 135.5223 67.4179 62.2435 0.0000 0.0000 0.0000
# 2 67.4179 97.1177 48.7201 0.0000 0.0000 0.0000
# 3 62.2435 48.7201 54.8528 0.0000 0.0000 0.0000
# 4 0.0000 0.0000 0.0000 16.4276 0.0000 0.0000
# 5 0.0000 0.0000 0.0000 0.0000 30.4189 0.0000
# 6 0.0000 0.0000 0.0000 0.0000 0.0000 19.3607
#
#
#
# Elastic Compliance Matrix: (Units=1/GPa)
#
#
# Indices 1 2 3 4 5 6 
#
# 1 0.016088 -0.003625 -0.015036 0.000000 0.000000 0.000000
# 2 -0.003625 0.019389 -0.013107 0.000000 0.000000 0.000000
# 3 -0.015036 -0.013107 0.046934 0.000000 0.000000 0.000000
# 4 0.000000 0.000000 0.000000 0.060873 0.000000 0.000000
# 5 0.000000 0.000000 0.000000 0.000000 0.032874 0.000000
# 6 0.000000 0.000000 0.000000 0.000000 0.000000 0.051651
#
#
# Mechanical properties :
#
#
# Convention : Reuss Voigt Hill
#
# Bulk Modulus (GPa) = 52.98224 71.58398 62.28311
# Shear Modulus (GPa) = 16.79894 20.51552 18.65723
#
# Velocity S-wave (km/s) = 3.37142 3.72575 3.55300
# Velocity P-wave (km/s) = 7.14172 8.18189 7.67943
#
# Compressibility (1/GPa) = 0.01887425
#
# Stress axis : x y z
#
# Youngs Moduli (GPa) = 62.15811 51.57589 21.30641
#
# Poissons Ratio (x) = 0.18698 0.32036
# Poissons Ratio (y) = 0.22534 0.27927
# Poissons Ratio (z) = 0.93459 0.67603
#
# Static dielectric constant tensor:
#      x y z
#    x 1.481660 0.000000 0.000000 
#    y 0.000000 1.479710 0.000000 
#    z 0.000000 0.000000 1.493180 
# 
# From -- ./inp_files/8157.got.cif
#   From: 2010.05.17/outbox.cif.g08.bks.cpg/sg47_5_cif.got.tgz:8157.got - 2010.06.03 20:15:42.
