data_PCOD9382952
_publ_section_title
;
Structure prediction by ZEFSAII (Michael W. Deem and Ramdas Pophale) SiO2 
 PCOD9382952
Probable space group: P M M M
;
_chemical_formula_sum "Si O2"
_cell_formula_units_Z 40
_cell_length_a 19.029598
_cell_length_b 17.433222
_cell_length_c 8.625511
_cell_angle_alpha 90.000000
_cell_angle_beta 90.000000
_cell_angle_gamma 90.000000
_cell_volume 2861.489179
_symmetry_space_group_name_H-M "P M M M"
_symmetry_group_IT_number 47
_symmetry_cell_setting 'orthorhombic'
loop_
_space_group_symop_operation_xyz
x,y,z
-x,-y,z
x,-y,-z
-x,y,-z
-x,-y,-z
x,y,-z
-x,y,z
x,-y,z
loop_
_atom_site_type_symbol
_atom_site_label
_atom_site_fract_x
_atom_site_fract_y
_atom_site_fract_z
Si Si1 0.270318 0.089698 0.687933
Si Si2 0.138201 0.818465 0.814125
Si Si3 0.000000 0.088109 0.811128
Si Si4 0.917842 0.662970 0.685287
Si Si5 0.424468 0.092757 0.684082
Si Si6 0.914787 0.500000 0.179357
O O1 0.270481 0.091782 0.500000
O O2 0.207916 0.141434 0.750873
O O3 0.347876 0.116685 0.743961
O O4 0.260303 0.000000 0.732676
O O5 0.126410 0.732254 0.755708
O O6 0.070008 0.867427 0.761163
O O7 0.139477 0.819196 0.000000
O O8 0.000000 0.000000 0.759024
O O9 0.000000 0.087812 0.000000
O O10 0.916064 0.666455 0.500000
O O11 0.892979 0.579186 0.740271
O O12 0.000000 0.672376 0.735010
O O13 0.425299 0.110296 0.500000
O O14 0.500000 0.119487 0.749762
O O15 0.423971 0.000000 0.695743
O O16 0.000000 0.500000 0.187016
O O17 0.894001 0.500000 0.000000
#
# Coordination Sequence:
#
# PCOD9382952 Si02
#       6
#     8   8   4   8   8   4
#     4   9  17  28  41  59  82 106 137 177 216 251
#     4  11  20  30  43  57  79 109 143 177 211 249
#     4   9  18  30  41  52  69 100 143 183 212 241
#     4  10  19  31  46  63  83 104 132 170 212 249
#     4   7  10  19  37  58  77  99 129 165 205 250
#     4   9  17  29  47  67  85 103 128 159 200 253
#
# _framework density 13.978736
#
# number of rings (size 3 to 8) (size 9 to 14) (size 15 to 20)
#    0.000    2.800    1.000    3.900    0.000    3.200 
#    0.000    0.000    0.000    3.000    0.000    2.800 
#    0.000    0.000    0.000    0.900    0.000   18.600 
#
# Total GULP energy -222703.792694 kJ/mol
# GULP energy per Si atom -5567.594817 kJ/mol
# Density = 1.394692 g / cm^3
# Si number density = 13.978736 Si / 1000 Ang^3
#
#
#
# Elastic Constant Matrix: (Units=GPa)
#
#
# Indices 1 2 3 4 5 6 
#
# 1 128.9308 60.0627 23.9550 0.0000 0.0000 0.0000
# 2 60.0627 98.7856 23.8886 0.0000 0.0000 0.0000
# 3 23.9550 23.8886 22.5743 0.0000 0.0000 0.0000
# 4 0.0000 0.0000 0.0000 17.4931 0.0000 0.0000
# 5 0.0000 0.0000 0.0000 0.0000 8.3163 0.0000
# 6 0.0000 0.0000 0.0000 0.0000 0.0000 2.9985
#
#
#
# Elastic Compliance Matrix: (Units=1/GPa)
#
#
# Indices 1 2 3 4 5 6 
#
# 1 0.011479 -0.005421 -0.006444 0.000000 0.000000 0.000000
# 2 -0.005421 0.016164 -0.011353 0.000000 0.000000 0.000000
# 3 -0.006444 -0.011353 0.063151 0.000000 0.000000 0.000000
# 4 0.000000 0.000000 0.000000 0.057165 0.000000 0.000000
# 5 0.000000 0.000000 0.000000 0.000000 0.120246 0.000000
# 6 0.000000 0.000000 0.000000 0.000000 0.000000 0.333496
#
#
# Mechanical properties :
#
#
# Convention : Reuss Voigt Hill
#
# Bulk Modulus (GPa) = 22.54421 51.78923 37.16672
# Shear Modulus (GPa) = 7.54235 15.25388 11.39812
#
# Velocity S-wave (km/s) = 2.32536 3.30695 2.85860
# Velocity P-wave (km/s) = 4.83449 7.19098 6.12709
#
# Compressibility (1/GPa) = 0.04435730
#
# Stress axis : x y z
#
# Youngs Moduli (GPa) = 87.11757 61.86498 15.83515
#
# Poissons Ratio (x) = 0.33536 0.10205
# Poissons Ratio (y) = 0.47225 0.17978
# Poissons Ratio (z) = 0.56142 0.70235
#
# Static dielectric constant tensor:
#      x y z
#    x 1.481120 0.000000 0.000000 
#    y 0.000000 1.436820 0.000000 
#    z 0.000000 0.000000 1.471070 
# 
# From -- ./inp_files/9362.got.cif
#   From: 2010.05.17/outbox.cif.g08.bks.cpg/sg47_5_cif.got.tgz:9362.got - 2010.06.03 20:15:42.
