data_PCOD9382317
_publ_section_title
;
Structure prediction by ZEFSAII (Michael W. Deem and Ramdas Pophale) SiO2 
 PCOD9382317
Probable space group: P M M M
;
_chemical_formula_sum "Si O2"
_cell_formula_units_Z 48
_cell_length_a 13.586635
_cell_length_b 10.640121
_cell_length_c 18.756479
_cell_angle_alpha 90.000000
_cell_angle_beta 90.000000
_cell_angle_gamma 90.000000
_cell_volume 2711.501134
_symmetry_space_group_name_H-M "P M M M"
_symmetry_group_IT_number 47
_symmetry_cell_setting 'orthorhombic'
loop_
_space_group_symop_operation_xyz
x,y,z
-x,-y,z
x,-y,-z
-x,y,-z
-x,-y,-z
x,y,-z
-x,y,z
x,-y,z
loop_
_atom_site_type_symbol
_atom_site_label
_atom_site_fract_x
_atom_site_fract_y
_atom_site_fract_z
Si Si1 0.116711 0.229197 0.418104
Si Si2 0.696323 0.352485 0.082527
Si Si3 0.809242 0.862262 0.273562
Si Si4 0.612131 0.500000 0.694086
Si Si5 0.389196 0.240333 0.218835
Si Si6 0.887254 0.642189 0.175843
Si Si7 0.211188 0.500000 0.417922
O O1 0.140008 0.194178 0.500000
O O2 0.174168 0.154236 0.357575
O O3 0.146404 0.375099 0.408415
O O4 0.000000 0.213125 0.407695
O O5 0.667600 0.500000 0.088725
O O6 0.632222 0.268881 0.135944
O O7 0.807680 0.343082 0.113005
O O8 0.690217 0.317052 0.000000
O O9 0.695723 0.845763 0.251264
O O10 0.864830 0.748341 0.234017
O O11 0.844983 0.000000 0.251195
O O12 0.500000 0.500000 0.664969
O O13 0.622392 0.375811 0.742336
O O14 0.696681 0.500000 0.635088
O O15 0.500000 0.195239 0.229790
O O16 0.872956 0.500000 0.205395
O O17 0.000000 0.651920 0.151766
O O18 0.246322 0.500000 0.500000
#
# Coordination Sequence:
#
# PCOD9382317 Si02
#       7
#     8   8   8   4   8   8   4
#     4  10  21  35  53  79 111 146 180 217 265 320
#     4   9  17  29  49  81 117 144 172 218 272 324
#     4  11  23  37  56  80 107 140 181 230 274 319
#     4  10  18  32  56  82 106 138 180 228 270 312
#     4  10  20  35  55  78 107 141 178 220 273 328
#     4   9  19  34  54  79 108 145 183 220 265 317
#     4  10  19  33  54  82 114 145 180 220 265 320
#
# _framework density 17.702372
#
# number of rings (size 3 to 8) (size 9 to 14) (size 15 to 20)
#    0.000    2.167    2.500    0.750    2.333    3.833 
#    0.000    3.333    0.000    8.500    0.000   10.500 
#    0.000    0.000    0.000    0.000    0.000    0.000 
#
# Total GULP energy -267811.096625 kJ/mol
# GULP energy per Si atom -5579.397846 kJ/mol
# Density = 1.766208 g / cm^3
# Si number density = 17.702372 Si / 1000 Ang^3
#
#
#
# Elastic Constant Matrix: (Units=GPa)
#
#
# Indices 1 2 3 4 5 6 
#
# 1 62.8037 9.3485 32.8638 0.0000 0.0000 0.0000
# 2 9.3485 59.7884 27.1176 0.0000 0.0000 0.0000
# 3 32.8638 27.1176 107.0179 0.0000 0.0000 0.0000
# 4 0.0000 0.0000 0.0000 -2.7926 0.0000 0.0000
# 5 0.0000 0.0000 0.0000 0.0000 11.7972 0.0000
# 6 0.0000 0.0000 0.0000 0.0000 0.0000 -21.9201
#
#
#
# Elastic Compliance Matrix: (Units=1/GPa)
#
#
# Indices 1 2 3 4 5 6 
#
# 1 0.018978 -0.000366 -0.005735 0.000000 0.000000 0.000000
# 2 -0.000366 0.018905 -0.004678 0.000000 0.000000 0.000000
# 3 -0.005735 -0.004678 0.012291 0.000000 0.000000 0.000000
# 4 0.000000 0.000000 0.000000 -0.358093 0.000000 0.000000
# 5 0.000000 0.000000 0.000000 0.000000 0.084766 0.000000
# 6 0.000000 0.000000 0.000000 0.000000 0.000000 -0.045620
#
#
# Mechanical properties :
#
#
# Convention : Reuss Voigt Hill
#
# Bulk Modulus (GPa) = 34.94650 40.91886 37.93268
# Shear Modulus (GPa) = -21.03694 8.10225 -6.46735
#
# Velocity S-wave (km/s) = -3.45101 2.14170 -1.91346
# Velocity P-wave (km/s) = 1.97603 5.41118 4.07343
#
# Compressibility (1/GPa) = 0.02861517
#
# Stress axis : x y z
#
# Youngs Moduli (GPa) = 52.69199 52.89718 81.36201
#
# Poissons Ratio (x) = 0.01937 0.46662
# Poissons Ratio (y) = 0.01930 0.38060
# Poissons Ratio (z) = 0.30220 0.24744
#
# Static dielectric constant tensor:
#      x y z
#    x 1.601990 0.000000 0.000000 
#    y 0.000000 1.611600 0.000000 
#    z 0.000000 0.000000 1.591640 
# 
# From -- ./inp_files/28051.got.cif
#   From: 2010.05.17/outbox.cif.g08.bks.cpg/sg47_15_cif.got.tgz:28051.got - 2010.06.03 20:15:42.
