data_PCOD9382354
_publ_section_title
;
Structure prediction by ZEFSAII (Michael W. Deem and Ramdas Pophale) SiO2 
 PCOD9382354
Probable space group: P M M M
;
_chemical_formula_sum "Si O2"
_cell_formula_units_Z 52
_cell_length_a 21.649346
_cell_length_b 15.078431
_cell_length_c 7.628961
_cell_angle_alpha 90.000000
_cell_angle_beta 90.000000
_cell_angle_gamma 90.000000
_cell_volume 2490.384067
_symmetry_space_group_name_H-M "P M M M"
_symmetry_group_IT_number 47
_symmetry_cell_setting 'orthorhombic'
loop_
_space_group_symop_operation_xyz
x,y,z
-x,-y,z
x,-y,-z
-x,y,-z
-x,-y,-z
x,y,-z
-x,y,z
x,-y,z
loop_
_atom_site_type_symbol
_atom_site_label
_atom_site_fract_x
_atom_site_fract_y
_atom_site_fract_z
Si Si1 0.617310 0.227832 0.789518
Si Si2 0.071703 0.000000 0.287633
Si Si3 0.927893 0.500000 0.214795
Si Si4 0.500000 0.896796 0.293798
Si Si5 0.173323 0.360150 0.797568
Si Si6 0.686486 0.398819 0.214580
Si Si7 0.854235 0.163335 0.699035
Si Si8 0.723660 0.097993 0.211037
O O1 0.558395 0.166781 0.747873
O O2 0.634448 0.327497 0.727738
O O3 0.675988 0.171114 0.730192
O O4 0.617370 0.232516 0.000000
O O5 0.100448 0.091108 0.218900
O O6 0.083820 0.000000 0.500000
O O7 0.000000 0.000000 0.258531
O O8 0.884525 0.417191 0.272323
O O9 0.000000 0.500000 0.273731
O O10 0.931462 0.500000 0.000000
O O11 0.500000 0.908631 0.500000
O O12 0.500000 0.000000 0.219387
O O13 0.243034 0.374999 0.725313
O O14 0.156209 0.257173 0.788734
O O15 0.178752 0.387721 0.000000
O O16 0.673294 0.500000 0.265983
O O17 0.687395 0.395480 0.000000
O O18 0.873807 0.182791 0.500000
O O19 0.788847 0.113750 0.701645
O O20 0.699316 0.000000 0.247544
O O21 0.732073 0.105892 0.000000
#
# Coordination Sequence:
#
# PCOD9382354 Si02
#       8
#     8   4   4   4   8   8   8   8
#     4  10  20  36  60  87 113 146 189 228 270 328
#     4   9  20  38  53  67  99 150 197 230 273 339
#     4   9  18  32  55  85 113 146 187 234 292 348
#     4  11  25  43  60  83 118 156 189 225 274 329
#     4  10  18  33  56  80 111 146 183 231 283 337
#     4   9  16  30  56  87 111 142 186 230 274 321
#     4  11  21  33  52  78 106 141 187 234 281 335
#     4  10  19  32  54  83 111 139 178 231 283 329
#
# _framework density 20.880312
#
# number of rings (size 3 to 8) (size 9 to 14) (size 15 to 20)
#    0.000    2.077    3.077    1.154    0.000    2.462 
#    0.000    0.769    0.000    7.385    0.000    0.000 
#    0.000    0.000    0.000    0.000    0.000    0.000 
#
# Total GULP energy -289829.487693 kJ/mol
# GULP energy per Si atom -5573.643994 kJ/mol
# Density = 2.083279 g / cm^3
# Si number density = 20.880312 Si / 1000 Ang^3
#
#
#
# Elastic Constant Matrix: (Units=GPa)
#
#
# Indices 1 2 3 4 5 6 
#
# 1 115.8764 77.3042 3.6225 0.0000 0.0000 0.0000
# 2 77.3042 197.8429 11.1762 0.0000 0.0000 0.0000
# 3 3.6225 11.1762 36.6887 0.0000 0.0000 0.0000
# 4 0.0000 0.0000 0.0000 101.2905 0.0000 0.0000
# 5 0.0000 0.0000 0.0000 0.0000 10.0938 0.0000
# 6 0.0000 0.0000 0.0000 0.0000 0.0000 92.6401
#
#
#
# Elastic Compliance Matrix: (Units=1/GPa)
#
#
# Indices 1 2 3 4 5 6 
#
# 1 0.011675 -0.004575 0.000241 0.000000 0.000000 0.000000
# 2 -0.004575 0.006936 -0.001661 0.000000 0.000000 0.000000
# 3 0.000241 -0.001661 0.027739 0.000000 0.000000 0.000000
# 4 0.000000 0.000000 0.000000 0.009873 0.000000 0.000000
# 5 0.000000 0.000000 0.000000 0.000000 0.099071 0.000000
# 6 0.000000 0.000000 0.000000 0.000000 0.000000 0.010794
#
#
# Mechanical properties :
#
#
# Convention : Reuss Voigt Hill
#
# Bulk Modulus (GPa) = 29.10491 59.40152 44.25322
# Shear Modulus (GPa) = 26.38094 58.02523 42.20308
#
# Velocity S-wave (km/s) = 3.55834 5.27729 4.50064
# Velocity P-wave (km/s) = 5.55442 8.10206 6.94604
#
# Compressibility (1/GPa) = 0.03435847
#
# Stress axis : x y z
#
# Youngs Moduli (GPa) = 85.65557 144.17339 36.05091
#
# Poissons Ratio (x) = 0.65964 -0.00869
# Poissons Ratio (y) = 0.39190 0.05989
# Poissons Ratio (z) = -0.02065 0.23949
#
# Static dielectric constant tensor:
#      x y z
#    x 1.734200 0.000000 0.000000 
#    y 0.000000 1.770440 0.000000 
#    z 0.000000 0.000000 1.806130 
# 
# From -- ./inp_files/11110.got.cif
#   From: 2010.05.17/outbox.cif.g08.bks.cpg/sg47_6_cif.got.tgz:11110.got - 2010.06.03 20:15:42.
