data_PCOD9382099
_publ_section_title
;
Structure prediction by ZEFSAII (Michael W. Deem and Ramdas Pophale) SiO2 
 PCOD9382099
Probable space group: P M M M
;
_chemical_formula_sum "Si O2"
_cell_formula_units_Z 44
_cell_length_a 15.901129
_cell_length_b 12.114002
_cell_length_c 13.746397
_cell_angle_alpha 90.000000
_cell_angle_beta 90.000000
_cell_angle_gamma 90.000000
_cell_volume 2647.917709
_symmetry_space_group_name_H-M "P M M M"
_symmetry_group_IT_number 47
_symmetry_cell_setting 'orthorhombic'
loop_
_space_group_symop_operation_xyz
x,y,z
-x,-y,z
x,-y,-z
-x,y,-z
-x,-y,-z
x,y,-z
-x,y,z
x,-y,z
loop_
_atom_site_type_symbol
_atom_site_label
_atom_site_fract_x
_atom_site_fract_y
_atom_site_fract_z
Si Si1 0.822652 0.628923 0.390770
Si Si2 0.663166 0.756073 0.685106
Si Si3 0.904968 0.630827 0.813238
Si Si4 0.745182 0.242175 0.889937
Si Si5 0.399660 0.000000 0.698792
Si Si6 0.500000 0.626974 0.616615
Si Si7 0.304161 0.000000 0.892737
O O1 0.856026 0.645123 0.500000
O O2 0.794427 0.500000 0.383910
O O3 0.743981 0.709031 0.371445
O O4 0.887287 0.645565 0.302326
O O5 0.683290 0.733722 0.799472
O O6 0.643097 0.885281 0.664654
O O7 0.582043 0.688322 0.654558
O O8 0.895981 0.500000 0.833711
O O9 0.832778 0.697576 0.868473
O O10 0.000000 0.663981 0.837468
O O11 0.751534 0.109471 0.883509
O O12 0.716427 0.269293 0.000000
O O13 0.500000 0.000000 0.680475
O O14 0.377442 0.000000 0.813510
O O15 0.500000 0.500000 0.647621
O O16 0.500000 0.630749 0.500000
O O17 0.342255 0.000000 0.000000
#
# Coordination Sequence:
#
# PCOD9382099 Si02
#       7
#     8   8   8   8   4   4   4
#     4   9  17  31  51  71  93 125 164 203 242 284
#     4  10  19  33  50  71  98 125 160 199 238 287
#     4   9  18  31  48  73 101 127 158 197 241 289
#     4   9  18  33  52  72  97 129 160 194 236 283
#     4  10  18  31  48  69  98 127 153 196 248 286
#     4  11  22  35  52  70  91 123 163 205 241 275
#     4   8  16  31  51  72  91 120 164 203 235 277
#
# _framework density 16.61683
#
# number of rings (size 3 to 8) (size 9 to 14) (size 15 to 20)
#    0.000    2.636    0.909    1.091    0.000    3.455 
#    0.000    5.909    0.000    2.182    0.000    0.000 
#    0.000    7.273    0.000    0.000    0.000    0.000 
#
# Total GULP energy -244977.678968 kJ/mol
# GULP energy per Si atom -5567.674522 kJ/mol
# Density = 1.657901 g / cm^3
# Si number density = 16.616830 Si / 1000 Ang^3
#
#
#
# Elastic Constant Matrix: (Units=GPa)
#
#
# Indices 1 2 3 4 5 6 
#
# 1 55.1610 23.4560 -5.8780 0.0000 0.0000 0.0000
# 2 23.4560 63.7041 16.2533 0.0000 0.0000 0.0000
# 3 -5.8780 16.2533 54.1278 0.0000 0.0000 0.0000
# 4 0.0000 0.0000 0.0000 22.8929 0.0000 0.0000
# 5 0.0000 0.0000 0.0000 0.0000 4.2068 0.0000
# 6 0.0000 0.0000 0.0000 0.0000 0.0000 7.5882
#
#
#
# Elastic Compliance Matrix: (Units=1/GPa)
#
#
# Indices 1 2 3 4 5 6 
#
# 1 0.022879 -0.009809 0.005430 0.000000 0.000000 0.000000
# 2 -0.009809 0.021206 -0.007433 0.000000 0.000000 0.000000
# 3 0.005430 -0.007433 0.021296 0.000000 0.000000 0.000000
# 4 0.000000 0.000000 0.000000 0.043682 0.000000 0.000000
# 5 0.000000 0.000000 0.000000 0.000000 0.237708 0.000000
# 6 0.000000 0.000000 0.000000 0.000000 0.000000 0.131784
#
#
# Mechanical properties :
#
#
# Convention : Reuss Voigt Hill
#
# Bulk Modulus (GPa) = 23.94844 26.73952 25.34398
# Shear Modulus (GPa) = 9.68809 16.21500 12.95155
#
# Velocity S-wave (km/s) = 2.41722 3.12720 2.79484
# Velocity P-wave (km/s) = 4.71530 5.40055 5.06951
#
# Compressibility (1/GPa) = 0.04175637
#
# Stress axis : x y z
#
# Youngs Moduli (GPa) = 43.70897 47.15682 46.95631
#
# Poissons Ratio (x) = 0.46258 -0.25497
# Poissons Ratio (y) = 0.42876 0.34902
# Poissons Ratio (z) = -0.23734 0.35051
#
# Static dielectric constant tensor:
#      x y z
#    x 1.524770 0.000000 0.000000 
#    y 0.000000 1.563390 0.000000 
#    z 0.000000 0.000000 1.591560 
# 
# From -- ./inp_files/17468.got.cif
#   From: 2010.05.17/outbox.cif.g08.bks.cpg/sg47_9_cif.got.tgz:17468.got - 2010.06.03 20:15:42.
