data_PCOD9382749
_publ_section_title
;
Structure prediction by ZEFSAII (Michael W. Deem and Ramdas Pophale) SiO2 
 PCOD9382749
Probable space group: P M M M
;
_chemical_formula_sum "Si O2"
_cell_formula_units_Z 64
_cell_length_a 25.062508
_cell_length_b 7.533837
_cell_length_c 16.182695
_cell_angle_alpha 90.000000
_cell_angle_beta 90.000000
_cell_angle_gamma 90.000000
_cell_volume 3055.565496
_symmetry_space_group_name_H-M "P M M M"
_symmetry_group_IT_number 47
_symmetry_cell_setting 'orthorhombic'
loop_
_space_group_symop_operation_xyz
x,y,z
-x,-y,z
x,-y,-z
-x,y,-z
-x,-y,-z
x,y,-z
-x,y,z
x,-y,z
loop_
_atom_site_type_symbol
_atom_site_label
_atom_site_fract_x
_atom_site_fract_y
_atom_site_fract_z
Si Si1 0.740153 0.288590 0.812692
Si Si2 0.411669 0.795397 0.411589
Si Si3 0.858231 0.793437 0.768335
Si Si4 0.825549 0.212937 0.410360
Si Si5 0.439980 0.216545 0.768963
Si Si6 0.061918 0.783239 0.092846
Si Si7 0.704718 0.711481 0.365784
Si Si8 0.360247 0.211622 0.090707
O O1 0.745196 0.500000 0.806805
O O2 0.799754 0.215127 0.809945
O O3 0.710566 0.225745 0.728998
O O4 0.701563 0.242591 0.887419
O O5 0.427590 0.715279 0.500000
O O6 0.430459 0.717261 0.324440
O O7 0.347284 0.793379 0.406241
O O8 0.429922 0.000000 0.412332
O O9 0.851239 0.717274 0.675295
O O10 0.900812 0.717535 0.832874
O O11 0.872439 0.000000 0.757111
O O12 0.844941 0.279075 0.500000
O O13 0.762148 0.248420 0.404708
O O14 0.832171 0.000000 0.409550
O O15 0.500000 0.259223 0.795201
O O16 0.396883 0.282402 0.835046
O O17 0.435445 0.000000 0.765570
O O18 0.000000 0.734205 0.104558
O O19 0.064177 0.000000 0.092931
O O20 0.078430 0.727202 0.000000
O O21 0.697048 0.500000 0.367676
O O22 0.368684 0.000000 0.088763
O O23 0.373288 0.282657 0.000000
#
# Coordination Sequence:
#
# PCOD9382749 Si02
#       8
#     8   8   8   8   8   8   8   8
#     4  10  20  33  49  71 101 132 159 193 241 290
#     4  10  19  30  48  72  96 124 155 188 233 287
#     4   9  17  29  48  72  98 129 164 201 237 281
#     4   9  17  28  42  63  94 130 163 194 232 278
#     4   9  18  33  52  73  97 122 152 197 242 280
#     4   8  14  26  46  72  98 123 157 202 245 282
#     4  10  19  30  46  68  94 125 160 196 234 279
#     4  10  20  34  54  76  96 123 158 194 237 290
#
# _framework density 20.945387
#
# number of rings (size 3 to 8) (size 9 to 14) (size 15 to 20)
#    0.000    2.625    1.250    1.500    0.000    4.250 
#    0.000    3.750    0.000    2.250    0.000    5.250 
#    0.000    0.000    0.000    6.250    0.000    6.500 
#
# Total GULP energy -357052.560098 kJ/mol
# GULP energy per Si atom -5578.946252 kJ/mol
# Density = 2.089771 g / cm^3
# Si number density = 20.945387 Si / 1000 Ang^3
#
#
#
# Elastic Constant Matrix: (Units=GPa)
#
#
# Indices 1 2 3 4 5 6 
#
# 1 81.0521 -4.4007 71.7683 0.0000 0.0000 0.0000
# 2 -4.4007 57.0733 5.6641 0.0000 0.0000 0.0000
# 3 71.7683 5.6641 164.7997 0.0000 0.0000 0.0000
# 4 0.0000 0.0000 0.0000 -3.8750 0.0000 0.0000
# 5 0.0000 0.0000 0.0000 0.0000 218.3504 0.0000
# 6 0.0000 0.0000 0.0000 0.0000 0.0000 -80.5869
#
#
#
# Elastic Compliance Matrix: (Units=1/GPa)
#
#
# Indices 1 2 3 4 5 6 
#
# 1 0.020421 0.002466 -0.008978 0.000000 0.000000 0.000000
# 2 0.002466 0.017879 -0.001688 0.000000 0.000000 0.000000
# 3 -0.008978 -0.001688 0.010036 0.000000 0.000000 0.000000
# 4 0.000000 0.000000 0.000000 -0.258067 0.000000 0.000000
# 5 0.000000 0.000000 0.000000 0.000000 0.004580 0.000000
# 6 0.000000 0.000000 0.000000 0.000000 0.000000 -0.012409
#
#
# Mechanical properties :
#
#
# Convention : Reuss Voigt Hill
#
# Bulk Modulus (GPa) = 31.31376 49.88760 40.60068
# Shear Modulus (GPa) = -26.24481 42.10392 7.92956
#
# Velocity S-wave (km/s) = -3.54363 4.48836 1.94783
# Velocity P-wave (km/s) = 1.32682 7.12251 4.94822
#
# Compressibility (1/GPa) = 0.03193485
#
# Stress axis : x y z
#
# Youngs Moduli (GPa) = 48.96871 55.93153 99.64352
#
# Poissons Ratio (x) = -0.13790 0.89459
# Poissons Ratio (y) = -0.12074 0.16822
# Poissons Ratio (z) = 0.43964 0.09443
#
# Static dielectric constant tensor:
#      x y z
#    x 1.705700 0.000000 0.000000 
#    y 0.000000 1.772580 0.000000 
#    z 0.000000 0.000000 1.801080 
# 
# From -- ./inp_files/28931.got.cif
#   From: 2010.05.17/outbox.cif.g08.bks.cpg/sg47_15_cif.got.tgz:28931.got - 2010.06.03 20:15:42.
