data_PCOD9382615
_publ_section_title
;
Structure prediction by ZEFSAII (Michael W. Deem and Ramdas Pophale) SiO2 
 PCOD9382615
Probable space group: P M M M
;
_chemical_formula_sum "Si O2"
_cell_formula_units_Z 44
_cell_length_a 15.910996
_cell_length_b 7.317935
_cell_length_c 17.144143
_cell_angle_alpha 90.000000
_cell_angle_beta 90.000000
_cell_angle_gamma 90.000000
_cell_volume 1996.189168
_symmetry_space_group_name_H-M "P M M M"
_symmetry_group_IT_number 47
_symmetry_cell_setting 'orthorhombic'
loop_
_space_group_symop_operation_xyz
x,y,z
-x,-y,z
x,-y,-z
-x,y,-z
-x,-y,-z
x,y,-z
-x,y,z
x,-y,z
loop_
_atom_site_type_symbol
_atom_site_label
_atom_site_fract_x
_atom_site_fract_y
_atom_site_fract_z
Si Si1 0.089412 0.713925 0.906388
Si Si2 0.271083 0.712260 0.870614
Si Si3 0.096332 0.777675 0.589863
Si Si4 0.597313 0.276978 0.000000
Si Si5 0.408958 0.777750 0.589871
Si Si6 0.253309 0.779023 0.691483
O O1 0.089956 0.500000 0.882391
O O2 0.178773 0.796167 0.884476
O O3 0.000000 0.791028 0.877557
O O4 0.087150 0.718736 0.000000
O O5 0.263939 0.500000 0.894776
O O6 0.279172 0.721680 0.778083
O O7 0.347460 0.781527 0.924258
O O8 0.117828 0.724502 0.500000
O O9 0.164579 0.717875 0.653995
O O10 0.000000 0.721012 0.605638
O O11 0.097046 0.000000 0.590214
O O12 0.592953 0.500000 0.000000
O O13 0.500000 0.215184 0.000000
O O14 0.404411 0.722516 0.500000
O O15 0.500000 0.721386 0.622008
O O16 0.328057 0.716180 0.635715
O O17 0.407662 0.000000 0.590909
O O18 0.250704 0.000000 0.691852
#
# Coordination Sequence:
#
# PCOD9382615 Si02
#       6
#     8   8   8   4   8   8
#     4   8  13  24  45  68  85 106 143 188 223 252
#     4  10  19  32  49  69  92 119 153 191 229 274
#     4   8  14  26  45  68  94 127 165 195 218 258
#     4   9  18  34  54  70  86 117 161 199 228 270
#     4   8  14  26  45  67  89 115 150 189 224 262
#     4  10  19  29  45  71  98 121 147 188 235 273
#
# _framework density 22.042000000000002
#
# number of rings (size 3 to 8) (size 9 to 14) (size 15 to 20)
#    0.000    3.182    0.909    2.182    0.000    3.636 
#    0.000    0.455    0.000    2.727    0.000    3.818 
#    0.000    0.000    0.000    0.000    0.000    0.000 
#
# Total GULP energy -245273.432597 kJ/mol
# GULP energy per Si atom -5574.396195 kJ/mol
# Density = 2.199183 g / cm^3
# Si number density = 22.042000 Si / 1000 Ang^3
#
#
#
# Elastic Constant Matrix: (Units=GPa)
#
#
# Indices 1 2 3 4 5 6 
#
# 1 226.4949 9.0776 100.3085 0.0000 0.0000 0.0000
# 2 9.0776 88.9235 -4.2956 0.0000 0.0000 0.0000
# 3 100.3085 -4.2956 112.4250 0.0000 0.0000 0.0000
# 4 0.0000 0.0000 0.0000 -13.6608 0.0000 0.0000
# 5 0.0000 0.0000 0.0000 0.0000 -6.2175 0.0000
# 6 0.0000 0.0000 0.0000 0.0000 0.0000 -15.9266
#
#
#
# Elastic Compliance Matrix: (Units=1/GPa)
#
#
# Indices 1 2 3 4 5 6 
#
# 1 0.007401 -0.001076 -0.006644 0.000000 0.000000 0.000000
# 2 -0.001076 0.011423 0.001397 0.000000 0.000000 0.000000
# 3 -0.006644 0.001397 0.014876 0.000000 0.000000 0.000000
# 4 0.000000 0.000000 0.000000 -0.073202 0.000000 0.000000
# 5 0.000000 0.000000 0.000000 0.000000 -0.160836 0.000000
# 6 0.000000 0.000000 0.000000 0.000000 0.000000 -0.062788
#
#
# Mechanical properties :
#
#
# Convention : Reuss Voigt Hill
#
# Bulk Modulus (GPa) = 47.50039 70.89162 59.19600
# Shear Modulus (GPa) = -20.53718 14.35588 -3.09065
#
# Velocity S-wave (km/s) = -3.05574 2.55482 -1.18541
# Velocity P-wave (km/s) = 3.02435 6.39802 5.00407
#
# Compressibility (1/GPa) = 0.02105246
#
# Stress axis : x y z
#
# Youngs Moduli (GPa) = 135.11920 87.54274 67.22018
#
# Poissons Ratio (x) = 0.09424 0.44664
# Poissons Ratio (y) = 0.14545 -0.09390
# Poissons Ratio (z) = 0.89778 -0.12229
#
# Static dielectric constant tensor:
#      x y z
#    x 1.804930 0.000000 0.000000 
#    y 0.000000 1.868320 0.000000 
#    z 0.000000 0.000000 1.707670 
# 
# From -- ./inp_files/17405.got.cif
#   From: 2010.05.17/outbox.cif.g08.bks.cpg/sg47_9_cif.got.tgz:17405.got - 2010.06.03 20:15:42.
