data_PCOD9382056
_publ_section_title
;
Structure prediction by ZEFSAII (Michael W. Deem and Ramdas Pophale) SiO2 
 PCOD9382056
Probable space group: P M M M
;
_chemical_formula_sum "Si O2"
_cell_formula_units_Z 52
_cell_length_a 23.773412
_cell_length_b 7.931229
_cell_length_c 14.819677
_cell_angle_alpha 90.000000
_cell_angle_beta 90.000000
_cell_angle_gamma 90.000000
_cell_volume 2794.285290
_symmetry_space_group_name_H-M "P M M M"
_symmetry_group_IT_number 47
_symmetry_cell_setting 'orthorhombic'
loop_
_space_group_symop_operation_xyz
x,y,z
-x,-y,z
x,-y,-z
-x,y,-z
-x,-y,-z
x,y,-z
-x,y,z
x,-y,z
loop_
_atom_site_type_symbol
_atom_site_label
_atom_site_fract_x
_atom_site_fract_y
_atom_site_fract_z
Si Si1 0.851619 0.796635 0.100770
Si Si2 0.000000 0.293320 0.604669
Si Si3 0.279092 0.794209 0.100328
Si Si4 0.222725 0.201717 0.398283
Si Si5 0.111183 0.699732 0.707755
Si Si6 0.329241 0.202874 0.714866
Si Si7 0.563654 0.296900 0.397793
O O1 0.786246 0.744899 0.114551
O O2 0.887271 0.737673 0.185862
O O3 0.852252 0.000000 0.100933
O O4 0.868839 0.740239 0.000000
O O5 0.944103 0.234977 0.656645
O O6 0.000000 0.500000 0.605915
O O7 0.000000 0.241932 0.500000
O O8 0.316712 0.735827 0.183719
O O9 0.279571 0.000000 0.099891
O O10 0.296260 0.738645 0.000000
O O11 0.216250 0.268917 0.500000
O O12 0.167835 0.233051 0.338381
O O13 0.278764 0.267444 0.349168
O O14 0.229058 0.000000 0.404456
O O15 0.112010 0.500000 0.695928
O O16 0.389083 0.244841 0.672482
O O17 0.324758 0.000000 0.717364
O O18 0.577773 0.238605 0.500000
O O19 0.500000 0.239137 0.376847
O O20 0.562562 0.500000 0.399899
#
# Coordination Sequence:
#
# PCOD9382056 Si02
#       7
#     8   4   8   8   8   8   8
#     4   9  17  33  56  77 102 136 167 201 253 312
#     4   9  20  38  54  69  96 138 181 213 250 305
#     4   8  14  27  49  74 100 131 162 194 241 299
#     4  10  20  33  49  73 106 135 162 206 261 311
#     4  11  21  34  54  76 100 132 172 218 258 300
#     4  10  18  30  51  77 102 127 164 209 249 293
#     4   9  19  35  51  68  97 137 174 207 247 297
#
# _framework density 18.60941
#
# number of rings (size 3 to 8) (size 9 to 14) (size 15 to 20)
#    0.000    2.538    1.538    2.769    0.000    3.077 
#    0.000    2.692    0.000    6.000    0.000    3.231 
#    0.000    0.000    0.000    0.000    0.000    0.000 
#
# Total GULP energy -290050.307616 kJ/mol
# GULP energy per Si atom -5577.890531 kJ/mol
# Density = 1.856705 g / cm^3
# Si number density = 18.609410 Si / 1000 Ang^3
#
#
#
# Elastic Constant Matrix: (Units=GPa)
#
#
# Indices 1 2 3 4 5 6 
#
# 1 110.8888 1.4565 86.4168 0.0000 0.0000 0.0000
# 2 1.4565 12.7819 5.7985 0.0000 0.0000 0.0000
# 3 86.4168 5.7985 177.3382 0.0000 0.0000 0.0000
# 4 0.0000 0.0000 0.0000 17.0285 0.0000 0.0000
# 5 0.0000 0.0000 0.0000 0.0000 31.4941 0.0000
# 6 0.0000 0.0000 0.0000 0.0000 0.0000 19.8324
#
#
#
# Elastic Compliance Matrix: (Units=1/GPa)
#
#
# Indices 1 2 3 4 5 6 
#
# 1 0.014571 0.001584 -0.007152 0.000000 0.000000 0.000000
# 2 0.001584 0.079586 -0.003374 0.000000 0.000000 0.000000
# 3 -0.007152 -0.003374 0.009235 0.000000 0.000000 0.000000
# 4 0.000000 0.000000 0.000000 0.058725 0.000000 0.000000
# 5 0.000000 0.000000 0.000000 0.000000 0.031752 0.000000
# 6 0.000000 0.000000 0.000000 0.000000 0.000000 0.050423
#
#
# Mechanical properties :
#
#
# Convention : Reuss Voigt Hill
#
# Bulk Modulus (GPa) = 11.69499 54.26139 32.97819
# Shear Modulus (GPa) = 17.20117 27.49345 22.34731
#
# Velocity S-wave (km/s) = 3.04357 3.84786 3.46910
# Velocity P-wave (km/s) = 4.31847 6.99734 5.81429
#
# Compressibility (1/GPa) = 0.08550668
#
# Stress axis : x y z
#
# Youngs Moduli (GPa) = 68.62908 12.56508 108.28871
#
# Poissons Ratio (x) = -0.01991 0.77451
# Poissons Ratio (y) = -0.10872 0.36539
# Poissons Ratio (z) = 0.49085 0.04240
#
# Static dielectric constant tensor:
#      x y z
#    x 1.617300 0.000000 0.000000 
#    y 0.000000 1.681030 0.000000 
#    z 0.000000 0.000000 1.661140 
# 
# From -- ./inp_files/21390.got.cif
#   From: 2010.05.17/outbox.cif.g08.bks.cpg/sg47_11_cif.got.tgz:21390.got - 2010.06.03 20:15:42.
