data_PCOD9382910
_publ_section_title
;
Structure prediction by ZEFSAII (Michael W. Deem and Ramdas Pophale) SiO2 
 PCOD9382910
Probable space group: P M M M
;
_chemical_formula_sum "Si O2"
_cell_formula_units_Z 52
_cell_length_a 7.368525
_cell_length_b 15.238473
_cell_length_c 21.133572
_cell_angle_alpha 90.000000
_cell_angle_beta 90.000000
_cell_angle_gamma 90.000000
_cell_volume 2372.984596
_symmetry_space_group_name_H-M "P M M M"
_symmetry_group_IT_number 47
_symmetry_cell_setting 'orthorhombic'
loop_
_space_group_symop_operation_xyz
x,y,z
-x,-y,z
x,-y,-z
-x,y,-z
-x,-y,-z
x,y,-z
-x,y,z
x,-y,z
loop_
_atom_site_type_symbol
_atom_site_label
_atom_site_fract_x
_atom_site_fract_y
_atom_site_fract_z
Si Si1 0.787794 0.905386 0.407116
Si Si2 0.719125 0.094430 0.742095
Si Si3 0.277867 0.194987 0.072008
Si Si4 0.292255 0.000000 0.922822
Si Si5 0.785519 0.401264 0.311256
Si Si6 0.221693 0.289048 0.568977
Si Si7 0.718171 0.275070 0.803407
O O1 0.773584 0.903579 0.331143
O O2 0.713995 0.811965 0.428788
O O3 0.000000 0.906357 0.424682
O O4 0.710444 0.000000 0.427165
O O5 0.500000 0.095585 0.745168
O O6 0.784204 0.183544 0.773258
O O7 0.778889 0.000000 0.769127
O O8 0.500000 0.190843 0.071320
O O9 0.217007 0.096484 0.092403
O O10 0.223481 0.267362 0.123524
O O11 0.220239 0.211489 0.000000
O O12 0.500000 0.000000 0.898609
O O13 0.297975 0.000000 0.000000
O O14 0.711382 0.500000 0.310513
O O15 0.714038 0.342160 0.369462
O O16 0.766582 0.353009 0.243883
O O17 0.000000 0.407745 0.322843
O O18 0.269445 0.327058 0.500000
O O19 0.000000 0.286220 0.572085
O O20 0.500000 0.273542 0.803837
#
# Coordination Sequence:
#
# PCOD9382910 Si02
#       7
#     8   8   8   4   8   8   8
#     4   9  16  27  45  68  95 127 160 193 229 273
#     4   9  17  27  41  66 100 132 160 191 229 275
#     4   8  14  24  40  67 102 134 163 195 232 275
#     4   7  10  18  34  60  97 135 164 191 224 266
#     4  10  21  37  55  73  94 121 157 204 254 300
#     4   9  17  30  49  73  98 122 153 195 240 287
#     4  10  19  30  50  76 100 129 162 199 241 284
#
# _framework density 21.913332
#
# number of rings (size 3 to 8) (size 9 to 14) (size 15 to 20)
#    0.000    3.000    1.538    0.923    1.077    0.923 
#    0.000    3.077    0.000    2.769    0.000    6.462 
#    0.000    1.846    0.000    0.000    0.000    0.000 
#
# Total GULP energy -290057.182044 kJ/mol
# GULP energy per Si atom -5578.022732 kJ/mol
# Density = 2.186346 g / cm^3
# Si number density = 21.913332 Si / 1000 Ang^3
#
#
#
# Elastic Constant Matrix: (Units=GPa)
#
#
# Indices 1 2 3 4 5 6 
#
# 1 79.5908 8.7858 -1.2387 0.0000 0.0000 0.0000
# 2 8.7858 155.9221 88.8435 0.0000 0.0000 0.0000
# 3 -1.2387 88.8435 154.2827 0.0000 0.0000 0.0000
# 4 0.0000 0.0000 0.0000 -3.3417 0.0000 0.0000
# 5 0.0000 0.0000 0.0000 0.0000 3.0065 0.0000
# 6 0.0000 0.0000 0.0000 0.0000 0.0000 -12.7432
#
#
#
# Elastic Compliance Matrix: (Units=1/GPa)
#
#
# Indices 1 2 3 4 5 6 
#
# 1 0.012703 -0.001152 0.000765 0.000000 0.000000 0.000000
# 2 -0.001152 0.009650 -0.005566 0.000000 0.000000 0.000000
# 3 0.000765 -0.005566 0.009693 0.000000 0.000000 0.000000
# 4 0.000000 0.000000 0.000000 -0.299246 0.000000 0.000000
# 5 0.000000 0.000000 0.000000 0.000000 0.332610 0.000000
# 6 0.000000 0.000000 0.000000 0.000000 0.000000 -0.078473
#
#
# Mechanical properties :
#
#
# Convention : Reuss Voigt Hill
#
# Bulk Modulus (GPa) = 49.65041 64.73077 57.19059
# Shear Modulus (GPa) = 899.94682 16.94464 458.44573
#
# Velocity S-wave (km/s) = 20.28734 2.78377 14.47974
# Velocity P-wave (km/s) = 23.90554 6.31950 17.48444
#
# Compressibility (1/GPa) = 0.02014082
#
# Stress axis : x y z
#
# Youngs Moduli (GPa) = 78.71957 103.62779 103.16717
#
# Poissons Ratio (x) = 0.11936 -0.07895
# Poissons Ratio (y) = 0.09067 0.57424
# Poissons Ratio (z) = -0.06024 0.57681
#
# Static dielectric constant tensor:
#      x y z
#    x 1.902810 0.000000 0.000000 
#    y 0.000000 1.790210 0.000000 
#    z 0.000000 0.000000 1.827050 
# 
# From -- ./inp_files/25002.got.cif
#   From: 2010.05.17/outbox.cif.g08.bks.cpg/sg47_13_cif.got.tgz:25002.got - 2010.06.03 20:15:42.
