data_PCOD9382176
_publ_section_title
;
Structure prediction by ZEFSAII (Michael W. Deem and Ramdas Pophale) SiO2 
 PCOD9382176
Probable space group: P M M M
;
_chemical_formula_sum "Si O2"
_cell_formula_units_Z 52
_cell_length_a 14.908210
_cell_length_b 7.518180
_cell_length_c 25.803628
_cell_angle_alpha 90.000000
_cell_angle_beta 90.000000
_cell_angle_gamma 90.000000
_cell_volume 2892.137877
_symmetry_space_group_name_H-M "P M M M"
_symmetry_group_IT_number 47
_symmetry_cell_setting 'orthorhombic'
loop_
_space_group_symop_operation_xyz
x,y,z
-x,-y,z
x,-y,-z
-x,y,-z
-x,-y,-z
x,y,-z
-x,y,z
x,-y,z
loop_
_atom_site_type_symbol
_atom_site_label
_atom_site_fract_x
_atom_site_fract_y
_atom_site_fract_z
Si Si1 0.291940 0.784991 0.556436
Si Si2 0.901130 0.783440 0.407677
Si Si3 0.280753 0.206024 0.759247
Si Si4 0.393929 0.212716 0.857303
Si Si5 0.608576 0.500000 0.058740
Si Si6 0.601662 0.708975 0.660885
Si Si7 0.900950 0.782863 0.713518
O O1 0.325486 0.726220 0.500000
O O2 0.188896 0.724047 0.564001
O O3 0.351250 0.731765 0.605385
O O4 0.290530 0.000000 0.556740
O O5 0.891906 0.733851 0.347071
O O6 0.000000 0.724676 0.426012
O O7 0.901792 0.000000 0.410213
O O8 0.337401 0.276326 0.807541
O O9 0.338860 0.211020 0.706725
O O10 0.183619 0.284750 0.745760
O O11 0.265036 0.000000 0.772218
O O12 0.500000 0.243093 0.847168
O O13 0.367316 0.326566 0.907516
O O14 0.383019 0.000000 0.864941
O O15 0.500000 0.500000 0.055712
O O16 0.643211 0.500000 0.000000
O O17 0.500000 0.779519 0.660283
O O18 0.597880 0.500000 0.672002
O O19 0.000000 0.727977 0.731362
O O20 0.898753 0.000000 0.713985
#
# Coordination Sequence:
#
# PCOD9382176 Si02
#       7
#     8   8   8   8   4   8   8
#     4  10  20  34  52  71  88 111 150 197 240 288
#     4   8  13  24  44  70  95 114 139 181 232 286
#     4  10  18  31  52  75 100 127 158 200 245 288
#     4   9  18  30  46  73 105 138 177 216 252 293
#     4   9  18  32  50  72 103 145 182 214 254 293
#     4  11  24  37  49  66  88 121 159 194 242 299
#     4   8  13  23  44  72  98 123 150 185 235 294
#
# _framework density 17.979778
#
# number of rings (size 3 to 8) (size 9 to 14) (size 15 to 20)
#    0.000    2.692    1.538    1.846    1.077    3.077 
#    0.000    4.615    0.000    1.846    0.000    1.077 
#    0.000    1.231    0.000    6.000    0.000    0.154 
#
# Total GULP energy -289973.016845 kJ/mol
# GULP energy per Si atom -5576.404170 kJ/mol
# Density = 1.793886 g / cm^3
# Si number density = 17.979778 Si / 1000 Ang^3
#
#
#
# Elastic Constant Matrix: (Units=GPa)
#
#
# Indices 1 2 3 4 5 6 
#
# 1 105.2344 7.3064 51.2052 0.0000 0.0000 0.0000
# 2 7.3064 48.0467 10.0860 0.0000 0.0000 0.0000
# 3 51.2052 10.0860 117.2104 0.0000 0.0000 0.0000
# 4 0.0000 0.0000 0.0000 32.2244 0.0000 0.0000
# 5 0.0000 0.0000 0.0000 0.0000 13.9609 0.0000
# 6 0.0000 0.0000 0.0000 0.0000 0.0000 39.1660
#
#
#
# Elastic Compliance Matrix: (Units=1/GPa)
#
#
# Indices 1 2 3 4 5 6 
#
# 1 0.012094 -0.000743 -0.005219 0.000000 0.000000 0.000000
# 2 -0.000743 0.021242 -0.001503 0.000000 0.000000 0.000000
# 3 -0.005219 -0.001503 0.010941 0.000000 0.000000 0.000000
# 4 0.000000 0.000000 0.000000 0.031032 0.000000 0.000000
# 5 0.000000 0.000000 0.000000 0.000000 0.071628 0.000000
# 6 0.000000 0.000000 0.000000 0.000000 0.000000 0.025532
#
#
# Mechanical properties :
#
#
# Convention : Reuss Voigt Hill
#
# Bulk Modulus (GPa) = 34.07753 45.29853 39.68803
# Shear Modulus (GPa) = 25.35711 30.52987 27.94349
#
# Velocity S-wave (km/s) = 3.75949 4.12516 3.94656
# Velocity P-wave (km/s) = 6.15137 6.92374 6.54895
#
# Compressibility (1/GPa) = 0.02934485
#
# Stress axis : x y z
#
# Youngs Moduli (GPa) = 82.68638 47.07734 91.39765
#
# Poissons Ratio (x) = 0.03500 0.47704
# Poissons Ratio (y) = 0.06147 0.13738
# Poissons Ratio (z) = 0.43158 0.07076
#
# Static dielectric constant tensor:
#      x y z
#    x 1.636590 0.000000 0.000000 
#    y 0.000000 1.685120 0.000000 
#    z 0.000000 0.000000 1.590360 
# 
# From -- ./inp_files/32637.got.cif
#   From: 2010.05.17/outbox.cif.g08.bks.cpg/sg47_17_cif.got.tgz:32637.got - 2010.06.03 20:15:42.
