data_PCOD9382151
_publ_section_title
;
Structure prediction by ZEFSAII (Michael W. Deem and Ramdas Pophale) SiO2 
 PCOD9382151
Probable space group: P M M M
;
_chemical_formula_sum "Si O2"
_cell_formula_units_Z 52
_cell_length_a 7.765533
_cell_length_b 14.387786
_cell_length_c 22.143711
_cell_angle_alpha 90.000000
_cell_angle_beta 90.000000
_cell_angle_gamma 90.000000
_cell_volume 2474.090855
_symmetry_space_group_name_H-M "P M M M"
_symmetry_group_IT_number 47
_symmetry_cell_setting 'orthorhombic'
loop_
_space_group_symop_operation_xyz
x,y,z
-x,-y,z
x,-y,-z
-x,y,-z
-x,-y,-z
x,y,-z
-x,y,z
x,-y,z
loop_
_atom_site_type_symbol
_atom_site_label
_atom_site_fract_x
_atom_site_fract_y
_atom_site_fract_z
Si Si1 0.706789 0.604569 0.687336
Si Si2 0.290058 0.397385 0.070240
Si Si3 0.292948 0.208510 0.120880
Si Si4 0.706137 0.704702 0.566345
Si Si5 0.796534 0.205944 0.746189
Si Si6 0.289277 0.106448 0.000000
Si Si7 0.208596 0.104991 0.626144
O O1 0.500000 0.598717 0.683339
O O2 0.770534 0.500000 0.700459
O O3 0.773095 0.644046 0.622762
O O4 0.741712 0.687283 0.734575
O O5 0.500000 0.398479 0.071751
O O6 0.229967 0.500000 0.087233
O O7 0.230037 0.314143 0.111971
O O8 0.244407 0.379745 0.000000
O O9 0.500000 0.209291 0.117381
O O10 0.248442 0.172921 0.186926
O O11 0.230227 0.153741 0.062015
O O12 0.773957 0.680140 0.500000
O O13 0.500000 0.691599 0.565493
O O14 0.739608 0.813127 0.580624
O O15 0.727859 0.141823 0.691723
O O16 0.000000 0.204161 0.740430
O O17 0.500000 0.111864 0.000000
O O18 0.239244 0.000000 0.000000
O O19 0.000000 0.102547 0.626779
O O20 0.268464 0.000000 0.613408
#
# Coordination Sequence:
#
# PCOD9382151 Si02
#       7
#     8   8   8   8   8   4   8
#     4   9  18  34  55  77 103 138 177 209 239 289
#     4   8  13  23  42  67  90 113 146 187 228 274
#     4  10  18  31  51  73  97 127 163 204 250 304
#     4   9  18  32  51  79 111 136 162 204 256 302
#     4  10  21  35  51  73 101 133 169 214 262 303
#     4   9  18  32  50  74 102 129 161 206 256 305
#     4   9  19  36  54  70  94 133 178 217 252 297
#
# _framework density 21.017821999999999
#
# number of rings (size 3 to 8) (size 9 to 14) (size 15 to 20)
#    0.000    2.846    0.769    0.923    0.000    3.385 
#    0.000    5.000    0.000    0.462    0.000    5.385 
#    0.000    0.000    0.000    0.000    0.000    0.000 
#
# Total GULP energy -289980.919048 kJ/mol
# GULP energy per Si atom -5576.556136 kJ/mol
# Density = 2.096998 g / cm^3
# Si number density = 21.017822 Si / 1000 Ang^3
#
#
#
# Elastic Constant Matrix: (Units=GPa)
#
#
# Indices 1 2 3 4 5 6 
#
# 1 27.7895 3.7187 0.9723 0.0000 0.0000 0.0000
# 2 3.7187 48.2924 2.1517 0.0000 0.0000 0.0000
# 3 0.9723 2.1517 90.4706 0.0000 0.0000 0.0000
# 4 0.0000 0.0000 0.0000 6.2793 0.0000 0.0000
# 5 0.0000 0.0000 0.0000 0.0000 -10.9217 0.0000
# 6 0.0000 0.0000 0.0000 0.0000 0.0000 26.5997
#
#
#
# Elastic Compliance Matrix: (Units=1/GPa)
#
#
# Indices 1 2 3 4 5 6 
#
# 1 0.036369 -0.002786 -0.000325 0.000000 0.000000 0.000000
# 2 -0.002786 0.020943 -0.000468 0.000000 0.000000 0.000000
# 3 -0.000325 -0.000468 0.011068 0.000000 0.000000 0.000000
# 4 0.000000 0.000000 0.000000 0.159253 0.000000 0.000000
# 5 0.000000 0.000000 0.000000 0.000000 -0.091561 0.000000
# 6 0.000000 0.000000 0.000000 0.000000 0.000000 0.037594
#
#
# Mechanical properties :
#
#
# Convention : Reuss Voigt Hill
#
# Bulk Modulus (GPa) = 16.33403 20.02642 18.18022
# Shear Modulus (GPa) = 24.84702 15.03878 19.94290
#
# Velocity S-wave (km/s) = 3.44203 2.67783 3.08369
# Velocity P-wave (km/s) = 4.85645 4.37150 4.62034
#
# Compressibility (1/GPa) = 0.06122188
#
# Stress axis : x y z
#
# Youngs Moduli (GPa) = 27.49592 47.74953 90.35103
#
# Poissons Ratio (x) = 0.13304 0.02933
# Poissons Ratio (y) = 0.07661 0.04230
# Poissons Ratio (z) = 0.00892 0.02235
#
# Static dielectric constant tensor:
#      x y z
#    x 1.781420 0.000000 0.000000 
#    y 0.000000 1.757460 0.000000 
#    z 0.000000 0.000000 1.774200 
# 
# From -- ./inp_files/29565.got.cif
#   From: 2010.05.17/outbox.cif.g08.bks.cpg/sg47_15_cif.got.tgz:29565.got - 2010.06.03 20:15:42.
