data_PCOD9382809
_publ_section_title
;
Structure prediction by ZEFSAII (Michael W. Deem and Ramdas Pophale) SiO2 
 PCOD9382809
Probable space group: P M M M
;
_chemical_formula_sum "Si O2"
_cell_formula_units_Z 56
_cell_length_a 8.156122
_cell_length_b 19.285986
_cell_length_c 19.747281
_cell_angle_alpha 90.000000
_cell_angle_beta 90.000000
_cell_angle_gamma 90.000000
_cell_volume 3106.224685
_symmetry_space_group_name_H-M "P M M M"
_symmetry_group_IT_number 47
_symmetry_cell_setting 'orthorhombic'
loop_
_space_group_symop_operation_xyz
x,y,z
-x,-y,z
x,-y,-z
-x,y,-z
-x,-y,-z
x,y,-z
-x,y,z
x,-y,z
loop_
_atom_site_type_symbol
_atom_site_label
_atom_site_fract_x
_atom_site_fract_y
_atom_site_fract_z
Si Si1 0.304719 0.707657 0.293680
Si Si2 0.800090 0.348253 0.075063
Si Si3 0.196108 0.076498 0.348033
Si Si4 0.198447 0.214475 0.423171
Si Si5 0.304750 0.846867 0.781128
Si Si6 0.197724 0.813189 0.924765
Si Si7 0.197373 0.577768 0.789262
O O1 0.500000 0.706855 0.289264
O O2 0.253588 0.728098 0.369407
O O3 0.243704 0.771432 0.246065
O O4 0.240818 0.634934 0.266389
O O5 0.750929 0.267665 0.082818
O O6 0.741921 0.393494 0.138069
O O7 0.000000 0.349082 0.075837
O O8 0.748875 0.371979 0.000000
O O9 0.258157 0.140108 0.394006
O O10 0.231816 0.097317 0.270506
O O11 0.000000 0.074591 0.357091
O O12 0.261852 0.000000 0.363862
O O13 0.253802 0.225501 0.500000
O O14 0.000000 0.213162 0.422921
O O15 0.500000 0.848507 0.773767
O O16 0.260056 0.853833 0.859548
O O17 0.000000 0.814328 0.923660
O O18 0.250765 0.836430 0.000000
O O19 0.257922 0.500000 0.775851
O O20 0.000000 0.575006 0.793233
#
# Coordination Sequence:
#
# PCOD9382809 Si02
#       7
#     8   8   8   8   8   8   8
#     4  10  20  33  49  70  98 132 167 202 239 286
#     4   8  14  25  42  66  95 125 159 202 250 295
#     4   9  18  32  51  76 105 135 162 189 228 282
#     4   9  18  33  55  81 105 129 157 193 235 279
#     4  10  19  30  47  70  96 130 169 206 243 283
#     4   9  16  27  46  69  92 123 164 210 256 296
#     4  10  19  30  48  72  97 129 168 210 253 294
#
# _framework density 18.028317000000001
#
# number of rings (size 3 to 8) (size 9 to 14) (size 15 to 20)
#    0.000    2.714    1.429    1.714    0.000    2.857 
#    0.000    2.857    0.000    1.286    0.000   11.000 
#    0.000    0.000    0.000    0.000    0.000    0.000 
#
# Total GULP energy -312171.992665 kJ/mol
# GULP energy per Si atom -5574.499869 kJ/mol
# Density = 1.798728 g / cm^3
# Si number density = 18.028317 Si / 1000 Ang^3
#
#
#
# Elastic Constant Matrix: (Units=GPa)
#
#
# Indices 1 2 3 4 5 6 
#
# 1 6.8239 1.2015 -0.8118 0.0000 0.0000 0.0000
# 2 1.2015 64.1738 43.1231 0.0000 0.0000 0.0000
# 3 -0.8118 43.1231 132.2045 0.0000 0.0000 0.0000
# 4 0.0000 0.0000 0.0000 14.1516 0.0000 0.0000
# 5 0.0000 0.0000 0.0000 0.0000 0.4041 0.0000
# 6 0.0000 0.0000 0.0000 0.0000 0.0000 8.5896
#
#
#
# Elastic Compliance Matrix: (Units=1/GPa)
#
#
# Indices 1 2 3 4 5 6 
#
# 1 0.147579 -0.004319 0.002315 0.000000 0.000000 0.000000
# 2 -0.004319 0.020083 -0.006577 0.000000 0.000000 0.000000
# 3 0.002315 -0.006577 0.009724 0.000000 0.000000 0.000000
# 4 0.000000 0.000000 0.000000 0.070664 0.000000 0.000000
# 5 0.000000 0.000000 0.000000 0.000000 2.474628 0.000000
# 6 0.000000 0.000000 0.000000 0.000000 0.000000 0.116420
#
#
# Mechanical properties :
#
#
# Convention : Reuss Voigt Hill
#
# Bulk Modulus (GPa) = 6.24129 32.24753 19.24441
# Shear Modulus (GPa) = 1.71841 15.27501 8.49671
#
# Velocity S-wave (km/s) = 0.97736 2.91396 2.17329
# Velocity P-wave (km/s) = 2.17787 5.40810 4.12254
#
# Compressibility (1/GPa) = 0.16022319
#
# Stress axis : x y z
#
# Youngs Moduli (GPa) = 6.77605 49.79241 102.84149
#
# Poissons Ratio (x) = 0.21504 -0.23807
# Poissons Ratio (y) = 0.02926 0.67643
# Poissons Ratio (z) = -0.01569 0.32750
#
# Static dielectric constant tensor:
#      x y z
#    x 1.627650 0.000000 0.000000 
#    y 0.000000 1.615230 0.000000 
#    z 0.000000 0.000000 1.620340 
# 
# From -- ./inp_files/11488.got.cif
#   From: 2010.05.17/outbox.cif.g08.bks.cpg/sg47_6_cif.got.tgz:11488.got - 2010.06.03 20:15:42.
