data_PCOD9382271
_publ_section_title
;
Structure prediction by ZEFSAII (Michael W. Deem and Ramdas Pophale) SiO2 
 PCOD9382271
Probable space group: P M M M
;
_chemical_formula_sum "Si O2"
_cell_formula_units_Z 48
_cell_length_a 18.350787
_cell_length_b 7.448837
_cell_length_c 16.040659
_cell_angle_alpha 90.000000
_cell_angle_beta 90.000000
_cell_angle_gamma 90.000000
_cell_volume 2192.630100
_symmetry_space_group_name_H-M "P M M M"
_symmetry_group_IT_number 47
_symmetry_cell_setting 'orthorhombic'
loop_
_space_group_symop_operation_xyz
x,y,z
-x,-y,z
x,-y,-z
-x,y,-z
-x,-y,-z
x,y,-z
-x,y,z
x,-y,z
loop_
_atom_site_type_symbol
_atom_site_label
_atom_site_fract_x
_atom_site_fract_y
_atom_site_fract_z
Si Si1 0.582917 0.219259 0.500000
Si Si2 0.849673 0.219009 0.406718
Si Si3 0.344759 0.292640 0.160901
Si Si4 0.500000 0.718254 0.902362
Si Si5 0.810468 0.208615 0.091861
Si Si6 0.081927 0.219336 0.235046
Si Si7 0.312792 0.217263 0.351979
O O1 0.500000 0.279484 0.500000
O O2 0.626792 0.275761 0.581863
O O3 0.583077 0.000000 0.500000
O O4 0.869430 0.278903 0.500000
O O5 0.898468 0.277463 0.328874
O O6 0.766803 0.271815 0.384437
O O7 0.851267 0.000000 0.408154
O O8 0.345275 0.500000 0.135056
O O9 0.424368 0.217294 0.138362
O O10 0.274724 0.212439 0.115088
O O11 0.330060 0.279787 0.259270
O O12 0.500000 0.500000 0.894124
O O13 0.500000 0.761891 0.000000
O O14 0.858574 0.283514 0.167869
O O15 0.831752 0.000000 0.086839
O O16 0.822076 0.288352 0.000000
O O17 0.000000 0.271265 0.212105
O O18 0.084928 0.000000 0.236775
O O19 0.312348 0.000000 0.349485
#
# Coordination Sequence:
#
# PCOD9382271 Si02
#       7
#     4   8   8   4   8   8   8
#     4   9  18  30  49  79 108 140 179 220 271 324
#     4   9  15  26  47  73 102 137 172 209 256 306
#     4  11  22  36  56  79 105 138 177 218 267 320
#     4   9  20  38  55  72  99 134 170 211 261 319
#     4  10  20  35  56  80 106 138 177 219 263 315
#     4   9  17  29  47  76 112 141 168 211 265 318
#     4  10  18  32  53  76 105 140 178 219 262 311
#
# _framework density 21.891518999999999
#
# number of rings (size 3 to 8) (size 9 to 14) (size 15 to 20)
#    0.000    2.333    2.500    1.000    1.167    1.667 
#    0.000    5.000    0.000    4.000    0.000    1.167 
#    0.000    1.333    0.000    0.000    0.000    0.000 
#
# Total GULP energy -268119.550299 kJ/mol
# GULP energy per Si atom -5585.823965 kJ/mol
# Density = 2.184169 g / cm^3
# Si number density = 21.891519 Si / 1000 Ang^3
#
#
#
# Elastic Constant Matrix: (Units=GPa)
#
#
# Indices 1 2 3 4 5 6 
#
# 1 129.5518 2.0752 69.6758 0.0000 0.0000 0.0000
# 2 2.0752 63.0585 -1.0461 0.0000 0.0000 0.0000
# 3 69.6758 -1.0461 176.1315 0.0000 0.0000 0.0000
# 4 0.0000 0.0000 0.0000 -32.7150 0.0000 0.0000
# 5 0.0000 0.0000 0.0000 0.0000 12.3036 0.0000
# 6 0.0000 0.0000 0.0000 0.0000 0.0000 34.3308
#
#
#
# Elastic Compliance Matrix: (Units=1/GPa)
#
#
# Indices 1 2 3 4 5 6 
#
# 1 0.009814 -0.000387 -0.003885 0.000000 0.000000 0.000000
# 2 -0.000387 0.015875 0.000248 0.000000 0.000000 0.000000
# 3 -0.003885 0.000248 0.007216 0.000000 0.000000 0.000000
# 4 0.000000 0.000000 0.000000 -0.030567 0.000000 0.000000
# 5 0.000000 0.000000 0.000000 0.000000 0.081277 0.000000
# 6 0.000000 0.000000 0.000000 0.000000 0.000000 0.029128
#
#
# Mechanical properties :
#
#
# Convention : Reuss Voigt Hill
#
# Bulk Modulus (GPa) = 40.23163 56.68353 48.45758
# Shear Modulus (GPa) = 38.73602 22.65299 30.69451
#
# Velocity S-wave (km/s) = 4.21105 3.22030 3.74855
# Velocity P-wave (km/s) = 6.48549 6.30684 6.39679
#
# Compressibility (1/GPa) = 0.02485607
#
# Stress axis : x y z
#
# Youngs Moduli (GPa) = 101.89049 62.99156 138.58417
#
# Poissons Ratio (x) = 0.02440 0.53837
# Poissons Ratio (y) = 0.03948 -0.03431
# Poissons Ratio (z) = 0.39582 -0.01559
#
# Static dielectric constant tensor:
#      x y z
#    x 1.757940 0.000000 0.000000 
#    y 0.000000 1.848990 0.000000 
#    z 0.000000 0.000000 1.765000 
# 
# From -- ./inp_files/24487.got.cif
#   From: 2010.05.17/outbox.cif.g08.bks.cpg/sg47_13_cif.got.tgz:24487.got - 2010.06.03 20:15:42.
