data_PCOD9382205
_publ_section_title
;
Structure prediction by ZEFSAII (Michael W. Deem and Ramdas Pophale) SiO2 
 PCOD9382205
Probable space group: P M M M
;
_chemical_formula_sum "Si O2"
_cell_formula_units_Z 52
_cell_length_a 8.911236
_cell_length_b 23.881285
_cell_length_c 14.791195
_cell_angle_alpha 90.000000
_cell_angle_beta 90.000000
_cell_angle_gamma 90.000000
_cell_volume 3147.740338
_symmetry_space_group_name_H-M "P M M M"
_symmetry_group_IT_number 47
_symmetry_cell_setting 'orthorhombic'
loop_
_space_group_symop_operation_xyz
x,y,z
-x,-y,z
x,-y,-z
-x,y,-z
-x,-y,-z
x,y,-z
-x,y,z
x,-y,z
loop_
_atom_site_type_symbol
_atom_site_label
_atom_site_fract_x
_atom_site_fract_y
_atom_site_fract_z
Si Si1 0.318310 0.778461 0.709789
Si Si2 0.318060 0.266283 0.900256
Si Si3 0.179195 0.562254 0.715354
Si Si4 0.820598 0.117007 0.393530
Si Si5 0.680269 0.398435 0.897346
Si Si6 0.327223 0.000000 0.609709
Si Si7 0.319357 0.664354 0.605174
O O1 0.500000 0.783246 0.707720
O O2 0.268319 0.768470 0.813347
O O3 0.247455 0.832440 0.663634
O O4 0.277462 0.722281 0.654449
O O5 0.500000 0.263600 0.901217
O O6 0.282933 0.332179 0.888330
O O7 0.264524 0.248593 0.000000
O O8 0.221653 0.500000 0.682711
O O9 0.237503 0.569662 0.817666
O O10 0.249525 0.611502 0.655899
O O11 0.000000 0.566933 0.713789
O O12 0.781096 0.124758 0.500000
O O13 0.000000 0.116178 0.386825
O O14 0.754788 0.057153 0.363046
O O15 0.500000 0.403983 0.886805
O O16 0.718095 0.415730 0.000000
O O17 0.500000 0.000000 0.639222
O O18 0.325110 0.000000 0.500000
O O19 0.276205 0.665874 0.500000
O O20 0.500000 0.659912 0.610928
#
# Coordination Sequence:
#
# PCOD9382205 Si02
#       7
#     8   8   8   8   8   4   8
#     4  10  18  31  53  78 103 130 164 207 250 296
#     4   8  14  27  50  77 101 125 156 199 250 298
#     4  11  24  38  51  70  99 133 166 204 255 316
#     4  10  20  32  47  72 108 145 176 207 246 293
#     4   9  17  33  57  79  98 124 161 205 253 305
#     4   9  17  31  51  73 100 137 180 219 251 286
#     4  10  21  37  56  76  97 125 167 218 262 300
#
# _framework density 16.519787000000001
#
# number of rings (size 3 to 8) (size 9 to 14) (size 15 to 20)
#    0.000    2.385    1.538    2.538    0.000    5.538 
#    0.000    3.077    0.000    0.462    0.000    0.538 
#    0.000    4.308    0.000    0.000    0.000    0.000 
#
# Total GULP energy -290052.856663 kJ/mol
# GULP energy per Si atom -5577.939551 kJ/mol
# Density = 1.648219 g / cm^3
# Si number density = 16.519787 Si / 1000 Ang^3
#
#
#
# Elastic Constant Matrix: (Units=GPa)
#
#
# Indices 1 2 3 4 5 6 
#
# 1 23.9689 41.4458 33.5878 0.0000 0.0000 0.0000
# 2 41.4458 143.3263 76.2317 0.0000 0.0000 0.0000
# 3 33.5878 76.2317 111.8492 0.0000 0.0000 0.0000
# 4 0.0000 0.0000 0.0000 23.6722 0.0000 0.0000
# 5 0.0000 0.0000 0.0000 0.0000 13.6590 0.0000
# 6 0.0000 0.0000 0.0000 0.0000 0.0000 37.8767
#
#
#
# Elastic Compliance Matrix: (Units=1/GPa)
#
#
# Indices 1 2 3 4 5 6 
#
# 1 0.098862 -0.020075 -0.016006 0.000000 0.000000 0.000000
# 2 -0.020075 0.015021 -0.004209 0.000000 0.000000 0.000000
# 3 -0.016006 -0.004209 0.016616 0.000000 0.000000 0.000000
# 4 0.000000 0.000000 0.000000 0.042244 0.000000 0.000000
# 5 0.000000 0.000000 0.000000 0.000000 0.073212 0.000000
# 6 0.000000 0.000000 0.000000 0.000000 0.000000 0.026401
#
#
# Mechanical properties :
#
#
# Convention : Reuss Voigt Hill
#
# Bulk Modulus (GPa) = 20.03229 64.63056 42.33143
# Shear Modulus (GPa) = 13.52902 23.56685 18.54794
#
# Velocity S-wave (km/s) = 2.86485 3.78111 3.35441
# Velocity P-wave (km/s) = 4.80580 7.63351 6.37833
#
# Compressibility (1/GPa) = 0.04991940
#
# Stress axis : x y z
#
# Youngs Moduli (GPa) = 10.11506 66.57336 60.18351
#
# Poissons Ratio (x) = 1.33647 0.96327
# Poissons Ratio (y) = 0.20306 0.25333
# Poissons Ratio (z) = 0.16190 0.28022
#
# Static dielectric constant tensor:
#      x y z
#    x 1.548810 0.000000 0.000000 
#    y 0.000000 1.535620 0.000000 
#    z 0.000000 0.000000 1.561800 
# 
# From -- ./inp_files/6934.got.cif
#   From: 2010.05.17/outbox.cif.g08.bks.cpg/sg47_4_cif.got.tgz:6934.got - 2010.06.03 20:15:42.
