data_PCOD9382258
_publ_section_title
;
Structure prediction by ZEFSAII (Michael W. Deem and Ramdas Pophale) SiO2 
 PCOD9382258
Probable space group: P M M M
;
_chemical_formula_sum "Si O2"
_cell_formula_units_Z 52
_cell_length_a 27.327546
_cell_length_b 8.738805
_cell_length_c 12.568764
_cell_angle_alpha 90.000000
_cell_angle_beta 90.000000
_cell_angle_gamma 90.000000
_cell_volume 3001.547733
_symmetry_space_group_name_H-M "P M M M"
_symmetry_group_IT_number 47
_symmetry_cell_setting 'orthorhombic'
loop_
_space_group_symop_operation_xyz
x,y,z
-x,-y,z
x,-y,-z
-x,y,-z
-x,-y,-z
x,y,-z
-x,y,z
x,-y,z
loop_
_atom_site_type_symbol
_atom_site_label
_atom_site_fract_x
_atom_site_fract_y
_atom_site_fract_z
Si Si1 0.557365 0.815851 0.620997
Si Si2 0.673293 0.313820 0.000000
Si Si3 0.863101 0.816646 0.833966
Si Si4 0.787309 0.315828 0.000000
Si Si5 0.275979 0.818575 0.622740
Si Si6 0.639696 0.316511 0.769379
Si Si7 0.944560 0.185850 0.000000
Si Si8 0.832488 0.317110 0.379874
O O1 0.571139 0.768302 0.500000
O O2 0.500000 0.779711 0.635847
O O3 0.591580 0.742833 0.709637
O O4 0.562525 0.000000 0.625306
O O5 0.730535 0.266957 0.000000
O O6 0.646743 0.264851 0.891493
O O7 0.673633 0.500000 0.000000
O O8 0.911808 0.770053 0.898348
O O9 0.862998 0.758586 0.714028
O O10 0.858897 0.000000 0.837898
O O11 0.816994 0.746550 0.898033
O O12 0.788976 0.500000 0.000000
O O13 0.292271 0.796931 0.500000
O O14 0.314466 0.745909 0.702459
O O15 0.223135 0.741164 0.633499
O O16 0.271496 0.000000 0.641509
O O17 0.640162 0.500000 0.767437
O O18 0.000000 0.243485 0.000000
O O19 0.946592 0.000000 0.000000
O O20 0.847932 0.275272 0.500000
O O21 0.833466 0.500000 0.370147
#
# Coordination Sequence:
#
# PCOD9382258 Si02
#       8
#     8   4   8   4   8   8   4   8
#     4   9  19  37  58  77  98 123 153 197 253 304
#     4   9  21  36  47  66  99 138 169 194 233 282
#     4  10  19  31  51  78 104 132 170 215 261 305
#     4  10  18  32  53  72  99 139 177 211 247 294
#     4  10  20  33  50  74 104 134 165 205 251 296
#     4  11  21  34  52  73 100 132 167 204 243 293
#     4   8  16  32  53  77 103 130 165 214 264 305
#     4  10  20  33  49  71 102 139 175 208 247 301
#
# _framework density 17.324396
#
# number of rings (size 3 to 8) (size 9 to 14) (size 15 to 20)
#    0.000    2.231    0.000    4.385    0.000    5.538 
#    0.000    5.000    0.000   11.077    0.000    3.231 
#    0.000    0.000    0.000    0.000    0.000    0.000 
#
# Total GULP energy -290237.985655 kJ/mol
# GULP energy per Si atom -5581.499724 kJ/mol
# Density = 1.728496 g / cm^3
# Si number density = 17.324396 Si / 1000 Ang^3
#
#
#
# Elastic Constant Matrix: (Units=GPa)
#
#
# Indices 1 2 3 4 5 6 
#
# 1 95.2649 31.5320 84.4670 0.0000 0.0000 0.0000
# 2 31.5320 47.9545 49.4867 0.0000 0.0000 0.0000
# 3 84.4670 49.4867 163.7889 0.0000 0.0000 0.0000
# 4 0.0000 0.0000 0.0000 27.3160 0.0000 0.0000
# 5 0.0000 0.0000 0.0000 0.0000 7.2125 0.0000
# 6 0.0000 0.0000 0.0000 0.0000 0.0000 35.4340
#
#
#
# Elastic Compliance Matrix: (Units=1/GPa)
#
#
# Indices 1 2 3 4 5 6 
#
# 1 0.019759 -0.003599 -0.009102 0.000000 0.000000 0.000000
# 2 -0.003599 0.030956 -0.007497 0.000000 0.000000 0.000000
# 3 -0.009102 -0.007497 0.013065 0.000000 0.000000 0.000000
# 4 0.000000 0.000000 0.000000 0.036609 0.000000 0.000000
# 5 0.000000 0.000000 0.000000 0.000000 0.138648 0.000000
# 6 0.000000 0.000000 0.000000 0.000000 0.000000 0.028221
#
#
# Mechanical properties :
#
#
# Convention : Reuss Voigt Hill
#
# Bulk Modulus (GPa) = 42.76620 70.88663 56.82642
# Shear Modulus (GPa) = 15.85041 23.42734 19.63888
#
# Velocity S-wave (km/s) = 3.02804 3.68132 3.37055
# Velocity P-wave (km/s) = 6.07985 7.68606 6.92965
#
# Compressibility (1/GPa) = 0.02338295
#
# Stress axis : x y z
#
# Youngs Moduli (GPa) = 50.60977 32.30383 76.54216
#
# Poissons Ratio (x) = 0.11626 0.69672
# Poissons Ratio (y) = 0.18215 0.57383
# Poissons Ratio (z) = 0.46067 0.24218
#
# Static dielectric constant tensor:
#      x y z
#    x 1.565240 0.000000 0.000000 
#    y 0.000000 1.583810 0.000000 
#    z 0.000000 0.000000 1.601380 
# 
# From -- ./inp_files/19898.got.cif
#   From: 2010.05.17/outbox.cif.g08.bks.cpg/sg47_10_cif.got.tgz:19898.got - 2010.06.03 20:15:42.
