data_PCOD9382646
_publ_section_title
;
Structure prediction by ZEFSAII (Michael W. Deem and Ramdas Pophale) SiO2 
 PCOD9382646
Probable space group: P M M M
;
_chemical_formula_sum "Si O2"
_cell_formula_units_Z 44
_cell_length_a 13.211498
_cell_length_b 25.493806
_cell_length_c 9.032976
_cell_angle_alpha 90.000000
_cell_angle_beta 90.000000
_cell_angle_gamma 90.000000
_cell_volume 3042.408994
_symmetry_space_group_name_H-M "P M M M"
_symmetry_group_IT_number 47
_symmetry_cell_setting 'orthorhombic'
loop_
_space_group_symop_operation_xyz
x,y,z
-x,-y,z
x,-y,-z
-x,y,-z
-x,-y,-z
x,y,-z
-x,y,z
x,-y,z
loop_
_atom_site_type_symbol
_atom_site_label
_atom_site_fract_x
_atom_site_fract_y
_atom_site_fract_z
Si Si1 0.000000 0.437265 0.824405
Si Si2 0.878227 0.271607 0.174467
Si Si3 0.187960 0.377300 0.678354
Si Si4 0.613637 0.560376 0.679922
Si Si5 0.876815 0.163863 0.330177
Si Si6 0.122942 0.941977 0.826628
O O1 0.901734 0.411812 0.748912
O O2 0.000000 0.500000 0.805713
O O3 0.000000 0.425183 0.000000
O O4 0.826323 0.318446 0.263395
O O5 0.847561 0.214488 0.234684
O O6 0.000000 0.276785 0.195910
O O7 0.858364 0.276036 0.000000
O O8 0.180181 0.378747 0.500000
O O9 0.295388 0.402027 0.725225
O O10 0.612877 0.560452 0.500000
O O11 0.500000 0.575190 0.728545
O O12 0.632762 0.500000 0.725586
O O13 0.845383 0.170032 0.500000
O O14 0.841317 0.108476 0.263546
O O15 0.000000 0.162487 0.327539
O O16 0.000000 0.941953 0.819040
O O17 0.156162 0.000000 0.775167
O O18 0.148817 0.936457 0.000000
#
# Coordination Sequence:
#
# PCOD9382646 Si02
#       6
#     4   8   8   8   8   8
#     4  11  23  35  45  61  89 119 140 165 208 257
#     4  10  19  30  42  55  79 112 141 169 209 257
#     4  11  20  30  48  69  87 108 140 178 210 248
#     4   8  15  29  48  69  90 109 132 167 212 257
#     4   9  16  24  35  51  71  96 132 175 212 245
#     4   8  13  21  32  46  66  94 129 167 208 252
#
# _framework density 14.462223
#
# number of rings (size 3 to 8) (size 9 to 14) (size 15 to 20)
#    0.000    2.636    0.909    3.545    0.000    4.727 
#    0.000    1.818    0.000    2.182    0.000    6.364 
#    0.000    0.000    0.000    0.000    0.000    0.909 
#
# Total GULP energy -245103.127007 kJ/mol
# GULP energy per Si atom -5570.525614 kJ/mol
# Density = 1.442931 g / cm^3
# Si number density = 14.462223 Si / 1000 Ang^3
#
#
#
# Elastic Constant Matrix: (Units=GPa)
#
#
# Indices 1 2 3 4 5 6 
#
# 1 58.6557 48.7509 29.2411 0.0000 0.0000 0.0000
# 2 48.7509 123.8466 54.6805 0.0000 0.0000 0.0000
# 3 29.2411 54.6805 62.5399 0.0000 0.0000 0.0000
# 4 0.0000 0.0000 0.0000 27.3848 0.0000 0.0000
# 5 0.0000 0.0000 0.0000 0.0000 2.1781 0.0000
# 6 0.0000 0.0000 0.0000 0.0000 0.0000 7.7234
#
#
#
# Elastic Compliance Matrix: (Units=1/GPa)
#
#
# Indices 1 2 3 4 5 6 
#
# 1 0.026375 -0.008042 -0.005301 0.000000 0.000000 0.000000
# 2 -0.008042 0.015603 -0.009882 0.000000 0.000000 0.000000
# 3 -0.005301 -0.009882 0.027109 0.000000 0.000000 0.000000
# 4 0.000000 0.000000 0.000000 0.036517 0.000000 0.000000
# 5 0.000000 0.000000 0.000000 0.000000 0.459115 0.000000
# 6 0.000000 0.000000 0.000000 0.000000 0.000000 0.129476
#
#
# Mechanical properties :
#
#
# Convention : Reuss Voigt Hill
#
# Bulk Modulus (GPa) = 44.17510 56.70969 50.44239
# Shear Modulus (GPa) = 6.68279 14.94858 10.81568
#
# Velocity S-wave (km/s) = 2.15195 3.21850 2.73767
# Velocity P-wave (km/s) = 6.06515 7.28760 6.70429
#
# Compressibility (1/GPa) = 0.02263719
#
# Stress axis : x y z
#
# Youngs Moduli (GPa) = 37.91461 64.08842 36.88857
#
# Poissons Ratio (x) = 0.51540 0.19553
# Poissons Ratio (y) = 0.30491 0.36455
# Poissons Ratio (z) = 0.20097 0.63335
#
# Static dielectric constant tensor:
#      x y z
#    x 1.451000 0.000000 0.000000 
#    y 0.000000 1.487400 0.000000 
#    z 0.000000 0.000000 1.485010 
# 
# From -- ./inp_files/4345.got.cif
#   From: 2010.05.17/outbox.cif.g08.bks.cpg/sg47_3_cif.got.tgz:4345.got - 2010.06.03 20:15:42.
