data_PCOD9382554
_publ_section_title
;
Structure prediction by ZEFSAII (Michael W. Deem and Ramdas Pophale) SiO2 
 PCOD9382554
Probable space group: P M M M
;
_chemical_formula_sum "Si O2"
_cell_formula_units_Z 52
_cell_length_a 14.119101
_cell_length_b 8.854189
_cell_length_c 27.272335
_cell_angle_alpha 90.000000
_cell_angle_beta 90.000000
_cell_angle_gamma 90.000000
_cell_volume 3409.401563
_symmetry_space_group_name_H-M "P M M M"
_symmetry_group_IT_number 47
_symmetry_cell_setting 'orthorhombic'
loop_
_space_group_symop_operation_xyz
x,y,z
-x,-y,z
x,-y,-z
-x,y,-z
-x,-y,-z
x,y,-z
-x,y,z
x,-y,z
loop_
_atom_site_type_symbol
_atom_site_label
_atom_site_fract_x
_atom_site_fract_y
_atom_site_fract_z
Si Si1 0.110949 0.183206 0.607565
Si Si2 0.610080 0.681909 0.943953
Si Si3 0.390795 0.817967 0.753281
Si Si4 0.891257 0.318177 0.200006
Si Si5 0.783668 0.319368 0.300147
Si Si6 0.717093 0.819672 0.146929
Si Si7 0.114946 0.174749 0.500000
O O1 0.174262 0.248782 0.650685
O O2 0.141571 0.238872 0.553141
O O3 0.000000 0.223837 0.615003
O O4 0.115442 0.000000 0.607600
O O5 0.500000 0.724271 0.935235
O O6 0.615677 0.500000 0.940901
O O7 0.675989 0.754153 0.903116
O O8 0.633947 0.725143 0.000000
O O9 0.500000 0.772828 0.747511
O O10 0.319080 0.743542 0.714833
O O11 0.352184 0.777454 0.807567
O O12 0.384916 0.000000 0.748943
O O13 0.886513 0.500000 0.195598
O O14 0.852178 0.278946 0.254222
O O15 0.819394 0.245052 0.161525
O O16 0.000000 0.270871 0.194337
O O17 0.780976 0.500000 0.303980
O O18 0.720792 0.000000 0.144500
O O19 0.000000 0.172691 0.500000
O O20 0.146473 0.000000 0.500000
#
# Coordination Sequence:
#
# PCOD9382554 Si02
#       7
#     8   8   8   8   8   8   4
#     4   9  16  27  44  64  88 119 152 184 218 258
#     4   9  18  32  49  69  93 121 151 180 213 260
#     4   9  18  32  47  64  89 119 150 182 216 260
#     4   9  18  32  47  63  88 123 157 184 213 256
#     4  10  19  29  43  66  93 118 147 183 222 264
#     4  10  19  30  47  71  95 117 144 182 226 265
#     4   7  12  24  41  61  84 113 150 185 215 254
#
# _framework density 15.251944
#
# number of rings (size 3 to 8) (size 9 to 14) (size 15 to 20)
#    0.000    2.846    0.000    3.231    0.000    4.000 
#    0.000    1.154    0.000    1.846    0.000    3.769 
#    0.000    4.308    0.000    0.000    0.000    0.000 
#
# Total GULP energy -289753.961673 kJ/mol
# GULP energy per Si atom -5572.191571 kJ/mol
# Density = 1.521723 g / cm^3
# Si number density = 15.251944 Si / 1000 Ang^3
#
#
#
# Elastic Constant Matrix: (Units=GPa)
#
#
# Indices 1 2 3 4 5 6 
#
# 1 131.1939 37.6444 85.3839 0.0000 0.0000 0.0000
# 2 37.6444 19.7466 37.9767 0.0000 0.0000 0.0000
# 3 85.3839 37.9767 141.9598 0.0000 0.0000 0.0000
# 4 0.0000 0.0000 0.0000 21.6264 0.0000 0.0000
# 5 0.0000 0.0000 0.0000 0.0000 25.4628 0.0000
# 6 0.0000 0.0000 0.0000 0.0000 0.0000 18.4276
#
#
#
# Elastic Compliance Matrix: (Units=1/GPa)
#
#
# Indices 1 2 3 4 5 6 
#
# 1 0.017549 -0.027096 -0.003306 0.000000 0.000000 0.000000
# 2 -0.027096 0.146144 -0.022799 0.000000 0.000000 0.000000
# 3 -0.003306 -0.022799 0.015132 0.000000 0.000000 0.000000
# 4 0.000000 0.000000 0.000000 0.046240 0.000000 0.000000
# 5 0.000000 0.000000 0.000000 0.000000 0.039273 0.000000
# 6 0.000000 0.000000 0.000000 0.000000 0.000000 0.054267
#
#
# Mechanical properties :
#
#
# Convention : Reuss Voigt Hill
#
# Bulk Modulus (GPa) = 13.80792 68.32338 41.06565
# Shear Modulus (GPa) = 11.13221 21.89637 16.51429
#
# Velocity S-wave (km/s) = 2.70457 3.79310 3.29411
# Velocity P-wave (km/s) = 4.33888 8.00483 6.43829
#
# Compressibility (1/GPa) = 0.07242220
#
# Stress axis : x y z
#
# Youngs Moduli (GPa) = 56.98275 6.84259 66.08515
#
# Poissons Ratio (x) = 0.18541 0.21851
# Poissons Ratio (y) = 1.54402 1.50664
# Poissons Ratio (z) = 0.18841 0.15600
#
# Static dielectric constant tensor:
#      x y z
#    x 1.485190 0.000000 0.000000 
#    y 0.000000 1.507440 0.000000 
#    z 0.000000 0.000000 1.504000 
# 
# From -- ./inp_files/7626.got.cif
#   From: 2010.05.17/outbox.cif.g08.bks.cpg/sg47_4_cif.got.tgz:7626.got - 2010.06.03 20:15:42.
