data_PCOD9382456
_publ_section_title
;
Structure prediction by ZEFSAII (Michael W. Deem and Ramdas Pophale) SiO2 
 PCOD9382456
Probable space group: P M M M
;
_chemical_formula_sum "Si O2"
_cell_formula_units_Z 52
_cell_length_a 13.632973
_cell_length_b 16.391038
_cell_length_c 14.135393
_cell_angle_alpha 90.000000
_cell_angle_beta 90.000000
_cell_angle_gamma 90.000000
_cell_volume 3158.674826
_symmetry_space_group_name_H-M "P M M M"
_symmetry_group_IT_number 47
_symmetry_cell_setting 'orthorhombic'
loop_
_space_group_symop_operation_xyz
x,y,z
-x,-y,z
x,-y,-z
-x,y,-z
-x,-y,-z
x,y,-z
-x,y,z
x,-y,z
loop_
_atom_site_type_symbol
_atom_site_label
_atom_site_fract_x
_atom_site_fract_y
_atom_site_fract_z
Si Si1 0.699730 0.089261 0.387544
Si Si2 0.114502 0.401605 0.890197
Si Si3 0.202432 0.660383 0.295768
Si Si4 0.112669 0.500000 0.612921
Si Si5 0.386031 0.261396 0.386517
Si Si6 0.114973 0.833649 0.303571
Si Si7 0.118723 0.094732 0.895758
O O1 0.686795 0.085397 0.500000
O O2 0.637354 0.167845 0.356520
O O3 0.812634 0.110813 0.364887
O O4 0.674212 0.000000 0.347788
O O5 0.123151 0.500000 0.880376
O O6 0.183195 0.357579 0.814722
O O7 0.000000 0.380502 0.870259
O O8 0.133766 0.381341 0.000000
O O9 0.164713 0.580498 0.348863
O O10 0.312089 0.682190 0.327949
O O11 0.138363 0.739512 0.324209
O O12 0.113367 0.500000 0.500000
O O13 0.000000 0.500000 0.646944
O O14 0.364908 0.268217 0.500000
O O15 0.500000 0.279904 0.372433
O O16 0.145011 0.851881 0.194600
O O17 0.000000 0.851516 0.315801
O O18 0.000000 0.095210 0.898522
O O19 0.148041 0.000000 0.881505
O O20 0.153081 0.121622 0.000000
#
# Coordination Sequence:
#
# PCOD9382456 Si02
#       7
#     8   8   8   4   8   8   8
#     4   9  18  31  47  69  95 125 163 202 243 298
#     4   9  17  30  50  75 103 135 168 201 238 285
#     4  11  20  33  51  72  99 131 169 213 256 302
#     4  11  22  34  50  72 100 135 170 202 244 303
#     4   9  19  36  55  74  97 125 163 216 270 310
#     4  10  19  28  42  66  98 133 164 198 244 297
#     4   8  14  25  40  59  87 124 162 195 228 272
#
# _framework density 16.462599999999998
#
# number of rings (size 3 to 8) (size 9 to 14) (size 15 to 20)
#    0.000    2.538    0.769    3.231    0.000    2.769 
#    0.000    4.231    0.000    1.846    0.000    1.077 
#    0.000    0.000    0.000   16.308    0.000    0.923 
#
# Total GULP energy -289769.547200 kJ/mol
# GULP energy per Si atom -5572.491292 kJ/mol
# Density = 1.642513 g / cm^3
# Si number density = 16.462600 Si / 1000 Ang^3
#
#
#
# Elastic Constant Matrix: (Units=GPa)
#
#
# Indices 1 2 3 4 5 6 
#
# 1 88.2019 33.9692 36.4598 0.0000 0.0000 0.0000
# 2 33.9692 88.6836 30.8625 0.0000 0.0000 0.0000
# 3 36.4598 30.8625 47.9179 0.0000 0.0000 0.0000
# 4 0.0000 0.0000 0.0000 20.8860 0.0000 0.0000
# 5 0.0000 0.0000 0.0000 0.0000 16.6804 0.0000
# 6 0.0000 0.0000 0.0000 0.0000 0.0000 8.1973
#
#
#
# Elastic Compliance Matrix: (Units=1/GPa)
#
#
# Indices 1 2 3 4 5 6 
#
# 1 0.016989 -0.002589 -0.011259 0.000000 0.000000 0.000000
# 2 -0.002589 0.014928 -0.007645 0.000000 0.000000 0.000000
# 3 -0.011259 -0.007645 0.034359 0.000000 0.000000 0.000000
# 4 0.000000 0.000000 0.000000 0.047879 0.000000 0.000000
# 5 0.000000 0.000000 0.000000 0.000000 0.059951 0.000000
# 6 0.000000 0.000000 0.000000 0.000000 0.000000 0.121991
#
#
# Mechanical properties :
#
#
# Convention : Reuss Voigt Hill
#
# Bulk Modulus (GPa) = 42.93526 47.48736 45.21131
# Shear Modulus (GPa) = 14.41562 17.38688 15.90125
#
# Velocity S-wave (km/s) = 2.96236 3.25336 3.11127
# Velocity P-wave (km/s) = 6.15125 6.55902 6.35840
#
# Compressibility (1/GPa) = 0.02329088
#
# Stress axis : x y z
#
# Youngs Moduli (GPa) = 58.86210 66.98720 29.10413
#
# Poissons Ratio (x) = 0.17345 0.32768
# Poissons Ratio (y) = 0.15241 0.22249
# Poissons Ratio (z) = 0.66272 0.51210
#
# Static dielectric constant tensor:
#      x y z
#    x 1.529500 0.000000 0.000000 
#    y 0.000000 1.578290 0.000000 
#    z 0.000000 0.000000 1.578220 
# 
# From -- ./inp_files/22794.got.cif
#   From: 2010.05.17/outbox.cif.g08.bks.cpg/sg47_12_cif.got.tgz:22794.got - 2010.06.03 20:15:42.
