data_PCOD9382589
_publ_section_title
;
Structure prediction by ZEFSAII (Michael W. Deem and Ramdas Pophale) SiO2 
 PCOD9382589
Probable space group: P M M M
;
_chemical_formula_sum "Si O2"
_cell_formula_units_Z 64
_cell_length_a 20.280542
_cell_length_b 9.141413
_cell_length_c 20.582099
_cell_angle_alpha 90.000000
_cell_angle_beta 90.000000
_cell_angle_gamma 90.000000
_cell_volume 3815.773175
_symmetry_space_group_name_H-M "P M M M"
_symmetry_group_IT_number 47
_symmetry_cell_setting 'orthorhombic'
loop_
_space_group_symop_operation_xyz
x,y,z
-x,-y,z
x,-y,-z
-x,y,-z
-x,-y,-z
x,y,-z
-x,y,z
x,-y,z
loop_
_atom_site_type_symbol
_atom_site_label
_atom_site_fract_x
_atom_site_fract_y
_atom_site_fract_z
Si Si1 0.840138 0.324590 0.928229
Si Si2 0.924470 0.825343 0.422897
Si Si3 0.705980 0.172602 0.266139
Si Si4 0.573149 0.329645 0.738012
Si Si5 0.164542 0.675648 0.682258
Si Si6 0.706309 0.827465 0.890326
Si Si7 0.925017 0.322096 0.194525
Si Si8 0.573117 0.329711 0.895929
O O1 0.832229 0.500000 0.921893
O O2 0.768897 0.252056 0.920734
O O3 0.887913 0.273746 0.870711
O O4 0.867142 0.294020 0.000000
O O5 0.917142 0.799522 0.500000
O O6 0.871117 0.739465 0.381040
O O7 0.000000 0.783589 0.404836
O O8 0.918014 0.000000 0.412160
O O9 0.634121 0.233504 0.285016
O O10 0.764087 0.257239 0.302642
O O11 0.711606 0.196725 0.187966
O O12 0.711042 0.000000 0.277801
O O13 0.500000 0.282729 0.716364
O O14 0.582661 0.500000 0.720526
O O15 0.572488 0.324518 0.816935
O O16 0.168496 0.500000 0.679427
O O17 0.117924 0.718666 0.743096
O O18 0.637016 0.761981 0.914979
O O19 0.708358 0.000000 0.902297
O O20 0.926950 0.500000 0.193087
O O21 0.000000 0.269346 0.198422
O O22 0.500000 0.280028 0.917526
O O23 0.580726 0.500000 0.914524
#
# Coordination Sequence:
#
# PCOD9382589 Si02
#       8
#     8   8   8   8   8   8   8   8
#     4  10  20  34  52  70  90 122 162 203 250 305
#     4   9  19  36  55  75 104 141 174 205 246 298
#     4  10  19  29  44  68  98 132 169 205 247 299
#     4   8  14  25  41  63  93 128 163 200 246 295
#     4  11  20  31  51  76 105 136 167 210 252 290
#     4  10  19  30  46  67  94 125 158 200 246 295
#     4   9  18  32  50  74  99 121 153 201 253 298
#     4   8  14  25  43  66  91 120 154 192 236 290
#
# _framework density 16.772485
#
# number of rings (size 3 to 8) (size 9 to 14) (size 15 to 20)
#    0.000    2.625    1.250    2.625    0.000    3.000 
#    0.000    4.375    0.000    1.500    0.000    3.500 
#    0.000    0.500    0.000    5.250    0.000    2.500 
#
# Total GULP energy -356876.309221 kJ/mol
# GULP energy per Si atom -5576.192332 kJ/mol
# Density = 1.673431 g / cm^3
# Si number density = 16.772485 Si / 1000 Ang^3
#
#
#
# Elastic Constant Matrix: (Units=GPa)
#
#
# Indices 1 2 3 4 5 6 
#
# 1 134.5760 46.0966 44.0596 0.0000 0.0000 0.0000
# 2 46.0966 42.8710 32.5557 0.0000 0.0000 0.0000
# 3 44.0596 32.5557 50.9279 0.0000 0.0000 0.0000
# 4 0.0000 0.0000 0.0000 13.5798 0.0000 0.0000
# 5 0.0000 0.0000 0.0000 0.0000 -179.7808 0.0000
# 6 0.0000 0.0000 0.0000 0.0000 0.0000 18.1843
#
#
#
# Elastic Compliance Matrix: (Units=1/GPa)
#
#
# Indices 1 2 3 4 5 6 
#
# 1 0.012213 -0.009927 -0.004220 0.000000 0.000000 0.000000
# 2 -0.009927 0.053401 -0.025548 0.000000 0.000000 0.000000
# 3 -0.004220 -0.025548 0.039618 0.000000 0.000000 0.000000
# 4 0.000000 0.000000 0.000000 0.073639 0.000000 0.000000
# 5 0.000000 0.000000 0.000000 0.000000 -0.005562 0.000000
# 6 0.000000 0.000000 0.000000 0.000000 0.000000 0.054992
#
#
# Mechanical properties :
#
#
# Convention : Reuss Voigt Hill
#
# Bulk Modulus (GPa) = 38.69769 52.64431 45.67100
# Shear Modulus (GPa) = 15.80756 -22.55915 -3.37579
#
# Velocity S-wave (km/s) = 3.07330 -3.67142 -1.42023
# Velocity P-wave (km/s) = 5.97627 3.67193 4.95978
#
# Compressibility (1/GPa) = 0.02584134
#
# Stress axis : x y z
#
# Youngs Moduli (GPa) = 81.88269 18.72629 25.24105
#
# Poissons Ratio (x) = 0.18590 0.10651
# Poissons Ratio (y) = 0.81286 0.64487
# Poissons Ratio (z) = 0.34552 0.47842
#
# Static dielectric constant tensor:
#      x y z
#    x 1.561180 0.000000 0.000000 
#    y 0.000000 1.549210 0.000000 
#    z 0.000000 0.000000 1.564830 
# 
# From -- ./inp_files/9986.got.cif
#   From: 2010.05.17/outbox.cif.g08.bks.cpg/sg47_5_cif.got.tgz:9986.got - 2010.06.03 20:15:42.
