data_PCOD9382803
_publ_section_title
;
Structure prediction by ZEFSAII (Michael W. Deem and Ramdas Pophale) SiO2 
 PCOD9382803
Probable space group: P M M M
;
_chemical_formula_sum "Si O2"
_cell_formula_units_Z 64
_cell_length_a 29.681220
_cell_length_b 7.534121
_cell_length_c 14.594165
_cell_angle_alpha 90.000000
_cell_angle_beta 90.000000
_cell_angle_gamma 90.000000
_cell_volume 3263.574949
_symmetry_space_group_name_H-M "P M M M"
_symmetry_group_IT_number 47
_symmetry_cell_setting 'orthorhombic'
loop_
_space_group_symop_operation_xyz
x,y,z
-x,-y,z
x,-y,-z
-x,y,-z
-x,-y,-z
x,y,-z
-x,y,z
x,-y,z
loop_
_atom_site_type_symbol
_atom_site_label
_atom_site_fract_x
_atom_site_fract_y
_atom_site_fract_z
Si Si1 0.950040 0.286373 0.394553
Si Si2 0.776330 0.790302 0.768951
Si Si3 0.632166 0.286602 0.271682
Si Si4 0.305855 0.212318 0.104782
Si Si5 0.049136 0.783454 0.105533
Si Si6 0.122617 0.788504 0.243601
Si Si7 0.714947 0.285448 0.396357
Si Si8 0.448163 0.283412 0.396127
O O1 0.945405 0.228566 0.500000
O O2 0.951465 0.500000 0.393793
O O3 0.906717 0.235032 0.335423
O O4 0.000000 0.223795 0.361681
O O5 0.738493 0.718116 0.840077
O O6 0.826900 0.716128 0.766320
O O7 0.756107 0.768185 0.667702
O O8 0.779119 0.000000 0.789057
O O9 0.630969 0.500000 0.274934
O O10 0.650860 0.242879 0.170559
O O11 0.670529 0.223927 0.342648
O O12 0.585057 0.223605 0.315084
O O13 0.301049 0.000000 0.099317
O O14 0.309474 0.278972 0.000000
O O15 0.089866 0.716063 0.165347
O O16 0.000000 0.725332 0.139346
O O17 0.049429 0.000000 0.108762
O O18 0.053427 0.733061 0.000000
O O19 0.126687 0.000000 0.231143
O O20 0.717342 0.221157 0.500000
O O21 0.713371 0.500000 0.398626
O O22 0.433663 0.231540 0.500000
O O23 0.500000 0.227826 0.383565
O O24 0.447840 0.500000 0.395831
#
# Coordination Sequence:
#
# PCOD9382803 Si02
#       8
#     8   8   8   8   8   8   8   8
#     4   9  19  35  51  66  87 118 153 183 213 255
#     4   9  19  32  44  64  91 115 143 181 224 267
#     4   9  16  27  46  71  94 116 150 194 230 263
#     4   9  18  33  50  65  86 120 158 193 231 275
#     4   8  14  25  42  65  89 108 128 159 202 252
#     4  10  19  30  47  70  92 113 140 178 222 263
#     4   9  17  29  45  64  87 117 150 181 214 256
#     4   8  13  22  40  69 102 130 153 182 227 280
#
# _framework density 19.610398
#
# number of rings (size 3 to 8) (size 9 to 14) (size 15 to 20)
#    0.000    3.125    0.000    1.875    0.000    4.500 
#    0.000    5.625    0.000    2.250    0.000    7.000 
#    0.000    0.000    0.000    0.000    0.000    0.000 
#
# Total GULP energy -356611.406111 kJ/mol
# GULP energy per Si atom -5572.053220 kJ/mol
# Density = 1.956576 g / cm^3
# Si number density = 19.610398 Si / 1000 Ang^3
#
#
#
# Elastic Constant Matrix: (Units=GPa)
#
#
# Indices 1 2 3 4 5 6 
#
# 1 144.1318 5.1548 91.4287 0.0000 0.0000 0.0000
# 2 5.1548 48.9738 0.6088 0.0000 0.0000 0.0000
# 3 91.4287 0.6088 158.3719 0.0000 0.0000 0.0000
# 4 0.0000 0.0000 0.0000 -62.9809 0.0000 0.0000
# 5 0.0000 0.0000 0.0000 0.0000 27.3892 0.0000
# 6 0.0000 0.0000 0.0000 0.0000 0.0000 9.9324
#
#
#
# Elastic Compliance Matrix: (Units=1/GPa)
#
#
# Indices 1 2 3 4 5 6 
#
# 1 0.011004 -0.001079 -0.006348 0.000000 0.000000 0.000000
# 2 -0.001079 0.020526 0.000544 0.000000 0.000000 0.000000
# 3 -0.006348 0.000544 0.009977 0.000000 0.000000 0.000000
# 4 0.000000 0.000000 0.000000 -0.015878 0.000000 0.000000
# 5 0.000000 0.000000 0.000000 0.000000 0.036511 0.000000
# 6 0.000000 0.000000 0.000000 0.000000 0.000000 0.100681
#
#
# Mechanical properties :
#
#
# Convention : Reuss Voigt Hill
#
# Bulk Modulus (GPa) = 36.04928 60.65133 48.35031
# Shear Modulus (GPa) = 26.90578 11.82050 19.36314
#
# Velocity S-wave (km/s) = 3.70809 2.45779 3.14569
# Velocity P-wave (km/s) = 6.06266 6.24897 6.15652
#
# Compressibility (1/GPa) = 0.02773980
#
# Stress axis : x y z
#
# Youngs Moduli (GPa) = 90.87861 48.71890 100.22982
#
# Poissons Ratio (x) = 0.05258 0.63629
# Poissons Ratio (y) = 0.09808 -0.05454
# Poissons Ratio (z) = 0.57693 -0.02651
#
# Static dielectric constant tensor:
#      x y z
#    x 1.699120 0.000000 0.000000 
#    y 0.000000 1.766950 0.000000 
#    z 0.000000 0.000000 1.684580 
# 
# From -- ./inp_files/25857.got.cif
#   From: 2010.05.17/outbox.cif.g08.bks.cpg/sg47_13_cif.got.tgz:25857.got - 2010.06.03 20:15:42.
