data_PCOD9382930
_publ_section_title
;
Structure prediction by ZEFSAII (Michael W. Deem and Ramdas Pophale) SiO2 
 PCOD9382930
Probable space group: P M M M
;
_chemical_formula_sum "Si O2"
_cell_formula_units_Z 40
_cell_length_a 10.207478
_cell_length_b 19.443211
_cell_length_c 11.688464
_cell_angle_alpha 90.000000
_cell_angle_beta 90.000000
_cell_angle_gamma 90.000000
_cell_volume 2319.764432
_symmetry_space_group_name_H-M "P M M M"
_symmetry_group_IT_number 47
_symmetry_cell_setting 'orthorhombic'
loop_
_space_group_symop_operation_xyz
x,y,z
-x,-y,z
x,-y,-z
-x,y,-z
-x,-y,-z
x,y,-z
-x,y,z
x,-y,z
loop_
_atom_site_type_symbol
_atom_site_label
_atom_site_fract_x
_atom_site_fract_y
_atom_site_fract_z
Si Si1 0.342524 0.258905 0.000000
Si Si2 0.744963 0.165027 0.789591
Si Si3 0.000000 0.080833 0.862043
Si Si4 0.500000 0.081898 0.137566
Si Si5 0.846186 0.574105 0.742420
Si Si6 0.154907 0.717847 0.636245
Si Si7 0.852307 0.617159 0.000000
O O1 0.290422 0.217590 0.109001
O O2 0.500000 0.264973 0.000000
O O3 0.266530 0.330205 0.000000
O O4 0.624702 0.112440 0.796958
O O5 0.770693 0.214851 0.682376
O O6 0.873580 0.120875 0.816578
O O7 0.000000 0.000000 0.830301
O O8 0.000000 0.084244 0.000000
O O9 0.500000 0.000000 0.139039
O O10 0.500000 0.101769 0.000000
O O11 0.789406 0.500000 0.705151
O O12 0.794653 0.646249 0.692299
O O13 0.842975 0.577467 0.880351
O O14 0.000000 0.573650 0.708894
O O15 0.163059 0.712442 0.500000
O O16 0.000000 0.725254 0.668539
O O17 0.000000 0.649809 0.000000
#
# Coordination Sequence:
#
# PCOD9382930 Si02
#       7
#     4   8   4   4   8   8   4
#     4  12  22  33  52  86 113 149 181 222 276 336
#     4  12  20  36  56  80 115 147 180 227 278 328
#     4  11  22  32  53  87 114 137 175 222 276 344
#     4  11  22  38  59  87 120 147 173 218 284 346
#     4   9  17  29  49  81 116 145 178 227 283 334
#     4  10  21  35  54  80 109 149 196 237 274 314
#     4  10  19  30  54  81 115 143 182 228 281 340
#
# _framework density 17.243130000000001
#
# number of rings (size 3 to 8) (size 9 to 14) (size 15 to 20)
#    0.000    1.400    6.000    0.900    1.400    3.200 
#    0.000    2.500    0.000    4.800    0.000    0.000 
#    0.000    3.200    0.000    0.000    0.000    0.000 
#
# Total GULP energy -222883.296157 kJ/mol
# GULP energy per Si atom -5572.082404 kJ/mol
# Density = 1.720388 g / cm^3
# Si number density = 17.243130 Si / 1000 Ang^3
#
#
#
# Elastic Constant Matrix: (Units=GPa)
#
#
# Indices 1 2 3 4 5 6 
#
# 1 106.9537 59.0302 18.2394 0.0000 0.0000 0.0000
# 2 59.0302 143.2644 37.7934 0.0000 0.0000 0.0000
# 3 18.2394 37.7934 58.5874 0.0000 0.0000 0.0000
# 4 0.0000 0.0000 0.0000 10.8693 0.0000 0.0000
# 5 0.0000 0.0000 0.0000 0.0000 4.8749 0.0000
# 6 0.0000 0.0000 0.0000 0.0000 0.0000 17.2840
#
#
#
# Elastic Compliance Matrix: (Units=1/GPa)
#
#
# Indices 1 2 3 4 5 6 
#
# 1 0.012123 -0.004820 -0.000665 0.000000 0.000000 0.000000
# 2 -0.004820 0.010328 -0.005162 0.000000 0.000000 0.000000
# 3 -0.000665 -0.005162 0.020605 0.000000 0.000000 0.000000
# 4 0.000000 0.000000 0.000000 0.092002 0.000000 0.000000
# 5 0.000000 0.000000 0.000000 0.000000 0.205134 0.000000
# 6 0.000000 0.000000 0.000000 0.000000 0.000000 0.057857
#
#
# Mechanical properties :
#
#
# Convention : Reuss Voigt Hill
#
# Bulk Modulus (GPa) = 45.94910 59.88129 52.91519
# Shear Modulus (GPa) = 11.72067 19.52180 15.62123
#
# Velocity S-wave (km/s) = 2.60999 3.36839 3.01315
# Velocity P-wave (km/s) = 5.98234 7.06619 6.54673
#
# Compressibility (1/GPa) = 0.02176321
#
# Stress axis : x y z
#
# Youngs Moduli (GPa) = 82.48476 96.82671 48.53128
#
# Poissons Ratio (x) = 0.46669 0.03228
# Poissons Ratio (y) = 0.39757 0.25050
# Poissons Ratio (z) = 0.05486 0.49979
#
# Static dielectric constant tensor:
#      x y z
#    x 1.577740 0.000000 0.000000 
#    y 0.000000 1.618530 0.000000 
#    z 0.000000 0.000000 1.573850 
# 
# From -- ./inp_files/15145.got.cif
#   From: 2010.05.17/outbox.cif.g08.bks.cpg/sg47_8_cif.got.tgz:15145.got - 2010.06.03 20:15:42.
