data_PCOD9382424
_publ_section_title
;
Structure prediction by ZEFSAII (Michael W. Deem and Ramdas Pophale) SiO2 
 PCOD9382424
Probable space group: P M M M
;
_chemical_formula_sum "Si O2"
_cell_formula_units_Z 48
_cell_length_a 13.939914
_cell_length_b 24.611316
_cell_length_c 9.145899
_cell_angle_alpha 90.000000
_cell_angle_beta 90.000000
_cell_angle_gamma 90.000000
_cell_volume 3137.771631
_symmetry_space_group_name_H-M "P M M M"
_symmetry_group_IT_number 47
_symmetry_cell_setting 'orthorhombic'
loop_
_space_group_symop_operation_xyz
x,y,z
-x,-y,z
x,-y,-z
-x,y,-z
-x,-y,-z
x,y,-z
-x,y,z
x,-y,z
loop_
_atom_site_type_symbol
_atom_site_label
_atom_site_fract_x
_atom_site_fract_y
_atom_site_fract_z
Si Si1 0.607464 0.835433 0.675393
Si Si2 0.302340 0.061504 0.175429
Si Si3 0.891953 0.878762 0.825690
Si Si4 0.883644 0.439656 0.329620
Si Si5 0.114862 0.670376 0.826796
Si Si6 0.800879 0.224368 0.324868
O O1 0.611016 0.842053 0.500000
O O2 0.500000 0.818289 0.716503
O O3 0.633468 0.892802 0.748934
O O4 0.692093 0.793482 0.714270
O O5 0.191701 0.078051 0.206865
O O6 0.322389 0.000000 0.222781
O O7 0.315046 0.064392 0.000000
O O8 0.866785 0.823901 0.739280
O O9 0.000000 0.897145 0.792630
O O10 0.886821 0.867283 0.000000
O O11 0.857220 0.432195 0.500000
O O12 0.851253 0.500000 0.282121
O O13 0.853303 0.388274 0.234495
O O14 0.000000 0.440454 0.324353
O O15 0.167881 0.719137 0.745325
O O16 0.000000 0.675636 0.799820
O O17 0.129999 0.673682 0.000000
O O18 0.809658 0.226577 0.500000
#
# Coordination Sequence:
#
# PCOD9382424 Si02
#       6
#     8   8   8   8   8   8
#     4   9  19  35  51  65  82 106 136 172 217 264
#     4   9  18  31  46  66  89 110 136 170 206 249
#     4   9  17  29  44  61  84 114 143 171 205 245
#     4   8  14  25  40  58  83 117 155 189 215 239
#     4  10  19  28  40  61  90 122 151 178 209 246
#     4  10  19  30  45  63  83 108 140 178 216 255
#
# _framework density 15.29748
#
# number of rings (size 3 to 8) (size 9 to 14) (size 15 to 20)
#    0.000    2.833    0.000    2.000    0.000    5.667 
#    0.000    5.000    0.000    0.000    0.000    4.667 
#    0.000    0.667    0.000    7.667    0.000    2.500 
#
# Total GULP energy -267425.571248 kJ/mol
# GULP energy per Si atom -5571.366068 kJ/mol
# Density = 1.526266 g / cm^3
# Si number density = 15.297480 Si / 1000 Ang^3
#
#
#
# Elastic Constant Matrix: (Units=GPa)
#
#
# Indices 1 2 3 4 5 6 
#
# 1 53.0216 15.3559 21.3985 0.0000 0.0000 0.0000
# 2 15.3559 101.9015 40.2324 0.0000 0.0000 0.0000
# 3 21.3985 40.2324 31.0529 0.0000 0.0000 0.0000
# 4 0.0000 0.0000 0.0000 27.4281 0.0000 0.0000
# 5 0.0000 0.0000 0.0000 0.0000 16.9644 0.0000
# 6 0.0000 0.0000 0.0000 0.0000 0.0000 10.0292
#
#
#
# Elastic Compliance Matrix: (Units=1/GPa)
#
#
# Indices 1 2 3 4 5 6 
#
# 1 0.028407 0.007059 -0.028720 0.000000 0.000000 0.000000
# 2 0.007059 0.021844 -0.033165 0.000000 0.000000 0.000000
# 3 -0.028720 -0.033165 0.094963 0.000000 0.000000 0.000000
# 4 0.000000 0.000000 0.000000 0.036459 0.000000 0.000000
# 5 0.000000 0.000000 0.000000 0.000000 0.058947 0.000000
# 6 0.000000 0.000000 0.000000 0.000000 0.000000 0.099709
#
#
# Mechanical properties :
#
#
# Convention : Reuss Voigt Hill
#
# Bulk Modulus (GPa) = 28.12125 37.77219 32.94672
# Shear Modulus (GPa) = 10.82635 18.15028 14.48832
#
# Velocity S-wave (km/s) = 2.66319 3.44828 3.08085
# Velocity P-wave (km/s) = 5.28011 6.37178 5.85146
#
# Compressibility (1/GPa) = 0.03556029
#
# Stress axis : x y z
#
# Youngs Moduli (GPa) = 35.20264 45.77948 10.53039
#
# Poissons Ratio (x) = -0.32313 0.30244
# Poissons Ratio (y) = -0.24848 0.34924
# Poissons Ratio (z) = 1.01103 1.51828
#
# Static dielectric constant tensor:
#      x y z
#    x 1.508770 0.000000 0.000000 
#    y 0.000000 1.496240 0.000000 
#    z 0.000000 0.000000 1.508330 
# 
# From -- ./inp_files/6796.got.cif
#   From: 2010.05.17/outbox.cif.g08.bks.cpg/sg47_4_cif.got.tgz:6796.got - 2010.06.03 20:15:42.
