data_PCOD9382822
_publ_section_title
;
Structure prediction by ZEFSAII (Michael W. Deem and Ramdas Pophale) SiO2 
 PCOD9382822
Probable space group: P M M M
;
_chemical_formula_sum "Si O2"
_cell_formula_units_Z 64
_cell_length_a 19.789641
_cell_length_b 7.505244
_cell_length_c 19.321158
_cell_angle_alpha 90.000000
_cell_angle_beta 90.000000
_cell_angle_gamma 90.000000
_cell_volume 2869.695943
_symmetry_space_group_name_H-M "P M M M"
_symmetry_group_IT_number 47
_symmetry_cell_setting 'orthorhombic'
loop_
_space_group_symop_operation_xyz
x,y,z
-x,-y,z
x,-y,-z
-x,y,-z
-x,-y,-z
x,y,-z
-x,y,z
x,-y,z
loop_
_atom_site_type_symbol
_atom_site_label
_atom_site_fract_x
_atom_site_fract_y
_atom_site_fract_z
Si Si1 0.192953 0.289011 0.921527
Si Si2 0.574220 0.286885 0.418605
Si Si3 0.076355 0.217098 0.654006
Si Si4 0.792797 0.218247 0.577804
Si Si5 0.685048 0.197513 0.317243
Si Si6 0.576780 0.781047 0.791651
Si Si7 0.923597 0.786623 0.811000
Si Si8 0.345244 0.209972 0.922680
O O1 0.197823 0.500000 0.926694
O O2 0.133108 0.252249 0.867827
O O3 0.267366 0.226644 0.898294
O O4 0.180502 0.218073 0.000000
O O5 0.576827 0.253869 0.500000
O O6 0.500000 0.234889 0.392862
O O7 0.581878 0.500000 0.408557
O O8 0.631981 0.186152 0.379750
O O9 0.131217 0.270049 0.597575
O O10 0.093542 0.274628 0.732834
O O11 0.000000 0.274282 0.639220
O O12 0.076739 0.000000 0.654532
O O13 0.773264 0.276085 0.500000
O O14 0.747877 0.282691 0.642834
O O15 0.787651 0.000000 0.578118
O O16 0.637427 0.281052 0.258649
O O17 0.706198 0.000000 0.292365
O O18 0.500000 0.724332 0.775795
O O19 0.600938 0.722627 0.867521
O O20 0.576971 0.000000 0.787571
O O21 0.000000 0.722344 0.828292
O O22 0.927425 0.000000 0.807386
O O23 0.358663 0.000000 0.927838
O O24 0.348957 0.287154 0.000000
#
# Coordination Sequence:
#
# PCOD9382822 Si02
#       8
#     8   8   8   8   8   8   8   8
#     4  10  21  35  51  74 106 141 174 210 253 303
#     4   9  18  32  48  65  89 125 164 200 242 290
#     4   8  15  28  46  69  97 131 169 209 253 296
#     4   9  17  27  42  69 101 132 167 205 247 296
#     4  10  19  30  47  72 100 129 161 200 246 299
#     4   9  18  31  49  76 104 130 165 210 259 307
#     4   9  18  32  52  77 103 135 177 218 255 302
#     4   9  18  33  54  77  99 130 171 212 256 304
#
# _framework density 22.302016999999999
#
# number of rings (size 3 to 8) (size 9 to 14) (size 15 to 20)
#    0.000    2.875    0.000    2.250    1.750    3.250 
#    0.000    5.000    0.000    1.125    0.000    1.750 
#    0.000    0.000    0.000    5.375    0.000    5.250 
#
# Total GULP energy -356923.021705 kJ/mol
# GULP energy per Si atom -5576.922214 kJ/mol
# Density = 2.225126 g / cm^3
# Si number density = 22.302017 Si / 1000 Ang^3
#
#
#
# Elastic Constant Matrix: (Units=GPa)
#
#
# Indices 1 2 3 4 5 6 
#
# 1 98.9487 -4.4901 67.2243 0.0000 0.0000 0.0000
# 2 -4.4901 54.8921 2.8239 0.0000 0.0000 0.0000
# 3 67.2243 2.8239 95.2972 0.0000 0.0000 0.0000
# 4 0.0000 0.0000 0.0000 -24.2368 0.0000 0.0000
# 5 0.0000 0.0000 0.0000 0.0000 58.6596 0.0000
# 6 0.0000 0.0000 0.0000 0.0000 0.0000 -9.4253
#
#
#
# Elastic Compliance Matrix: (Units=1/GPa)
#
#
# Indices 1 2 3 4 5 6 
#
# 1 0.019700 0.002330 -0.013966 0.000000 0.000000 0.000000
# 2 0.002330 0.018521 -0.002192 0.000000 0.000000 0.000000
# 3 -0.013966 -0.002192 0.020410 0.000000 0.000000 0.000000
# 4 0.000000 0.000000 0.000000 -0.041260 0.000000 0.000000
# 5 0.000000 0.000000 0.000000 0.000000 0.017048 0.000000
# 6 0.000000 0.000000 0.000000 0.000000 0.000000 -0.106097
#
#
# Mechanical properties :
#
#
# Convention : Reuss Voigt Hill
#
# Bulk Modulus (GPa) = 32.28448 42.25046 37.26747
# Shear Modulus (GPa) = -148.38365 17.23815 -65.57275
#
# Velocity S-wave (km/s) = -8.16567 2.78320 -5.42826
# Velocity P-wave (km/s) = 8.62536 5.41425 4.74777
#
# Compressibility (1/GPa) = 0.03097464
#
# Stress axis : x y z
#
# Youngs Moduli (GPa) = 50.76087 53.99295 48.99494
#
# Poissons Ratio (x) = -0.12580 0.68426
# Poissons Ratio (y) = -0.11827 0.10742
# Poissons Ratio (z) = 0.70892 0.11837
#
# Static dielectric constant tensor:
#      x y z
#    x 1.828700 0.000000 0.000000 
#    y 0.000000 1.854530 0.000000 
#    z 0.000000 0.000000 1.844270 
# 
# From -- ./inp_files/9925.got.cif
#   From: 2010.05.17/outbox.cif.g08.bks.cpg/sg47_5_cif.got.tgz:9925.got - 2010.06.03 20:15:42.
