data_PCOD9382674
_publ_section_title
;
Structure prediction by ZEFSAII (Michael W. Deem and Ramdas Pophale) SiO2 
 PCOD9382674
Probable space group: P M M M
;
_chemical_formula_sum "Si O2"
_cell_formula_units_Z 48
_cell_length_a 14.089587
_cell_length_b 25.088738
_cell_length_c 7.784969
_cell_angle_alpha 90.000000
_cell_angle_beta 90.000000
_cell_angle_gamma 90.000000
_cell_volume 2751.908355
_symmetry_space_group_name_H-M "P M M M"
_symmetry_group_IT_number 47
_symmetry_cell_setting 'orthorhombic'
loop_
_space_group_symop_operation_xyz
x,y,z
-x,-y,z
x,-y,-z
-x,y,-z
-x,-y,-z
x,y,-z
-x,y,z
x,-y,z
loop_
_atom_site_type_symbol
_atom_site_label
_atom_site_fract_x
_atom_site_fract_y
_atom_site_fract_z
Si Si1 0.105119 0.892133 0.202431
Si Si2 0.394635 0.831814 0.792211
Si Si3 0.891364 0.327230 0.705749
Si Si4 0.198252 0.781914 0.296360
Si Si5 0.889629 0.442596 0.793516
Si Si6 0.699737 0.940903 0.210314
O O1 0.137699 0.830654 0.219302
O O2 0.193372 0.926621 0.270349
O O3 0.000000 0.900197 0.276852
O O4 0.099673 0.904396 0.000000
O O5 0.500000 0.817452 0.732360
O O6 0.308550 0.794225 0.736237
O O7 0.366663 0.891886 0.736474
O O8 0.394765 0.831725 0.000000
O O9 0.896302 0.323033 0.500000
O O10 0.834713 0.275707 0.769520
O O11 0.848323 0.385500 0.742802
O O12 0.000000 0.325618 0.773069
O O13 0.181519 0.783962 0.500000
O O14 0.849346 0.500000 0.734735
O O15 0.000000 0.441496 0.734487
O O16 0.890479 0.443587 0.000000
O O17 0.671427 0.000000 0.265155
O O18 0.700359 0.940443 0.000000
#
# Coordination Sequence:
#
# PCOD9382674 Si02
#       6
#     8   8   8   8   8   8
#     4   9  17  28  42  61  85 113 143 173 207 247
#     4   9  18  32  48  65  84 105 132 170 216 263
#     4   9  17  27  39  58  84 114 146 176 205 237
#     4  10  19  30  44  62  85 111 142 178 212 251
#     4   8  14  24  37  55  81 113 147 178 205 234
#     4   8  14  25  42  65  88 106 130 168 211 253
#
# _framework density 17.442442
#
# number of rings (size 3 to 8) (size 9 to 14) (size 15 to 20)
#    0.000    3.167    0.000    2.500    0.000    3.667 
#    0.000    6.667    0.000    8.000    0.000    9.333 
#    0.000    0.667    0.000    7.333    0.000    5.667 
#
# Total GULP energy -267281.057619 kJ/mol
# GULP energy per Si atom -5568.355367 kJ/mol
# Density = 1.740274 g / cm^3
# Si number density = 17.442442 Si / 1000 Ang^3
#
#
#
# Elastic Constant Matrix: (Units=GPa)
#
#
# Indices 1 2 3 4 5 6 
#
# 1 47.8245 9.3292 -3.7270 0.0000 0.0000 0.0000
# 2 9.3292 114.4000 -5.8483 0.0000 0.0000 0.0000
# 3 -3.7270 -5.8483 20.5806 0.0000 0.0000 0.0000
# 4 0.0000 0.0000 0.0000 26.1869 0.0000 0.0000
# 5 0.0000 0.0000 0.0000 0.0000 9.5445 0.0000
# 6 0.0000 0.0000 0.0000 0.0000 0.0000 10.9048
#
#
#
# Elastic Compliance Matrix: (Units=1/GPa)
#
#
# Indices 1 2 3 4 5 6 
#
# 1 0.021486 -0.001576 0.003443 0.000000 0.000000 0.000000
# 2 -0.001576 0.008986 0.002268 0.000000 0.000000 0.000000
# 3 0.003443 0.002268 0.049857 0.000000 0.000000 0.000000
# 4 0.000000 0.000000 0.000000 0.038187 0.000000 0.000000
# 5 0.000000 0.000000 0.000000 0.000000 0.104773 0.000000
# 6 0.000000 0.000000 0.000000 0.000000 0.000000 0.091703
#
#
# Mechanical properties :
#
#
# Convention : Reuss Voigt Hill
#
# Bulk Modulus (GPa) = 11.28688 20.25699 15.77193
# Shear Modulus (GPa) = 14.86970 21.53065 18.20017
#
# Velocity S-wave (km/s) = 2.92293 3.51719 3.23374
# Velocity P-wave (km/s) = 4.22804 5.30405 4.79632
#
# Compressibility (1/GPa) = 0.08859846
#
# Stress axis : x y z
#
# Youngs Moduli (GPa) = 46.54290 111.28752 20.05722
#
# Poissons Ratio (x) = 0.17540 -0.06906
# Poissons Ratio (y) = 0.07336 -0.04549
# Poissons Ratio (z) = -0.16025 -0.25240
#
# Static dielectric constant tensor:
#      x y z
#    x 1.585890 0.000000 0.000000 
#    y 0.000000 1.622590 0.000000 
#    z 0.000000 0.000000 1.649190 
# 
# From -- ./inp_files/7465.got.cif
#   From: 2010.05.17/outbox.cif.g08.bks.cpg/sg47_4_cif.got.tgz:7465.got - 2010.06.03 20:15:42.
