data_PCOD9382517
_publ_section_title
;
Structure prediction by ZEFSAII (Michael W. Deem and Ramdas Pophale) SiO2 
 PCOD9382517
Probable space group: P M M M
;
_chemical_formula_sum "Si O2"
_cell_formula_units_Z 56
_cell_length_a 30.237498
_cell_length_b 8.726773
_cell_length_c 14.145643
_cell_angle_alpha 90.000000
_cell_angle_beta 90.000000
_cell_angle_gamma 90.000000
_cell_volume 3732.692596
_symmetry_space_group_name_H-M "P M M M"
_symmetry_group_IT_number 47
_symmetry_cell_setting 'orthorhombic'
loop_
_space_group_symop_operation_xyz
x,y,z
-x,-y,z
x,-y,-z
-x,y,-z
-x,-y,-z
x,y,-z
-x,y,z
x,-y,z
loop_
_atom_site_type_symbol
_atom_site_label
_atom_site_fract_x
_atom_site_fract_y
_atom_site_fract_z
Si Si1 0.144549 0.314333 0.389238
Si Si2 0.952459 0.317941 0.614288
Si Si3 0.449634 0.184725 0.890464
Si Si4 0.633271 0.316969 0.216491
Si Si5 0.681283 0.815204 0.391855
Si Si6 0.277187 0.684998 0.108594
Si Si7 0.228891 0.183357 0.715598
O O1 0.150521 0.270923 0.500000
O O2 0.144648 0.500000 0.386093
O O3 0.095737 0.259128 0.355866
O O4 0.184058 0.250623 0.326646
O O5 0.952150 0.305825 0.500000
O O6 0.952984 0.500000 0.635504
O O7 0.000000 0.253262 0.647408
O O8 0.500000 0.230303 0.866055
O O9 0.412281 0.253693 0.824261
O O10 0.447577 0.000000 0.886311
O O11 0.441645 0.229629 0.000000
O O12 0.631961 0.500000 0.218973
O O13 0.646007 0.253490 0.319323
O O14 0.674197 0.270676 0.147866
O O15 0.675816 0.765495 0.500000
O O16 0.729829 0.771891 0.352254
O O17 0.678531 0.000000 0.388594
O O18 0.274449 0.500000 0.112661
O O19 0.241911 0.754568 0.181169
O O20 0.271680 0.732976 0.000000
O O21 0.226509 0.000000 0.717480
#
# Coordination Sequence:
#
# PCOD9382517 Si02
#       7
#     8   8   8   8   8   8   8
#     4   9  16  25  39  59  83 113 146 178 213 251
#     4   7  10  18  33  53  76 103 138 177 211 244
#     4   9  18  32  49  69  93 120 147 173 204 248
#     4  10  19  30  47  71  94 114 139 174 216 256
#     4   9  18  32  47  62  84 117 153 182 208 244
#     4   9  18  32  47  63  86 114 142 173 209 251
#     4  10  19  29  42  62  87 113 143 178 213 251
#
# _framework density 15.002575999999999
#
# number of rings (size 3 to 8) (size 9 to 14) (size 15 to 20)
#    0.000    3.000    0.000    3.429    0.000    3.714 
#    0.000    0.714    0.000    0.857    0.000    5.000 
#    0.000    0.571    0.000    6.571    0.000    2.143 
#
# Total GULP energy -311851.647015 kJ/mol
# GULP energy per Si atom -5568.779411 kJ/mol
# Density = 1.496843 g / cm^3
# Si number density = 15.002576 Si / 1000 Ang^3
#
#
#
# Elastic Constant Matrix: (Units=GPa)
#
#
# Indices 1 2 3 4 5 6 
#
# 1 147.6176 29.4400 79.6842 0.0000 0.0000 0.0000
# 2 29.4400 12.9942 28.4426 0.0000 0.0000 0.0000
# 3 79.6842 28.4426 116.6675 0.0000 0.0000 0.0000
# 4 0.0000 0.0000 0.0000 15.9457 0.0000 0.0000
# 5 0.0000 0.0000 0.0000 0.0000 21.2533 0.0000
# 6 0.0000 0.0000 0.0000 0.0000 0.0000 15.9196
#
#
#
# Elastic Compliance Matrix: (Units=1/GPa)
#
#
# Indices 1 2 3 4 5 6 
#
# 1 0.013047 -0.021558 -0.003655 0.000000 0.000000 0.000000
# 2 -0.021558 0.200634 -0.034189 0.000000 0.000000 0.000000
# 3 -0.003655 -0.034189 0.019403 0.000000 0.000000 0.000000
# 4 0.000000 0.000000 0.000000 0.062713 0.000000 0.000000
# 5 0.000000 0.000000 0.000000 0.000000 0.047051 0.000000
# 6 0.000000 0.000000 0.000000 0.000000 0.000000 0.062816
#
#
# Mechanical properties :
#
#
# Convention : Reuss Voigt Hill
#
# Bulk Modulus (GPa) = 8.75049 61.37921 35.06485
# Shear Modulus (GPa) = 8.88792 19.93789 14.41290
#
# Velocity S-wave (km/s) = 2.43662 3.64945 3.10287
# Velocity P-wave (km/s) = 3.70965 7.66546 6.02166
#
# Compressibility (1/GPa) = 0.11427936
#
# Stress axis : x y z
#
# Youngs Moduli (GPa) = 76.64695 4.98420 51.53876
#
# Poissons Ratio (x) = 0.10745 0.18839
# Poissons Ratio (y) = 1.65237 1.76204
# Poissons Ratio (z) = 0.28017 0.17040
#
# Static dielectric constant tensor:
#      x y z
#    x 1.510870 0.000000 0.000000 
#    y 0.000000 1.502090 0.000000 
#    z 0.000000 0.000000 1.473390 
# 
# From -- ./inp_files/14205.got.cif
#   From: 2010.05.17/outbox.cif.g08.bks.cpg/sg47_8_cif.got.tgz:14205.got - 2010.06.03 20:15:42.
