data_PCOD9382020
_publ_section_title
;
Structure prediction by ZEFSAII (Michael W. Deem and Ramdas Pophale) SiO2 
 PCOD9382020
Probable space group: P M M M
;
_chemical_formula_sum "Si O2"
_cell_formula_units_Z 64
_cell_length_a 21.002327
_cell_length_b 8.114716
_cell_length_c 20.517291
_cell_angle_alpha 90.000000
_cell_angle_beta 90.000000
_cell_angle_gamma 90.000000
_cell_volume 3496.719208
_symmetry_space_group_name_H-M "P M M M"
_symmetry_group_IT_number 47
_symmetry_cell_setting 'orthorhombic'
loop_
_space_group_symop_operation_xyz
x,y,z
-x,-y,z
x,-y,-z
-x,y,-z
-x,-y,-z
x,y,-z
-x,y,z
x,-y,z
loop_
_atom_site_type_symbol
_atom_site_label
_atom_site_fract_x
_atom_site_fract_y
_atom_site_fract_z
Si Si1 0.751949 0.304192 0.929415
Si Si2 0.811180 0.699928 0.337652
Si Si3 0.603779 0.693582 0.212740
Si Si4 0.430700 0.193793 0.353881
Si Si5 0.252609 0.809795 0.209063
Si Si6 0.072795 0.700984 0.425828
Si Si7 0.401603 0.697051 0.070343
Si Si8 0.694553 0.303627 0.573344
O O1 0.763722 0.500000 0.925070
O O2 0.774289 0.220363 0.863313
O O3 0.675095 0.283761 0.930458
O O4 0.775765 0.244560 0.000000
O O5 0.811068 0.500000 0.336601
O O6 0.796229 0.759389 0.265110
O O7 0.876168 0.755220 0.372394
O O8 0.752297 0.759316 0.382346
O O9 0.587993 0.500000 0.216440
O O10 0.577325 0.780029 0.276530
O O11 0.680922 0.710195 0.215067
O O12 0.579946 0.759083 0.142214
O O13 0.500000 0.259789 0.373663
O O14 0.371942 0.273562 0.391000
O O15 0.428713 0.000000 0.367589
O O16 0.270182 0.000000 0.216739
O O17 0.090540 0.750114 0.500000
O O18 0.073155 0.500000 0.425508
O O19 0.000000 0.753255 0.413547
O O20 0.414768 0.500000 0.070467
O O21 0.424940 0.762330 0.000000
O O22 0.694981 0.235932 0.500000
O O23 0.703858 0.500000 0.568987
#
# Coordination Sequence:
#
# PCOD9382020 Si02
#       8
#     8   8   8   8   8   8   8   8
#     4   8  14  26  43  63  91 128 167 204 244 291
#     4  10  18  30  50  75 104 135 167 203 243 290
#     4  10  18  31  51  71  92 122 162 204 246 294
#     4  11  24  39  53  70  94 125 160 202 255 309
#     4  11  20  28  43  69 102 134 165 203 248 296
#     4   8  14  26  47  76 106 134 167 208 250 289
#     4   7  11  21  40  66  91 114 144 185 232 280
#     4  10  21  36  55  77  97 122 160 203 244 293
#
# _framework density 18.302869999999999
#
# number of rings (size 3 to 8) (size 9 to 14) (size 15 to 20)
#    0.000    2.625    1.250    4.125    0.000    3.250 
#    0.000    1.250    0.000    3.000    0.000    3.500 
#    0.000    0.500    0.000    5.750    0.000    1.750 
#
# Total GULP energy -356797.280284 kJ/mol
# GULP energy per Si atom -5574.957504 kJ/mol
# Density = 1.826121 g / cm^3
# Si number density = 18.302870 Si / 1000 Ang^3
#
#
#
# Elastic Constant Matrix: (Units=GPa)
#
#
# Indices 1 2 3 4 5 6 
#
# 1 75.5438 2.2965 55.0260 0.0000 0.0000 0.0000
# 2 2.2965 14.5834 9.9388 0.0000 0.0000 0.0000
# 3 55.0260 9.9388 141.9958 0.0000 0.0000 0.0000
# 4 0.0000 0.0000 0.0000 -18.5249 0.0000 0.0000
# 5 0.0000 0.0000 0.0000 0.0000 82.2012 0.0000
# 6 0.0000 0.0000 0.0000 0.0000 0.0000 11.1880
#
#
#
# Elastic Compliance Matrix: (Units=1/GPa)
#
#
# Indices 1 2 3 4 5 6 
#
# 1 0.018503 0.002072 -0.007315 0.000000 0.000000 0.000000
# 2 0.002072 0.072238 -0.005859 0.000000 0.000000 0.000000
# 3 -0.007315 -0.005859 0.010287 0.000000 0.000000 0.000000
# 4 0.000000 0.000000 0.000000 -0.053981 0.000000 0.000000
# 5 0.000000 0.000000 0.000000 0.000000 0.012165 0.000000
# 6 0.000000 0.000000 0.000000 0.000000 0.000000 0.089382
#
#
# Mechanical properties :
#
#
# Convention : Reuss Voigt Hill
#
# Bulk Modulus (GPa) = 12.68666 40.73839 26.71253
# Shear Modulus (GPa) = 25.37130 25.96363 25.66747
#
# Velocity S-wave (km/s) = 3.72720 3.77046 3.74889
# Velocity P-wave (km/s) = 5.04671 6.42350 5.77627
#
# Compressibility (1/GPa) = 0.07882296
#
# Stress axis : x y z
#
# Youngs Moduli (GPa) = 54.04610 13.84315 97.20727
#
# Poissons Ratio (x) = -0.02868 0.71108
# Poissons Ratio (y) = -0.11196 0.56953
# Poissons Ratio (z) = 0.39535 0.08111
#
# Static dielectric constant tensor:
#      x y z
#    x 1.619090 0.000000 0.000000 
#    y 0.000000 1.632220 0.000000 
#    z 0.000000 0.000000 1.675950 
# 
# From -- ./inp_files/31510.got.cif
#   From: 2010.05.17/outbox.cif.g08.bks.cpg/sg47_16_cif.got.tgz:31510.got - 2010.06.03 20:15:42.
