data_PCOD9382779
_publ_section_title
;
Structure prediction by ZEFSAII (Michael W. Deem and Ramdas Pophale) SiO2 
 PCOD9382779
Probable space group: P M M M
;
_chemical_formula_sum "Si O2"
_cell_formula_units_Z 52
_cell_length_a 8.149907
_cell_length_b 7.676723
_cell_length_c 38.973714
_cell_angle_alpha 90.000000
_cell_angle_beta 90.000000
_cell_angle_gamma 90.000000
_cell_volume 2438.373990
_symmetry_space_group_name_H-M "P M M M"
_symmetry_group_IT_number 47
_symmetry_cell_setting 'orthorhombic'
loop_
_space_group_symop_operation_xyz
x,y,z
-x,-y,z
x,-y,-z
-x,y,-z
-x,-y,-z
x,y,-z
-x,y,z
x,-y,z
loop_
_atom_site_type_symbol
_atom_site_label
_atom_site_fract_x
_atom_site_fract_y
_atom_site_fract_z
Si Si1 0.695258 0.193698 0.856730
Si Si2 0.194734 0.200807 0.927822
Si Si3 0.816101 0.212504 0.539849
Si Si4 0.802578 0.695585 0.218535
Si Si5 0.500000 0.790790 0.418415
Si Si6 0.694960 0.799125 0.000000
Si Si7 0.810275 0.714318 0.293897
Si Si8 0.500000 0.709082 0.661697
O O1 0.500000 0.190959 0.858382
O O2 0.753803 0.285425 0.891637
O O3 0.741929 0.246571 0.818438
O O4 0.767438 0.000000 0.859565
O O5 0.000000 0.192479 0.928189
O O6 0.263659 0.000000 0.928134
O O7 0.250396 0.281298 0.963866
O O8 0.791160 0.261590 0.500000
O O9 0.665785 0.274384 0.563115
O O10 0.000000 0.268664 0.550370
O O11 0.816378 0.000000 0.540766
O O12 0.739168 0.500000 0.221702
O O13 0.764334 0.779072 0.255406
O O14 0.000000 0.695657 0.217057
O O15 0.500000 0.752172 0.378283
O O16 0.500000 0.000000 0.422693
O O17 0.500000 0.806011 0.000000
O O18 0.762131 0.000000 0.000000
O O19 0.812710 0.500000 0.293252
O O20 0.667832 0.770604 0.319879
O O21 0.000000 0.765760 0.301548
O O22 0.500000 0.500000 0.665276
#
# Coordination Sequence:
#
# PCOD9382779 Si02
#       8
#     8   8   8   8   4   4   8   4
#     4  10  20  31  44  68 100 128 151 183 233 288
#     4   9  16  26  40  58  84 119 155 187 222 268
#     4   8  14  26  46  71  97 128 167 206 244 288
#     4   9  18  33  53  74  92 115 154 201 242 281
#     4  10  19  30  46  72 102 128 158 206 251 285
#     4   9  15  23  37  57  82 113 150 191 226 261
#     4   8  16  32  52  72  92 118 160 206 239 280
#     4  10  20  33  51  71  94 130 166 195 241 294
#
# _framework density 21.325685
#
# number of rings (size 3 to 8) (size 9 to 14) (size 15 to 20)
#    0.000    3.000    0.000    2.769    1.077    5.538 
#    0.000    0.769    0.000    1.846    0.000    1.615 
#    0.000    4.308    0.000    0.000    0.000    0.000 
#
# Total GULP energy -289667.995667 kJ/mol
# GULP energy per Si atom -5570.538378 kJ/mol
# Density = 2.127715 g / cm^3
# Si number density = 21.325685 Si / 1000 Ang^3
#
#
#
# Elastic Constant Matrix: (Units=GPa)
#
#
# Indices 1 2 3 4 5 6 
#
# 1 126.1232 7.7877 122.9870 0.0000 0.0000 0.0000
# 2 7.7877 29.5883 7.9694 0.0000 0.0000 0.0000
# 3 122.9870 7.9694 208.9158 0.0000 0.0000 0.0000
# 4 0.0000 0.0000 0.0000 -115.7915 0.0000 0.0000
# 5 0.0000 0.0000 0.0000 0.0000 32.1677 0.0000
# 6 0.0000 0.0000 0.0000 0.0000 0.0000 2.5200
#
#
#
# Elastic Compliance Matrix: (Units=1/GPa)
#
#
# Indices 1 2 3 4 5 6 
#
# 1 0.018729 -0.001980 -0.010950 0.000000 0.000000 0.000000
# 2 -0.001980 0.034357 -0.000145 0.000000 0.000000 0.000000
# 3 -0.010950 -0.000145 0.011238 0.000000 0.000000 0.000000
# 4 0.000000 0.000000 0.000000 -0.008636 0.000000 0.000000
# 5 0.000000 0.000000 0.000000 0.000000 0.031087 0.000000
# 6 0.000000 0.000000 0.000000 0.000000 0.000000 0.396821
#
#
# Mechanical properties :
#
#
# Convention : Reuss Voigt Hill
#
# Bulk Modulus (GPa) = 26.19559 71.34617 48.77088
# Shear Modulus (GPa) = 9.56992 -1.16187 4.20403
#
# Velocity S-wave (km/s) = 2.12067 -0.73892 1.40557
# Velocity P-wave (km/s) = 4.27862 5.72714 5.05503
#
# Compressibility (1/GPa) = 0.03817437
#
# Stress axis : x y z
#
# Youngs Moduli (GPa) = 53.39447 29.10584 88.98223
#
# Poissons Ratio (x) = 0.05763 0.97434
# Poissons Ratio (y) = 0.10573 0.01289
# Poissons Ratio (z) = 0.58466 0.00422
#
# Static dielectric constant tensor:
#      x y z
#    x 1.735300 0.000000 0.000000 
#    y 0.000000 1.889800 0.000000 
#    z 0.000000 0.000000 1.810800 
# 
# From -- ./inp_files/33312.got.cif
#   From: 2010.05.17/outbox.cif.g08.bks.cpg/sg47_17_cif.got.tgz:33312.got - 2010.06.03 20:15:42.
