data_PCOD9382945
_publ_section_title
;
Structure prediction by ZEFSAII (Michael W. Deem and Ramdas Pophale) SiO2 
 PCOD9382945
Probable space group: P M M M
;
_chemical_formula_sum "Si O2"
_cell_formula_units_Z 60
_cell_length_a 14.872877
_cell_length_b 14.346139
_cell_length_c 15.512225
_cell_angle_alpha 90.000000
_cell_angle_beta 90.000000
_cell_angle_gamma 90.000000
_cell_volume 3309.818020
_symmetry_space_group_name_H-M "P M M M"
_symmetry_group_IT_number 47
_symmetry_cell_setting 'orthorhombic'
loop_
_space_group_symop_operation_xyz
x,y,z
-x,-y,z
x,-y,-z
-x,y,-z
-x,-y,-z
x,y,-z
-x,y,z
x,-y,z
loop_
_atom_site_type_symbol
_atom_site_label
_atom_site_fract_x
_atom_site_fract_y
_atom_site_fract_z
Si Si1 0.396156 0.192486 0.593933
Si Si2 0.759539 0.887808 0.098571
Si Si3 0.000000 0.388512 0.593635
Si Si4 0.890807 0.108872 0.596157
Si Si5 0.836487 0.606849 0.718393
Si Si6 0.891519 0.207286 0.224644
Si Si7 0.665668 0.397515 0.597258
Si Si8 0.395554 0.112120 0.772508
O O1 0.356030 0.168240 0.500000
O O2 0.500000 0.162206 0.591711
O O3 0.392611 0.304572 0.602434
O O4 0.358479 0.147870 0.680532
O O5 0.846185 0.855514 0.151921
O O6 0.670878 0.856895 0.151633
O O7 0.757814 0.000000 0.097332
O O8 0.759540 0.854636 0.000000
O O9 0.087890 0.367495 0.647632
O O10 0.000000 0.500000 0.584535
O O11 0.000000 0.343717 0.500000
O O12 0.861869 0.141117 0.500000
O O13 0.864255 0.166867 0.680712
O O14 0.000000 0.110570 0.595774
O O15 0.864051 0.000000 0.605857
O O16 0.852426 0.500000 0.747388
O O17 0.850511 0.689022 0.785756
O O18 0.742285 0.609265 0.669018
O O19 0.000000 0.208694 0.219702
O O20 0.706282 0.396325 0.500000
O O21 0.621440 0.500000 0.605787
O O22 0.500000 0.142936 0.783443
O O23 0.396269 0.000000 0.770510
#
# Coordination Sequence:
#
# PCOD9382945 Si02
#       8
#     8   8   4   8   8   8   8   8
#     4   9  17  29  47  74 108 142 172 202 238 289
#     4  10  22  39  58  80 103 126 161 212 263 311
#     4   9  16  26  40  60  90 127 166 208 248 283
#     4   8  15  28  44  64  93 129 168 206 241 285
#     4  10  19  31  45  66  96 131 171 216 257 295
#     4  11  21  33  51  75 101 137 173 208 254 307
#     4   9  17  28  42  62  93 136 181 219 252 286
#     4   9  18  34  56  80 106 135 166 202 247 299
#
# _framework density 18.127884000000002
#
# number of rings (size 3 to 8) (size 9 to 14) (size 15 to 20)
#    0.000    2.600    0.667    2.000    0.000    4.533 
#    0.000    5.333    0.000    1.200    0.000    0.933 
#    0.000    0.000    0.000   11.467    0.000    0.400 
#
# Total GULP energy -334331.056159 kJ/mol
# GULP energy per Si atom -5572.184269 kJ/mol
# Density = 1.808662 g / cm^3
# Si number density = 18.127884 Si / 1000 Ang^3
#
#
#
# Elastic Constant Matrix: (Units=GPa)
#
#
# Indices 1 2 3 4 5 6 
#
# 1 55.1056 14.0393 31.3618 0.0000 0.0000 0.0000
# 2 14.0393 41.8303 35.6621 0.0000 0.0000 0.0000
# 3 31.3618 35.6621 117.2236 0.0000 0.0000 0.0000
# 4 0.0000 0.0000 0.0000 10.2037 0.0000 0.0000
# 5 0.0000 0.0000 0.0000 0.0000 97.5383 0.0000
# 6 0.0000 0.0000 0.0000 0.0000 0.0000 19.1812
#
#
#
# Elastic Compliance Matrix: (Units=1/GPa)
#
#
# Indices 1 2 3 4 5 6 
#
# 1 0.021710 -0.003152 -0.004849 0.000000 0.000000 0.000000
# 2 -0.003152 0.032735 -0.009116 0.000000 0.000000 0.000000
# 3 -0.004849 -0.009116 0.012601 0.000000 0.000000 0.000000
# 4 0.000000 0.000000 0.000000 0.098004 0.000000 0.000000
# 5 0.000000 0.000000 0.000000 0.000000 0.010252 0.000000
# 6 0.000000 0.000000 0.000000 0.000000 0.000000 0.052134
#
#
# Mechanical properties :
#
#
# Convention : Reuss Voigt Hill
#
# Bulk Modulus (GPa) = 30.47610 41.80954 36.14282
# Shear Modulus (GPa) = 18.34133 34.25774 26.29953
#
# Velocity S-wave (km/s) = 3.18429 4.35188 3.81304
# Velocity P-wave (km/s) = 5.51070 6.95453 6.27429
#
# Compressibility (1/GPa) = 0.03281260
#
# Stress axis : x y z
#
# Youngs Moduli (GPa) = 46.06195 30.54792 79.35731
#
# Poissons Ratio (x) = 0.09629 0.38482
# Poissons Ratio (y) = 0.14520 0.72339
# Poissons Ratio (z) = 0.22337 0.27846
#
# Static dielectric constant tensor:
#      x y z
#    x 1.637200 0.000000 0.000000 
#    y 0.000000 1.656700 0.000000 
#    z 0.000000 0.000000 1.628150 
# 
# From -- ./inp_files/23953.got.cif
#   From: 2010.05.17/outbox.cif.g08.bks.cpg/sg47_12_cif.got.tgz:23953.got - 2010.06.03 20:15:42.
