data_PCOD9382600
_publ_section_title
;
Structure prediction by ZEFSAII (Michael W. Deem and Ramdas Pophale) SiO2 
 PCOD9382600
Probable space group: P M M M
;
_chemical_formula_sum "Si O2"
_cell_formula_units_Z 44
_cell_length_a 21.819488
_cell_length_b 14.204739
_cell_length_c 7.754606
_cell_angle_alpha 90.000000
_cell_angle_beta 90.000000
_cell_angle_gamma 90.000000
_cell_volume 2403.463608
_symmetry_space_group_name_H-M "P M M M"
_symmetry_group_IT_number 47
_symmetry_cell_setting 'orthorhombic'
loop_
_space_group_symop_operation_xyz
x,y,z
-x,-y,z
x,-y,-z
-x,y,-z
-x,-y,-z
x,y,-z
-x,y,z
x,-y,z
loop_
_atom_site_type_symbol
_atom_site_label
_atom_site_fract_x
_atom_site_fract_y
_atom_site_fract_z
Si Si1 0.000000 0.609229 0.711024
Si Si2 0.815897 0.104181 0.296652
Si Si3 0.251706 0.396228 0.206096
Si Si4 0.126602 0.702566 0.708946
Si Si5 0.431802 0.108375 0.291879
Si Si6 0.306249 0.796281 0.796078
O O1 0.938607 0.663038 0.767350
O O2 0.000000 0.500000 0.765111
O O3 0.000000 0.609182 0.500000
O O4 0.829806 0.099369 0.500000
O O5 0.854553 0.193014 0.226769
O O6 0.744532 0.133147 0.279954
O O7 0.826503 0.000000 0.222347
O O8 0.264737 0.500000 0.277216
O O9 0.181475 0.367005 0.239210
O O10 0.291612 0.308400 0.272874
O O11 0.260852 0.400252 0.000000
O O12 0.125868 0.705740 0.500000
O O13 0.431957 0.107914 0.500000
O O14 0.500000 0.138531 0.234693
O O15 0.375008 0.170618 0.234647
O O16 0.422726 0.000000 0.234991
O O17 0.294562 0.795833 0.000000
#
# Coordination Sequence:
#
# PCOD9382600 Si02
#       6
#     4   8   8   8   8   8
#     4   9  16  26  42  64  88 111 139 183 232 265
#     4   9  17  29  44  62  87 118 148 178 215 260
#     4   9  18  32  47  64  89 117 144 179 222 262
#     4   9  17  29  45  65  87 113 147 182 217 262
#     4   9  18  32  48  66  91 122 149 173 209 257
#     4  10  19  29  45  69  91 113 145 183 219 255
#
# _framework density 18.306915
#
# number of rings (size 3 to 8) (size 9 to 14) (size 15 to 20)
#    0.000    2.818    0.000    2.182    0.000    5.091 
#    0.000    1.818    0.000    4.909    0.000    3.818 
#    0.000    5.818    0.000    0.000    0.000    0.000 
#
# Total GULP energy -245292.897029 kJ/mol
# GULP energy per Si atom -5574.838569 kJ/mol
# Density = 1.826525 g / cm^3
# Si number density = 18.306915 Si / 1000 Ang^3
#
#
#
# Elastic Constant Matrix: (Units=GPa)
#
#
# Indices 1 2 3 4 5 6 
#
# 1 124.8278 67.6905 -10.0244 0.0000 0.0000 0.0000
# 2 67.6905 140.1534 1.3985 0.0000 0.0000 0.0000
# 3 -10.0244 1.3985 24.4988 0.0000 0.0000 0.0000
# 4 0.0000 0.0000 0.0000 14.2646 0.0000 0.0000
# 5 0.0000 0.0000 0.0000 0.0000 -87.5149 0.0000
# 6 0.0000 0.0000 0.0000 0.0000 0.0000 16.2689
#
#
#
# Elastic Compliance Matrix: (Units=1/GPa)
#
#
# Indices 1 2 3 4 5 6 
#
# 1 0.011434 -0.005572 0.004997 0.000000 0.000000 0.000000
# 2 -0.005572 0.009855 -0.002843 0.000000 0.000000 0.000000
# 3 0.004997 -0.002843 0.043025 0.000000 0.000000 0.000000
# 4 0.000000 0.000000 0.000000 0.070104 0.000000 0.000000
# 5 0.000000 0.000000 0.000000 0.000000 -0.011427 0.000000
# 6 0.000000 0.000000 0.000000 0.000000 0.000000 0.061467
#
#
# Mechanical properties :
#
#
# Convention : Reuss Voigt Hill
#
# Bulk Modulus (GPa) = 17.39815 45.28991 31.34403
# Shear Modulus (GPa) = 23.75831 3.96476 13.86153
#
# Velocity S-wave (km/s) = 3.60638 1.47323 2.75467
# Velocity P-wave (km/s) = 5.18319 5.26183 5.22266
#
# Compressibility (1/GPa) = 0.05747737
#
# Stress axis : x y z
#
# Youngs Moduli (GPa) = 87.45916 101.47543 23.24228
#
# Poissons Ratio (x) = 0.56544 -0.11613
# Poissons Ratio (y) = 0.48733 0.06607
# Poissons Ratio (z) = -0.43700 0.28845
#
# Static dielectric constant tensor:
#      x y z
#    x 1.598250 0.000000 0.000000 
#    y 0.000000 1.658880 0.000000 
#    z 0.000000 0.000000 1.677220 
# 
# From -- ./inp_files/8976.got.cif
#   From: 2010.05.17/outbox.cif.g08.bks.cpg/sg47_5_cif.got.tgz:8976.got - 2010.06.03 20:15:42.
