data_PCOD9382832
_publ_section_title
;
Structure prediction by ZEFSAII (Michael W. Deem and Ramdas Pophale) SiO2 
 PCOD9382832
Probable space group: P M M M
;
_chemical_formula_sum "Si O2"
_cell_formula_units_Z 64
_cell_length_a 25.424047
_cell_length_b 7.406202
_cell_length_c 13.593572
_cell_angle_alpha 90.000000
_cell_angle_beta 90.000000
_cell_angle_gamma 90.000000
_cell_volume 2559.610173
_symmetry_space_group_name_H-M "P M M M"
_symmetry_group_IT_number 47
_symmetry_cell_setting 'orthorhombic'
loop_
_space_group_symop_operation_xyz
x,y,z
-x,-y,z
x,-y,-z
-x,y,-z
-x,-y,-z
x,y,-z
-x,y,z
x,-y,z
loop_
_atom_site_type_symbol
_atom_site_label
_atom_site_fract_x
_atom_site_fract_y
_atom_site_fract_z
Si Si1 0.279057 0.786521 0.382397
Si Si2 0.062996 0.706497 0.106473
Si Si3 0.941779 0.205058 0.670122
Si Si4 0.556652 0.290501 0.809017
Si Si5 0.394830 0.218990 0.387194
Si Si6 0.168664 0.786821 0.690596
Si Si7 0.333315 0.287235 0.882132
Si Si8 0.218015 0.717819 0.887796
O O1 0.279464 0.770869 0.500000
O O2 0.336628 0.717445 0.351771
O O3 0.224040 0.707995 0.346002
O O4 0.278732 0.000000 0.358863
O O5 0.083214 0.500000 0.116768
O O6 0.065922 0.802546 0.211332
O O7 0.000000 0.694185 0.096011
O O8 0.082511 0.777523 0.000000
O O9 0.885175 0.288883 0.643809
O O10 0.000000 0.285753 0.650590
O O11 0.943680 0.000000 0.632169
O O12 0.500000 0.212723 0.838017
O O13 0.556379 0.500000 0.841289
O O14 0.563090 0.282953 0.691341
O O15 0.611290 0.207734 0.847267
O O16 0.403270 0.275526 0.500000
O O17 0.394415 0.000000 0.386998
O O18 0.174547 0.770921 0.808853
O O19 0.167948 0.000000 0.666297
O O20 0.333538 0.500000 0.856440
O O21 0.275814 0.215746 0.851608
O O22 0.332471 0.274867 0.000000
O O23 0.220185 0.500000 0.890322
O O24 0.209487 0.778473 0.000000
#
# Coordination Sequence:
#
# PCOD9382832 Si02
#       8
#     8   8   8   8   8   8   8   8
#     4   8  15  30  52  75  94 113 146 193 239 280
#     4   8  14  25  40  56  74 101 142 186 217 244
#     4   9  18  30  41  57  85 118 147 175 214 268
#     4  10  20  31  46  72 101 127 158 195 230 264
#     4   9  18  33  52  71  92 122 157 190 229 280
#     4  10  19  30  48  71  92 118 151 189 232 274
#     4   8  15  30  50  69  92 124 159 193 231 275
#     4   9  18  32  49  69  94 124 155 189 233 279
#
# _framework density 25.003806000000001
#
# number of rings (size 3 to 8) (size 9 to 14) (size 15 to 20)
#    0.000    3.125    0.000    2.625    0.000    2.500 
#    0.000    6.250    0.000    2.625    0.000    3.500 
#    0.000    0.000    0.000    4.250    0.000    4.500 
#
# Total GULP energy -356936.380692 kJ/mol
# GULP energy per Si atom -5577.130948 kJ/mol
# Density = 2.494690 g / cm^3
# Si number density = 25.003806 Si / 1000 Ang^3
#
#
#
# Elastic Constant Matrix: (Units=GPa)
#
#
# Indices 1 2 3 4 5 6 
#
# 1 204.7767 6.2269 10.7024 0.0000 0.0000 0.0000
# 2 6.2269 85.1404 -0.2333 0.0000 0.0000 0.0000
# 3 10.7024 -0.2333 16.8819 0.0000 0.0000 0.0000
# 4 0.0000 0.0000 0.0000 8.0241 0.0000 0.0000
# 5 0.0000 0.0000 0.0000 0.0000 4.7769 0.0000
# 6 0.0000 0.0000 0.0000 0.0000 0.0000 3.4811
#
#
#
# Elastic Compliance Matrix: (Units=1/GPa)
#
#
# Indices 1 2 3 4 5 6 
#
# 1 0.005063 -0.000379 -0.003215 0.000000 0.000000 0.000000
# 2 -0.000379 0.011774 0.000403 0.000000 0.000000 0.000000
# 3 -0.003215 0.000403 0.061279 0.000000 0.000000 0.000000
# 4 0.000000 0.000000 0.000000 0.124624 0.000000 0.000000
# 5 0.000000 0.000000 0.000000 0.000000 0.209343 0.000000
# 6 0.000000 0.000000 0.000000 0.000000 0.000000 0.287267
#
#
# Mechanical properties :
#
#
# Convention : Reuss Voigt Hill
#
# Bulk Modulus (GPa) = 13.94044 37.79901 25.86972
# Shear Modulus (GPa) = 6.85266 22.59661 14.72464
#
# Velocity S-wave (km/s) = 1.65729 3.00947 2.42935
# Velocity P-wave (km/s) = 3.04131 5.21785 4.27057
#
# Compressibility (1/GPa) = 0.07173374
#
# Stress axis : x y z
#
# Youngs Moduli (GPa) = 197.51461 84.93188 16.31890
#
# Poissons Ratio (x) = 0.03220 0.05246
# Poissons Ratio (y) = 0.07488 -0.00658
# Poissons Ratio (z) = 0.63499 -0.03423
#
# Static dielectric constant tensor:
#      x y z
#    x 2.043120 0.000000 0.000000 
#    y 0.000000 1.986490 0.000000 
#    z 0.000000 0.000000 1.994760 
# 
# From -- ./inp_files/19667.got.cif
#   From: 2010.05.17/outbox.cif.g08.bks.cpg/sg47_10_cif.got.tgz:19667.got - 2010.06.03 20:15:42.
