data_PCOD9382227
_publ_section_title
;
Structure prediction by ZEFSAII (Michael W. Deem and Ramdas Pophale) SiO2 
 PCOD9382227
Probable space group: P M M M
;
_chemical_formula_sum "Si O2"
_cell_formula_units_Z 48
_cell_length_a 7.727021
_cell_length_b 18.693672
_cell_length_c 18.584628
_cell_angle_alpha 90.000000
_cell_angle_beta 90.000000
_cell_angle_gamma 90.000000
_cell_volume 2684.482538
_symmetry_space_group_name_H-M "P M M M"
_symmetry_group_IT_number 47
_symmetry_cell_setting 'orthorhombic'
loop_
_space_group_symop_operation_xyz
x,y,z
-x,-y,z
x,-y,-z
-x,y,-z
-x,-y,-z
x,y,-z
-x,y,z
x,-y,z
loop_
_atom_site_type_symbol
_atom_site_label
_atom_site_fract_x
_atom_site_fract_y
_atom_site_fract_z
Si Si1 0.204698 0.816941 0.716516
Si Si2 0.500000 0.173866 0.920633
Si Si3 0.805268 0.268121 0.864284
Si Si4 0.794441 0.272713 0.579581
Si Si5 0.709422 0.419947 0.182226
Si Si6 0.708928 0.420792 0.349473
Si Si7 0.500000 0.915049 0.775459
O O1 0.218942 0.760113 0.782102
O O2 0.267811 0.778400 0.643722
O O3 0.330059 0.881762 0.737358
O O4 0.000000 0.835807 0.710975
O O5 0.665088 0.225273 0.909592
O O6 0.500000 0.116135 0.856735
O O7 0.500000 0.141974 0.000000
O O8 0.777913 0.353144 0.862398
O O9 0.000000 0.250863 0.886614
O O10 0.721291 0.259929 0.500000
O O11 0.767946 0.354647 0.603191
O O12 0.000000 0.260745 0.576568
O O13 0.500000 0.416759 0.180978
O O14 0.761020 0.500000 0.158909
O O15 0.763550 0.411735 0.266046
O O16 0.500000 0.420432 0.349638
O O17 0.765948 0.500000 0.373568
O O18 0.500000 0.000000 0.774154
#
# Coordination Sequence:
#
# PCOD9382227 Si02
#       7
#     8   4   8   8   8   8   4
#     4   9  19  35  55  81 112 141 179 226 264 306
#     4  10  22  39  59  85 119 144 158 197 257 312
#     4  10  18  31  55  80 104 143 190 225 259 308
#     4  10  20  32  47  69 101 145 190 231 278 321
#     4   9  16  27  46  72 103 140 184 237 286 315
#     4   9  18  29  43  66 100 142 186 235 286 327
#     4  10  22  39  65  93 111 135 169 200 246 319
#
# _framework density 17.880541000000001
#
# number of rings (size 3 to 8) (size 9 to 14) (size 15 to 20)
#    0.000    2.500    2.500    1.000    1.167    2.167 
#    0.000    3.333    0.000    2.000    0.000    8.167 
#    0.000    0.000    0.000    0.000    0.000    0.000 
#
# Total GULP energy -267706.777052 kJ/mol
# GULP energy per Si atom -5577.224522 kJ/mol
# Density = 1.783984 g / cm^3
# Si number density = 17.880541 Si / 1000 Ang^3
#
#
#
# Elastic Constant Matrix: (Units=GPa)
#
#
# Indices 1 2 3 4 5 6 
#
# 1 63.9368 37.9302 23.6167 0.0000 0.0000 0.0000
# 2 37.9302 129.7949 42.7159 0.0000 0.0000 0.0000
# 3 23.6167 42.7159 74.2200 0.0000 0.0000 0.0000
# 4 0.0000 0.0000 0.0000 9.2785 0.0000 0.0000
# 5 0.0000 0.0000 0.0000 0.0000 3.1115 0.0000
# 6 0.0000 0.0000 0.0000 0.0000 0.0000 -26.6192
#
#
#
# Elastic Compliance Matrix: (Units=1/GPa)
#
#
# Indices 1 2 3 4 5 6 
#
# 1 0.019688 -0.004554 -0.003644 0.000000 0.000000 0.000000
# 2 -0.004554 0.010558 -0.004627 0.000000 0.000000 0.000000
# 3 -0.003644 -0.004627 0.017296 0.000000 0.000000 0.000000
# 4 0.000000 0.000000 0.000000 0.107776 0.000000 0.000000
# 5 0.000000 0.000000 0.000000 0.000000 0.321388 0.000000
# 6 0.000000 0.000000 0.000000 0.000000 0.000000 -0.037567
#
#
# Mechanical properties :
#
#
# Convention : Reuss Voigt Hill
#
# Bulk Modulus (GPa) = 45.67928 52.94192 49.31060
# Shear Modulus (GPa) = 10.59126 8.06677 9.32902
#
# Velocity S-wave (km/s) = 2.43643 2.12633 2.28664
# Velocity P-wave (km/s) = 5.78941 5.97506 5.88297
#
# Compressibility (1/GPa) = 0.02189176
#
# Stress axis : x y z
#
# Youngs Moduli (GPa) = 50.79200 94.71222 57.81672
#
# Poissons Ratio (x) = 0.43136 0.21066
# Poissons Ratio (y) = 0.23133 0.26754
# Poissons Ratio (z) = 0.18506 0.43827
#
# Static dielectric constant tensor:
#      x y z
#    x 1.641820 0.000000 0.000000 
#    y 0.000000 1.576010 0.000000 
#    z 0.000000 0.000000 1.617390 
# 
# From -- ./inp_files/26495.got.cif
#   From: 2010.05.17/outbox.cif.g08.bks.cpg/sg47_14_cif.got.tgz:26495.got - 2010.06.03 20:15:42.
