data_PCOD9382145
_publ_section_title
;
Structure prediction by ZEFSAII (Michael W. Deem and Ramdas Pophale) SiO2 
 PCOD9382145
Probable space group: P M M M
;
_chemical_formula_sum "Si O2"
_cell_formula_units_Z 52
_cell_length_a 7.689131
_cell_length_b 14.978702
_cell_length_c 25.671554
_cell_angle_alpha 90.000000
_cell_angle_beta 90.000000
_cell_angle_gamma 90.000000
_cell_volume 2956.675072
_symmetry_space_group_name_H-M "P M M M"
_symmetry_group_IT_number 47
_symmetry_cell_setting 'orthorhombic'
loop_
_space_group_symop_operation_xyz
x,y,z
-x,-y,z
x,-y,-z
-x,y,-z
-x,-y,-z
x,y,-z
-x,y,z
x,-y,z
loop_
_atom_site_type_symbol
_atom_site_label
_atom_site_fract_x
_atom_site_fract_y
_atom_site_fract_z
Si Si1 0.000000 0.391842 0.440857
Si Si2 0.207974 0.399237 0.159119
Si Si3 0.788431 0.713284 0.259035
Si Si4 0.710084 0.286834 0.942790
Si Si5 0.300615 0.604543 0.361763
Si Si6 0.210277 0.901327 0.219157
Si Si7 0.292732 0.098209 0.096973
O O1 0.168549 0.367026 0.407026
O O2 0.000000 0.500000 0.443743
O O3 0.000000 0.357899 0.500000
O O4 0.277690 0.500000 0.159822
O O5 0.271777 0.340675 0.207774
O O6 0.241375 0.350433 0.104689
O O7 0.000000 0.404192 0.165257
O O8 0.725420 0.664008 0.310624
O O9 0.731315 0.815917 0.251992
O O10 0.000000 0.712053 0.260058
O O11 0.500000 0.283283 0.943307
O O12 0.775460 0.186235 0.931350
O O13 0.768944 0.316784 0.000000
O O14 0.500000 0.609657 0.379145
O O15 0.262888 0.500000 0.348731
O O16 0.263742 0.889841 0.158834
O O17 0.000000 0.901347 0.219948
O O18 0.270323 0.000000 0.236055
O O19 0.500000 0.095598 0.087654
O O20 0.222286 0.000000 0.082467
#
# Coordination Sequence:
#
# PCOD9382145 Si02
#       7
#     4   8   8   8   8   8   8
#     4   9  18  34  54  76 111 155 190 224 262 299
#     4  10  21  35  51  70  90 119 158 199 249 306
#     4  10  18  31  51  72 102 136 164 206 260 310
#     4  10  21  35  49  66  89 117 154 201 248 300
#     4  10  20  32  50  79 111 145 186 226 261 300
#     4   9  17  29  48  73  98 125 157 195 247 310
#     4   9  17  30  48  68  90 116 148 190 243 304
#
# _framework density 17.587323999999999
#
# number of rings (size 3 to 8) (size 9 to 14) (size 15 to 20)
#    0.000    2.385    2.308    0.462    0.000    3.385 
#    0.000    4.615    0.000    0.000    0.000    3.231 
#    0.000    1.231    0.000    1.385    0.000    0.154 
#
# Total GULP energy -290093.923703 kJ/mol
# GULP energy per Si atom -5578.729302 kJ/mol
# Density = 1.754729 g / cm^3
# Si number density = 17.587324 Si / 1000 Ang^3
#
#
#
# Elastic Constant Matrix: (Units=GPa)
#
#
# Indices 1 2 3 4 5 6 
#
# 1 46.2872 23.2343 25.1080 0.0000 0.0000 0.0000
# 2 23.2343 109.4510 57.7400 0.0000 0.0000 0.0000
# 3 25.1080 57.7400 121.8202 0.0000 0.0000 0.0000
# 4 0.0000 0.0000 0.0000 12.0111 0.0000 0.0000
# 5 0.0000 0.0000 0.0000 0.0000 26.6393 0.0000
# 6 0.0000 0.0000 0.0000 0.0000 0.0000 13.5817
#
#
#
# Elastic Compliance Matrix: (Units=1/GPa)
#
#
# Indices 1 2 3 4 5 6 
#
# 1 0.025286 -0.003491 -0.003557 0.000000 0.000000 0.000000
# 2 -0.003491 0.012665 -0.005283 0.000000 0.000000 0.000000
# 3 -0.003557 -0.005283 0.011446 0.000000 0.000000 0.000000
# 4 0.000000 0.000000 0.000000 0.083256 0.000000 0.000000
# 5 0.000000 0.000000 0.000000 0.000000 0.037538 0.000000
# 6 0.000000 0.000000 0.000000 0.000000 0.000000 0.073629
#
#
# Mechanical properties :
#
#
# Convention : Reuss Voigt Hill
#
# Bulk Modulus (GPa) = 40.42998 54.41367 47.42182
# Shear Modulus (GPa) = 18.06830 21.87817 19.97324
#
# Velocity S-wave (km/s) = 3.20870 3.53083 3.37361
# Velocity P-wave (km/s) = 6.06348 6.90135 6.49594
#
# Compressibility (1/GPa) = 0.02473412
#
# Stress axis : x y z
#
# Youngs Moduli (GPa) = 39.54733 78.95916 87.36652
#
# Poissons Ratio (x) = 0.27568 0.31075
# Poissons Ratio (y) = 0.13807 0.46158
# Poissons Ratio (z) = 0.14066 0.41716
#
# Static dielectric constant tensor:
#      x y z
#    x 1.658050 0.000000 0.000000 
#    y 0.000000 1.621510 0.000000 
#    z 0.000000 0.000000 1.557570 
# 
# From -- ./inp_files/25406.got.cif
#   From: 2010.05.17/outbox.cif.g08.bks.cpg/sg47_13_cif.got.tgz:25406.got - 2010.06.03 20:15:42.
