data_PCOD9382566
_publ_section_title
;
Structure prediction by ZEFSAII (Michael W. Deem and Ramdas Pophale) SiO2 
 PCOD9382566
Probable space group: P M M M
;
_chemical_formula_sum "Si O2"
_cell_formula_units_Z 52
_cell_length_a 14.222827
_cell_length_b 7.922973
_cell_length_c 29.357250
_cell_angle_alpha 90.000000
_cell_angle_beta 90.000000
_cell_angle_gamma 90.000000
_cell_volume 3308.182612
_symmetry_space_group_name_H-M "P M M M"
_symmetry_group_IT_number 47
_symmetry_cell_setting 'orthorhombic'
loop_
_space_group_symop_operation_xyz
x,y,z
-x,-y,z
x,-y,-z
-x,y,-z
-x,-y,-z
x,y,-z
-x,y,z
x,-y,z
loop_
_atom_site_type_symbol
_atom_site_label
_atom_site_fract_x
_atom_site_fract_y
_atom_site_fract_z
Si Si1 0.788776 0.799469 0.808781
Si Si2 0.290966 0.297724 0.949680
Si Si3 0.893635 0.702131 0.718235
Si Si4 0.605634 0.296522 0.859076
Si Si5 0.106427 0.795515 0.899567
Si Si6 0.114646 0.000000 0.552484
Si Si7 0.114395 0.694661 0.383157
O O1 0.827067 0.743681 0.760169
O O2 0.682910 0.748463 0.821384
O O3 0.854754 0.735193 0.850323
O O4 0.794130 0.000000 0.810168
O O5 0.303141 0.500000 0.950766
O O6 0.354093 0.232822 0.907740
O O7 0.183201 0.261206 0.936232
O O8 0.313306 0.231166 0.000000
O O9 0.900289 0.500000 0.715226
O O10 0.860080 0.755085 0.667942
O O11 0.000000 0.768482 0.726437
O O12 0.500000 0.235227 0.850648
O O13 0.602813 0.500000 0.861549
O O14 0.000000 0.737723 0.907508
O O15 0.106019 0.000000 0.899266
O O16 0.144427 0.831389 0.579558
O O17 0.144882 0.000000 0.500000
O O18 0.000000 0.000000 0.552755
O O19 0.145292 0.500000 0.390836
O O20 0.000000 0.690696 0.383271
#
# Coordination Sequence:
#
# PCOD9382566 Si02
#       7
#     8   8   8   8   8   4   8
#     4  10  19  29  44  65  85 107 137 172 210 254
#     4   9  18  31  46  65  84 101 129 168 206 246
#     4   9  17  28  42  61  86 115 145 179 218 257
#     4   9  18  33  50  64  81 106 133 165 207 255
#     4   9  18  31  43  58  83 111 137 163 196 244
#     4   9  16  24  36  54  76 110 155 197 234 267
#     4   8  15  26  37  53  79 110 147 191 232 267
#
# _framework density 15.718601
#
# number of rings (size 3 to 8) (size 9 to 14) (size 15 to 20)
#    0.000    3.000    0.000    1.846    1.077    3.385 
#    0.000    4.615    0.000    0.000    0.000    4.308 
#    0.000    0.000    0.000    0.000    0.000    1.538 
#
# Total GULP energy -289660.055849 kJ/mol
# GULP energy per Si atom -5570.385689 kJ/mol
# Density = 1.568282 g / cm^3
# Si number density = 15.718601 Si / 1000 Ang^3
#
#
#
# Elastic Constant Matrix: (Units=GPa)
#
#
# Indices 1 2 3 4 5 6 
#
# 1 62.8198 6.6186 40.2454 0.0000 0.0000 0.0000
# 2 6.6186 32.7017 33.0152 0.0000 0.0000 0.0000
# 3 40.2454 33.0152 130.9789 0.0000 0.0000 0.0000
# 4 0.0000 0.0000 0.0000 19.1485 0.0000 0.0000
# 5 0.0000 0.0000 0.0000 0.0000 9.2476 0.0000
# 6 0.0000 0.0000 0.0000 0.0000 0.0000 9.9576
#
#
#
# Elastic Compliance Matrix: (Units=1/GPa)
#
#
# Indices 1 2 3 4 5 6 
#
# 1 0.020022 0.002896 -0.006882 0.000000 0.000000 0.000000
# 2 0.002896 0.041436 -0.011334 0.000000 0.000000 0.000000
# 3 -0.006882 -0.011334 0.012606 0.000000 0.000000 0.000000
# 4 0.000000 0.000000 0.000000 0.052223 0.000000 0.000000
# 5 0.000000 0.000000 0.000000 0.000000 0.108136 0.000000
# 6 0.000000 0.000000 0.000000 0.000000 0.000000 0.100426
#
#
# Mechanical properties :
#
#
# Convention : Reuss Voigt Hill
#
# Bulk Modulus (GPa) = 23.02895 42.91768 32.97331
# Shear Modulus (GPa) = 13.15902 17.44548 15.30225
#
# Velocity S-wave (km/s) = 2.89651 3.33507 3.12350
# Velocity P-wave (km/s) = 5.08615 6.49564 5.83362
#
# Compressibility (1/GPa) = 0.04342361
#
# Stress axis : x y z
#
# Youngs Moduli (GPa) = 49.94385 24.13336 79.32429
#
# Poissons Ratio (x) = -0.06988 0.54592
# Poissons Ratio (y) = -0.14462 0.89909
# Poissons Ratio (z) = 0.34372 0.27354
#
# Static dielectric constant tensor:
#      x y z
#    x 1.518630 0.000000 0.000000 
#    y 0.000000 1.559390 0.000000 
#    z 0.000000 0.000000 1.541900 
# 
# From -- ./inp_files/8048.got.cif
#   From: 2010.05.17/outbox.cif.g08.bks.cpg/sg47_5_cif.got.tgz:8048.got - 2010.06.03 20:15:42.
