data_PCOD9382402
_publ_section_title
;
Structure prediction by ZEFSAII (Michael W. Deem and Ramdas Pophale) SiO2 
 PCOD9382402
Probable space group: P M M M
;
_chemical_formula_sum "Si O2"
_cell_formula_units_Z 52
_cell_length_a 13.067105
_cell_length_b 9.453384
_cell_length_c 27.809466
_cell_angle_alpha 90.000000
_cell_angle_beta 90.000000
_cell_angle_gamma 90.000000
_cell_volume 3435.257765
_symmetry_space_group_name_H-M "P M M M"
_symmetry_group_IT_number 47
_symmetry_cell_setting 'orthorhombic'
loop_
_space_group_symop_operation_xyz
x,y,z
-x,-y,z
x,-y,-z
-x,y,-z
-x,-y,-z
x,y,-z
-x,y,z
x,-y,z
loop_
_atom_site_type_symbol
_atom_site_label
_atom_site_fract_x
_atom_site_fract_y
_atom_site_fract_z
Si Si1 0.377216 0.160287 0.645558
Si Si2 0.692956 0.667927 0.262146
Si Si3 0.616713 0.330429 0.845287
Si Si4 0.624493 0.664002 0.553998
Si Si5 0.810732 0.834292 0.879403
Si Si6 0.000000 0.827595 0.055653
Si Si7 0.881089 0.161868 0.230642
O O1 0.500000 0.153506 0.641460
O O2 0.353215 0.250769 0.692718
O O3 0.338798 0.237974 0.597339
O O4 0.338141 0.000000 0.649666
O O5 0.688402 0.500000 0.269246
O O6 0.636600 0.700980 0.211429
O O7 0.807656 0.725515 0.255233
O O8 0.500000 0.290469 0.857615
O O9 0.627141 0.500000 0.850807
O O10 0.705252 0.251972 0.875107
O O11 0.656334 0.706950 0.500000
O O12 0.500000 0.667222 0.554366
O O13 0.653632 0.500000 0.561659
O O14 0.896277 0.782321 0.917042
O O15 0.862744 0.826674 0.826688
O O16 0.788721 0.000000 0.889104
O O17 0.000000 0.000000 0.058376
O O18 0.000000 0.786228 0.000000
O O19 0.000000 0.182865 0.241137
O O20 0.852423 0.000000 0.243976
#
# Coordination Sequence:
#
# PCOD9382402 Si02
#       7
#     8   8   8   8   8   4   8
#     4  10  19  28  39  57  83 114 146 181 219 259
#     4  10  19  29  42  61  85 115 148 181 217 260
#     4   9  18  31  45  63  89 121 154 187 223 263
#     4   8  14  25  40  56  75 104 142 180 219 262
#     4   9  16  28  47  70  92 117 149 182 221 267
#     4   9  16  28  49  75  99 119 143 183 232 275
#     4   9  16  28  45  63  87 115 141 174 216 262
#
# _framework density 15.137145
#
# number of rings (size 3 to 8) (size 9 to 14) (size 15 to 20)
#    0.000    2.846    0.769    1.846    0.000    3.077 
#    0.000    1.923    0.000    1.385    0.000    3.231 
#    0.000    0.615    0.000    6.462    0.000    3.077 
#
# Total GULP energy -289552.046817 kJ/mol
# GULP energy per Si atom -5568.308593 kJ/mol
# Density = 1.510269 g / cm^3
# Si number density = 15.137145 Si / 1000 Ang^3
#
#
#
# Elastic Constant Matrix: (Units=GPa)
#
#
# Indices 1 2 3 4 5 6 
#
# 1 81.9620 38.8788 38.7187 0.0000 0.0000 0.0000
# 2 38.8788 61.6922 47.1768 0.0000 0.0000 0.0000
# 3 38.7187 47.1768 83.3984 0.0000 0.0000 0.0000
# 4 0.0000 0.0000 0.0000 17.5877 0.0000 0.0000
# 5 0.0000 0.0000 0.0000 0.0000 14.1192 0.0000
# 6 0.0000 0.0000 0.0000 0.0000 0.0000 20.2852
#
#
#
# Elastic Compliance Matrix: (Units=1/GPa)
#
#
# Indices 1 2 3 4 5 6 
#
# 1 0.017936 -0.008698 -0.003407 0.000000 0.000000 0.000000
# 2 -0.008698 0.032786 -0.014508 0.000000 0.000000 0.000000
# 3 -0.003407 -0.014508 0.021779 0.000000 0.000000 0.000000
# 4 0.000000 0.000000 0.000000 0.056858 0.000000 0.000000
# 5 0.000000 0.000000 0.000000 0.000000 0.070826 0.000000
# 6 0.000000 0.000000 0.000000 0.000000 0.000000 0.049297
#
#
# Mechanical properties :
#
#
# Convention : Reuss Voigt Hill
#
# Bulk Modulus (GPa) = 51.88034 52.95569 52.41801
# Shear Modulus (GPa) = 16.17431 17.21695 16.69563
#
# Velocity S-wave (km/s) = 3.27237 3.37619 3.32468
# Velocity P-wave (km/s) = 6.97322 7.08929 7.03150
#
# Compressibility (1/GPa) = 0.01927512
#
# Stress axis : x y z
#
# Youngs Moduli (GPa) = 55.75335 30.50113 45.91582
#
# Poissons Ratio (x) = 0.26531 0.15641
# Poissons Ratio (y) = 0.48497 0.66614
# Poissons Ratio (z) = 0.18993 0.44251
#
# Static dielectric constant tensor:
#      x y z
#    x 1.492910 0.000000 0.000000 
#    y 0.000000 1.512110 0.000000 
#    z 0.000000 0.000000 1.496740 
# 
# From -- ./inp_files/13229.got.cif
#   From: 2010.05.17/outbox.cif.g08.bks.cpg/sg47_7_cif.got.tgz:13229.got - 2010.06.03 20:15:42.
