data_PCOD9382218
_publ_section_title
;
Structure prediction by ZEFSAII (Michael W. Deem and Ramdas Pophale) SiO2 
 PCOD9382218
Probable space group: P M M M
;
_chemical_formula_sum "Si O2"
_cell_formula_units_Z 40
_cell_length_a 7.551336
_cell_length_b 12.119816
_cell_length_c 21.433441
_cell_angle_alpha 90.000000
_cell_angle_beta 90.000000
_cell_angle_gamma 90.000000
_cell_volume 1961.605729
_symmetry_space_group_name_H-M "P M M M"
_symmetry_group_IT_number 47
_symmetry_cell_setting 'orthorhombic'
loop_
_space_group_symop_operation_xyz
x,y,z
-x,-y,z
x,-y,-z
-x,y,-z
-x,-y,-z
x,y,-z
-x,y,z
x,-y,z
loop_
_atom_site_type_symbol
_atom_site_label
_atom_site_fract_x
_atom_site_fract_y
_atom_site_fract_z
Si Si1 0.212245 0.000000 0.123895
Si Si2 0.289666 0.241496 0.689604
Si Si3 0.709625 0.238028 0.069219
Si Si4 0.716097 0.372478 0.570209
Si Si5 0.210533 0.000000 0.733222
Si Si6 0.717047 0.627577 0.188520
O O1 0.269539 0.889179 0.089117
O O2 0.280589 0.000000 0.195401
O O3 0.000000 0.000000 0.125512
O O4 0.500000 0.261581 0.688919
O O5 0.220218 0.293437 0.625404
O O6 0.263160 0.111725 0.698524
O O7 0.221025 0.304552 0.751014
O O8 0.500000 0.260837 0.065989
O O9 0.780086 0.313350 0.125322
O O10 0.784174 0.256512 0.000000
O O11 0.774277 0.343287 0.500000
O O12 0.500000 0.369544 0.569467
O O13 0.765225 0.500000 0.582663
O O14 0.000000 0.000000 0.737884
O O15 0.500000 0.631183 0.188364
O O16 0.768455 0.500000 0.191778
#
# Coordination Sequence:
#
# PCOD9382218 Si02
#       6
#     4   8   8   8   4   8
#     4  11  22  36  53  71  95 129 169 212 255 297
#     4  10  18  31  54  78 100 131 169 205 243 292
#     4  10  20  33  51  75 102 130 161 202 250 297
#     4   8  14  26  48  81 114 135 157 199 250 293
#     4  11  23  36  51  72 100 132 167 212 260 295
#     4   9  17  29  48  75 102 127 160 201 243 291
#
# _framework density 20.391456999999999
#
# number of rings (size 3 to 8) (size 9 to 14) (size 15 to 20)
#    0.000    2.400    2.000    2.100    0.000    5.200 
#    0.000    2.500    0.000    7.800    0.000    2.800 
#    0.000    0.000    0.000    0.000    0.000    0.000 
#
# Total GULP energy -223357.705972 kJ/mol
# GULP energy per Si atom -5583.942649 kJ/mol
# Density = 2.034505 g / cm^3
# Si number density = 20.391457 Si / 1000 Ang^3
#
#
#
# Elastic Constant Matrix: (Units=GPa)
#
#
# Indices 1 2 3 4 5 6 
#
# 1 48.0327 -10.0968 9.5606 0.0000 0.0000 0.0000
# 2 -10.0968 164.5546 125.1401 0.0000 0.0000 0.0000
# 3 9.5606 125.1401 225.3509 0.0000 0.0000 0.0000
# 4 0.0000 0.0000 0.0000 -20.7095 0.0000 0.0000
# 5 0.0000 0.0000 0.0000 0.0000 -1.1643 0.0000
# 6 0.0000 0.0000 0.0000 0.0000 0.0000 -101.7457
#
#
#
# Elastic Compliance Matrix: (Units=1/GPa)
#
#
# Indices 1 2 3 4 5 6 
#
# 1 0.022158 0.003591 -0.002934 0.000000 0.000000 0.000000
# 2 0.003591 0.011101 -0.006317 0.000000 0.000000 0.000000
# 3 -0.002934 -0.006317 0.008070 0.000000 0.000000 0.000000
# 4 0.000000 0.000000 0.000000 -0.048287 0.000000 0.000000
# 5 0.000000 0.000000 0.000000 0.000000 -0.858913 0.000000
# 6 0.000000 0.000000 0.000000 0.000000 0.000000 -0.009828
#
#
# Mechanical properties :
#
#
# Convention : Reuss Voigt Hill
#
# Bulk Modulus (GPa) = 33.32365 76.34957 54.83661
# Shear Modulus (GPa) = -5.85222 -3.83493 -4.84358
#
# Velocity S-wave (km/s) = -1.69593 -1.37286 -1.54287
# Velocity P-wave (km/s) = 3.54155 5.91694 4.87610
#
# Compressibility (1/GPa) = 0.03000872
#
# Stress axis : x y z
#
# Youngs Moduli (GPa) = 45.13046 90.07947 123.91676
#
# Poissons Ratio (x) = -0.32347 0.36359
# Poissons Ratio (y) = -0.16206 0.78279
# Poissons Ratio (z) = 0.13242 0.56904
#
# Static dielectric constant tensor:
#      x y z
#    x 1.754060 0.000000 0.000000 
#    y 0.000000 1.649330 0.000000 
#    z 0.000000 0.000000 1.734030 
# 
# From -- ./inp_files/15117.got.cif
#   From: 2010.05.17/outbox.cif.g08.bks.cpg/sg47_8_cif.got.tgz:15117.got - 2010.06.03 20:15:42.
