data_PCOD9382461
_publ_section_title
;
Structure prediction by ZEFSAII (Michael W. Deem and Ramdas Pophale) SiO2 
 PCOD9382461
Probable space group: P M M M
;
_chemical_formula_sum "Si O2"
_cell_formula_units_Z 64
_cell_length_a 19.884656
_cell_length_b 24.572772
_cell_length_c 7.637776
_cell_angle_alpha 90.000000
_cell_angle_beta 90.000000
_cell_angle_gamma 90.000000
_cell_volume 3731.978650
_symmetry_space_group_name_H-M "P M M M"
_symmetry_group_IT_number 47
_symmetry_cell_setting 'orthorhombic'
loop_
_space_group_symop_operation_xyz
x,y,z
-x,-y,z
x,-y,-z
-x,y,-z
-x,-y,-z
x,y,-z
-x,y,z
x,-y,z
loop_
_atom_site_type_symbol
_atom_site_label
_atom_site_fract_x
_atom_site_fract_y
_atom_site_fract_z
Si Si1 0.923187 0.060890 0.788995
Si Si2 0.712762 0.561182 0.714620
Si Si3 0.209843 0.665318 0.294703
Si Si4 0.152046 0.169939 0.293526
Si Si5 0.574259 0.743378 0.286551
Si Si6 0.283570 0.774318 0.285644
Si Si7 0.075082 0.278101 0.795888
Si Si8 0.574713 0.383713 0.286984
O O1 0.875134 0.109856 0.737123
O O2 0.000000 0.071432 0.729103
O O3 0.903898 0.000000 0.729471
O O4 0.924712 0.059939 0.000000
O O5 0.713266 0.560038 0.500000
O O6 0.726919 0.500000 0.773959
O O7 0.765375 0.607384 0.774610
O O8 0.638289 0.581000 0.769320
O O9 0.226061 0.664035 0.500000
O O10 0.252768 0.716395 0.225142
O O11 0.132222 0.682144 0.278325
O O12 0.152005 0.180544 0.500000
O O13 0.228032 0.181598 0.229850
O O14 0.102798 0.216374 0.219070
O O15 0.573627 0.744436 0.500000
O O16 0.500000 0.760907 0.227395
O O17 0.639321 0.776886 0.227351
O O18 0.583418 0.679769 0.237868
O O19 0.284901 0.774623 0.500000
O O20 0.000000 0.282177 0.719842
O O21 0.071260 0.290977 0.000000
O O22 0.574712 0.384898 0.500000
O O23 0.500000 0.401447 0.229702
#
# Coordination Sequence:
#
# PCOD9382461 Si02
#       8
#     8   8   8   8   8   8   8   8
#     4   9  18  32  47  62  86 122 156 181 205 235
#     4   9  15  22  34  53  79 109 137 168 208 252
#     4   9  16  27  42  59  81 106 133 166 207 256
#     4  10  19  28  43  67  93 117 141 172 208 246
#     4   8  11  16  29  47  72 109 143 165 193 241
#     4   8  13  22  34  52  80 109 136 168 206 243
#     4  10  20  32  46  63  82 104 132 170 213 254
#     4   8  12  17  27  46  75 111 143 166 194 240
#
# _framework density 17.149080999999999
#
# number of rings (size 3 to 8) (size 9 to 14) (size 15 to 20)
#    0.000    3.125    1.250    3.000    0.000    3.250 
#    0.000    1.875    0.000    0.750    0.000    2.625 
#    0.000   17.500    0.000    7.375    0.000    2.250 
#
# Total GULP energy -356472.367586 kJ/mol
# GULP energy per Si atom -5569.880744 kJ/mol
# Density = 1.711005 g / cm^3
# Si number density = 17.149081 Si / 1000 Ang^3
#
#
#
# Elastic Constant Matrix: (Units=GPa)
#
#
# Indices 1 2 3 4 5 6 
#
# 1 148.1720 76.3481 -6.1868 0.0000 0.0000 0.0000
# 2 76.3481 103.9003 -2.9077 0.0000 0.0000 0.0000
# 3 -6.1868 -2.9077 26.9422 0.0000 0.0000 0.0000
# 4 0.0000 0.0000 0.0000 30.9016 0.0000 0.0000
# 5 0.0000 0.0000 0.0000 0.0000 50.5245 0.0000
# 6 0.0000 0.0000 0.0000 0.0000 0.0000 27.9999
#
#
#
# Elastic Compliance Matrix: (Units=1/GPa)
#
#
# Indices 1 2 3 4 5 6 
#
# 1 0.010934 -0.007988 0.001649 0.000000 0.000000 0.000000
# 2 -0.007988 0.015490 -0.000163 0.000000 0.000000 0.000000
# 3 0.001649 -0.000163 0.037478 0.000000 0.000000 0.000000
# 4 0.000000 0.000000 0.000000 0.032361 0.000000 0.000000
# 5 0.000000 0.000000 0.000000 0.000000 0.019792 0.000000
# 6 0.000000 0.000000 0.000000 0.000000 0.000000 0.035714
#
#
# Mechanical properties :
#
#
# Convention : Reuss Voigt Hill
#
# Bulk Modulus (GPa) = 19.64757 45.94685 32.79721
# Shear Modulus (GPa) = 27.51195 36.00259 31.75727
#
# Velocity S-wave (km/s) = 4.00969 4.58688 4.30796
# Velocity P-wave (km/s) = 5.73748 7.40968 6.62654
#
# Compressibility (1/GPa) = 0.05089688
#
# Stress axis : x y z
#
# Youngs Moduli (GPa) = 91.45914 64.55769 26.68266
#
# Poissons Ratio (x) = 0.51571 -0.04399
# Poissons Ratio (y) = 0.73060 0.00434
# Poissons Ratio (z) = -0.15078 0.01050
#
# Static dielectric constant tensor:
#      x y z
#    x 1.618900 0.000000 0.000000 
#    y 0.000000 1.562230 0.000000 
#    z 0.000000 0.000000 1.658460 
# 
# From -- ./inp_files/11923.got.cif
#   From: 2010.05.17/outbox.cif.g08.bks.cpg/sg47_6_cif.got.tgz:11923.got - 2010.06.03 20:15:42.
