data_PCOD9382878
_publ_section_title
;
Structure prediction by ZEFSAII (Michael W. Deem and Ramdas Pophale) SiO2 
 PCOD9382878
Probable space group: P M M M
;
_chemical_formula_sum "Si O2"
_cell_formula_units_Z 52
_cell_length_a 9.079784
_cell_length_b 24.152272
_cell_length_c 14.241438
_cell_angle_alpha 90.000000
_cell_angle_beta 90.000000
_cell_angle_gamma 90.000000
_cell_volume 3123.110509
_symmetry_space_group_name_H-M "P M M M"
_symmetry_group_IT_number 47
_symmetry_cell_setting 'orthorhombic'
loop_
_space_group_symop_operation_xyz
x,y,z
-x,-y,z
x,-y,-z
-x,y,-z
-x,-y,-z
x,y,-z
-x,y,z
x,-y,z
loop_
_atom_site_type_symbol
_atom_site_label
_atom_site_fract_x
_atom_site_fract_y
_atom_site_fract_z
Si Si1 0.666150 0.566632 0.500000
Si Si2 0.173107 0.152884 0.766615
Si Si3 0.323192 0.934857 0.106221
Si Si4 0.333850 0.237970 0.890149
Si Si5 0.177810 0.760317 0.389477
Si Si6 0.824189 0.564000 0.306185
Si Si7 0.329977 0.331270 0.740684
O O1 0.654279 0.500000 0.500000
O O2 0.500000 0.589311 0.500000
O O3 0.757743 0.579950 0.407669
O O4 0.254058 0.099192 0.808054
O O5 0.213124 0.198603 0.844834
O O6 0.218963 0.183958 0.669518
O O7 0.000000 0.142105 0.760839
O O8 0.500000 0.929722 0.109721
O O9 0.286880 0.000000 0.112616
O O10 0.277854 0.915652 0.000000
O O11 0.500000 0.214518 0.872977
O O12 0.327461 0.295316 0.835072
O O13 0.314956 0.244240 0.000000
O O14 0.214794 0.763231 0.500000
O O15 0.254113 0.708228 0.337765
O O16 0.000000 0.754213 0.381379
O O17 0.782891 0.500000 0.285653
O O18 0.754259 0.611393 0.242986
O O19 0.000000 0.566996 0.307955
O O20 0.500000 0.341793 0.714532
#
# Coordination Sequence:
#
# PCOD9382878 Si02
#       7
#     4   8   8   8   8   8   8
#     4   9  17  29  45  65  87 113 149 189 224 263
#     4  10  19  30  48  75 100 124 160 201 240 280
#     4   9  18  32  49  70  99 135 167 193 232 288
#     4   9  18  33  51  70  95 127 159 192 237 292
#     4   9  19  35  51  67  94 131 163 193 235 288
#     4  10  20  33  48  66  92 126 158 188 233 293
#     4  10  20  32  49  73  96 120 156 201 241 279
#
# _framework density 16.650068000000001
#
# number of rings (size 3 to 8) (size 9 to 14) (size 15 to 20)
#    0.000    2.538    0.000    2.538    1.077    6.154 
#    0.000    0.769    0.000    0.923    0.000    6.462 
#    0.000    0.000    0.000    0.000    0.000    0.000 
#
# Total GULP energy -289678.268020 kJ/mol
# GULP energy per Si atom -5570.735923 kJ/mol
# Density = 1.661217 g / cm^3
# Si number density = 16.650068 Si / 1000 Ang^3
#
#
#
# Elastic Constant Matrix: (Units=GPa)
#
#
# Indices 1 2 3 4 5 6 
#
# 1 44.0101 29.5090 17.3932 0.0000 0.0000 0.0000
# 2 29.5090 82.2690 25.5185 0.0000 0.0000 0.0000
# 3 17.3932 25.5185 69.5164 0.0000 0.0000 0.0000
# 4 0.0000 0.0000 0.0000 14.0999 0.0000 0.0000
# 5 0.0000 0.0000 0.0000 0.0000 19.8891 0.0000
# 6 0.0000 0.0000 0.0000 0.0000 0.0000 31.3648
#
#
#
# Elastic Compliance Matrix: (Units=1/GPa)
#
#
# Indices 1 2 3 4 5 6 
#
# 1 0.030937 -0.009813 -0.004138 0.000000 0.000000 0.000000
# 2 -0.009813 0.016830 -0.003723 0.000000 0.000000 0.000000
# 3 -0.004138 -0.003723 0.016787 0.000000 0.000000 0.000000
# 4 0.000000 0.000000 0.000000 0.070923 0.000000 0.000000
# 5 0.000000 0.000000 0.000000 0.000000 0.050279 0.000000
# 6 0.000000 0.000000 0.000000 0.000000 0.000000 0.031883
#
#
# Mechanical properties :
#
#
# Convention : Reuss Voigt Hill
#
# Bulk Modulus (GPa) = 34.23981 37.84854 36.04417
# Shear Modulus (GPa) = 19.03149 21.29574 20.16362
#
# Velocity S-wave (km/s) = 3.38454 3.58022 3.48375
# Velocity P-wave (km/s) = 5.99020 6.31440 6.15444
#
# Compressibility (1/GPa) = 0.02920577
#
# Stress axis : x y z
#
# Youngs Moduli (GPa) = 32.32333 59.41806 59.56972
#
# Poissons Ratio (x) = 0.58309 0.24652
# Poissons Ratio (y) = 0.31720 0.22176
# Poissons Ratio (z) = 0.13376 0.22120
#
# Static dielectric constant tensor:
#      x y z
#    x 1.569840 0.000000 0.000000 
#    y 0.000000 1.588040 0.000000 
#    z 0.000000 0.000000 1.560750 
# 
# From -- ./inp_files/7632.got.cif
#   From: 2010.05.17/outbox.cif.g08.bks.cpg/sg47_4_cif.got.tgz:7632.got - 2010.06.03 20:15:42.
