data_PCOD9382031
_publ_section_title
;
Structure prediction by ZEFSAII (Michael W. Deem and Ramdas Pophale) SiO2 
 PCOD9382031
Probable space group: P M M M
;
_chemical_formula_sum "Si O2"
_cell_formula_units_Z 56
_cell_length_a 16.062737
_cell_length_b 20.808688
_cell_length_c 8.066776
_cell_angle_alpha 90.000000
_cell_angle_beta 90.000000
_cell_angle_gamma 90.000000
_cell_volume 2696.275371
_symmetry_space_group_name_H-M "P M M M"
_symmetry_group_IT_number 47
_symmetry_cell_setting 'orthorhombic'
loop_
_space_group_symop_operation_xyz
x,y,z
-x,-y,z
x,-y,-z
-x,y,-z
-x,-y,-z
x,y,-z
-x,y,z
x,-y,z
loop_
_atom_site_type_symbol
_atom_site_label
_atom_site_fract_x
_atom_site_fract_y
_atom_site_fract_z
Si Si1 0.089078 0.896107 0.201928
Si Si2 0.270451 0.428149 0.700533
Si Si3 0.306851 0.790899 0.691616
Si Si4 0.592458 0.675616 0.802361
Si Si5 0.090434 0.613431 0.305906
Si Si6 0.274027 0.930082 0.799193
Si Si7 0.870571 0.247671 0.808200
O O1 0.176801 0.925556 0.255583
O O2 0.093097 0.820721 0.246392
O O3 0.000000 0.922746 0.258297
O O4 0.089821 0.900012 0.000000
O O5 0.266973 0.425256 0.500000
O O6 0.295700 0.500000 0.750078
O O7 0.336609 0.375238 0.754972
O O8 0.176631 0.414399 0.764323
O O9 0.283126 0.785516 0.500000
O O10 0.383611 0.744694 0.727899
O O11 0.317648 0.865693 0.735222
O O12 0.228639 0.762982 0.794053
O O13 0.500000 0.655414 0.747393
O O14 0.592432 0.681711 0.000000
O O15 0.088679 0.595563 0.500000
O O16 0.100486 0.690396 0.290745
O O17 0.000000 0.594962 0.234139
O O18 0.307267 0.000000 0.748602
O O19 0.274812 0.927145 0.000000
O O20 0.893147 0.257948 0.000000
#
# Coordination Sequence:
#
# PCOD9382031 Si02
#       7
#     8   8   8   8   8   8   8
#     4   8  14  24  40  67 102 139 184 237 287 334
#     4  10  22  40  61  87 123 165 202 239 288 347
#     4  11  21  35  58  85 115 150 190 239 295 351
#     4  11  24  42  66  94 120 149 189 240 299 360
#     4  10  20  33  52  81 117 158 203 247 292 343
#     4   9  18  32  51  77 111 153 197 240 290 348
#     4  10  18  30  50  76 108 148 195 244 296 348
#
# _framework density 20.769393000000001
#
# number of rings (size 3 to 8) (size 9 to 14) (size 15 to 20)
#    0.000    2.143    1.429    3.429    0.000    3.429 
#    0.000    4.286    0.000    4.286    0.000    9.000 
#    0.000    0.000    0.000    0.000    0.000    0.000 
#
# Total GULP energy -312545.296574 kJ/mol
# GULP energy per Si atom -5581.166010 kJ/mol
# Density = 2.072212 g / cm^3
# Si number density = 20.769393 Si / 1000 Ang^3
#
#
#
# Elastic Constant Matrix: (Units=GPa)
#
#
# Indices 1 2 3 4 5 6 
#
# 1 105.3942 51.8805 10.2912 0.0000 0.0000 0.0000
# 2 51.8805 123.4450 14.3525 0.0000 0.0000 0.0000
# 3 10.2912 14.3525 28.7345 0.0000 0.0000 0.0000
# 4 0.0000 0.0000 0.0000 20.0008 0.0000 0.0000
# 5 0.0000 0.0000 0.0000 0.0000 12.1520 0.0000
# 6 0.0000 0.0000 0.0000 0.0000 0.0000 -12.8695
#
#
#
# Elastic Compliance Matrix: (Units=1/GPa)
#
#
# Indices 1 2 3 4 5 6 
#
# 1 0.012060 -0.004848 -0.001898 0.000000 0.000000 0.000000
# 2 -0.004848 0.010549 -0.003533 0.000000 0.000000 0.000000
# 3 -0.001898 -0.003533 0.037246 0.000000 0.000000 0.000000
# 4 0.000000 0.000000 0.000000 0.049998 0.000000 0.000000
# 5 0.000000 0.000000 0.000000 0.000000 0.082291 0.000000
# 6 0.000000 0.000000 0.000000 0.000000 0.000000 -0.077703
#
#
# Mechanical properties :
#
#
# Convention : Reuss Voigt Hill
#
# Bulk Modulus (GPa) = 25.44682 45.62465 35.53574
# Shear Modulus (GPa) = 33.76180 15.92663 24.84422
#
# Velocity S-wave (km/s) = 4.03619 2.77218 3.46236
# Velocity P-wave (km/s) = 5.83094 5.67993 5.75593
#
# Compressibility (1/GPa) = 0.03929764
#
# Stress axis : x y z
#
# Youngs Moduli (GPa) = 82.92007 94.79666 26.84877
#
# Poissons Ratio (x) = 0.45955 0.05095
# Poissons Ratio (y) = 0.40198 0.09485
# Poissons Ratio (z) = 0.15737 0.33490
#
# Static dielectric constant tensor:
#      x y z
#    x 1.765490 0.000000 0.000000 
#    y 0.000000 1.739000 0.000000 
#    z 0.000000 0.000000 1.752380 
# 
# From -- ./inp_files/7239.got.cif
#   From: 2010.05.17/outbox.cif.g08.bks.cpg/sg47_4_cif.got.tgz:7239.got - 2010.06.03 20:15:42.
