data_PCOD9382501
_publ_section_title
;
Structure prediction by ZEFSAII (Michael W. Deem and Ramdas Pophale) SiO2 
 PCOD9382501
Probable space group: P M M M
;
_chemical_formula_sum "Si O2"
_cell_formula_units_Z 64
_cell_length_a 20.662894
_cell_length_b 20.888833
_cell_length_c 7.547161
_cell_angle_alpha 90.000000
_cell_angle_beta 90.000000
_cell_angle_gamma 90.000000
_cell_volume 3257.533873
_symmetry_space_group_name_H-M "P M M M"
_symmetry_group_IT_number 47
_symmetry_cell_setting 'orthorhombic'
loop_
_space_group_symop_operation_xyz
x,y,z
-x,-y,z
x,-y,-z
-x,y,-z
-x,-y,-z
x,y,-z
-x,y,z
x,-y,z
loop_
_atom_site_type_symbol
_atom_site_label
_atom_site_fract_x
_atom_site_fract_y
_atom_site_fract_z
Si Si1 0.169204 0.685421 0.708195
Si Si2 0.072047 0.426842 0.212941
Si Si3 0.894729 0.931085 0.294864
Si Si4 0.290702 0.246176 0.209226
Si Si5 0.246991 0.892039 0.785822
Si Si6 0.429901 0.210405 0.783245
Si Si7 0.928660 0.791501 0.283237
Si Si8 0.608822 0.931042 0.215023
O O1 0.171352 0.694921 0.500000
O O2 0.129804 0.620663 0.740128
O O3 0.243105 0.694240 0.767199
O O4 0.125788 0.743364 0.784961
O O5 0.082186 0.500000 0.274106
O O6 0.000000 0.405822 0.275653
O O7 0.069503 0.428309 0.000000
O O8 0.915720 0.932189 0.500000
O O9 0.817007 0.923735 0.289369
O O10 0.919975 0.864218 0.218653
O O11 0.912742 0.000000 0.215755
O O12 0.255295 0.181584 0.276929
O O13 0.364504 0.246320 0.276795
O O14 0.296632 0.235384 0.000000
O O15 0.314927 0.925275 0.742068
O O16 0.240468 0.893591 0.000000
O O17 0.500000 0.234919 0.724725
O O18 0.422605 0.135782 0.728179
O O19 0.430196 0.211311 0.000000
O O20 0.924850 0.793118 0.500000
O O21 0.000000 0.767710 0.236353
O O22 0.583797 0.000000 0.277348
O O23 0.603692 0.930969 0.000000
#
# Coordination Sequence:
#
# PCOD9382501 Si02
#       8
#     8   8   8   8   8   8   8   8
#     4  11  20  31  51  75 100 130 164 205 241 275
#     4   9  19  36  56  79 110 144 170 193 228 277
#     4  10  19  29  42  59  79 106 145 195 247 294
#     4   9  17  29  46  67  91 121 158 199 244 293
#     4   9  16  27  42  58  80 110 144 186 238 295
#     4   8  14  24  38  58  85 117 153 196 245 296
#     4   9  18  31  44  61  86 114 148 193 242 284
#     4   8  13  20  32  53  79 107 141 183 236 297
#
# _framework density 19.646763
#
# number of rings (size 3 to 8) (size 9 to 14) (size 15 to 20)
#    0.000    2.875    1.250    3.000    0.000    2.250 
#    0.000    3.125    0.000    1.500    0.000    0.875 
#    0.000    0.500    0.000   19.000    0.000   11.625 
#
# Total GULP energy -356903.611147 kJ/mol
# GULP energy per Si atom -5576.618924 kJ/mol
# Density = 1.960205 g / cm^3
# Si number density = 19.646763 Si / 1000 Ang^3
#
#
#
# Elastic Constant Matrix: (Units=GPa)
#
#
# Indices 1 2 3 4 5 6 
#
# 1 143.4999 55.0734 1.8581 0.0000 0.0000 0.0000
# 2 55.0734 72.6512 -2.1185 0.0000 0.0000 0.0000
# 3 1.8581 -2.1185 46.2836 0.0000 0.0000 0.0000
# 4 0.0000 0.0000 0.0000 0.3198 0.0000 0.0000
# 5 0.0000 0.0000 0.0000 0.0000 12.1950 0.0000
# 6 0.0000 0.0000 0.0000 0.0000 0.0000 51.1239
#
#
#
# Elastic Compliance Matrix: (Units=1/GPa)
#
#
# Indices 1 2 3 4 5 6 
#
# 1 0.009853 -0.007491 -0.000738 0.000000 0.000000 0.000000
# 2 -0.007491 0.019477 0.001192 0.000000 0.000000 0.000000
# 3 -0.000738 0.001192 0.021690 0.000000 0.000000 0.000000
# 4 0.000000 0.000000 0.000000 3.126680 0.000000 0.000000
# 5 0.000000 0.000000 0.000000 0.000000 0.082001 0.000000
# 6 0.000000 0.000000 0.000000 0.000000 0.000000 0.019560
#
#
# Mechanical properties :
#
#
# Convention : Reuss Voigt Hill
#
# Bulk Modulus (GPa) = 27.06581 41.34008 34.20295
# Shear Modulus (GPa) = 1.51256 26.56920 14.04088
#
# Velocity S-wave (km/s) = 0.87838 3.68141 2.67622
# Velocity P-wave (km/s) = 3.85160 6.25762 5.19580
#
# Compressibility (1/GPa) = 0.03694698
#
# Stress axis : x y z
#
# Youngs Moduli (GPa) = 101.49170 51.34136 46.10391
#
# Poissons Ratio (x) = 0.38458 0.03404
# Poissons Ratio (y) = 0.76024 -0.05497
# Poissons Ratio (z) = 0.07494 -0.06121
#
# Static dielectric constant tensor:
#      x y z
#    x 1.734990 0.000000 0.000000 
#    y 0.000000 1.689760 0.000000 
#    z 0.000000 0.000000 1.752560 
# 
# From -- ./inp_files/11878.got.cif
#   From: 2010.05.17/outbox.cif.g08.bks.cpg/sg47_6_cif.got.tgz:11878.got - 2010.06.03 20:15:42.
