data_PCOD9382624
_publ_section_title
;
Structure prediction by ZEFSAII (Michael W. Deem and Ramdas Pophale) SiO2 
 PCOD9382624
Probable space group: P M M M
;
_chemical_formula_sum "Si O2"
_cell_formula_units_Z 60
_cell_length_a 8.913318
_cell_length_b 21.367478
_cell_length_c 19.336378
_cell_angle_alpha 90.000000
_cell_angle_beta 90.000000
_cell_angle_gamma 90.000000
_cell_volume 3682.712314
_symmetry_space_group_name_H-M "P M M M"
_symmetry_group_IT_number 47
_symmetry_cell_setting 'orthorhombic'
loop_
_space_group_symop_operation_xyz
x,y,z
-x,-y,z
x,-y,-z
-x,y,-z
-x,-y,-z
x,y,-z
-x,y,z
x,-y,z
loop_
_atom_site_type_symbol
_atom_site_label
_atom_site_fract_x
_atom_site_fract_y
_atom_site_fract_z
Si Si1 0.678709 0.751968 0.580491
Si Si2 0.319930 0.000000 0.581945
Si Si3 0.321485 0.772553 0.921871
Si Si4 0.177514 0.634692 0.920387
Si Si5 0.679170 0.572138 0.790387
Si Si6 0.820759 0.317620 0.296390
Si Si7 0.178719 0.810303 0.213390
Si Si8 0.180463 0.875432 0.353785
O O1 0.706438 0.739388 0.500000
O O2 0.500000 0.757181 0.591397
O O3 0.746559 0.699569 0.630682
O O4 0.756021 0.817088 0.602515
O O5 0.251693 0.938698 0.617856
O O6 0.500000 0.000000 0.588337
O O7 0.283315 0.000000 0.500000
O O8 0.500000 0.764131 0.916012
O O9 0.242353 0.704920 0.914525
O O10 0.262517 0.814830 0.859281
O O11 0.288272 0.795381 0.000000
O O12 0.260303 0.591000 0.865944
O O13 0.000000 0.636249 0.905117
O O14 0.198238 0.614642 0.000000
O O15 0.500000 0.579921 0.788480
O O16 0.715609 0.500000 0.775345
O O17 0.755017 0.620374 0.737630
O O18 0.787046 0.257985 0.246643
O O19 0.000000 0.321213 0.302858
O O20 0.217647 0.859766 0.273547
O O21 0.000000 0.812996 0.201924
O O22 0.000000 0.876927 0.359619
#
# Coordination Sequence:
#
# PCOD9382624 Si02
#       8
#     8   4   8   8   8   8   8   8
#     4  10  20  34  54  80 108 136 167 206 253 302
#     4  11  23  37  53  77 112 149 182 213 251 302
#     4  10  19  29  46  73 102 133 168 209 259 309
#     4  10  20  33  49  69  96 131 169 209 254 305
#     4  11  23  36  51  71  96 129 168 210 258 312
#     4  10  20  34  53  75  99 129 166 209 256 306
#     4   9  18  32  50  74 101 131 170 213 256 302
#     4  10  21  35  53  78 108 143 181 216 250 295
#
# _framework density 16.292338999999998
#
# number of rings (size 3 to 8) (size 9 to 14) (size 15 to 20)
#    0.000    1.933    1.333    3.800    0.000    8.800 
#    0.000    1.333    0.000    0.400    0.000    3.267 
#    0.000    3.733    0.000    0.000    0.000    0.000 
#
# Total GULP energy -334918.464155 kJ/mol
# GULP energy per Si atom -5581.974403 kJ/mol
# Density = 1.625526 g / cm^3
# Si number density = 16.292339 Si / 1000 Ang^3
#
#
#
# Elastic Constant Matrix: (Units=GPa)
#
#
# Indices 1 2 3 4 5 6 
#
# 1 69.3020 48.0989 70.2310 0.0000 0.0000 0.0000
# 2 48.0989 94.8755 69.8124 0.0000 0.0000 0.0000
# 3 70.2310 69.8124 136.0499 0.0000 0.0000 0.0000
# 4 0.0000 0.0000 0.0000 24.3124 0.0000 0.0000
# 5 0.0000 0.0000 0.0000 0.0000 31.2593 0.0000
# 6 0.0000 0.0000 0.0000 0.0000 0.0000 19.6021
#
#
#
# Elastic Compliance Matrix: (Units=1/GPa)
#
#
# Indices 1 2 3 4 5 6 
#
# 1 0.032696 -0.006678 -0.013452 0.000000 0.000000 0.000000
# 2 -0.006678 0.018298 -0.005942 0.000000 0.000000 0.000000
# 3 -0.013452 -0.005942 0.017343 0.000000 0.000000 0.000000
# 4 0.000000 0.000000 0.000000 0.041131 0.000000 0.000000
# 5 0.000000 0.000000 0.000000 0.000000 0.031990 0.000000
# 6 0.000000 0.000000 0.000000 0.000000 0.000000 0.051015
#
#
# Mechanical properties :
#
#
# Convention : Reuss Voigt Hill
#
# Bulk Modulus (GPa) = 61.75018 75.16799 68.45908
# Shear Modulus (GPa) = 19.99872 22.50711 21.25291
#
# Velocity S-wave (km/s) = 3.50736 3.72082 3.61567
# Velocity P-wave (km/s) = 7.37467 8.04342 7.71629
#
# Compressibility (1/GPa) = 0.01619429
#
# Stress axis : x y z
#
# Youngs Moduli (GPa) = 30.58445 54.65049 57.65879
#
# Poissons Ratio (x) = 0.36495 0.77561
# Poissons Ratio (y) = 0.20424 0.34262
# Poissons Ratio (z) = 0.41141 0.32475
#
# Static dielectric constant tensor:
#      x y z
#    x 1.540630 0.000000 0.000000 
#    y 0.000000 1.518390 0.000000 
#    z 0.000000 0.000000 1.559700 
# 
# From -- ./inp_files/27006.got.cif
#   From: 2010.05.17/outbox.cif.g08.bks.cpg/sg47_14_cif.got.tgz:27006.got - 2010.06.03 20:15:42.
