data_PCOD9382204
_publ_section_title
;
Structure prediction by ZEFSAII (Michael W. Deem and Ramdas Pophale) SiO2 
 PCOD9382204
Probable space group: P M M M
;
_chemical_formula_sum "Si O2"
_cell_formula_units_Z 56
_cell_length_a 7.731485
_cell_length_b 20.742025
_cell_length_c 15.937555
_cell_angle_alpha 90.000000
_cell_angle_beta 90.000000
_cell_angle_gamma 90.000000
_cell_volume 2555.852387
_symmetry_space_group_name_H-M "P M M M"
_symmetry_group_IT_number 47
_symmetry_cell_setting 'orthorhombic'
loop_
_space_group_symop_operation_xyz
x,y,z
-x,-y,z
x,-y,-z
-x,y,-z
-x,-y,-z
x,y,-z
-x,y,z
x,-y,z
loop_
_atom_site_type_symbol
_atom_site_label
_atom_site_fract_x
_atom_site_fract_y
_atom_site_fract_z
Si Si1 0.793046 0.069759 0.826868
Si Si2 0.298004 0.069378 0.631137
Si Si3 0.295371 0.427770 0.750024
Si Si4 0.288133 0.207540 0.645482
Si Si5 0.704715 0.208763 0.840777
Si Si6 0.798941 0.343996 0.908698
Si Si7 0.288330 0.651908 0.408510
O O1 0.712666 0.070826 0.733107
O O2 0.740493 0.136041 0.871063
O O3 0.000000 0.071046 0.816943
O O4 0.745575 0.000000 0.864931
O O5 0.500000 0.068284 0.606858
O O6 0.226287 0.139498 0.607160
O O7 0.221457 0.000000 0.605064
O O8 0.500000 0.433694 0.734974
O O9 0.224543 0.500000 0.760826
O O10 0.277091 0.383807 0.831914
O O11 0.223756 0.390245 0.669138
O O12 0.500000 0.204965 0.644183
O O13 0.235427 0.211653 0.743453
O O14 0.234983 0.273594 0.602307
O O15 0.500000 0.219363 0.840656
O O16 0.784082 0.267727 0.891043
O O17 0.000000 0.360925 0.910694
O O18 0.721325 0.358447 0.000000
O O19 0.236820 0.627464 0.500000
O O20 0.500000 0.652391 0.405639
#
# Coordination Sequence:
#
# PCOD9382204 Si02
#       7
#     8   8   8   8   8   8   8
#     4   9  16  25  40  68 106 144 185 232 280 330
#     4   8  13  21  35  58  90 131 181 233 280 324
#     4  10  21  38  60  86 114 144 183 228 274 327
#     4   8  13  23  42  68  98 134 175 221 272 321
#     4  10  18  31  53  77 106 144 187 233 278 328
#     4  11  24  40  59  84 113 145 181 223 277 339
#     4   9  16  28  50  81 114 145 181 227 276 324
#
# _framework density 21.910499000000002
#
# number of rings (size 3 to 8) (size 9 to 14) (size 15 to 20)
#    0.000    2.714    1.429    2.143    0.000    2.857 
#    0.000    2.857    0.000    1.286    0.000    7.000 
#    0.000    0.000    0.000   18.000    0.000   16.857 
#
# Total GULP energy -312319.035978 kJ/mol
# GULP energy per Si atom -5577.125642 kJ/mol
# Density = 2.186063 g / cm^3
# Si number density = 21.910499 Si / 1000 Ang^3
#
#
#
# Elastic Constant Matrix: (Units=GPa)
#
#
# Indices 1 2 3 4 5 6 
#
# 1 37.3174 -3.1905 0.7898 0.0000 0.0000 0.0000
# 2 -3.1905 169.9658 71.4338 0.0000 0.0000 0.0000
# 3 0.7898 71.4338 107.6112 0.0000 0.0000 0.0000
# 4 0.0000 0.0000 0.0000 -16.1151 0.0000 0.0000
# 5 0.0000 0.0000 0.0000 0.0000 11.9937 0.0000
# 6 0.0000 0.0000 0.0000 0.0000 0.0000 5.6944
#
#
#
# Elastic Compliance Matrix: (Units=1/GPa)
#
#
# Indices 1 2 3 4 5 6 
#
# 1 0.026882 0.000815 -0.000738 0.000000 0.000000 0.000000
# 2 0.000815 0.008185 -0.005439 0.000000 0.000000 0.000000
# 3 -0.000738 -0.005439 0.012909 0.000000 0.000000 0.000000
# 4 0.000000 0.000000 0.000000 -0.062054 0.000000 0.000000
# 5 0.000000 0.000000 0.000000 0.000000 0.083377 0.000000
# 6 0.000000 0.000000 0.000000 0.000000 0.000000 0.175610
#
#
# Mechanical properties :
#
#
# Convention : Reuss Voigt Hill
#
# Bulk Modulus (GPa) = 26.84496 50.32897 38.58697
# Shear Modulus (GPa) = 18.65314 16.70536 17.67925
#
# Velocity S-wave (km/s) = 2.92093 2.76422 2.84365
# Velocity P-wave (km/s) = 4.86358 5.76264 5.33209
#
# Compressibility (1/GPa) = 0.03725094
#
# Stress axis : x y z
#
# Youngs Moduli (GPa) = 37.19900 122.17722 77.46688
#
# Poissons Ratio (x) = -0.09956 0.05719
# Poissons Ratio (y) = -0.03031 0.42136
# Poissons Ratio (z) = 0.02746 0.66454
#
# Static dielectric constant tensor:
#      x y z
#    x 1.807810 0.000000 0.000000 
#    y 0.000000 1.832260 0.000000 
#    z 0.000000 0.000000 1.806280 
# 
# From -- ./inp_files/11210.got.cif
#   From: 2010.05.17/outbox.cif.g08.bks.cpg/sg47_6_cif.got.tgz:11210.got - 2010.06.03 20:15:42.
