data_PCOD9382442
_publ_section_title
;
Structure prediction by ZEFSAII (Michael W. Deem and Ramdas Pophale) SiO2 
 PCOD9382442
Probable space group: P M M M
;
_chemical_formula_sum "Si O2"
_cell_formula_units_Z 64
_cell_length_a 7.549104
_cell_length_b 20.667657
_cell_length_c 18.734910
_cell_angle_alpha 90.000000
_cell_angle_beta 90.000000
_cell_angle_gamma 90.000000
_cell_volume 2923.063601
_symmetry_space_group_name_H-M "P M M M"
_symmetry_group_IT_number 47
_symmetry_cell_setting 'orthorhombic'
loop_
_space_group_symop_operation_xyz
x,y,z
-x,-y,z
x,-y,-z
-x,y,-z
-x,-y,-z
x,y,-z
-x,y,z
x,-y,z
loop_
_atom_site_type_symbol
_atom_site_label
_atom_site_fract_x
_atom_site_fract_y
_atom_site_fract_z
Si Si1 0.788622 0.210356 0.277455
Si Si2 0.712910 0.713788 0.576475
Si Si3 0.717440 0.573500 0.380875
Si Si4 0.300069 0.576781 0.222847
Si Si5 0.793357 0.069539 0.761357
Si Si6 0.707706 0.100896 0.921489
Si Si7 0.213479 0.245896 0.878992
Si Si8 0.295538 0.616751 0.075499
O O1 0.756811 0.247068 0.351566
O O2 0.718080 0.136432 0.270809
O O3 0.729042 0.246308 0.204682
O O4 0.000000 0.205783 0.269429
O O5 0.773843 0.741894 0.500000
O O6 0.500000 0.712231 0.575528
O O7 0.771319 0.638461 0.579021
O O8 0.500000 0.571291 0.380850
O O9 0.772189 0.500000 0.401860
O O10 0.779941 0.588116 0.300060
O O11 0.500000 0.605424 0.224593
O O12 0.316946 0.500000 0.218996
O O13 0.208874 0.597312 0.150085
O O14 0.786531 0.074416 0.847761
O O15 0.000000 0.068289 0.740999
O O16 0.714160 0.000000 0.740568
O O17 0.500000 0.084700 0.920136
O O18 0.730775 0.178006 0.912710
O O19 0.777633 0.081602 0.000000
O O20 0.293112 0.306051 0.920139
O O21 0.000000 0.250207 0.882585
O O22 0.500000 0.593163 0.077287
O O23 0.217889 0.595232 0.000000
#
# Coordination Sequence:
#
# PCOD9382442 Si02
#       8
#     8   8   8   8   8   8   8   8
#     4   9  19  35  54  75  98 128 165 204 247 294
#     4  10  20  32  50  79 109 134 161 195 240 296
#     4   8  14  26  45  69  98 132 167 201 238 284
#     4   8  14  25  41  61  86 119 159 200 244 296
#     4   9  19  36  56  77 101 132 173 216 254 296
#     4  10  20  32  47  71 104 137 168 205 249 297
#     4  10  20  33  49  68  91 124 168 211 250 296
#     4  10  19  28  41  64  92 122 159 206 258 305
#
# _framework density 21.894835
#
# number of rings (size 3 to 8) (size 9 to 14) (size 15 to 20)
#    0.000    2.750    0.000    3.375    0.000    7.500 
#    0.000    3.750    0.000    1.125    0.000    7.875 
#    0.000    0.000    0.000    0.000    0.000    0.000 
#
# Total GULP energy -356787.122355 kJ/mol
# GULP energy per Si atom -5574.798787 kJ/mol
# Density = 2.184500 g / cm^3
# Si number density = 21.894835 Si / 1000 Ang^3
#
#
#
# Elastic Constant Matrix: (Units=GPa)
#
#
# Indices 1 2 3 4 5 6 
#
# 1 60.2028 -1.4789 -0.4044 0.0000 0.0000 0.0000
# 2 -1.4789 58.1564 67.6082 0.0000 0.0000 0.0000
# 3 -0.4044 67.6082 136.4671 0.0000 0.0000 0.0000
# 4 0.0000 0.0000 0.0000 -6.2909 0.0000 0.0000
# 5 0.0000 0.0000 0.0000 0.0000 63.8264 0.0000
# 6 0.0000 0.0000 0.0000 0.0000 0.0000 5.4414
#
#
#
# Elastic Compliance Matrix: (Units=1/GPa)
#
#
# Indices 1 2 3 4 5 6 
#
# 1 0.016629 0.000862 -0.000378 0.000000 0.000000 0.000000
# 2 0.000862 0.040593 -0.020108 0.000000 0.000000 0.000000
# 3 -0.000378 -0.020108 0.017288 0.000000 0.000000 0.000000
# 4 0.000000 0.000000 0.000000 -0.158959 0.000000 0.000000
# 5 0.000000 0.000000 0.000000 0.000000 0.015667 0.000000
# 6 0.000000 0.000000 0.000000 0.000000 0.000000 0.183777
#
#
# Mechanical properties :
#
#
# Convention : Reuss Voigt Hill
#
# Bulk Modulus (GPa) = 28.35809 42.91957 35.63883
# Shear Modulus (GPa) = 30.12101 25.20214 27.66157
#
# Velocity S-wave (km/s) = 3.71308 3.39640 3.55827
# Velocity P-wave (km/s) = 5.60024 5.91826 5.76145
#
# Compressibility (1/GPa) = 0.03526330
#
# Stress axis : x y z
#
# Youngs Moduli (GPa) = 60.13527 24.63491 57.84215
#
# Poissons Ratio (x) = -0.02124 0.02185
# Poissons Ratio (y) = -0.05184 1.16308
# Poissons Ratio (z) = 0.02272 0.49535
#
# Static dielectric constant tensor:
#      x y z
#    x 1.824820 0.000000 0.000000 
#    y 0.000000 1.820080 0.000000 
#    z 0.000000 0.000000 1.863180 
# 
# From -- ./inp_files/21958.got.cif
#   From: 2010.05.17/outbox.cif.g08.bks.cpg/sg47_11_cif.got.tgz:21958.got - 2010.06.03 20:15:42.
