data_PCOD9382052
_publ_section_title
;
Structure prediction by ZEFSAII (Michael W. Deem and Ramdas Pophale) SiO2 
 PCOD9382052
Probable space group: P M M M
;
_chemical_formula_sum "Si O2"
_cell_formula_units_Z 64
_cell_length_a 23.021602
_cell_length_b 17.341073
_cell_length_c 7.848161
_cell_angle_alpha 90.000000
_cell_angle_beta 90.000000
_cell_angle_gamma 90.000000
_cell_volume 3133.137190
_symmetry_space_group_name_H-M "P M M M"
_symmetry_group_IT_number 47
_symmetry_cell_setting 'orthorhombic'
loop_
_space_group_symop_operation_xyz
x,y,z
-x,-y,z
x,-y,-z
-x,y,-z
-x,-y,-z
x,y,-z
-x,y,z
x,-y,z
loop_
_atom_site_type_symbol
_atom_site_label
_atom_site_fract_x
_atom_site_fract_y
_atom_site_fract_z
Si Si1 0.930674 0.085504 0.294831
Si Si2 0.433971 0.158702 0.292731
Si Si3 0.562402 0.408510 0.800520
Si Si4 0.316419 0.083593 0.705975
Si Si5 0.759637 0.770596 0.190276
Si Si6 0.351700 0.703253 0.693342
Si Si7 0.115911 0.249739 0.305298
Si Si8 0.930978 0.585997 0.293905
O O1 0.920121 0.084531 0.500000
O O2 0.904804 0.166947 0.229522
O O3 0.000000 0.088278 0.268378
O O4 0.910399 0.000000 0.231765
O O5 0.437512 0.157627 0.500000
O O6 0.500000 0.149724 0.229433
O O7 0.383777 0.098110 0.243571
O O8 0.402161 0.238478 0.242794
O O9 0.500000 0.378695 0.734787
O O10 0.560711 0.500000 0.792366
O O11 0.617164 0.377555 0.701787
O O12 0.567357 0.387265 0.000000
O O13 0.315129 0.085425 0.500000
O O14 0.274411 0.150469 0.769389
O O15 0.297202 0.000000 0.765305
O O16 0.707805 0.709123 0.206953
O O17 0.814441 0.754171 0.306352
O O18 0.782728 0.772553 0.000000
O O19 0.338106 0.726937 0.500000
O O20 0.092860 0.249909 0.500000
O O21 0.096708 0.333047 0.230520
O O22 0.922700 0.584926 0.500000
O O23 0.911102 0.500000 0.232851
O O24 0.000000 0.590267 0.261451
#
# Coordination Sequence:
#
# PCOD9382052 Si02
#       8
#     8   8   8   8   8   8   8   8
#     4   8  14  25  44  74 107 133 161 201 249 300
#     4   8  14  25  44  72  99 119 145 189 247 302
#     4   9  18  32  50  75 107 137 161 191 243 312
#     4   9  18  33  52  73  98 128 163 205 250 298
#     4  11  23  37  51  68  95 133 174 213 256 307
#     4  10  19  33  52  72  95 126 169 217 257 295
#     4  10  18  30  51  76 101 132 170 212 254 298
#     4   8  14  26  48  80 111 133 158 199 251 303
#
# _framework density 20.426811000000001
#
# number of rings (size 3 to 8) (size 9 to 14) (size 15 to 20)
#    0.000    2.875    0.000    4.125    0.000    3.500 
#    0.000    3.750    0.000    7.500    0.000    5.250 
#    0.000    0.000    0.000    0.000    0.000    0.000 
#
# Total GULP energy -356331.082946 kJ/mol
# GULP energy per Si atom -5567.673171 kJ/mol
# Density = 2.038032 g / cm^3
# Si number density = 20.426811 Si / 1000 Ang^3
#
#
#
# Elastic Constant Matrix: (Units=GPa)
#
#
# Indices 1 2 3 4 5 6 
#
# 1 74.2356 56.2879 0.1180 0.0000 0.0000 0.0000
# 2 56.2879 136.9992 10.2303 0.0000 0.0000 0.0000
# 3 0.1180 10.2303 27.5233 0.0000 0.0000 0.0000
# 4 0.0000 0.0000 0.0000 1.7698 0.0000 0.0000
# 5 0.0000 0.0000 0.0000 0.0000 -21.9619 0.0000
# 6 0.0000 0.0000 0.0000 0.0000 0.0000 14.3934
#
#
#
# Elastic Compliance Matrix: (Units=1/GPa)
#
#
# Indices 1 2 3 4 5 6 
#
# 1 0.019808 -0.008364 0.003024 0.000000 0.000000 0.000000
# 2 -0.008364 0.011040 -0.004067 0.000000 0.000000 0.000000
# 3 0.003024 -0.004067 0.037832 0.000000 0.000000 0.000000
# 4 0.000000 0.000000 0.000000 0.565029 0.000000 0.000000
# 5 0.000000 0.000000 0.000000 0.000000 -0.045533 0.000000
# 6 0.000000 0.000000 0.000000 0.000000 0.000000 0.069476
#
#
# Mechanical properties :
#
#
# Convention : Reuss Voigt Hill
#
# Bulk Modulus (GPa) = 20.05463 41.33671 30.69567
# Shear Modulus (GPa) = 7.21409 10.31505 8.76457
#
# Velocity S-wave (km/s) = 1.88131 2.24960 2.07365
# Velocity P-wave (km/s) = 3.81553 5.19885 4.55995
#
# Compressibility (1/GPa) = 0.04986378
#
# Stress axis : x y z
#
# Youngs Moduli (GPa) = 50.48533 90.58354 26.43284
#
# Poissons Ratio (x) = 0.75765 -0.07993
# Poissons Ratio (y) = 0.42226 0.10751
# Poissons Ratio (z) = -0.15266 0.36845
#
# Static dielectric constant tensor:
#      x y z
#    x 1.691490 0.000000 0.000000 
#    y 0.000000 1.798470 0.000000 
#    z 0.000000 0.000000 1.793590 
# 
# From -- ./inp_files/12914.got.cif
#   From: 2010.05.17/outbox.cif.g08.bks.cpg/sg47_7_cif.got.tgz:12914.got - 2010.06.03 20:15:42.
