data_PCOD9382008
_publ_section_title
;
Structure prediction by ZEFSAII (Michael W. Deem and Ramdas Pophale) SiO2 
 PCOD9382008
Probable space group: P M M M
;
_chemical_formula_sum "Si O2"
_cell_formula_units_Z 64
_cell_length_a 8.816643
_cell_length_b 32.100238
_cell_length_c 14.767928
_cell_angle_alpha 90.000000
_cell_angle_beta 90.000000
_cell_angle_gamma 90.000000
_cell_volume 4179.564912
_symmetry_space_group_name_H-M "P M M M"
_symmetry_group_IT_number 47
_symmetry_cell_setting 'orthorhombic'
loop_
_space_group_symop_operation_xyz
x,y,z
-x,-y,z
x,-y,-z
-x,y,-z
-x,-y,-z
x,y,-z
-x,y,z
x,-y,z
loop_
_atom_site_type_symbol
_atom_site_label
_atom_site_fract_x
_atom_site_fract_y
_atom_site_fract_z
Si Si1 0.818128 0.213624 0.214649
Si Si2 0.682612 0.757691 0.397057
Si Si3 0.320442 0.045471 0.890721
Si Si4 0.682920 0.708464 0.894174
Si Si5 0.683179 0.375817 0.211280
Si Si6 0.817225 0.547474 0.895163
Si Si7 0.315631 0.660148 0.600486
Si Si8 0.817486 0.867880 0.894999
O O1 0.758842 0.216833 0.317012
O O2 0.754936 0.253263 0.159789
O O3 0.767461 0.171324 0.164601
O O4 0.000000 0.214951 0.213564
O O5 0.723137 0.769830 0.500000
O O6 0.500000 0.760157 0.388761
O O7 0.724384 0.708773 0.385743
O O8 0.500000 0.048041 0.872730
O O9 0.240742 0.087616 0.859483
O O10 0.265270 0.000000 0.857653
O O11 0.301673 0.045036 0.000000
O O12 0.500000 0.711822 0.887294
O O13 0.726523 0.664516 0.848735
O O14 0.724691 0.709450 0.000000
O O15 0.500000 0.378041 0.210660
O O16 0.748386 0.417586 0.168671
O O17 0.735063 0.366705 0.314030
O O18 0.771820 0.500000 0.872136
O O19 0.000000 0.549323 0.891309
O O20 0.772680 0.555227 0.000000
O O21 0.263853 0.647283 0.500000
O O22 0.500000 0.659010 0.599935
O O23 0.000000 0.868652 0.895498
O O24 0.767127 0.862554 0.000000
#
# Coordination Sequence:
#
# PCOD9382008 Si02
#       8
#     8   8   8   8   8   8   8   8
#     4  11  21  31  44  64  94 126 156 192 228 268
#     4   9  17  32  52  68  86 117 155 192 231 274
#     4   8  14  25  41  61  83 108 145 194 239 272
#     4  10  20  32  45  64  92 124 157 191 225 266
#     4  10  18  30  50  73  93 113 148 192 226 261
#     4   9  19  35  51  67  91 122 151 180 221 273
#     4   8  14  27  48  70  91 115 143 180 225 268
#     4   9  18  30  41  57  86 125 162 189 220 266
#
# _framework density 15.312599000000001
#
# number of rings (size 3 to 8) (size 9 to 14) (size 15 to 20)
#    0.000    2.750    1.250    2.625    0.000    3.750 
#    0.000    3.125    0.000    0.750    0.000    2.625 
#    0.000    0.500    0.000    5.500    0.000    4.250 
#
# Total GULP energy -356581.371719 kJ/mol
# GULP energy per Si atom -5571.583933 kJ/mol
# Density = 1.527775 g / cm^3
# Si number density = 15.312599 Si / 1000 Ang^3
#
#
#
# Elastic Constant Matrix: (Units=GPa)
#
#
# Indices 1 2 3 4 5 6 
#
# 1 8.9907 27.9206 26.7319 0.0000 0.0000 0.0000
# 2 27.9206 134.1226 79.1979 0.0000 0.0000 0.0000
# 3 26.7319 79.1979 116.6483 0.0000 0.0000 0.0000
# 4 0.0000 0.0000 0.0000 8.0181 0.0000 0.0000
# 5 0.0000 0.0000 0.0000 0.0000 18.1737 0.0000
# 6 0.0000 0.0000 0.0000 0.0000 0.0000 27.9240
#
#
#
# Elastic Compliance Matrix: (Units=1/GPa)
#
#
# Indices 1 2 3 4 5 6 
#
# 1 0.596516 -0.072539 -0.087452 0.000000 0.000000 0.000000
# 2 -0.072539 0.021266 0.002185 0.000000 0.000000 0.000000
# 3 -0.087452 0.002185 0.027130 0.000000 0.000000 0.000000
# 4 0.000000 0.000000 0.000000 0.124717 0.000000 0.000000
# 5 0.000000 0.000000 0.000000 0.000000 0.055024 0.000000
# 6 0.000000 0.000000 0.000000 0.000000 0.000000 0.035811
#
#
# Mechanical properties :
#
#
# Convention : Reuss Voigt Hill
#
# Bulk Modulus (GPa) = 3.03673 58.60691 30.82182
# Shear Modulus (GPa) = 3.88849 19.21726 11.55288
#
# Velocity S-wave (km/s) = 1.59528 3.54644 2.74974
# Velocity P-wave (km/s) = 2.31963 7.42471 5.50032
#
# Compressibility (1/GPa) = 0.32930149
#
# Stress axis : x y z
#
# Youngs Moduli (GPa) = 1.67640 47.02267 36.85900
#
# Poissons Ratio (x) = 3.41097 3.22338
# Poissons Ratio (y) = 0.12160 -0.08053
# Poissons Ratio (z) = 0.14660 -0.10273
#
# Static dielectric constant tensor:
#      x y z
#    x 1.516970 0.000000 0.000000 
#    y 0.000000 1.502440 0.000000 
#    z 0.000000 0.000000 1.509860 
# 
# From -- ./inp_files/8329.got.cif
#   From: 2010.05.17/outbox.cif.g08.bks.cpg/sg47_5_cif.got.tgz:8329.got - 2010.06.03 20:15:42.
