data_PCOD9382012
_publ_section_title
;
Structure prediction by ZEFSAII (Michael W. Deem and Ramdas Pophale) SiO2 
 PCOD9382012
Probable space group: P M M M
;
_chemical_formula_sum "Si O2"
_cell_formula_units_Z 56
_cell_length_a 13.976332
_cell_length_b 16.074397
_cell_length_c 14.445582
_cell_angle_alpha 90.000000
_cell_angle_beta 90.000000
_cell_angle_gamma 90.000000
_cell_volume 3245.360475
_symmetry_space_group_name_H-M "P M M M"
_symmetry_group_IT_number 47
_symmetry_cell_setting 'orthorhombic'
loop_
_space_group_symop_operation_xyz
x,y,z
-x,-y,z
x,-y,-z
-x,y,-z
-x,-y,-z
x,y,-z
-x,y,z
x,-y,z
loop_
_atom_site_type_symbol
_atom_site_label
_atom_site_fract_x
_atom_site_fract_y
_atom_site_fract_z
Si Si1 0.107688 0.399374 0.894582
Si Si2 0.106408 0.903570 0.611979
Si Si3 0.385215 0.253235 0.894811
Si Si4 0.310085 0.840737 0.607266
Si Si5 0.613697 0.347989 0.606719
Si Si6 0.614055 0.090002 0.211404
Si Si7 0.295057 0.595717 0.788843
O O1 0.103415 0.500000 0.896510
O O2 0.187364 0.379364 0.818532
O O3 0.000000 0.369191 0.874990
O O4 0.134443 0.373527 0.000000
O O5 0.102200 0.903672 0.500000
O O6 0.197996 0.847573 0.635038
O O7 0.000000 0.878618 0.645055
O O8 0.123729 0.000000 0.640051
O O9 0.500000 0.247443 0.896468
O O10 0.348097 0.171177 0.841878
O O11 0.359065 0.337351 0.842113
O O12 0.350170 0.255251 0.000000
O O13 0.318803 0.867674 0.500000
O O14 0.353030 0.748169 0.613502
O O15 0.365260 0.896924 0.680424
O O16 0.627301 0.374580 0.500000
O O17 0.500000 0.354093 0.627772
O O18 0.676392 0.396528 0.681604
O O19 0.500000 0.089005 0.197631
O O20 0.652168 0.000000 0.180689
O O21 0.310376 0.500000 0.818568
#
# Coordination Sequence:
#
# PCOD9382012 Si02
#       7
#     8   8   8   8   8   8   8
#     4   8  15  30  53  81 110 136 165 208 265 326
#     4   8  14  25  42  67  99 131 163 204 258 316
#     4  10  21  36  52  73 104 136 168 214 267 316
#     4  10  18  30  50  73  99 133 173 218 265 311
#     4  10  21  36  52  71 103 148 188 223 266 317
#     4  10  20  33  50  72  99 135 177 214 253 308
#     4  11  21  34  56  82 106 135 174 220 268 319
#
# _framework density 17.255402
#
# number of rings (size 3 to 8) (size 9 to 14) (size 15 to 20)
#    0.000    2.429    1.429    2.571    0.000    4.286 
#    0.000    4.286    0.000    1.286    0.000    2.000 
#    0.000    0.000    0.000    6.000    0.000    0.571 
#
# Total GULP energy -311813.857367 kJ/mol
# GULP energy per Si atom -5568.104596 kJ/mol
# Density = 1.721613 g / cm^3
# Si number density = 17.255402 Si / 1000 Ang^3
#
#
#
# Elastic Constant Matrix: (Units=GPa)
#
#
# Indices 1 2 3 4 5 6 
#
# 1 73.2363 15.6283 38.5511 0.0000 0.0000 0.0000
# 2 15.6283 77.9310 37.5977 0.0000 0.0000 0.0000
# 3 38.5511 37.5977 85.4731 0.0000 0.0000 0.0000
# 4 0.0000 0.0000 0.0000 4.0786 0.0000 0.0000
# 5 0.0000 0.0000 0.0000 0.0000 20.6970 0.0000
# 6 0.0000 0.0000 0.0000 0.0000 0.0000 11.8049
#
#
#
# Elastic Compliance Matrix: (Units=1/GPa)
#
#
# Indices 1 2 3 4 5 6 
#
# 1 0.017915 0.000388 -0.008251 0.000000 0.000000 0.000000
# 2 0.000388 0.016297 -0.007344 0.000000 0.000000 0.000000
# 3 -0.008251 -0.007344 0.018651 0.000000 0.000000 0.000000
# 4 0.000000 0.000000 0.000000 0.245182 0.000000 0.000000
# 5 0.000000 0.000000 0.000000 0.000000 0.048316 0.000000
# 6 0.000000 0.000000 0.000000 0.000000 0.000000 0.084711
#
#
# Mechanical properties :
#
#
# Convention : Reuss Voigt Hill
#
# Bulk Modulus (GPa) = 44.54333 46.68829 45.61581
# Shear Modulus (GPa) = 10.66171 16.97366 13.81769
#
# Velocity S-wave (km/s) = 2.48841 3.13976 2.83287
# Velocity P-wave (km/s) = 5.84178 6.34508 6.09863
#
# Compressibility (1/GPa) = 0.02245005
#
# Stress axis : x y z
#
# Youngs Moduli (GPa) = 55.81982 61.36099 53.61566
#
# Poissons Ratio (x) = -0.02380 0.44237
# Poissons Ratio (y) = -0.02165 0.39374
# Poissons Ratio (z) = 0.46056 0.45061
#
# Static dielectric constant tensor:
#      x y z
#    x 1.607920 0.000000 0.000000 
#    y 0.000000 1.600830 0.000000 
#    z 0.000000 0.000000 1.601520 
# 
# From -- ./inp_files/23820.got.cif
#   From: 2010.05.17/outbox.cif.g08.bks.cpg/sg47_12_cif.got.tgz:23820.got - 2010.06.03 20:15:42.
