data_PCOD9382392
_publ_section_title
;
Structure prediction by ZEFSAII (Michael W. Deem and Ramdas Pophale) SiO2 
 PCOD9382392
Probable space group: P M M M
;
_chemical_formula_sum "Si O2"
_cell_formula_units_Z 32
_cell_length_a 11.489796
_cell_length_b 8.271667
_cell_length_c 14.995273
_cell_angle_alpha 90.000000
_cell_angle_beta 90.000000
_cell_angle_gamma 90.000000
_cell_volume 1425.147243
_symmetry_space_group_name_H-M "P M M M"
_symmetry_group_IT_number 47
_symmetry_cell_setting 'orthorhombic'
loop_
_space_group_symop_operation_xyz
x,y,z
-x,-y,z
x,-y,-z
-x,y,-z
-x,-y,-z
x,y,-z
-x,y,z
x,-y,z
loop_
_atom_site_type_symbol
_atom_site_label
_atom_site_fract_x
_atom_site_fract_y
_atom_site_fract_z
Si Si1 0.740726 0.324773 0.897598
Si Si2 0.000000 0.815613 0.663849
Si Si3 0.751558 0.809271 0.392591
Si Si4 0.500000 0.804944 0.392489
Si Si5 0.637106 0.000000 0.892405
Si Si6 0.000000 0.681479 0.847024
O O1 0.713352 0.500000 0.856674
O O2 0.880070 0.306955 0.899501
O O3 0.689561 0.164662 0.854051
O O4 0.697969 0.329870 0.000000
O O5 0.875946 0.738921 0.637166
O O6 0.000000 0.812326 0.770064
O O7 0.000000 0.000000 0.627309
O O8 0.750736 0.802669 0.500000
O O9 0.626173 0.741922 0.360735
O O10 0.753053 0.000000 0.366938
O O11 0.500000 0.783287 0.500000
O O12 0.500000 0.000000 0.377653
O O13 0.500000 0.000000 0.881151
O O14 0.662750 0.000000 0.000000
O O15 0.000000 0.500000 0.806338
#
# Coordination Sequence:
#
# PCOD9382392 Si02
#       6
#     8   4   8   4   4   4
#     4   9  18  33  54  77 101 134 174 215 259 306
#     4  10  19  27  43  69  96 125 156 200 256 304
#     4   8  13  23  40  64  92 121 156 197 242 295
#     4   7  10  18  36  60  87 117 148 189 238 286
#     4   9  18  31  51  81 109 132 165 212 261 308
#     4  10  21  35  50  68  97 131 167 210 257 308
#
# _framework density 22.45382
#
# number of rings (size 3 to 8) (size 9 to 14) (size 15 to 20)
#    0.000    3.250    0.000    2.250    1.750    3.500 
#    0.000    4.375    2.750    1.500    0.000    0.000 
#    0.000    3.000    0.000    0.000    0.000    0.000 
#
# Total GULP energy -178171.186725 kJ/mol
# GULP energy per Si atom -5567.849585 kJ/mol
# Density = 2.240271 g / cm^3
# Si number density = 22.453820 Si / 1000 Ang^3
#
#
#
# Elastic Constant Matrix: (Units=GPa)
#
#
# Indices 1 2 3 4 5 6 
#
# 1 147.7705 45.5574 19.4465 0.0000 0.0000 0.0000
# 2 45.5574 115.3624 5.9316 0.0000 0.0000 0.0000
# 3 19.4465 5.9316 28.8143 0.0000 0.0000 0.0000
# 4 0.0000 0.0000 0.0000 -5.8469 0.0000 0.0000
# 5 0.0000 0.0000 0.0000 0.0000 -16.4520 0.0000
# 6 0.0000 0.0000 0.0000 0.0000 0.0000 30.5495
#
#
#
# Elastic Compliance Matrix: (Units=1/GPa)
#
#
# Indices 1 2 3 4 5 6 
#
# 1 0.008367 -0.003046 -0.005020 0.000000 0.000000 0.000000
# 2 -0.003046 0.009870 0.000024 0.000000 0.000000 0.000000
# 3 -0.005020 0.000024 0.038088 0.000000 0.000000 0.000000
# 4 0.000000 0.000000 0.000000 -0.171031 0.000000 0.000000
# 5 0.000000 0.000000 0.000000 0.000000 -0.060783 0.000000
# 6 0.000000 0.000000 0.000000 0.000000 0.000000 0.032734
#
#
# Mechanical properties :
#
#
# Convention : Reuss Voigt Hill
#
# Bulk Modulus (GPa) = 24.85018 48.20201 36.52609
# Shear Modulus (GPa) = -44.14702 16.38423 -13.88139
#
# Velocity S-wave (km/s) = -4.43891 2.70420 -2.48910
# Velocity P-wave (km/s) = 3.89624 5.59143 2.83579
#
# Compressibility (1/GPa) = 0.04024116
#
# Stress axis : x y z
#
# Youngs Moduli (GPa) = 119.51802 101.31698 26.25510
#
# Poissons Ratio (x) = 0.30862 0.13179
# Poissons Ratio (y) = 0.36406 -0.00063
# Poissons Ratio (z) = 0.59995 -0.00243
#
# Static dielectric constant tensor:
#      x y z
#    x 1.869380 0.000000 0.000000 
#    y 0.000000 1.848930 0.000000 
#    z 0.000000 0.000000 1.816010 
# 
# From -- ./inp_files/22366.got.cif
#   From: 2010.05.17/outbox.cif.g08.bks.cpg/sg47_12_cif.got.tgz:22366.got - 2010.06.03 20:15:42.
