data_PCOD9382942
_publ_section_title
;
Structure prediction by ZEFSAII (Michael W. Deem and Ramdas Pophale) SiO2 
 PCOD9382942
Probable space group: P M M M
;
_chemical_formula_sum "Si O2"
_cell_formula_units_Z 40
_cell_length_a 17.421941
_cell_length_b 19.091373
_cell_length_c 8.627002
_cell_angle_alpha 90.000000
_cell_angle_beta 90.000000
_cell_angle_gamma 90.000000
_cell_volume 2869.416559
_symmetry_space_group_name_H-M "P M M M"
_symmetry_group_IT_number 47
_symmetry_cell_setting 'orthorhombic'
loop_
_space_group_symop_operation_xyz
x,y,z
-x,-y,z
x,-y,-z
-x,y,-z
-x,-y,-z
x,y,-z
-x,y,z
x,-y,z
loop_
_atom_site_type_symbol
_atom_site_label
_atom_site_fract_x
_atom_site_fract_y
_atom_site_fract_z
Si Si1 0.837058 0.417782 0.685172
Si Si2 0.407053 0.924627 0.816219
Si Si3 0.589672 0.500000 0.685868
Si Si4 0.319912 0.634070 0.814047
Si Si5 0.589229 0.228297 0.810524
Si Si6 0.000000 0.584948 0.179611
O O1 0.832947 0.415194 0.500000
O O2 0.828204 0.500000 0.732032
O O3 0.766966 0.375387 0.757357
O O4 0.920773 0.392953 0.740403
O O5 0.500000 0.923703 0.805947
O O6 0.382863 0.848473 0.754934
O O7 0.380991 0.000000 0.750097
O O8 0.388770 0.925631 0.000000
O O9 0.500000 0.500000 0.729585
O O10 0.595715 0.500000 0.500000
O O11 0.631519 0.431245 0.749991
O O12 0.358976 0.706617 0.761619
O O13 0.321848 0.631831 0.000000
O O14 0.500000 0.238641 0.764820
O O15 0.589598 0.226375 0.000000
O O16 0.000000 0.500000 0.188412
O O17 0.000000 0.605131 0.000000
#
# Coordination Sequence:
#
# PCOD9382942 Si02
#       6
#     8   8   4   8   8   4
#     4  10  19  31  45  60  81 105 131 163 202 244
#     4   7   9  15  29  48  71  99 127 156 196 245
#     4  11  23  35  43  52  71 102 141 181 215 245
#     4  11  20  29  43  59  78 104 137 174 208 239
#     4   8  14  23  34  52  77 103 134 171 207 240
#     4   9  17  29  47  67  83  97 124 161 199 244
#
# _framework density 13.940115
#
# number of rings (size 3 to 8) (size 9 to 14) (size 15 to 20)
#    0.000    2.800    1.000    4.200    0.000    3.600 
#    0.000    0.000    0.000    0.000    0.000    0.000 
#    0.000    3.200    0.000   23.500    0.000   39.600 
#
# Total GULP energy -222689.900447 kJ/mol
# GULP energy per Si atom -5567.247511 kJ/mol
# Density = 1.390839 g / cm^3
# Si number density = 13.940115 Si / 1000 Ang^3
#
#
#
# Elastic Constant Matrix: (Units=GPa)
#
#
# Indices 1 2 3 4 5 6 
#
# 1 96.9489 59.5194 23.5246 0.0000 0.0000 0.0000
# 2 59.5194 129.4635 18.7384 0.0000 0.0000 0.0000
# 3 23.5246 18.7384 19.7842 0.0000 0.0000 0.0000
# 4 0.0000 0.0000 0.0000 -0.6224 0.0000 0.0000
# 5 0.0000 0.0000 0.0000 0.0000 19.1615 0.0000
# 6 0.0000 0.0000 0.0000 0.0000 0.0000 1.7576
#
#
#
# Elastic Compliance Matrix: (Units=1/GPa)
#
#
# Indices 1 2 3 4 5 6 
#
# 1 0.017679 -0.005893 -0.015440 0.000000 0.000000 0.000000
# 2 -0.005893 0.010916 -0.003331 0.000000 0.000000 0.000000
# 3 -0.015440 -0.003331 0.072060 0.000000 0.000000 0.000000
# 4 0.000000 0.000000 0.000000 -1.606716 0.000000 0.000000
# 5 0.000000 0.000000 0.000000 0.000000 0.052188 0.000000
# 6 0.000000 0.000000 0.000000 0.000000 0.000000 0.568964
#
#
# Mechanical properties :
#
#
# Convention : Reuss Voigt Hill
#
# Bulk Modulus (GPa) = 19.48341 49.97347 34.72844
# Shear Modulus (GPa) = -6.10894 13.68695 3.78900
#
# Velocity S-wave (km/s) = -2.09566 3.13683 1.65044
# Velocity P-wave (km/s) = 2.85502 7.00329 5.34777
#
# Compressibility (1/GPa) = 0.05132571
#
# Stress axis : x y z
#
# Youngs Moduli (GPa) = 56.56399 91.61180 13.87731
#
# Poissons Ratio (x) = 0.53987 0.21427
# Poissons Ratio (y) = 0.33333 0.04623
# Poissons Ratio (z) = 0.87335 0.30520
#
# Static dielectric constant tensor:
#      x y z
#    x 1.439610 0.000000 0.000000 
#    y 0.000000 1.484210 0.000000 
#    z 0.000000 0.000000 1.467400 
# 
# From -- ./inp_files/9327.got.cif
#   From: 2010.05.17/outbox.cif.g08.bks.cpg/sg47_5_cif.got.tgz:9327.got - 2010.06.03 20:15:42.
