data_PCOD9382353
_publ_section_title
;
Structure prediction by ZEFSAII (Michael W. Deem and Ramdas Pophale) SiO2 
 PCOD9382353
Probable space group: P M M M
;
_chemical_formula_sum "Si O2"
_cell_formula_units_Z 48
_cell_length_a 18.190629
_cell_length_b 7.823032
_cell_length_c 16.078711
_cell_angle_alpha 90.000000
_cell_angle_beta 90.000000
_cell_angle_gamma 90.000000
_cell_volume 2288.095002
_symmetry_space_group_name_H-M "P M M M"
_symmetry_group_IT_number 47
_symmetry_cell_setting 'orthorhombic'
loop_
_space_group_symop_operation_xyz
x,y,z
-x,-y,z
x,-y,-z
-x,y,-z
-x,-y,-z
x,y,-z
-x,y,z
x,-y,z
loop_
_atom_site_type_symbol
_atom_site_label
_atom_site_fract_x
_atom_site_fract_y
_atom_site_fract_z
Si Si1 0.353386 0.208595 0.907276
Si Si2 0.811017 0.792912 0.852487
Si Si3 0.916488 0.209042 0.000000
Si Si4 0.158006 0.696445 0.336325
Si Si5 0.582498 0.790923 0.733564
Si Si6 0.000000 0.203896 0.594537
Si Si7 0.691937 0.800217 0.591464
O O1 0.269081 0.255775 0.886784
O O2 0.400076 0.265732 0.827729
O O3 0.356397 0.000000 0.908959
O O4 0.374250 0.267337 0.000000
O O5 0.827256 0.725965 0.761002
O O6 0.811628 0.000000 0.847676
O O7 0.872231 0.737512 0.918324
O O8 0.000000 0.267580 0.000000
O O9 0.916473 0.000000 0.000000
O O10 0.168831 0.500000 0.357290
O O11 0.222048 0.792594 0.385970
O O12 0.075076 0.744400 0.359986
O O13 0.500000 0.742799 0.709048
O O14 0.643236 0.729092 0.667453
O O15 0.586117 0.000000 0.735638
O O16 0.000000 0.272390 0.500000
O O17 0.000000 0.000000 0.590627
O O18 0.678934 0.724009 0.500000
O O19 0.671812 0.000000 0.586861
#
# Coordination Sequence:
#
# PCOD9382353 Si02
#       7
#     8   8   4   8   8   4   8
#     4   9  15  26  48  77 109 146 187 233 286 339
#     4  10  18  33  56  80 110 150 195 237 279 336
#     4   9  18  30  51  85 112 140 190 243 286 329
#     4  12  25  39  58  86 120 152 186 232 288 341
#     4   9  17  29  48  80 119 150 182 235 295 345
#     4  11  25  45  67  88 111 144 187 233 282 339
#     4  10  20  36  59  83 109 148 196 239 284 344
#
# _framework density 20.978149999999999
#
# number of rings (size 3 to 8) (size 9 to 14) (size 15 to 20)
#    0.000    2.000    2.500    2.250    1.167    3.667 
#    0.000    3.750    0.000    1.000    0.000    1.167 
#    0.000    1.333    0.000    0.000    0.000    0.000 
#
# Total GULP energy -268058.233919 kJ/mol
# GULP energy per Si atom -5584.546540 kJ/mol
# Density = 2.093040 g / cm^3
# Si number density = 20.978150 Si / 1000 Ang^3
#
#
#
# Elastic Constant Matrix: (Units=GPa)
#
#
# Indices 1 2 3 4 5 6 
#
# 1 107.1726 -4.6237 51.6432 0.0000 0.0000 0.0000
# 2 -4.6237 27.4562 1.7895 0.0000 0.0000 0.0000
# 3 51.6432 1.7895 162.7017 0.0000 0.0000 0.0000
# 4 0.0000 0.0000 0.0000 -25.7463 0.0000 0.0000
# 5 0.0000 0.0000 0.0000 0.0000 20.2921 0.0000
# 6 0.0000 0.0000 0.0000 0.0000 0.0000 -17.1492
#
#
#
# Elastic Compliance Matrix: (Units=1/GPa)
#
#
# Indices 1 2 3 4 5 6 
#
# 1 0.011136 0.002107 -0.003558 0.000000 0.000000 0.000000
# 2 0.002107 0.036846 -0.001074 0.000000 0.000000 0.000000
# 3 -0.003558 -0.001074 0.007287 0.000000 0.000000 0.000000
# 4 0.000000 0.000000 0.000000 -0.038841 0.000000 0.000000
# 5 0.000000 0.000000 0.000000 0.000000 0.049280 0.000000
# 6 0.000000 0.000000 0.000000 0.000000 0.000000 -0.058312
#
#
# Mechanical properties :
#
#
# Convention : Reuss Voigt Hill
#
# Bulk Modulus (GPa) = 19.91224 43.88317 31.89771
# Shear Modulus (GPa) = 171.30629 12.04743 91.67686
#
# Velocity S-wave (km/s) = 9.04636 2.39902 6.61785
# Velocity P-wave (km/s) = 10.89165 5.35142 8.58096
#
# Compressibility (1/GPa) = 0.05022036
#
# Stress axis : x y z
#
# Youngs Moduli (GPa) = 89.79811 27.13965 137.22425
#
# Poissons Ratio (x) = -0.05719 0.48823
# Poissons Ratio (y) = -0.18923 0.14739
# Poissons Ratio (z) = 0.31949 0.02915
#
# Static dielectric constant tensor:
#      x y z
#    x 1.824290 0.000000 0.000000 
#    y 0.000000 1.760280 0.000000 
#    z 0.000000 0.000000 1.746300 
# 
# From -- ./inp_files/9183.got.cif
#   From: 2010.05.17/outbox.cif.g08.bks.cpg/sg47_5_cif.got.tgz:9183.got - 2010.06.03 20:15:42.
