data_PCOD9382201
_publ_section_title
;
Structure prediction by ZEFSAII (Michael W. Deem and Ramdas Pophale) SiO2 
 PCOD9382201
Probable space group: P M M M
;
_chemical_formula_sum "Si O2"
_cell_formula_units_Z 52
_cell_length_a 23.162788
_cell_length_b 7.670743
_cell_length_c 14.024947
_cell_angle_alpha 90.000000
_cell_angle_beta 90.000000
_cell_angle_gamma 90.000000
_cell_volume 2491.893593
_symmetry_space_group_name_H-M "P M M M"
_symmetry_group_IT_number 47
_symmetry_cell_setting 'orthorhombic'
loop_
_space_group_symop_operation_xyz
x,y,z
-x,-y,z
x,-y,-z
-x,y,-z
-x,-y,-z
x,y,-z
-x,y,z
x,-y,z
loop_
_atom_site_type_symbol
_atom_site_label
_atom_site_fract_x
_atom_site_fract_y
_atom_site_fract_z
Si Si1 0.754972 0.704024 0.607447
Si Si2 0.125291 0.206538 0.692203
Si Si3 0.112782 0.203473 0.896525
Si Si4 0.246169 0.295755 0.107816
Si Si5 0.567369 0.787134 0.892624
Si Si6 0.933123 0.213016 0.500000
Si Si7 0.340641 0.803398 0.254452
O O1 0.758578 0.778609 0.500000
O O2 0.766609 0.500000 0.601713
O O3 0.805932 0.775830 0.674938
O O4 0.691883 0.725795 0.654109
O O5 0.100110 0.280003 0.791719
O O6 0.096791 0.277672 0.596235
O O7 0.113330 0.000000 0.696513
O O8 0.182495 0.215576 0.894775
O O9 0.095462 0.000000 0.897560
O O10 0.094435 0.279213 0.000000
O O11 0.241470 0.500000 0.136666
O O12 0.289939 0.199977 0.175904
O O13 0.268501 0.289879 0.000000
O O14 0.500000 0.743507 0.880600
O O15 0.606370 0.721662 0.804913
O O16 0.571888 0.000000 0.892376
O O17 0.584940 0.730370 0.000000
O O18 0.000000 0.256287 0.500000
O O19 0.927832 0.000000 0.500000
O O20 0.356904 0.000000 0.280121
#
# Coordination Sequence:
#
# PCOD9382201 Si02
#       7
#     8   8   8   8   8   4   8
#     4  11  23  36  50  71 101 135 167 210 268 322
#     4  10  18  31  53  76 101 136 174 215 260 311
#     4   9  17  28  43  67  99 134 170 206 248 302
#     4  10  19  28  40  64 100 136 166 198 240 294
#     4   8  15  29  49  74 103 133 167 209 255 301
#     4   9  18  32  53  81 107 133 174 225 270 309
#     4  11  20  30  49  74  99 130 169 210 256 310
#
# _framework density 20.867664999999999
#
# number of rings (size 3 to 8) (size 9 to 14) (size 15 to 20)
#    0.000    2.231    2.308    2.308    0.000    2.462 
#    0.000    0.000    0.000    3.692    0.000   11.846 
#    0.000    0.000    0.000    5.231    0.000    5.538 
#
# Total GULP energy -289804.869427 kJ/mol
# GULP energy per Si atom -5573.170566 kJ/mol
# Density = 2.082017 g / cm^3
# Si number density = 20.867665 Si / 1000 Ang^3
#
#
#
# Elastic Constant Matrix: (Units=GPa)
#
#
# Indices 1 2 3 4 5 6 
#
# 1 47.3300 -9.0057 31.4454 0.0000 0.0000 0.0000
# 2 -9.0057 44.9910 7.1509 0.0000 0.0000 0.0000
# 3 31.4454 7.1509 177.7089 0.0000 0.0000 0.0000
# 4 0.0000 0.0000 0.0000 -8.6775 0.0000 0.0000
# 5 0.0000 0.0000 0.0000 0.0000 3.1644 0.0000
# 6 0.0000 0.0000 0.0000 0.0000 0.0000 298.6059
#
#
#
# Elastic Compliance Matrix: (Units=1/GPa)
#
#
# Indices 1 2 3 4 5 6 
#
# 1 0.025377 0.005831 -0.004725 0.000000 0.000000 0.000000
# 2 0.005831 0.023709 -0.001986 0.000000 0.000000 0.000000
# 3 -0.004725 -0.001986 0.006543 0.000000 0.000000 0.000000
# 4 0.000000 0.000000 0.000000 -0.115240 0.000000 0.000000
# 5 0.000000 0.000000 0.000000 0.000000 0.316019 0.000000
# 6 0.000000 0.000000 0.000000 0.000000 0.000000 0.003349
#
#
# Mechanical properties :
#
#
# Convention : Reuss Voigt Hill
#
# Bulk Modulus (GPa) = 18.56352 36.57900 27.57126
# Shear Modulus (GPa) = 17.89075 74.64784 46.26930
#
# Velocity S-wave (km/s) = 2.93122 5.98746 4.71390
# Velocity P-wave (km/s) = 4.51345 8.08496 6.54744
#
# Compressibility (1/GPa) = 0.05386910
#
# Stress axis : x y z
#
# Youngs Moduli (GPa) = 39.40589 42.17740 152.83101
#
# Poissons Ratio (x) = -0.24592 0.72213
# Poissons Ratio (y) = -0.22976 0.30349
# Poissons Ratio (z) = 0.18619 0.08375
#
# Static dielectric constant tensor:
#      x y z
#    x 1.726240 0.000000 0.000000 
#    y 0.000000 1.770690 0.000000 
#    z 0.000000 0.000000 1.835250 
# 
# From -- ./inp_files/25038.got.cif
#   From: 2010.05.17/outbox.cif.g08.bks.cpg/sg47_13_cif.got.tgz:25038.got - 2010.06.03 20:15:42.
