data_PCOD9382170
_publ_section_title
;
Structure prediction by ZEFSAII (Michael W. Deem and Ramdas Pophale) SiO2 
 PCOD9382170
Probable space group: P M M M
;
_chemical_formula_sum "Si O2"
_cell_formula_units_Z 64
_cell_length_a 14.686512
_cell_length_b 9.245916
_cell_length_c 31.840023
_cell_angle_alpha 90.000000
_cell_angle_beta 90.000000
_cell_angle_gamma 90.000000
_cell_volume 4323.564883
_symmetry_space_group_name_H-M "P M M M"
_symmetry_group_IT_number 47
_symmetry_cell_setting 'orthorhombic'
loop_
_space_group_symop_operation_xyz
x,y,z
-x,-y,z
x,-y,-z
-x,y,-z
-x,-y,-z
x,y,-z
-x,y,z
x,-y,z
loop_
_atom_site_type_symbol
_atom_site_label
_atom_site_fract_x
_atom_site_fract_y
_atom_site_fract_z
Si Si1 0.717524 0.827783 0.452964
Si Si2 0.610667 0.168628 0.046796
Si Si3 0.899658 0.325006 0.674196
Si Si4 0.392370 0.328130 0.620318
Si Si5 0.389215 0.334075 0.129674
Si Si6 0.391279 0.828212 0.214992
Si Si7 0.292281 0.674567 0.708085
Si Si8 0.104128 0.327094 0.425198
O O1 0.682713 0.796592 0.500000
O O2 0.655822 0.757272 0.417054
O O3 0.818134 0.760368 0.448482
O O4 0.721522 0.000000 0.447498
O O5 0.500000 0.173804 0.046900
O O6 0.642431 0.263114 0.086019
O O7 0.635250 0.000000 0.052369
O O8 0.639910 0.215800 0.000000
O O9 0.900939 0.500000 0.676749
O O10 0.811980 0.277485 0.700183
O O11 0.887430 0.293570 0.624657
O O12 0.000000 0.272095 0.687228
O O13 0.500000 0.299846 0.621718
O O14 0.378130 0.500000 0.613474
O O15 0.346885 0.293137 0.665122
O O16 0.500000 0.333485 0.128480
O O17 0.359729 0.500000 0.133655
O O18 0.363662 0.241364 0.170431
O O19 0.500000 0.803022 0.220309
O O20 0.338377 0.752362 0.252805
O O21 0.376395 0.000000 0.214632
O O22 0.294821 0.500000 0.713903
O O23 0.118011 0.500000 0.430218
O O24 0.000000 0.294904 0.437892
#
# Coordination Sequence:
#
# PCOD9382170 Si02
#       8
#     8   8   8   8   8   8   8   8
#     4  11  24  38  51  70  98 127 150 177 217 265
#     4   8  13  21  33  49  71 102 140 182 229 277
#     4   8  14  27  50  76  96 113 135 167 209 255
#     4  10  21  37  56  75  92 114 149 191 227 259
#     4   9  16  25  37  53  75 105 144 190 233 268
#     4  10  20  31  42  59  86 119 152 185 223 267
#     4  10  18  31  52  73  92 112 139 178 218 258
#     4   9  17  33  57  79  97 119 148 179 212 255
#
# _framework density 14.802600999999999
#
# number of rings (size 3 to 8) (size 9 to 14) (size 15 to 20)
#    0.000    2.625    1.250    2.625    0.000    5.500 
#    0.000    3.750    0.000    0.375    0.000    0.000 
#    0.000    0.000    0.000    0.000    0.000    0.625 
#
# Total GULP energy -356682.494858 kJ/mol
# GULP energy per Si atom -5573.163982 kJ/mol
# Density = 1.476891 g / cm^3
# Si number density = 14.802601 Si / 1000 Ang^3
#
#
#
# Elastic Constant Matrix: (Units=GPa)
#
#
# Indices 1 2 3 4 5 6 
#
# 1 63.5502 39.2531 54.8819 0.0000 0.0000 0.0000
# 2 39.2531 53.1202 63.9117 0.0000 0.0000 0.0000
# 3 54.8819 63.9117 131.3187 0.0000 0.0000 0.0000
# 4 0.0000 0.0000 0.0000 28.5696 0.0000 0.0000
# 5 0.0000 0.0000 0.0000 0.0000 1.7402 0.0000
# 6 0.0000 0.0000 0.0000 0.0000 0.0000 11.2899
#
#
#
# Elastic Compliance Matrix: (Units=1/GPa)
#
#
# Indices 1 2 3 4 5 6 
#
# 1 0.029880 -0.017023 -0.004202 0.000000 0.000000 0.000000
# 2 -0.017023 0.055123 -0.019713 0.000000 0.000000 0.000000
# 3 -0.004202 -0.019713 0.018966 0.000000 0.000000 0.000000
# 4 0.000000 0.000000 0.000000 0.035002 0.000000 0.000000
# 5 0.000000 0.000000 0.000000 0.000000 0.574635 0.000000
# 6 0.000000 0.000000 0.000000 0.000000 0.000000 0.088574
#
#
# Mechanical properties :
#
#
# Convention : Reuss Voigt Hill
#
# Bulk Modulus (GPa) = 45.26951 62.67582 53.97266
# Shear Modulus (GPa) = 5.60902 14.31610 9.96256
#
# Velocity S-wave (km/s) = 1.94870 3.11325 2.59709
# Velocity P-wave (km/s) = 5.97593 7.44017 6.74788
#
# Compressibility (1/GPa) = 0.02208993
#
# Stress axis : x y z
#
# Youngs Moduli (GPa) = 33.46757 18.14138 52.72704
#
# Poissons Ratio (x) = 0.30883 0.22158
# Poissons Ratio (y) = 0.56973 1.03942
# Poissons Ratio (z) = 0.14064 0.35762
#
# Static dielectric constant tensor:
#      x y z
#    x 1.483240 0.000000 0.000000 
#    y 0.000000 1.489490 0.000000 
#    z 0.000000 0.000000 1.484730 
# 
# From -- ./inp_files/14249.got.cif
#   From: 2010.05.17/outbox.cif.g08.bks.cpg/sg47_8_cif.got.tgz:14249.got - 2010.06.03 20:15:42.
