data_PCOD9382460
_publ_section_title
;
Structure prediction by ZEFSAII (Michael W. Deem and Ramdas Pophale) SiO2 
 PCOD9382460
Probable space group: P M M M
;
_chemical_formula_sum "Si O2"
_cell_formula_units_Z 40
_cell_length_a 7.590271
_cell_length_b 15.577472
_cell_length_c 22.263905
_cell_angle_alpha 90.000000
_cell_angle_beta 90.000000
_cell_angle_gamma 90.000000
_cell_volume 2632.422545
_symmetry_space_group_name_H-M "P M M M"
_symmetry_group_IT_number 47
_symmetry_cell_setting 'orthorhombic'
loop_
_space_group_symop_operation_xyz
x,y,z
-x,-y,z
x,-y,-z
-x,y,-z
-x,-y,-z
x,y,-z
-x,y,z
x,-y,z
loop_
_atom_site_type_symbol
_atom_site_label
_atom_site_fract_x
_atom_site_fract_y
_atom_site_fract_z
Si Si1 0.000000 0.895361 0.662720
Si Si2 0.701020 0.103828 0.432915
Si Si3 0.293582 0.823382 0.127597
Si Si4 0.293250 0.356048 0.931332
Si Si5 0.285266 0.000000 0.932206
Si Si6 0.000000 0.595003 0.164672
Si Si7 0.000000 0.774410 0.778888
O O1 0.832080 0.875435 0.620638
O O2 0.000000 0.830687 0.718698
O O3 0.000000 0.000000 0.676781
O O4 0.757414 0.132396 0.500000
O O5 0.500000 0.132491 0.422858
O O6 0.698933 0.000000 0.435053
O O7 0.500000 0.828883 0.143803
O O8 0.277510 0.746732 0.079151
O O9 0.172582 0.800807 0.183501
O O10 0.233128 0.913461 0.100826
O O11 0.500000 0.378468 0.922976
O O12 0.167105 0.394526 0.880450
O O13 0.244013 0.378068 0.000000
O O14 0.500000 0.000000 0.933746
O O15 0.221546 0.000000 0.000000
O O16 0.000000 0.500000 0.190911
O O17 0.000000 0.670367 0.214546
#
# Coordination Sequence:
#
# PCOD9382460 Si02
#       7
#     4   8   8   8   4   4   4
#     4  10  19  28  43  66  94 125 153 181 209 244
#     4   8  14  26  44  67  95 125 154 180 208 242
#     4   9  18  31  44  59  84 115 144 181 222 261
#     4   9  17  30  48  68  87 104 129 175 235 291
#     4   9  16  27  45  63  78 107 149 184 218 262
#     4  10  21  36  49  62  83 112 145 183 227 274
#     4  10  22  34  45  62  87 118 153 183 216 260
#
# _framework density 15.195128
#
# number of rings (size 3 to 8) (size 9 to 14) (size 15 to 20)
#    0.000    2.900    0.000    1.800    1.400    5.600 
#    0.000    3.000    0.000    0.000    0.000    0.000 
#    0.000    1.600    0.000    2.200    0.000    0.200 
#
# Total GULP energy -222754.889951 kJ/mol
# GULP energy per Si atom -5568.872249 kJ/mol
# Density = 1.516054 g / cm^3
# Si number density = 15.195128 Si / 1000 Ang^3
#
#
#
# Elastic Constant Matrix: (Units=GPa)
#
#
# Indices 1 2 3 4 5 6 
#
# 1 59.2556 24.8432 39.9666 0.0000 0.0000 0.0000
# 2 24.8432 93.5135 40.2358 0.0000 0.0000 0.0000
# 3 39.9666 40.2358 94.4877 0.0000 0.0000 0.0000
# 4 0.0000 0.0000 0.0000 8.8734 0.0000 0.0000
# 5 0.0000 0.0000 0.0000 0.0000 116.2297 0.0000
# 6 0.0000 0.0000 0.0000 0.0000 0.0000 9.7346
#
#
#
# Elastic Compliance Matrix: (Units=1/GPa)
#
#
# Indices 1 2 3 4 5 6 
#
# 1 0.024068 -0.002465 -0.009130 0.000000 0.000000 0.000000
# 2 -0.002465 0.013345 -0.004640 0.000000 0.000000 0.000000
# 3 -0.009130 -0.004640 0.016421 0.000000 0.000000 0.000000
# 4 0.000000 0.000000 0.000000 0.112696 0.000000 0.000000
# 5 0.000000 0.000000 0.000000 0.000000 0.008604 0.000000
# 6 0.000000 0.000000 0.000000 0.000000 0.000000 0.102726
#
#
# Mechanical properties :
#
#
# Convention : Reuss Voigt Hill
#
# Bulk Modulus (GPa) = 46.81074 50.81645 48.81359
# Shear Modulus (GPa) = 15.75038 36.44830 26.09934
#
# Velocity S-wave (km/s) = 3.22303 4.90295 4.14891
# Velocity P-wave (km/s) = 6.68759 8.09735 7.42600
#
# Compressibility (1/GPa) = 0.02136262
#
# Stress axis : x y z
#
# Youngs Moduli (GPa) = 41.54896 74.93439 60.89679
#
# Poissons Ratio (x) = 0.18475 0.55602
# Poissons Ratio (y) = 0.10244 0.28255
# Poissons Ratio (z) = 0.37936 0.34769
#
# Static dielectric constant tensor:
#      x y z
#    x 1.540590 0.000000 0.000000 
#    y 0.000000 1.514350 0.000000 
#    z 0.000000 0.000000 1.481030 
# 
# From -- ./inp_files/29438.got.cif
#   From: 2010.05.17/outbox.cif.g08.bks.cpg/sg47_15_cif.got.tgz:29438.got - 2010.06.03 20:15:42.
