data_PCOD9382633
_publ_section_title
;
Structure prediction by ZEFSAII (Michael W. Deem and Ramdas Pophale) SiO2 
 PCOD9382633
Probable space group: P M M M
;
_chemical_formula_sum "Si O2"
_cell_formula_units_Z 64
_cell_length_a 15.037259
_cell_length_b 7.411480
_cell_length_c 26.170198
_cell_angle_alpha 90.000000
_cell_angle_beta 90.000000
_cell_angle_gamma 90.000000
_cell_volume 2916.625238
_symmetry_space_group_name_H-M "P M M M"
_symmetry_group_IT_number 47
_symmetry_cell_setting 'orthorhombic'
loop_
_space_group_symop_operation_xyz
x,y,z
-x,-y,z
x,-y,-z
-x,y,-z
-x,-y,-z
x,y,-z
-x,y,z
x,-y,z
loop_
_atom_site_type_symbol
_atom_site_label
_atom_site_fract_x
_atom_site_fract_y
_atom_site_fract_z
Si Si1 0.747833 0.706698 0.636486
Si Si2 0.797648 0.708805 0.944884
Si Si3 0.223605 0.720431 0.250350
Si Si4 0.402518 0.791791 0.923478
Si Si5 0.102939 0.279424 0.156810
Si Si6 0.396865 0.279878 0.442366
Si Si7 0.102363 0.781915 0.557320
Si Si8 0.596112 0.717911 0.803782
O O1 0.720441 0.500000 0.647306
O O2 0.776892 0.783798 0.691148
O O3 0.667742 0.786359 0.602480
O O4 0.832038 0.708505 0.599365
O O5 0.825579 0.500000 0.946054
O O6 0.690342 0.711010 0.941441
O O7 0.841155 0.783084 0.892949
O O8 0.823042 0.789689 0.000000
O O9 0.218350 0.500000 0.250530
O O10 0.149199 0.779734 0.209703
O O11 0.318761 0.775472 0.227493
O O12 0.500000 0.715789 0.938298
O O13 0.399085 0.782037 0.861996
O O14 0.401529 0.000000 0.939244
O O15 0.106099 0.500000 0.157023
O O16 0.000000 0.226438 0.153428
O O17 0.370135 0.222666 0.500000
O O18 0.500000 0.230317 0.434644
O O19 0.392896 0.500000 0.442468
O O20 0.128496 0.725569 0.500000
O O21 0.000000 0.729280 0.565566
O O22 0.106037 0.000000 0.558963
O O23 0.500000 0.772276 0.782304
O O24 0.598496 0.500000 0.805858
#
# Coordination Sequence:
#
# PCOD9382633 Si02
#       8
#     8   8   8   8   8   8   8   8
#     4  10  19  29  48  78 105 129 165 210 250 296
#     4  10  20  34  54  78 101 128 168 214 253 297
#     4   9  17  29  46  74 106 132 159 198 253 303
#     4  10  20  33  51  76 105 136 167 201 247 300
#     4   9  17  31  51  73 100 131 162 203 254 303
#     4   8  14  25  41  64  98 135 165 198 243 289
#     4   9  19  36  54  70  94 131 169 206 256 312
#     4   9  16  29  51  74  99 134 173 209 243 288
#
# _framework density 21.943169999999999
#
# number of rings (size 3 to 8) (size 9 to 14) (size 15 to 20)
#    0.000    2.750    1.250    1.500    0.000    3.500 
#    0.000    7.500    0.000    0.750    0.000    2.625 
#    0.000    0.000    0.000    0.000    0.000    0.000 
#
# Total GULP energy -357146.560521 kJ/mol
# GULP energy per Si atom -5580.415008 kJ/mol
# Density = 2.189323 g / cm^3
# Si number density = 21.943170 Si / 1000 Ang^3
#
#
#
# Elastic Constant Matrix: (Units=GPa)
#
#
# Indices 1 2 3 4 5 6 
#
# 1 138.0300 0.3011 107.7804 0.0000 0.0000 0.0000
# 2 0.3011 69.3763 3.8886 0.0000 0.0000 0.0000
# 3 107.7804 3.8886 203.6230 0.0000 0.0000 0.0000
# 4 0.0000 0.0000 0.0000 -4.7662 0.0000 0.0000
# 5 0.0000 0.0000 0.0000 0.0000 -16.0368 0.0000
# 6 0.0000 0.0000 0.0000 0.0000 0.0000 24.0810
#
#
#
# Elastic Compliance Matrix: (Units=1/GPa)
#
#
# Indices 1 2 3 4 5 6 
#
# 1 0.012355 0.000313 -0.006546 0.000000 0.000000 0.000000
# 2 0.000313 0.014438 -0.000442 0.000000 0.000000 0.000000
# 3 -0.006546 -0.000442 0.008384 0.000000 0.000000 0.000000
# 4 0.000000 0.000000 0.000000 -0.209812 0.000000 0.000000
# 5 0.000000 0.000000 0.000000 0.000000 -0.062356 0.000000
# 6 0.000000 0.000000 0.000000 0.000000 0.000000 0.041527
#
#
# Mechanical properties :
#
#
# Convention : Reuss Voigt Hill
#
# Bulk Modulus (GPa) = 45.81061 70.55214 58.18138
# Shear Modulus (GPa) = -28.59753 20.59287 -4.00233
#
# Velocity S-wave (km/s) = -3.61398 3.06676 -1.35200
# Velocity P-wave (km/s) = 1.87291 6.69044 4.91273
#
# Compressibility (1/GPa) = 0.02182900
#
# Stress axis : x y z
#
# Youngs Moduli (GPa) = 80.93574 69.26388 119.27042
#
# Poissons Ratio (x) = -0.02170 0.78073
# Poissons Ratio (y) = -0.02536 0.05266
# Poissons Ratio (z) = 0.52980 0.03058
#
# Static dielectric constant tensor:
#      x y z
#    x 1.769140 0.000000 0.000000 
#    y 0.000000 1.860310 0.000000 
#    z 0.000000 0.000000 1.789430 
# 
# From -- ./inp_files/32771.got.cif
#   From: 2010.05.17/outbox.cif.g08.bks.cpg/sg47_17_cif.got.tgz:32771.got - 2010.06.03 20:15:42.
