data_PCOD9382137
_publ_section_title
;
Structure prediction by ZEFSAII (Michael W. Deem and Ramdas Pophale) SiO2 
 PCOD9382137
Probable space group: P M M M
;
_chemical_formula_sum "Si O2"
_cell_formula_units_Z 64
_cell_length_a 13.067236
_cell_length_b 18.302940
_cell_length_c 15.846494
_cell_angle_alpha 90.000000
_cell_angle_beta 90.000000
_cell_angle_gamma 90.000000
_cell_volume 3789.987532
_symmetry_space_group_name_H-M "P M M M"
_symmetry_group_IT_number 47
_symmetry_cell_setting 'orthorhombic'
loop_
_space_group_symop_operation_xyz
x,y,z
-x,-y,z
x,-y,-z
-x,y,-z
-x,-y,-z
x,y,-z
-x,y,z
x,-y,z
loop_
_atom_site_type_symbol
_atom_site_label
_atom_site_fract_x
_atom_site_fract_y
_atom_site_fract_z
Si Si1 0.376635 0.084239 0.262517
Si Si2 0.267571 0.303302 0.181728
Si Si3 0.883255 0.733556 0.676141
Si Si4 0.700346 0.805974 0.594867
Si Si5 0.616975 0.652361 0.653771
Si Si6 0.622669 0.172521 0.904735
Si Si7 0.178450 0.582175 0.599570
Si Si8 0.113982 0.584730 0.898313
O O1 0.500000 0.087966 0.270548
O O2 0.329813 0.135343 0.334827
O O3 0.350884 0.116142 0.169980
O O4 0.345370 0.000000 0.270528
O O5 0.183241 0.261117 0.238670
O O6 0.349579 0.334252 0.249014
O O7 0.321514 0.247976 0.118346
O O8 0.204751 0.367426 0.138017
O O9 0.817207 0.779510 0.609050
O O10 0.875903 0.648236 0.648462
O O11 0.000000 0.755665 0.683956
O O12 0.683657 0.832152 0.500000
O O13 0.635590 0.731643 0.610890
O O14 0.500000 0.629802 0.645388
O O15 0.700847 0.597906 0.614733
O O16 0.500000 0.183388 0.900960
O O17 0.648258 0.148732 0.000000
O O18 0.156386 0.588260 0.500000
O O19 0.152102 0.500000 0.627386
O O20 0.124506 0.500000 0.873800
O O21 0.000000 0.610021 0.870669
O O22 0.115767 0.588039 0.000000
#
# Coordination Sequence:
#
# PCOD9382137 Si02
#       8
#     8   8   8   8   8   8   8   8
#     4  10  20  35  55  82 114 140 166 204 248 303
#     4  10  18  31  50  74 101 132 171 215 256 303
#     4  10  20  33  52  75  99 132 175 219 264 309
#     4  10  20  34  53  77 106 139 173 214 257 300
#     4  10  19  31  48  68  96 134 174 212 252 300
#     4  10  19  33  55  81 109 141 172 205 251 303
#     4   9  19  33  46  66  97 130 170 220 266 307
#     4   9  18  32  49  70  97 128 165 215 270 314
#
# _framework density 16.886600000000001
#
# number of rings (size 3 to 8) (size 9 to 14) (size 15 to 20)
#    0.000    2.500    2.500    3.375    0.000    5.750 
#    0.000    3.125    0.000    1.500    0.000    5.250 
#    0.000    1.000    0.000    0.000    0.000    0.000 
#
# Total GULP energy -356845.864515 kJ/mol
# GULP energy per Si atom -5575.716633 kJ/mol
# Density = 1.684817 g / cm^3
# Si number density = 16.886600 Si / 1000 Ang^3
#
#
#
# Elastic Constant Matrix: (Units=GPa)
#
#
# Indices 1 2 3 4 5 6 
#
# 1 48.5872 2.2598 10.8421 0.0000 0.0000 0.0000
# 2 2.2598 75.5007 37.9021 0.0000 0.0000 0.0000
# 3 10.8421 37.9021 98.0614 0.0000 0.0000 0.0000
# 4 0.0000 0.0000 0.0000 8.0499 0.0000 0.0000
# 5 0.0000 0.0000 0.0000 0.0000 0.5347 0.0000
# 6 0.0000 0.0000 0.0000 0.0000 0.0000 14.9747
#
#
#
# Elastic Compliance Matrix: (Units=1/GPa)
#
#
# Indices 1 2 3 4 5 6 
#
# 1 0.021130 0.000670 -0.002595 0.000000 0.000000 0.000000
# 2 0.000670 0.016455 -0.006434 0.000000 0.000000 0.000000
# 3 -0.002595 -0.006434 0.012972 0.000000 0.000000 0.000000
# 4 0.000000 0.000000 0.000000 0.124225 0.000000 0.000000
# 5 0.000000 0.000000 0.000000 0.000000 1.870051 0.000000
# 6 0.000000 0.000000 0.000000 0.000000 0.000000 0.066779
#
#
# Mechanical properties :
#
#
# Convention : Reuss Voigt Hill
#
# Bulk Modulus (GPa) = 29.55271 36.01747 32.78509
# Shear Modulus (GPa) = 2.33688 16.12156 9.22922
#
# Velocity S-wave (km/s) = 1.17765 3.09317 2.34036
# Velocity P-wave (km/s) = 4.40316 5.84228 5.17301
#
# Compressibility (1/GPa) = 0.03383785
#
# Stress axis : x y z
#
# Youngs Moduli (GPa) = 47.32719 60.77234 77.09188
#
# Poissons Ratio (x) = -0.04074 0.20008
# Poissons Ratio (y) = -0.03173 0.49602
# Poissons Ratio (z) = 0.12283 0.39102
#
# Static dielectric constant tensor:
#      x y z
#    x 1.568260 0.000000 0.000000 
#    y 0.000000 1.553110 0.000000 
#    z 0.000000 0.000000 1.597000 
# 
# From -- ./inp_files/24085.got.cif
#   From: 2010.05.17/outbox.cif.g08.bks.cpg/sg47_13_cif.got.tgz:24085.got - 2010.06.03 20:15:42.
