data_PCOD9382199
_publ_section_title
;
Structure prediction by ZEFSAII (Michael W. Deem and Ramdas Pophale) SiO2 
 PCOD9382199
Probable space group: P M M M
;
_chemical_formula_sum "Si O2"
_cell_formula_units_Z 52
_cell_length_a 8.527748
_cell_length_b 28.975689
_cell_length_c 12.100563
_cell_angle_alpha 90.000000
_cell_angle_beta 90.000000
_cell_angle_gamma 90.000000
_cell_volume 2990.017340
_symmetry_space_group_name_H-M "P M M M"
_symmetry_group_IT_number 47
_symmetry_cell_setting 'orthorhombic'
loop_
_space_group_symop_operation_xyz
x,y,z
-x,-y,z
x,-y,-z
-x,y,-z
-x,-y,-z
x,y,-z
-x,y,z
x,-y,z
loop_
_atom_site_type_symbol
_atom_site_label
_atom_site_fract_x
_atom_site_fract_y
_atom_site_fract_z
Si Si1 0.812017 0.315772 0.267385
Si Si2 0.189960 0.861235 0.269400
Si Si3 0.808852 0.052533 0.873401
Si Si4 0.687809 0.717290 0.500000
Si Si5 0.808914 0.227152 0.873833
Si Si6 0.687292 0.598958 0.128362
Si Si7 0.820009 0.500000 0.866148
Si Si8 0.312328 0.175214 0.500000
O O1 0.747445 0.307765 0.389915
O O2 0.758088 0.272220 0.193231
O O3 0.757032 0.362117 0.207216
O O4 0.000000 0.315189 0.271575
O O5 0.243140 0.909033 0.213533
O O6 0.238612 0.818983 0.190104
O O7 0.252440 0.850284 0.390621
O O8 0.000000 0.861667 0.273647
O O9 0.000000 0.052841 0.872624
O O10 0.759274 0.000000 0.848847
O O11 0.762425 0.063807 0.000000
O O12 0.500000 0.717614 0.500000
O O13 0.742908 0.771063 0.500000
O O14 0.000000 0.227429 0.875743
O O15 0.754313 0.227888 0.000000
O O16 0.500000 0.601977 0.128997
O O17 0.737723 0.547727 0.165782
O O18 0.740735 0.605595 0.000000
O O19 0.000000 0.500000 0.829306
O O20 0.817739 0.500000 0.000000
O O21 0.500000 0.175809 0.500000
#
# Coordination Sequence:
#
# PCOD9382199 Si02
#       8
#     8   8   8   4   8   8   4   4
#     4  11  21  34  54  78 106 137 177 223 266 314
#     4  10  18  31  53  76 100 133 175 215 255 309
#     4   8  14  26  48  80 111 133 160 208 267 318
#     4  11  23  39  55  71  99 139 182 222 269 322
#     4   9  17  28  46  75 105 130 161 207 260 311
#     4  10  20  34  53  80 115 150 181 217 267 322
#     4   9  17  31  53  80 109 144 187 229 268 311
#     4  11  23  37  52  70 100 137 176 220 265 310
#
# _framework density 17.391203000000001
#
# number of rings (size 3 to 8) (size 9 to 14) (size 15 to 20)
#    0.000    2.231    1.538    3.000    0.000    4.923 
#    0.000    0.385    0.000    6.000    0.000    4.308 
#    0.000    0.000    0.000    0.000    0.000    0.000 
#
# Total GULP energy -290144.732456 kJ/mol
# GULP energy per Si atom -5579.706393 kJ/mol
# Density = 1.735162 g / cm^3
# Si number density = 17.391203 Si / 1000 Ang^3
#
#
#
# Elastic Constant Matrix: (Units=GPa)
#
#
# Indices 1 2 3 4 5 6 
#
# 1 32.0297 32.5985 30.9219 0.0000 0.0000 0.0000
# 2 32.5985 163.0985 103.5973 0.0000 0.0000 0.0000
# 3 30.9219 103.5973 165.0329 0.0000 0.0000 0.0000
# 4 0.0000 0.0000 0.0000 0.2914 0.0000 0.0000
# 5 0.0000 0.0000 0.0000 0.0000 12.7129 0.0000
# 6 0.0000 0.0000 0.0000 0.0000 0.0000 14.4870
#
#
#
# Elastic Compliance Matrix: (Units=1/GPa)
#
#
# Indices 1 2 3 4 5 6 
#
# 1 0.040879 -0.005497 -0.004209 0.000000 0.000000 0.000000
# 2 -0.005497 0.010936 -0.005835 0.000000 0.000000 0.000000
# 3 -0.004209 -0.005835 0.010511 0.000000 0.000000 0.000000
# 4 0.000000 0.000000 0.000000 3.431715 0.000000 0.000000
# 5 0.000000 0.000000 0.000000 0.000000 0.078660 0.000000
# 6 0.000000 0.000000 0.000000 0.000000 0.000000 0.069028
#
#
# Mechanical properties :
#
#
# Convention : Reuss Voigt Hill
#
# Bulk Modulus (GPa) = 32.00591 77.15516 54.58054
# Shear Modulus (GPa) = 1.35751 18.36782 9.86266
#
# Velocity S-wave (km/s) = 0.88446 3.25338 2.38398
# Velocity P-wave (km/s) = 4.41435 7.65333 6.24740
#
# Compressibility (1/GPa) = 0.03124423
#
# Stress axis : x y z
#
# Youngs Moduli (GPa) = 24.46247 91.43778 95.13922
#
# Poissons Ratio (x) = 0.50266 0.40040
# Poissons Ratio (y) = 0.13448 0.55515
# Poissons Ratio (z) = 0.10295 0.53356
#
# Static dielectric constant tensor:
#      x y z
#    x 1.589860 0.000000 0.000000 
#    y 0.000000 1.583690 0.000000 
#    z 0.000000 0.000000 1.563770 
# 
# From -- ./inp_files/15514.got.cif
#   From: 2010.05.17/outbox.cif.g08.bks.cpg/sg47_8_cif.got.tgz:15514.got - 2010.06.03 20:15:42.
