data_PCOD9382360
_publ_section_title
;
Structure prediction by ZEFSAII (Michael W. Deem and Ramdas Pophale) SiO2 
 PCOD9382360
Probable space group: P M M M
;
_chemical_formula_sum "Si O2"
_cell_formula_units_Z 46
_cell_length_a 18.773497
_cell_length_b 15.210903
_cell_length_c 7.417175
_cell_angle_alpha 90.000000
_cell_angle_beta 90.000000
_cell_angle_gamma 90.000000
_cell_volume 2118.062154
_symmetry_space_group_name_H-M "P M M M"
_symmetry_group_IT_number 47
_symmetry_cell_setting 'orthorhombic'
loop_
_space_group_symop_operation_xyz
x,y,z
-x,-y,z
x,-y,-z
-x,y,-z
-x,-y,-z
x,y,-z
-x,y,z
x,-y,z
loop_
_atom_site_type_symbol
_atom_site_label
_atom_site_fract_x
_atom_site_fract_y
_atom_site_fract_z
Si Si1 0.309443 0.401519 0.218961
Si Si2 0.579954 0.744438 0.785463
Si Si3 0.168047 0.171356 0.718249
Si Si4 0.918822 0.000000 0.719842
Si Si5 0.092458 0.500000 0.500000
Si Si6 0.680752 0.899569 0.283757
Si Si7 0.854656 0.368598 0.791841
O O1 0.330908 0.500000 0.273209
O O2 0.363316 0.326959 0.285523
O O3 0.227331 0.386565 0.271378
O O4 0.309384 0.398373 0.000000
O O5 0.500000 0.735542 0.713409
O O6 0.612271 0.841083 0.757950
O O7 0.576271 0.729926 0.000000
O O8 0.168490 0.174369 0.500000
O O9 0.122147 0.087636 0.775824
O O10 0.249054 0.152775 0.780353
O O11 0.137733 0.263771 0.782292
O O12 0.917906 0.000000 0.500000
O O13 0.000000 0.000000 0.779001
O O14 0.096760 0.576534 0.657906
O O15 0.686854 0.904531 0.500000
O O16 0.679063 0.000000 0.216915
O O17 0.861319 0.396085 0.000000
#
# Coordination Sequence:
#
# PCOD9382360 Si02
#       7
#     8   8   8   4   2   8   8
#     4   9  17  31  50  73 104 138 182 235 294 361
#     4  10  21  35  50  70 100 140 188 244 303 357
#     4  10  18  33  57  89 122 160 202 240 296 358
#     4   9  18  34  61  97 136 168 198 238 290 361
#     4  12  22  36  56  88 124 160 196 262 312 360
#     4  10  20  34  54  76 102 144 192 240 287 349
#     4  11  21  34  56  88 121 157 203 254 309 365
#
# _framework density 21.717963999999998
#
# number of rings (size 3 to 8) (size 9 to 14) (size 15 to 20)
#    0.000    2.000    4.348    0.261    0.000    1.391 
#    0.000    3.913    0.000    1.043    0.000    3.043 
#    0.000    1.391    0.000    0.000    0.000    0.000 
#
# Total GULP energy -256554.664825 kJ/mol
# GULP energy per Si atom -5577.275322 kJ/mol
# Density = 2.166853 g / cm^3
# Si number density = 21.717964 Si / 1000 Ang^3
#
#
#
# Elastic Constant Matrix: (Units=GPa)
#
#
# Indices 1 2 3 4 5 6 
#
# 1 53.8610 13.5600 5.5171 0.0000 0.0000 0.0000
# 2 13.5600 157.2270 10.4138 0.0000 0.0000 0.0000
# 3 5.5171 10.4138 99.5705 0.0000 0.0000 0.0000
# 4 0.0000 0.0000 0.0000 13.2614 0.0000 0.0000
# 5 0.0000 0.0000 0.0000 0.0000 -46.1751 0.0000
# 6 0.0000 0.0000 0.0000 0.0000 0.0000 -83.8880
#
#
#
# Elastic Compliance Matrix: (Units=1/GPa)
#
#
# Indices 1 2 3 4 5 6 
#
# 1 0.019056 -0.001585 -0.000890 0.000000 0.000000 0.000000
# 2 -0.001585 0.006536 -0.000596 0.000000 0.000000 0.000000
# 3 -0.000890 -0.000596 0.010155 0.000000 0.000000 0.000000
# 4 0.000000 0.000000 0.000000 0.075407 0.000000 0.000000
# 5 0.000000 0.000000 0.000000 0.000000 -0.021657 0.000000
# 6 0.000000 0.000000 0.000000 0.000000 0.000000 -0.011921
#
#
# Mechanical properties :
#
#
# Convention : Reuss Voigt Hill
#
# Bulk Modulus (GPa) = 33.77643 41.07114 37.42379
# Shear Modulus (GPa) = 53.42632 -4.61582 24.40525
#
# Velocity S-wave (km/s) = 4.96523 -1.45944 3.35585
# Velocity P-wave (km/s) = 6.96113 4.01401 5.68197
#
# Compressibility (1/GPa) = 0.02960644
#
# Stress axis : x y z
#
# Youngs Moduli (GPa) = 52.47576 152.99049 98.47583
#
# Poissons Ratio (x) = 0.24242 0.08766
# Poissons Ratio (y) = 0.08315 0.05867
# Poissons Ratio (z) = 0.04671 0.09115
#
# Static dielectric constant tensor:
#      x y z
#    x 1.786270 0.000000 0.000000 
#    y 0.000000 1.774060 0.000000 
#    z 0.000000 0.000000 1.853230 
# 
# From -- ./inp_files/10892.got.cif
#   From: 2010.05.17/outbox.cif.g08.bks.cpg/sg47_6_cif.got.tgz:10892.got - 2010.06.03 20:15:42.
