data_PCOD9382384
_publ_section_title
;
Structure prediction by ZEFSAII (Michael W. Deem and Ramdas Pophale) SiO2 
 PCOD9382384
Probable space group: P M M M
;
_chemical_formula_sum "Si O2"
_cell_formula_units_Z 52
_cell_length_a 9.021632
_cell_length_b 27.100206
_cell_length_c 13.876410
_cell_angle_alpha 90.000000
_cell_angle_beta 90.000000
_cell_angle_gamma 90.000000
_cell_volume 3392.616917
_symmetry_space_group_name_H-M "P M M M"
_symmetry_group_IT_number 47
_symmetry_cell_setting 'orthorhombic'
loop_
_space_group_symop_operation_xyz
x,y,z
-x,-y,z
x,-y,-z
-x,y,-z
-x,-y,-z
x,y,-z
-x,y,z
x,-y,z
loop_
_atom_site_type_symbol
_atom_site_label
_atom_site_fract_x
_atom_site_fract_y
_atom_site_fract_z
Si Si1 0.176019 0.749880 0.702302
Si Si2 0.822078 0.355745 0.388565
Si Si3 0.174489 0.945766 0.383336
Si Si4 0.822429 0.500000 0.114906
Si Si5 0.323409 0.845014 0.387022
Si Si6 0.823947 0.690984 0.889660
Si Si7 0.677039 0.597114 0.205669
O O1 0.212574 0.701233 0.638842
O O2 0.260914 0.798049 0.668746
O O3 0.207958 0.733419 0.811915
O O4 0.000000 0.758497 0.692493
O O5 0.786324 0.365296 0.500000
O O6 0.737633 0.389951 0.312414
O O7 0.000000 0.361587 0.375257
O O8 0.187695 0.946358 0.500000
O O9 0.259333 0.897129 0.350089
O O10 0.000000 0.941390 0.361220
O O11 0.226657 0.000000 0.349439
O O12 0.751311 0.548117 0.163465
O O13 0.000000 0.500000 0.128240
O O14 0.792973 0.500000 0.000000
O O15 0.279684 0.839895 0.500000
O O16 0.500000 0.846152 0.382280
O O17 0.731449 0.643059 0.859514
O O18 0.000000 0.678995 0.879194
O O19 0.796650 0.704758 0.000000
O O20 0.500000 0.593267 0.205490
#
# Coordination Sequence:
#
# PCOD9382384 Si02
#       7
#     8   8   8   4   8   8   8
#     4   9  17  29  46  67  89 116 152 190 224 261
#     4   9  18  34  54  72  93 126 164 194 222 263
#     4   8  14  25  40  56  76 108 150 190 225 262
#     4  11  23  39  58  75  94 123 157 192 228 269
#     4  10  19  27  37  58  89 122 152 184 223 264
#     4   9  18  34  53  70  91 121 155 188 225 272
#     4  11  22  34  51  77 104 124 147 185 231 277
#
# _framework density 15.327401999999999
#
# number of rings (size 3 to 8) (size 9 to 14) (size 15 to 20)
#    0.000    2.538    0.000    4.385    0.000    7.385 
#    0.000    1.923    0.000    2.308    0.000    0.000 
#    0.000    0.615    0.000    7.077    0.000    2.308 
#
# Total GULP energy -289900.503709 kJ/mol
# GULP energy per Si atom -5575.009687 kJ/mol
# Density = 1.529252 g / cm^3
# Si number density = 15.327402 Si / 1000 Ang^3
#
#
#
# Elastic Constant Matrix: (Units=GPa)
#
#
# Indices 1 2 3 4 5 6 
#
# 1 63.5923 70.2422 50.2561 0.0000 0.0000 0.0000
# 2 70.2422 142.5070 63.0337 0.0000 0.0000 0.0000
# 3 50.2561 63.0337 102.0053 0.0000 0.0000 0.0000
# 4 0.0000 0.0000 0.0000 15.0727 0.0000 0.0000
# 5 0.0000 0.0000 0.0000 0.0000 11.9093 0.0000
# 6 0.0000 0.0000 0.0000 0.0000 0.0000 -16.8926
#
#
#
# Elastic Compliance Matrix: (Units=1/GPa)
#
#
# Indices 1 2 3 4 5 6 
#
# 1 0.041661 -0.015765 -0.010784 0.000000 0.000000 0.000000
# 2 -0.015765 0.015622 -0.001887 0.000000 0.000000 0.000000
# 3 -0.010784 -0.001887 0.016282 0.000000 0.000000 0.000000
# 4 0.000000 0.000000 0.000000 0.066345 0.000000 0.000000
# 5 0.000000 0.000000 0.000000 0.000000 0.083968 0.000000
# 6 0.000000 0.000000 0.000000 0.000000 0.000000 -0.059197
#
#
# Mechanical properties :
#
#
# Convention : Reuss Voigt Hill
#
# Bulk Modulus (GPa) = 59.89877 75.01876 67.45876
# Shear Modulus (GPa) = 22.01513 10.32271 16.16892
#
# Velocity S-wave (km/s) = 3.79400 2.59797 3.25145
# Velocity P-wave (km/s) = 7.63917 7.61904 7.62911
#
# Compressibility (1/GPa) = 0.01669483
#
# Stress axis : x y z
#
# Youngs Moduli (GPa) = 24.00334 64.01104 61.41696
#
# Poissons Ratio (x) = 1.00913 0.66230
# Poissons Ratio (y) = 0.37841 0.11587
# Poissons Ratio (z) = 0.25884 0.12076
#
# Static dielectric constant tensor:
#      x y z
#    x 1.508210 0.000000 0.000000 
#    y 0.000000 1.499340 0.000000 
#    z 0.000000 0.000000 1.504920 
# 
# From -- ./inp_files/21791.got.cif
#   From: 2010.05.17/outbox.cif.g08.bks.cpg/sg47_11_cif.got.tgz:21791.got - 2010.06.03 20:15:42.
