data_PCOD9382150
_publ_section_title
;
Structure prediction by ZEFSAII (Michael W. Deem and Ramdas Pophale) SiO2 
 PCOD9382150
Probable space group: P M M M
;
_chemical_formula_sum "Si O2"
_cell_formula_units_Z 48
_cell_length_a 11.547961
_cell_length_b 14.725264
_cell_length_c 16.049865
_cell_angle_alpha 90.000000
_cell_angle_beta 90.000000
_cell_angle_gamma 90.000000
_cell_volume 2729.227773
_symmetry_space_group_name_H-M "P M M M"
_symmetry_group_IT_number 47
_symmetry_cell_setting 'orthorhombic'
loop_
_space_group_symop_operation_xyz
x,y,z
-x,-y,z
x,-y,-z
-x,y,-z
-x,-y,-z
x,y,-z
-x,y,z
x,-y,z
loop_
_atom_site_type_symbol
_atom_site_label
_atom_site_fract_x
_atom_site_fract_y
_atom_site_fract_z
Si Si1 0.743871 0.289062 0.907511
Si Si2 0.000000 0.107614 0.744448
Si Si3 0.361667 0.102669 0.147829
Si Si4 0.000000 0.769695 0.093419
Si Si5 0.639066 0.725189 0.592768
Si Si6 0.360331 0.394883 0.751404
Si Si7 0.249277 0.895549 0.330369
O O1 0.701569 0.184551 0.898485
O O2 0.688645 0.345302 0.832734
O O3 0.882551 0.287667 0.899646
O O4 0.711446 0.321982 0.000000
O O5 0.000000 0.158732 0.832055
O O6 0.117334 0.128229 0.694349
O O7 0.000000 0.000000 0.760268
O O8 0.500000 0.113710 0.141261
O O9 0.322648 0.109160 0.244317
O O10 0.331742 0.000000 0.119403
O O11 0.000000 0.810902 0.000000
O O12 0.666004 0.690555 0.500000
O O13 0.500000 0.735995 0.598305
O O14 0.675144 0.658943 0.667887
O O15 0.698036 0.822208 0.607979
O O16 0.500000 0.391378 0.755377
O O17 0.325132 0.500000 0.748212
O O18 0.253207 0.000000 0.359804
#
# Coordination Sequence:
#
# PCOD9382150 Si02
#       7
#     8   4   8   4   8   8   8
#     4  11  22  36  55  79 109 144 185 227 268 320
#     4  10  18  31  51  73 102 148 192 228 267 308
#     4  10  19  31  50  75 107 146 181 217 263 313
#     4  10  20  33  51  75 104 140 184 234 277 312
#     4  10  20  35  57  83 110 141 177 219 271 327
#     4  10  21  38  59  82 109 139 174 221 276 330
#     4  10  19  32  52  78 109 144 184 222 261 314
#
# _framework density 17.587392999999999
#
# number of rings (size 3 to 8) (size 9 to 14) (size 15 to 20)
#    0.000    1.833    3.333    1.000    0.000    3.833 
#    0.000    6.667    0.000    3.000    0.000    0.000 
#    0.000    4.000    0.000    0.000    0.000    0.000 
#
# Total GULP energy -267853.545273 kJ/mol
# GULP energy per Si atom -5580.282193 kJ/mol
# Density = 1.754736 g / cm^3
# Si number density = 17.587393 Si / 1000 Ang^3
#
#
#
# Elastic Constant Matrix: (Units=GPa)
#
#
# Indices 1 2 3 4 5 6 
#
# 1 45.6910 33.6809 29.3499 0.0000 0.0000 0.0000
# 2 33.6809 93.8030 64.8281 0.0000 0.0000 0.0000
# 3 29.3499 64.8281 128.1038 0.0000 0.0000 0.0000
# 4 0.0000 0.0000 0.0000 -0.2496 0.0000 0.0000
# 5 0.0000 0.0000 0.0000 0.0000 18.0542 0.0000
# 6 0.0000 0.0000 0.0000 0.0000 0.0000 12.9472
#
#
#
# Elastic Compliance Matrix: (Units=1/GPa)
#
#
# Indices 1 2 3 4 5 6 
#
# 1 0.030162 -0.009310 -0.002199 0.000000 0.000000 0.000000
# 2 -0.009310 0.019268 -0.007618 0.000000 0.000000 0.000000
# 3 -0.002199 -0.007618 0.012165 0.000000 0.000000 0.000000
# 4 0.000000 0.000000 0.000000 -4.006571 0.000000 0.000000
# 5 0.000000 0.000000 0.000000 0.000000 0.055389 0.000000
# 6 0.000000 0.000000 0.000000 0.000000 0.000000 0.077237
#
#
# Mechanical properties :
#
#
# Convention : Reuss Voigt Hill
#
# Bulk Modulus (GPa) = 42.84273 58.14618 50.49445
# Shear Modulus (GPa) = -1.32756 15.46628 7.06936
#
# Velocity S-wave (km/s) = -0.86975 2.96868 2.00706
# Velocity P-wave (km/s) = 4.83778 6.69954 5.84328
#
# Compressibility (1/GPa) = 0.02334118
#
# Stress axis : x y z
#
# Youngs Moduli (GPa) = 33.15483 51.89873 82.20296
#
# Poissons Ratio (x) = 0.48319 0.18075
# Poissons Ratio (y) = 0.30868 0.62621
# Poissons Ratio (z) = 0.07290 0.39536
#
# Static dielectric constant tensor:
#      x y z
#    x 1.599870 0.000000 0.000000 
#    y 0.000000 1.587190 0.000000 
#    z 0.000000 0.000000 1.602910 
# 
# From -- ./inp_files/17608.got.cif
#   From: 2010.05.17/outbox.cif.g08.bks.cpg/sg47_9_cif.got.tgz:17608.got - 2010.06.03 20:15:42.
