data_PCOD9382979
_publ_section_title
;
Structure prediction by ZEFSAII (Michael W. Deem and Ramdas Pophale) SiO2 
 PCOD9382979
Probable space group: P M M M
;
_chemical_formula_sum "Si O2"
_cell_formula_units_Z 40
_cell_length_a 18.917213
_cell_length_b 18.893097
_cell_length_c 7.973188
_cell_angle_alpha 90.000000
_cell_angle_beta 90.000000
_cell_angle_gamma 90.000000
_cell_volume 2849.655186
_symmetry_space_group_name_H-M "P M M M"
_symmetry_group_IT_number 47
_symmetry_cell_setting 'orthorhombic'
loop_
_space_group_symop_operation_xyz
x,y,z
-x,-y,z
x,-y,-z
-x,y,-z
-x,-y,-z
x,y,-z
-x,y,z
x,-y,z
loop_
_atom_site_type_symbol
_atom_site_label
_atom_site_fract_x
_atom_site_fract_y
_atom_site_fract_z
Si Si1 0.083061 0.423616 0.701908
Si Si2 0.580806 0.914017 0.000000
Si Si3 0.171142 0.137083 0.199729
Si Si4 0.321228 0.915170 0.689176
Si Si5 0.917799 0.000000 0.298028
Si Si6 0.081014 0.729958 0.200506
O O1 0.085916 0.422826 0.500000
O O2 0.112797 0.500000 0.758845
O O3 0.110824 0.348422 0.763909
O O4 0.000000 0.423631 0.751023
O O5 0.624056 0.893368 0.166391
O O6 0.500000 0.888814 0.000000
O O7 0.578718 0.000000 0.000000
O O8 0.246303 0.122627 0.284459
O O9 0.130430 0.206850 0.262932
O O10 0.121437 0.069510 0.231724
O O11 0.183206 0.143334 0.000000
O O12 0.347525 0.903264 0.500000
O O13 0.308693 0.000000 0.708070
O O14 0.913383 0.000000 0.500000
O O15 0.000000 0.000000 0.248744
O O16 0.000000 0.734888 0.267179
O O17 0.076515 0.738067 0.000000
#
# Coordination Sequence:
#
# PCOD9382979 Si02
#       6
#     8   4   8   8   4   8
#     4   8  14  25  40  56  74  98 129 168 217 266
#     4   9  18  32  50  70  88 108 135 170 215 257
#     4  11  20  31  45  58  80 112 147 182 222 264
#     4  10  19  31  47  66  87 112 143 175 213 261
#     4  11  23  33  41  57  77 104 149 195 229 263
#     4   9  18  29  40  57  79 104 140 185 223 256
#
# _framework density 14.036785999999999
#
# number of rings (size 3 to 8) (size 9 to 14) (size 15 to 20)
#    0.000    2.400    2.000    2.100    0.000    4.000 
#    0.000    6.000    0.000    0.000    0.000    0.000 
#    0.000    0.000    0.000    0.000    0.000    2.000 
#
# Total GULP energy -222877.261903 kJ/mol
# GULP energy per Si atom -5571.931548 kJ/mol
# Density = 1.400484 g / cm^3
# Si number density = 14.036786 Si / 1000 Ang^3
#
#
#
# Elastic Constant Matrix: (Units=GPa)
#
#
# Indices 1 2 3 4 5 6 
#
# 1 79.9260 36.4067 32.7197 0.0000 0.0000 0.0000
# 2 36.4067 99.8660 18.2019 0.0000 0.0000 0.0000
# 3 32.7197 18.2019 56.3334 0.0000 0.0000 0.0000
# 4 0.0000 0.0000 0.0000 20.5742 0.0000 0.0000
# 5 0.0000 0.0000 0.0000 0.0000 8.2567 0.0000
# 6 0.0000 0.0000 0.0000 0.0000 0.0000 1.1676
#
#
#
# Elastic Compliance Matrix: (Units=1/GPa)
#
#
# Indices 1 2 3 4 5 6 
#
# 1 0.018580 -0.005107 -0.009142 0.000000 0.000000 0.000000
# 2 -0.005107 0.012044 -0.000925 0.000000 0.000000 0.000000
# 3 -0.009142 -0.000925 0.023360 0.000000 0.000000 0.000000
# 4 0.000000 0.000000 0.000000 0.048605 0.000000 0.000000
# 5 0.000000 0.000000 0.000000 0.000000 0.121114 0.000000
# 6 0.000000 0.000000 0.000000 0.000000 0.000000 0.856476
#
#
# Mechanical properties :
#
#
# Convention : Reuss Voigt Hill
#
# Bulk Modulus (GPa) = 42.30798 45.64243 43.97521
# Shear Modulus (GPa) = 4.47065 15.91949 10.19507
#
# Velocity S-wave (km/s) = 1.78658 3.37133 2.69794
# Velocity P-wave (km/s) = 5.87044 6.90951 6.41106
#
# Compressibility (1/GPa) = 0.02363620
#
# Stress axis : x y z
#
# Youngs Moduli (GPa) = 53.82021 83.02924 42.80818
#
# Poissons Ratio (x) = 0.42406 0.39134
# Poissons Ratio (y) = 0.27488 0.03960
# Poissons Ratio (z) = 0.49201 0.07680
#
# Static dielectric constant tensor:
#      x y z
#    x 1.435360 0.000000 0.000000 
#    y 0.000000 1.473850 0.000000 
#    z 0.000000 0.000000 1.499400 
# 
# From -- ./inp_files/9371.got.cif
#   From: 2010.05.17/outbox.cif.g08.bks.cpg/sg47_5_cif.got.tgz:9371.got - 2010.06.03 20:15:42.
