data_PCOD9382537
_publ_section_title
;
Structure prediction by ZEFSAII (Michael W. Deem and Ramdas Pophale) SiO2 
 PCOD9382537
Probable space group: P M M M
;
_chemical_formula_sum "Si O2"
_cell_formula_units_Z 56
_cell_length_a 8.480308
_cell_length_b 30.381817
_cell_length_c 14.197787
_cell_angle_alpha 90.000000
_cell_angle_beta 90.000000
_cell_angle_gamma 90.000000
_cell_volume 3658.019581
_symmetry_space_group_name_H-M "P M M M"
_symmetry_group_IT_number 47
_symmetry_cell_setting 'orthorhombic'
loop_
_space_group_symop_operation_xyz
x,y,z
-x,-y,z
x,-y,-z
-x,y,-z
-x,-y,-z
x,y,-z
-x,y,z
x,-y,z
loop_
_atom_site_type_symbol
_atom_site_label
_atom_site_fract_x
_atom_site_fract_y
_atom_site_fract_z
Si Si1 0.690262 0.549789 0.109328
Si Si2 0.688951 0.277540 0.107095
Si Si3 0.811219 0.635741 0.207683
Si Si4 0.188683 0.770947 0.287013
Si Si5 0.686979 0.047325 0.386009
Si Si6 0.808033 0.317212 0.394302
Si Si7 0.690892 0.143591 0.390535
O O1 0.500000 0.551473 0.112773
O O2 0.738732 0.500000 0.135389
O O3 0.757929 0.588182 0.173345
O O4 0.736431 0.557131 0.000000
O O5 0.500000 0.276114 0.109447
O O6 0.743098 0.325935 0.140851
O O7 0.754268 0.243195 0.183527
O O8 0.742047 0.269419 0.000000
O O9 0.759579 0.648252 0.313898
O O10 0.000000 0.638825 0.203982
O O11 0.239589 0.730976 0.356310
O O12 0.252688 0.816685 0.326120
O O13 0.000000 0.771959 0.287284
O O14 0.697491 0.047745 0.500000
O O15 0.500000 0.046719 0.363565
O O16 0.749061 0.095236 0.356863
O O17 0.754322 0.000000 0.353737
O O18 0.750960 0.325407 0.500000
O O19 0.000000 0.317544 0.396650
O O20 0.740379 0.150309 0.500000
O O21 0.500000 0.142445 0.390563
#
# Coordination Sequence:
#
# PCOD9382537 Si02
#       7
#     8   8   8   8   8   8   8
#     4   9  18  32  48  65  87 116 145 172 209 257
#     4  10  20  33  48  64  85 114 143 172 210 257
#     4  10  19  29  46  71  92 112 140 174 211 250
#     4  10  19  29  43  63  86 113 145 181 218 255
#     4   7  10  18  33  53  77 107 144 182 216 249
#     4   8  15  28  43  59  82 112 143 172 202 239
#     4   9  16  25  39  60  86 116 149 184 218 253
#
# _framework density 15.30883
#
# number of rings (size 3 to 8) (size 9 to 14) (size 15 to 20)
#    0.000    3.000    0.000    4.714    0.000    4.286 
#    0.000    0.714    0.000    9.429    0.000    5.000 
#    0.000    0.571    0.000    6.571    0.000    2.143 
#
# Total GULP energy -311807.603296 kJ/mol
# GULP energy per Si atom -5567.992916 kJ/mol
# Density = 1.527399 g / cm^3
# Si number density = 15.308830 Si / 1000 Ang^3
#
#
#
# Elastic Constant Matrix: (Units=GPa)
#
#
# Indices 1 2 3 4 5 6 
#
# 1 17.0965 21.5712 17.4702 0.0000 0.0000 0.0000
# 2 21.5712 154.9934 75.4194 0.0000 0.0000 0.0000
# 3 17.4702 75.4194 105.2302 0.0000 0.0000 0.0000
# 4 0.0000 0.0000 0.0000 20.4012 0.0000 0.0000
# 5 0.0000 0.0000 0.0000 0.0000 14.1188 0.0000
# 6 0.0000 0.0000 0.0000 0.0000 0.0000 -0.0982
#
#
#
# Elastic Compliance Matrix: (Units=1/GPa)
#
#
# Indices 1 2 3 4 5 6 
#
# 1 0.074712 -0.006699 -0.007603 0.000000 0.000000 0.000000
# 2 -0.006699 0.010508 -0.006419 0.000000 0.000000 0.000000
# 3 -0.007603 -0.006419 0.015365 0.000000 0.000000 0.000000
# 4 0.000000 0.000000 0.000000 0.049017 0.000000 0.000000
# 5 0.000000 0.000000 0.000000 0.000000 0.070827 0.000000
# 6 0.000000 0.000000 0.000000 0.000000 0.000000-10.182770
#
#
# Mechanical properties :
#
#
# Convention : Reuss Voigt Hill
#
# Bulk Modulus (GPa) = 16.90757 56.24909 36.57833
# Shear Modulus (GPa) = -0.50499 17.74166 8.61833
#
# Velocity S-wave (km/s) = -0.57496 3.40798 2.37526
# Velocity P-wave (km/s) = 3.25999 7.23246 5.60963
#
# Compressibility (1/GPa) = 0.05914512
#
# Stress axis : x y z
#
# Youngs Moduli (GPa) = 13.38471 95.17009 65.08086
#
# Poissons Ratio (x) = 0.63751 0.49479
# Poissons Ratio (y) = 0.08966 0.41774
# Poissons Ratio (z) = 0.10176 0.61087
#
# Static dielectric constant tensor:
#      x y z
#    x 1.527010 0.000000 0.000000 
#    y 0.000000 1.523680 0.000000 
#    z 0.000000 0.000000 1.498730 
# 
# From -- ./inp_files/8120.got.cif
#   From: 2010.05.17/outbox.cif.g08.bks.cpg/sg47_5_cif.got.tgz:8120.got - 2010.06.03 20:15:42.
