data_PCOD9382482
_publ_section_title
;
Structure prediction by ZEFSAII (Michael W. Deem and Ramdas Pophale) SiO2 
 PCOD9382482
Probable space group: P M M M
;
_chemical_formula_sum "Si O2"
_cell_formula_units_Z 56
_cell_length_a 7.802177
_cell_length_b 14.287631
_cell_length_c 30.496872
_cell_angle_alpha 90.000000
_cell_angle_beta 90.000000
_cell_angle_gamma 90.000000
_cell_volume 3399.627400
_symmetry_space_group_name_H-M "P M M M"
_symmetry_group_IT_number 47
_symmetry_cell_setting 'orthorhombic'
loop_
_space_group_symop_operation_xyz
x,y,z
-x,-y,z
x,-y,-z
-x,y,-z
-x,-y,-z
x,y,-z
-x,y,z
x,-y,z
loop_
_atom_site_type_symbol
_atom_site_label
_atom_site_fract_x
_atom_site_fract_y
_atom_site_fract_z
Si Si1 0.790766 0.108344 0.450754
Si Si2 0.793822 0.213808 0.365113
Si Si3 0.796706 0.386661 0.952824
Si Si4 0.296353 0.714044 0.229636
Si Si5 0.205845 0.894628 0.278502
Si Si6 0.706499 0.605553 0.684284
Si Si7 0.205853 0.606900 0.857708
O O1 0.734809 0.134166 0.500000
O O2 0.730349 0.174027 0.411346
O O3 0.000000 0.110529 0.450882
O O4 0.742634 0.000000 0.442602
O O5 0.729719 0.150967 0.324150
O O6 0.751063 0.320484 0.353452
O O7 0.000000 0.205599 0.365471
O O8 0.784582 0.500000 0.952192
O O9 0.727478 0.357800 0.905169
O O10 0.000000 0.364159 0.953697
O O11 0.723696 0.355036 0.000000
O O12 0.500000 0.709071 0.231735
O O13 0.245613 0.820256 0.240540
O O14 0.227793 0.650085 0.269884
O O15 0.243362 0.672797 0.183125
O O16 0.000000 0.899467 0.281932
O O17 0.270673 0.000000 0.272020
O O18 0.500000 0.601863 0.686915
O O19 0.769916 0.500000 0.677959
O O20 0.268456 0.500000 0.849681
O O21 0.000000 0.601086 0.861816
#
# Coordination Sequence:
#
# PCOD9382482 Si02
#       7
#     8   8   8   8   8   8   8
#     4   8  13  22  39  64  90 110 126 150 191 242
#     4   9  16  26  43  66  85 102 130 165 197 231
#     4   7  10  18  33  53  76 102 133 167 200 233
#     4  10  19  29  41  58  81 108 137 168 202 241
#     4   9  17  29  44  61  82 106 131 163 201 238
#     4   9  18  31  43  55  76 108 141 169 199 235
#     4   9  16  25  39  59  82 109 140 172 203 235
#
# _framework density 16.472393
#
# number of rings (size 3 to 8) (size 9 to 14) (size 15 to 20)
#    0.000    3.286    0.000    3.000    0.000    3.714 
#    0.000    0.000    0.000    2.571    0.000    6.000 
#    0.000    0.571    0.000    6.571    0.000    2.143 
#
# Total GULP energy -311748.811140 kJ/mol
# GULP energy per Si atom -5566.943056 kJ/mol
# Density = 1.643490 g / cm^3
# Si number density = 16.472393 Si / 1000 Ang^3
#
#
#
# Elastic Constant Matrix: (Units=GPa)
#
#
# Indices 1 2 3 4 5 6 
#
# 1 20.5028 6.2613 5.7222 0.0000 0.0000 0.0000
# 2 6.2613 122.8231 89.1882 0.0000 0.0000 0.0000
# 3 5.7222 89.1882 154.8075 0.0000 0.0000 0.0000
# 4 0.0000 0.0000 0.0000 19.5934 0.0000 0.0000
# 5 0.0000 0.0000 0.0000 0.0000 -2.7902 0.0000
# 6 0.0000 0.0000 0.0000 0.0000 0.0000 -14.0146
#
#
#
# Elastic Compliance Matrix: (Units=1/GPa)
#
#
# Indices 1 2 3 4 5 6 
#
# 1 0.049583 -0.002058 -0.000647 0.000000 0.000000 0.000000
# 2 -0.002058 0.014083 -0.008038 0.000000 0.000000 0.000000
# 3 -0.000647 -0.008038 0.011114 0.000000 0.000000 0.000000
# 4 0.000000 0.000000 0.000000 0.051038 0.000000 0.000000
# 5 0.000000 0.000000 0.000000 0.000000 -0.358396 0.000000
# 6 0.000000 0.000000 0.000000 0.000000 0.000000 -0.071354
#
#
# Mechanical properties :
#
#
# Convention : Reuss Voigt Hill
#
# Bulk Modulus (GPa) = 18.76339 55.60854 37.18597
# Shear Modulus (GPa) = -18.89060 13.68849 -2.60106
#
# Velocity S-wave (km/s) = -3.39012 2.88583 -1.25796
# Velocity P-wave (km/s) = 1.97696 6.70343 4.52921
#
# Compressibility (1/GPa) = 0.05329528
#
# Stress axis : x y z
#
# Youngs Moduli (GPa) = 20.16824 71.00652 89.97484
#
# Poissons Ratio (x) = 0.14610 0.05824
# Poissons Ratio (y) = 0.04150 0.72318
# Poissons Ratio (z) = 0.01306 0.57072
#
# Static dielectric constant tensor:
#      x y z
#    x 1.600300 0.000000 0.000000 
#    y 0.000000 1.542190 0.000000 
#    z 0.000000 0.000000 1.592450 
# 
# From -- ./inp_files/34377.got.cif
#   From: 2010.05.17/outbox.cif.g08.bks.cpg/sg47_18_cif.got.tgz:34377.got - 2010.06.03 20:15:42.
