data_PCOD9382519
_publ_section_title
;
Structure prediction by ZEFSAII (Michael W. Deem and Ramdas Pophale) SiO2 
 PCOD9382519
Probable space group: P M M M
;
_chemical_formula_sum "Si O2"
_cell_formula_units_Z 64
_cell_length_a 24.567240
_cell_length_b 19.862588
_cell_length_c 7.918319
_cell_angle_alpha 90.000000
_cell_angle_beta 90.000000
_cell_angle_gamma 90.000000
_cell_volume 3863.893938
_symmetry_space_group_name_H-M "P M M M"
_symmetry_group_IT_number 47
_symmetry_cell_setting 'orthorhombic'
loop_
_space_group_symop_operation_xyz
x,y,z
-x,-y,z
x,-y,-z
-x,y,-z
-x,-y,-z
x,y,-z
-x,y,z
x,-y,z
loop_
_atom_site_type_symbol
_atom_site_label
_atom_site_fract_x
_atom_site_fract_y
_atom_site_fract_z
Si Si1 0.438599 0.423597 0.203281
Si Si2 0.882425 0.074660 0.205914
Si Si3 0.061632 0.211821 0.207252
Si Si4 0.731448 0.781957 0.700716
Si Si5 0.332569 0.653917 0.701075
Si Si6 0.243890 0.925615 0.203385
Si Si7 0.837643 0.296878 0.200307
Si Si8 0.225863 0.424750 0.202282
O O1 0.500000 0.407336 0.261908
O O2 0.425335 0.500000 0.261946
O O3 0.392124 0.371502 0.252160
O O4 0.439904 0.425709 0.000000
O O5 0.918244 0.137650 0.261125
O O6 0.819292 0.082737 0.258364
O O7 0.900941 0.000000 0.258867
O O8 0.882572 0.075212 0.000000
O O9 0.106531 0.265525 0.267161
O O10 0.000000 0.225258 0.260423
O O11 0.062479 0.212105 0.000000
O O12 0.736287 0.775477 0.500000
O O13 0.685937 0.728433 0.760343
O O14 0.723285 0.860022 0.741727
O O15 0.788688 0.756490 0.776909
O O16 0.328646 0.653253 0.500000
O O17 0.286741 0.602572 0.767971
O O18 0.262271 0.000000 0.260805
O O19 0.243483 0.926187 0.000000
O O20 0.814983 0.367443 0.271092
O O21 0.845241 0.306105 0.000000
O O22 0.218687 0.500000 0.270355
O O23 0.218320 0.427483 0.000000
#
# Coordination Sequence:
#
# PCOD9382519 Si02
#       8
#     8   8   8   8   8   8   8   8
#     4   9  18  32  48  66  91 124 158 186 211 245
#     4   8  13  21  34  54  78 100 126 163 202 243
#     4   9  15  22  36  57  77 100 133 172 212 254
#     4  10  19  29  42  62  88 114 142 176 214 256
#     4  10  20  30  42  65  93 118 146 181 216 250
#     4   9  16  27  44  63  83 110 144 177 210 254
#     4   9  16  28  43  57  78 105 135 173 215 260
#     4   9  17  28  43  61  80 107 141 176 217 263
#
# _framework density 16.563601999999999
#
# number of rings (size 3 to 8) (size 9 to 14) (size 15 to 20)
#    0.000    2.875    1.250    2.250    0.000    4.250 
#    0.000    1.875    0.000    0.750    0.000    2.625 
#    0.000    2.500    0.000   11.750    0.000   10.500 
#
# Total GULP energy -356546.357801 kJ/mol
# GULP energy per Si atom -5571.036841 kJ/mol
# Density = 1.652590 g / cm^3
# Si number density = 16.563602 Si / 1000 Ang^3
#
#
#
# Elastic Constant Matrix: (Units=GPa)
#
#
# Indices 1 2 3 4 5 6 
#
# 1 99.7397 76.5923 4.8975 0.0000 0.0000 0.0000
# 2 76.5923 149.0362 5.4654 0.0000 0.0000 0.0000
# 3 4.8975 5.4654 14.3091 0.0000 0.0000 0.0000
# 4 0.0000 0.0000 0.0000 2.3918 0.0000 0.0000
# 5 0.0000 0.0000 0.0000 0.0000 -26.5189 0.0000
# 6 0.0000 0.0000 0.0000 0.0000 0.0000 25.7318
#
#
#
# Elastic Compliance Matrix: (Units=1/GPa)
#
#
# Indices 1 2 3 4 5 6 
#
# 1 0.016648 -0.008465 -0.002465 0.000000 0.000000 0.000000
# 2 -0.008465 0.011110 -0.001346 0.000000 0.000000 0.000000
# 3 -0.002465 -0.001346 0.071243 0.000000 0.000000 0.000000
# 4 0.000000 0.000000 0.000000 0.418091 0.000000 0.000000
# 5 0.000000 0.000000 0.000000 0.000000 -0.037709 0.000000
# 6 0.000000 0.000000 0.000000 0.000000 0.000000 0.038862
#
#
# Mechanical properties :
#
#
# Convention : Reuss Voigt Hill
#
# Bulk Modulus (GPa) = 13.43202 48.55506 30.99354
# Shear Modulus (GPa) = 8.80882 12.06293 10.43587
#
# Velocity S-wave (km/s) = 2.30862 2.70159 2.51280
# Velocity P-wave (km/s) = 3.90298 6.25375 5.21261
#
# Compressibility (1/GPa) = 0.07444898
#
# Stress axis : x y z
#
# Youngs Moduli (GPa) = 60.06838 90.01284 14.03639
#
# Poissons Ratio (x) = 0.76197 0.03460
# Poissons Ratio (y) = 0.50849 0.01889
# Poissons Ratio (z) = 0.14805 0.12115
#
# Static dielectric constant tensor:
#      x y z
#    x 1.541130 0.000000 0.000000 
#    y 0.000000 1.597040 0.000000 
#    z 0.000000 0.000000 1.596810 
# 
# From -- ./inp_files/12917.got.cif
#   From: 2010.05.17/outbox.cif.g08.bks.cpg/sg47_7_cif.got.tgz:12917.got - 2010.06.03 20:15:42.
