data_PCOD9382089
_publ_section_title
;
Structure prediction by ZEFSAII (Michael W. Deem and Ramdas Pophale) SiO2 
 PCOD9382089
Probable space group: P M M M
;
_chemical_formula_sum "Si O2"
_cell_formula_units_Z 52
_cell_length_a 8.665635
_cell_length_b 22.630606
_cell_length_c 15.179315
_cell_angle_alpha 90.000000
_cell_angle_beta 90.000000
_cell_angle_gamma 90.000000
_cell_volume 2976.793780
_symmetry_space_group_name_H-M "P M M M"
_symmetry_group_IT_number 47
_symmetry_cell_setting 'orthorhombic'
loop_
_space_group_symop_operation_xyz
x,y,z
-x,-y,z
x,-y,-z
-x,y,-z
-x,-y,-z
x,y,-z
-x,y,z
x,-y,z
loop_
_atom_site_type_symbol
_atom_site_label
_atom_site_fract_x
_atom_site_fract_y
_atom_site_fract_z
Si Si1 0.184751 0.432353 0.000000
Si Si2 0.315440 0.644089 0.158163
Si Si3 0.183929 0.568873 0.686422
Si Si4 0.687996 0.000000 0.897916
Si Si5 0.313283 0.886735 0.218051
Si Si6 0.311824 0.775096 0.897942
Si Si7 0.813903 0.930631 0.400227
Si Si8 0.325106 0.571186 0.500000
O O1 0.246817 0.398081 0.916100
O O2 0.237543 0.500000 0.000000
O O3 0.000000 0.431850 0.000000
O O4 0.500000 0.643515 0.152937
O O5 0.261303 0.615162 0.248556
O O6 0.263806 0.711100 0.138591
O O7 0.232537 0.500000 0.703171
O O8 0.233779 0.585810 0.588099
O O9 0.000000 0.570467 0.696225
O O10 0.735353 0.942315 0.842735
O O11 0.500000 0.000000 0.900416
O O12 0.739796 0.000000 0.000000
O O13 0.500000 0.886828 0.221570
O O14 0.262628 0.827590 0.167001
O O15 0.252570 0.895223 0.317267
O O16 0.500000 0.776067 0.899409
O O17 0.262203 0.782797 0.000000
O O18 0.766078 0.912501 0.500000
O O19 0.000000 0.927616 0.397372
O O20 0.770397 0.000000 0.389661
O O21 0.335481 0.500000 0.500000
O O22 0.500000 0.594649 0.500000
#
# Coordination Sequence:
#
# PCOD9382089 Si02
#       8
#     4   8   8   4   8   8   8   4
#     4  11  23  37  53  77 109 140 173 222 278 322
#     4  11  21  35  55  77 103 140 184 222 261 315
#     4  10  20  34  53  79 110 140 169 212 271 322
#     4   9  16  26  44  77 110 134 165 209 258 305
#     4  10  18  30  53  81 105 133 174 219 260 304
#     4   9  18  34  54  76 104 139 176 216 261 311
#     4   9  18  33  52  74 105 143 174 208 264 323
#     4   9  17  31  53  81 109 137 173 214 257 316
#
# _framework density 17.468458999999999
#
# number of rings (size 3 to 8) (size 9 to 14) (size 15 to 20)
#    0.000    2.231    1.538    2.769    0.000    6.462 
#    0.000    2.308    1.692    1.846    0.000    0.000 
#    0.000    0.000    0.000    0.000    0.000    0.000 
#
# Total GULP energy -290015.901260 kJ/mol
# GULP energy per Si atom -5577.228870 kJ/mol
# Density = 1.742870 g / cm^3
# Si number density = 17.468459 Si / 1000 Ang^3
#
#
#
# Elastic Constant Matrix: (Units=GPa)
#
#
# Indices 1 2 3 4 5 6 
#
# 1 22.4356 28.5169 21.3407 0.0000 0.0000 0.0000
# 2 28.5169 147.0823 95.5871 0.0000 0.0000 0.0000
# 3 21.3407 95.5871 175.0092 0.0000 0.0000 0.0000
# 4 0.0000 0.0000 0.0000 54.3558 0.0000 0.0000
# 5 0.0000 0.0000 0.0000 0.0000 24.9595 0.0000
# 6 0.0000 0.0000 0.0000 0.0000 0.0000 8.9314
#
#
#
# Elastic Compliance Matrix: (Units=1/GPa)
#
#
# Indices 1 2 3 4 5 6 
#
# 1 0.059394 -0.010555 -0.001477 0.000000 0.000000 0.000000
# 2 -0.010555 0.012416 -0.005494 0.000000 0.000000 0.000000
# 3 -0.001477 -0.005494 0.008895 0.000000 0.000000 0.000000
# 4 0.000000 0.000000 0.000000 0.018397 0.000000 0.000000
# 5 0.000000 0.000000 0.000000 0.000000 0.040065 0.000000
# 6 0.000000 0.000000 0.000000 0.000000 0.000000 0.111964
#
#
# Mechanical properties :
#
#
# Convention : Reuss Voigt Hill
#
# Bulk Modulus (GPa) = 21.90543 70.60182 46.25363
# Shear Modulus (GPa) = 16.58912 30.92151 23.75531
#
# Velocity S-wave (km/s) = 3.08500 4.21186 3.69168
# Velocity P-wave (km/s) = 5.02562 8.00984 6.68634
#
# Compressibility (1/GPa) = 0.04565079
#
# Stress axis : x y z
#
# Youngs Moduli (GPa) = 16.83680 80.54011 112.42191
#
# Poissons Ratio (x) = 0.85013 0.16608
# Poissons Ratio (y) = 0.17772 0.61769
# Poissons Ratio (z) = 0.02487 0.44252
#
# Static dielectric constant tensor:
#      x y z
#    x 1.595880 0.000000 0.000000 
#    y 0.000000 1.583250 0.000000 
#    z 0.000000 0.000000 1.617280 
# 
# From -- ./inp_files/21525.got.cif
#   From: 2010.05.17/outbox.cif.g08.bks.cpg/sg47_11_cif.got.tgz:21525.got - 2010.06.03 20:15:42.
