data_PCOD9382014
_publ_section_title
;
Structure prediction by ZEFSAII (Michael W. Deem and Ramdas Pophale) SiO2 
 PCOD9382014
Probable space group: P M M M
;
_chemical_formula_sum "Si O2"
_cell_formula_units_Z 52
_cell_length_a 14.814714
_cell_length_b 24.106939
_cell_length_c 8.660077
_cell_angle_alpha 90.000000
_cell_angle_beta 90.000000
_cell_angle_gamma 90.000000
_cell_volume 3092.837442
_symmetry_space_group_name_H-M "P M M M"
_symmetry_group_IT_number 47
_symmetry_cell_setting 'orthorhombic'
loop_
_space_group_symop_operation_xyz
x,y,z
-x,-y,z
x,-y,-z
-x,y,-z
-x,-y,-z
x,y,-z
-x,y,z
x,-y,z
loop_
_atom_site_type_symbol
_atom_site_label
_atom_site_fract_x
_atom_site_fract_y
_atom_site_fract_z
Si Si1 0.101555 0.604557 0.315378
Si Si2 0.390577 0.000000 0.822031
Si Si3 0.898658 0.728637 0.185743
Si Si4 0.284500 0.439003 0.186223
Si Si5 0.287860 0.778627 0.813692
Si Si6 0.395401 0.882436 0.684424
Si Si7 0.396143 0.331873 0.811600
O O1 0.107341 0.600901 0.500000
O O2 0.112741 0.668556 0.263310
O O3 0.182318 0.570524 0.240623
O O4 0.000000 0.587308 0.268231
O O5 0.362991 0.057374 0.742448
O O6 0.500000 0.000000 0.815358
O O7 0.362766 0.000000 0.000000
O O8 0.816378 0.768347 0.230686
O O9 0.000000 0.748834 0.221484
O O10 0.892744 0.720343 0.000000
O O11 0.316482 0.500000 0.236171
O O12 0.344950 0.387400 0.241292
O O13 0.286063 0.437606 0.000000
O O14 0.333935 0.832933 0.745846
O O15 0.342940 0.723517 0.764971
O O16 0.292386 0.781988 0.000000
O O17 0.395718 0.882326 0.500000
O O18 0.500000 0.874407 0.737462
O O19 0.500000 0.330491 0.761537
O O20 0.395516 0.332581 0.000000
#
# Coordination Sequence:
#
# PCOD9382014 Si02
#       7
#     8   4   8   8   8   8   8
#     4  10  20  33  50  71  95 122 151 191 247 305
#     4   9  17  31  51  73 100 137 178 213 245 284
#     4   9  17  31  52  75  99 126 158 199 245 293
#     4  10  20  34  51  70  92 122 162 203 245 295
#     4  10  18  30  50  74 100 130 164 202 244 292
#     4  10  20  32  47  72 107 142 173 206 244 285
#     4   9  17  30  48  71  97 123 156 202 249 289
#
# _framework density 16.813039
#
# number of rings (size 3 to 8) (size 9 to 14) (size 15 to 20)
#    0.000    2.385    1.538    1.615    0.000    4.923 
#    0.000    3.077    0.000    0.462    0.000    1.615 
#    0.000    4.308    0.000    0.000    0.000    0.000 
#
# Total GULP energy -290002.409880 kJ/mol
# GULP energy per Si atom -5576.969421 kJ/mol
# Density = 1.677477 g / cm^3
# Si number density = 16.813039 Si / 1000 Ang^3
#
#
#
# Elastic Constant Matrix: (Units=GPa)
#
#
# Indices 1 2 3 4 5 6 
#
# 1 103.3277 70.5817 19.2966 0.0000 0.0000 0.0000
# 2 70.5817 142.7581 27.5418 0.0000 0.0000 0.0000
# 3 19.2966 27.5418 11.8103 0.0000 0.0000 0.0000
# 4 0.0000 0.0000 0.0000 -3.3163 0.0000 0.0000
# 5 0.0000 0.0000 0.0000 0.0000 14.6408 0.0000
# 6 0.0000 0.0000 0.0000 0.0000 0.0000 25.5060
#
#
#
# Elastic Compliance Matrix: (Units=1/GPa)
#
#
# Indices 1 2 3 4 5 6 
#
# 1 0.015756 -0.005133 -0.013774 0.000000 0.000000 0.000000
# 2 -0.005133 0.014406 -0.025208 0.000000 0.000000 0.000000
# 3 -0.013774 -0.025208 0.165964 0.000000 0.000000 0.000000
# 4 0.000000 0.000000 0.000000 -0.301545 0.000000 0.000000
# 5 0.000000 0.000000 0.000000 0.000000 0.068302 0.000000
# 6 0.000000 0.000000 0.000000 0.000000 0.000000 0.039206
#
#
# Mechanical properties :
#
#
# Convention : Reuss Voigt Hill
#
# Bulk Modulus (GPa) = 9.26830 54.74849 32.00840
# Shear Modulus (GPa) = 39.59268 16.73118 28.16193
#
# Velocity S-wave (km/s) = 4.85797 3.15799 4.09712
# Velocity P-wave (km/s) = 6.08203 6.77724 6.43903
#
# Compressibility (1/GPa) = 0.10789470
#
# Stress axis : x y z
#
# Youngs Moduli (GPa) = 63.46597 69.41572 6.02542
#
# Poissons Ratio (x) = 0.35630 0.08300
# Poissons Ratio (y) = 0.32576 0.15189
# Poissons Ratio (z) = 0.87421 1.74986
#
# Static dielectric constant tensor:
#      x y z
#    x 1.572760 0.000000 0.000000 
#    y 0.000000 1.551620 0.000000 
#    z 0.000000 0.000000 1.566700 
# 
# From -- ./inp_files/7082.got.cif
#   From: 2010.05.17/outbox.cif.g08.bks.cpg/sg47_4_cif.got.tgz:7082.got - 2010.06.03 20:15:42.
