data_PCOD9382993
_publ_section_title
;
Structure prediction by ZEFSAII (Michael W. Deem and Ramdas Pophale) SiO2 
 PCOD9382993
Probable space group: P M M M
;
_chemical_formula_sum "Si O2"
_cell_formula_units_Z 40
_cell_length_a 25.198078
_cell_length_b 9.079276
_cell_length_c 10.454367
_cell_angle_alpha 90.000000
_cell_angle_beta 90.000000
_cell_angle_gamma 90.000000
_cell_volume 2391.753269
_symmetry_space_group_name_H-M "P M M M"
_symmetry_group_IT_number 47
_symmetry_cell_setting 'orthorhombic'
loop_
_space_group_symop_operation_xyz
x,y,z
-x,-y,z
x,-y,-z
-x,y,-z
-x,-y,-z
x,y,-z
-x,y,z
x,-y,z
loop_
_atom_site_type_symbol
_atom_site_label
_atom_site_fract_x
_atom_site_fract_y
_atom_site_fract_z
Si Si1 0.380021 0.177360 0.760468
Si Si2 0.834744 0.831315 0.844332
Si Si3 0.941173 0.672210 0.155500
Si Si4 0.560924 0.821188 0.500000
Si Si5 0.436448 0.671966 0.000000
Si Si6 0.274186 0.674460 0.153464
O O1 0.407665 0.221575 0.627569
O O2 0.413303 0.247365 0.876137
O O3 0.320760 0.239545 0.775026
O O4 0.379803 0.000000 0.770370
O O5 0.890607 0.764012 0.799405
O O6 0.783665 0.734900 0.808976
O O7 0.828318 0.000000 0.803491
O O8 0.836362 0.830170 0.000000
O O9 0.935141 0.500000 0.189010
O O10 0.000000 0.722489 0.197117
O O11 0.941078 0.678782 0.000000
O O12 0.500000 0.768217 0.500000
O O13 0.558969 0.000000 0.500000
O O14 0.419897 0.500000 0.000000
O O15 0.500000 0.678721 0.000000
O O16 0.277895 0.500000 0.174919
O O17 0.280787 0.700059 0.000000
#
# Coordination Sequence:
#
# PCOD9382993 Si02
#       6
#     8   8   8   4   4   8
#     4  11  21  35  57  79 101 130 166 206 247 296
#     4   9  16  24  36  56  82 113 155 201 244 289
#     4   8  13  21  32  47  72 110 154 195 239 291
#     4   9  20  38  57  79 105 131 162 201 248 301
#     4  11  23  37  53  77 107 133 162 201 244 291
#     4  10  19  31  47  67  96 127 159 201 249 298
#
# _framework density 16.724132000000001
#
# number of rings (size 3 to 8) (size 9 to 14) (size 15 to 20)
#    0.000    2.400    1.000    3.300    0.000    5.200 
#    0.000    4.000    0.000    3.600    0.000    0.000 
#    0.000    0.000    0.000    0.900    0.000   17.800 
#
# Total GULP energy -223019.316008 kJ/mol
# GULP energy per Si atom -5575.482900 kJ/mol
# Density = 1.668607 g / cm^3
# Si number density = 16.724132 Si / 1000 Ang^3
#
#
#
# Elastic Constant Matrix: (Units=GPa)
#
#
# Indices 1 2 3 4 5 6 
#
# 1 157.5906 70.4609 51.2317 0.0000 0.0000 0.0000
# 2 70.4609 88.8023 38.1097 0.0000 0.0000 0.0000
# 3 51.2317 38.1097 73.0870 0.0000 0.0000 0.0000
# 4 0.0000 0.0000 0.0000 0.2365 0.0000 0.0000
# 5 0.0000 0.0000 0.0000 0.0000 6.1976 0.0000
# 6 0.0000 0.0000 0.0000 0.0000 0.0000 33.5969
#
#
#
# Elastic Compliance Matrix: (Units=1/GPa)
#
#
# Indices 1 2 3 4 5 6 
#
# 1 0.010648 -0.006758 -0.003940 0.000000 0.000000 0.000000
# 2 -0.006758 0.018796 -0.005064 0.000000 0.000000 0.000000
# 3 -0.003940 -0.005064 0.019085 0.000000 0.000000 0.000000
# 4 0.000000 0.000000 0.000000 4.229099 0.000000 0.000000
# 5 0.000000 0.000000 0.000000 0.000000 0.161352 0.000000
# 6 0.000000 0.000000 0.000000 0.000000 0.000000 0.029765
#
#
# Mechanical properties :
#
#
# Convention : Reuss Voigt Hill
#
# Bulk Modulus (GPa) = 58.80563 71.00937 64.90750
# Shear Modulus (GPa) = 1.10965 18.65137 9.88051
#
# Velocity S-wave (km/s) = 0.81544 3.34314 2.43326
# Velocity P-wave (km/s) = 6.01041 7.57981 6.84027
#
# Compressibility (1/GPa) = 0.01700517
#
# Stress axis : x y z
#
# Youngs Moduli (GPa) = 93.91446 53.20232 52.39792
#
# Poissons Ratio (x) = 0.35953 0.20646
# Poissons Ratio (y) = 0.63465 0.26534
# Poissons Ratio (z) = 0.37004 0.26941
#
# Static dielectric constant tensor:
#      x y z
#    x 1.576810 0.000000 0.000000 
#    y 0.000000 1.560670 0.000000 
#    z 0.000000 0.000000 1.537560 
# 
# From -- ./inp_files/12983.got.cif
#   From: 2010.05.17/outbox.cif.g08.bks.cpg/sg47_7_cif.got.tgz:12983.got - 2010.06.03 20:15:42.
