data_PCOD9382038
_publ_section_title
;
Structure prediction by ZEFSAII (Michael W. Deem and Ramdas Pophale) SiO2 
 PCOD9382038
Probable space group: P M M M
;
_chemical_formula_sum "Si O2"
_cell_formula_units_Z 52
_cell_length_a 21.065543
_cell_length_b 7.586062
_cell_length_c 14.187705
_cell_angle_alpha 90.000000
_cell_angle_beta 90.000000
_cell_angle_gamma 90.000000
_cell_volume 2267.259320
_symmetry_space_group_name_H-M "P M M M"
_symmetry_group_IT_number 47
_symmetry_cell_setting 'orthorhombic'
loop_
_space_group_symop_operation_xyz
x,y,z
-x,-y,z
x,-y,-z
-x,y,-z
-x,-y,-z
x,y,-z
-x,y,z
x,-y,z
loop_
_atom_site_type_symbol
_atom_site_label
_atom_site_fract_x
_atom_site_fract_y
_atom_site_fract_z
Si Si1 0.255435 0.210970 0.606816
Si Si2 0.075426 0.709728 0.500000
Si Si3 0.567925 0.796732 0.191043
Si Si4 0.697408 0.202074 0.111011
Si Si5 0.843646 0.292953 0.104705
Si Si6 0.129314 0.297202 0.696229
Si Si7 0.402834 0.705539 0.395350
O O1 0.234539 0.251945 0.500000
O O2 0.204608 0.293328 0.675781
O O3 0.326785 0.277873 0.615489
O O4 0.256054 0.000000 0.618415
O O5 0.092873 0.500000 0.500000
O O6 0.100277 0.783491 0.399653
O O7 0.000000 0.724068 0.500000
O O8 0.500000 0.719317 0.159897
O O9 0.635186 0.716182 0.159412
O O10 0.568788 0.795710 0.304257
O O11 0.569253 0.000000 0.157509
O O12 0.767372 0.281772 0.119059
O O13 0.703868 0.000000 0.146405
O O14 0.683099 0.199081 0.000000
O O15 0.859681 0.500000 0.101657
O O16 0.877266 0.218577 0.198778
O O17 0.856908 0.217493 0.000000
O O18 0.106568 0.500000 0.700363
O O19 0.418717 0.774678 0.500000
O O20 0.420340 0.500000 0.392640
#
# Coordination Sequence:
#
# PCOD9382038 Si02
#       7
#     8   4   8   8   8   8   8
#     4  10  19  30  47  73 102 127 156 201 258 310
#     4   9  18  32  51  77 107 141 182 219 248 283
#     4  10  21  35  50  69  93 123 161 205 253 304
#     4   9  18  33  52  73  97 125 158 199 248 302
#     4   9  18  31  48  73 102 130 161 203 258 308
#     4  10  18  30  51  74 101 137 174 211 246 293
#     4  10  21  35  50  68  93 126 163 204 249 301
#
# _framework density 22.935179999999999
#
# number of rings (size 3 to 8) (size 9 to 14) (size 15 to 20)
#    0.000    2.385    0.769    1.846    0.000    6.154 
#    0.000    3.077    0.000    1.385    0.000    6.462 
#    0.000    0.000    0.000    5.231    0.000    5.538 
#
# Total GULP energy -290076.690986 kJ/mol
# GULP energy per Si atom -5578.397904 kJ/mol
# Density = 2.288298 g / cm^3
# Si number density = 22.935180 Si / 1000 Ang^3
#
#
#
# Elastic Constant Matrix: (Units=GPa)
#
#
# Indices 1 2 3 4 5 6 
#
# 1 33.8877 -2.3105 44.0325 0.0000 0.0000 0.0000
# 2 -2.3105 58.0032 4.0070 0.0000 0.0000 0.0000
# 3 44.0325 4.0070 181.6477 0.0000 0.0000 0.0000
# 4 0.0000 0.0000 0.0000 7.6390 0.0000 0.0000
# 5 0.0000 0.0000 0.0000 0.0000 9.7222 0.0000
# 6 0.0000 0.0000 0.0000 0.0000 0.0000 -0.1782
#
#
#
# Elastic Compliance Matrix: (Units=1/GPa)
#
#
# Indices 1 2 3 4 5 6 
#
# 1 0.043426 0.002461 -0.010581 0.000000 0.000000 0.000000
# 2 0.002461 0.017406 -0.000980 0.000000 0.000000 0.000000
# 3 -0.010581 -0.000980 0.008092 0.000000 0.000000 0.000000
# 4 0.000000 0.000000 0.000000 0.130907 0.000000 0.000000
# 5 0.000000 0.000000 0.000000 0.000000 0.102858 0.000000
# 6 0.000000 0.000000 0.000000 0.000000 0.000000 -5.610373
#
#
# Mechanical properties :
#
#
# Convention : Reuss Voigt Hill
#
# Bulk Modulus (GPa) = 19.71526 40.55519 30.13522
# Shear Modulus (GPa) = -0.94830 18.62388 8.83779
#
# Velocity S-wave (km/s) = -0.64371 2.85269 1.96513
# Velocity P-wave (km/s) = 2.83941 5.34522 4.27981
#
# Compressibility (1/GPa) = 0.05072214
#
# Stress axis : x y z
#
# Youngs Moduli (GPa) = 23.02794 57.45082 123.58399
#
# Poissons Ratio (x) = -0.14137 1.30763
# Poissons Ratio (y) = -0.05667 0.12117
# Poissons Ratio (z) = 0.24366 0.05633
#
# Static dielectric constant tensor:
#      x y z
#    x 1.847450 0.000000 0.000000 
#    y 0.000000 1.877460 0.000000 
#    z 0.000000 0.000000 1.914780 
# 
# From -- ./inp_files/25007.got.cif
#   From: 2010.05.17/outbox.cif.g08.bks.cpg/sg47_13_cif.got.tgz:25007.got - 2010.06.03 20:15:42.
