data_PCOD9382694
_publ_section_title
;
Structure prediction by ZEFSAII (Michael W. Deem and Ramdas Pophale) SiO2 
 PCOD9382694
Probable space group: P M M M
;
_chemical_formula_sum "Si O2"
_cell_formula_units_Z 48
_cell_length_a 14.049245
_cell_length_b 8.053392
_cell_length_c 25.196628
_cell_angle_alpha 90.000000
_cell_angle_beta 90.000000
_cell_angle_gamma 90.000000
_cell_volume 2850.849226
_symmetry_space_group_name_H-M "P M M M"
_symmetry_group_IT_number 47
_symmetry_cell_setting 'orthorhombic'
loop_
_space_group_symop_operation_xyz
x,y,z
-x,-y,z
x,-y,-z
-x,y,-z
-x,-y,-z
x,y,-z
-x,y,z
x,-y,z
loop_
_atom_site_type_symbol
_atom_site_label
_atom_site_fract_x
_atom_site_fract_y
_atom_site_fract_z
Si Si1 0.199103 0.201258 0.940791
Si Si2 0.106151 0.302576 0.832393
Si Si3 0.606332 0.202832 0.112572
Si Si4 0.608552 0.300910 0.671858
Si Si5 0.384614 0.303231 0.442874
Si Si6 0.298274 0.195551 0.220695
O O1 0.133281 0.265144 0.893456
O O2 0.307622 0.251421 0.926187
O O3 0.195718 0.000000 0.939292
O O4 0.173381 0.255870 0.000000
O O5 0.107572 0.500000 0.824844
O O6 0.189964 0.228019 0.796647
O O7 0.000000 0.239632 0.820903
O O8 0.500000 0.258510 0.098886
O O9 0.636950 0.259713 0.171666
O O10 0.605592 0.000000 0.112844
O O11 0.500000 0.239338 0.680869
O O12 0.602704 0.500000 0.666340
O O13 0.645524 0.235596 0.614685
O O14 0.672033 0.265260 0.722734
O O15 0.353112 0.231598 0.500000
O O16 0.500000 0.292726 0.441821
O O17 0.361173 0.500000 0.444138
O O18 0.314253 0.000000 0.223051
#
# Coordination Sequence:
#
# PCOD9382694 Si02
#       6
#     8   8   8   8   8   8
#     4   9  18  31  47  69  93 115 141 172 208 255
#     4  10  21  36  52  67  83 106 138 179 227 273
#     4   8  14  25  41  61  85 113 143 172 201 236
#     4   9  16  25  40  64  93 124 156 189 221 250
#     4   7  10  18  33  54  82 118 158 192 217 243
#     4  10  19  30  45  65  89 115 145 181 221 269
#
# _framework density 16.837088999999999
#
# number of rings (size 3 to 8) (size 9 to 14) (size 15 to 20)
#    0.000    3.167    0.000    4.000    0.000    3.333 
#    0.000    3.333    0.000    5.000    0.000    7.000 
#    0.000    0.667    0.000    7.667    0.000    2.500 
#
# Total GULP energy -267232.487607 kJ/mol
# GULP energy per Si atom -5567.343492 kJ/mol
# Density = 1.679877 g / cm^3
# Si number density = 16.837089 Si / 1000 Ang^3
#
#
#
# Elastic Constant Matrix: (Units=GPa)
#
#
# Indices 1 2 3 4 5 6 
#
# 1 43.0268 -8.0620 7.3327 0.0000 0.0000 0.0000
# 2 -8.0620 8.7120 0.6029 0.0000 0.0000 0.0000
# 3 7.3327 0.6029 114.9398 0.0000 0.0000 0.0000
# 4 0.0000 0.0000 0.0000 107.2158 0.0000 0.0000
# 5 0.0000 0.0000 0.0000 0.0000 9.7676 0.0000
# 6 0.0000 0.0000 0.0000 0.0000 0.0000 9.6789
#
#
#
# Elastic Compliance Matrix: (Units=1/GPa)
#
#
# Indices 1 2 3 4 5 6 
#
# 1 0.028552 0.026557 -0.001961 0.000000 0.000000 0.000000
# 2 0.026557 0.139528 -0.002426 0.000000 0.000000 0.000000
# 3 -0.001961 -0.002426 0.008838 0.000000 0.000000 0.000000
# 4 0.000000 0.000000 0.000000 0.009327 0.000000 0.000000
# 5 0.000000 0.000000 0.000000 0.000000 0.102379 0.000000
# 6 0.000000 0.000000 0.000000 0.000000 0.000000 0.103317
#
#
# Mechanical properties :
#
#
# Convention : Reuss Voigt Hill
#
# Bulk Modulus (GPa) = 4.51959 18.49175 11.50567
# Shear Modulus (GPa) = 11.86652 36.45281 24.15966
#
# Velocity S-wave (km/s) = 2.65766 4.65804 3.79213
# Velocity P-wave (km/s) = 3.47961 6.31952 5.10118
#
# Compressibility (1/GPa) = 0.22125881
#
# Stress axis : x y z
#
# Youngs Moduli (GPa) = 35.02431 7.16700 113.14750
#
# Poissons Ratio (x) = -0.19034 0.22186
# Poissons Ratio (y) = -0.93015 0.27451
# Poissons Ratio (z) = 0.06868 0.01739
#
# Static dielectric constant tensor:
#      x y z
#    x 1.556700 0.000000 0.000000 
#    y 0.000000 1.612370 0.000000 
#    z 0.000000 0.000000 1.607940 
# 
# From -- ./inp_files/7501.got.cif
#   From: 2010.05.17/outbox.cif.g08.bks.cpg/sg47_4_cif.got.tgz:7501.got - 2010.06.03 20:15:42.
