data_PCOD9382300
_publ_section_title
;
Structure prediction by ZEFSAII (Michael W. Deem and Ramdas Pophale) SiO2 
 PCOD9382300
Probable space group: P M M M
;
_chemical_formula_sum "Si O2"
_cell_formula_units_Z 52
_cell_length_a 15.460059
_cell_length_b 20.415244
_cell_length_c 9.541323
_cell_angle_alpha 90.000000
_cell_angle_beta 90.000000
_cell_angle_gamma 90.000000
_cell_volume 3011.440731
_symmetry_space_group_name_H-M "P M M M"
_symmetry_group_IT_number 47
_symmetry_cell_setting 'orthorhombic'
loop_
_space_group_symop_operation_xyz
x,y,z
-x,-y,z
x,-y,-z
-x,y,-z
-x,-y,-z
x,y,-z
-x,y,z
x,-y,z
loop_
_atom_site_type_symbol
_atom_site_label
_atom_site_fract_x
_atom_site_fract_y
_atom_site_fract_z
Si Si1 0.901285 0.925884 0.829900
Si Si2 0.601272 0.500000 0.650177
Si Si3 0.784657 0.803098 0.829312
Si Si4 0.098335 0.698989 0.334510
Si Si5 0.402676 0.235576 0.831047
Si Si6 0.856059 0.422023 0.841002
Si Si7 0.344762 0.382973 0.157563
O O1 0.834046 0.869852 0.790168
O O2 0.000000 0.910912 0.785145
O O3 0.879840 0.000000 0.783927
O O4 0.902073 0.926633 0.000000
O O5 0.500000 0.500000 0.633123
O O6 0.646682 0.500000 0.500000
O O7 0.622960 0.435913 0.735415
O O8 0.835480 0.744314 0.752542
O O9 0.683170 0.804342 0.788375
O O10 0.789480 0.793623 0.000000
O O11 0.119556 0.698246 0.500000
O O12 0.100184 0.625761 0.270339
O O13 0.000000 0.724434 0.317977
O O14 0.500000 0.221139 0.777156
O O15 0.375917 0.310799 0.802221
O O16 0.407118 0.229515 0.000000
O O17 0.856539 0.500000 0.808546
O O18 0.757923 0.394783 0.846128
O O19 0.891268 0.414651 0.000000
O O20 0.377671 0.395749 0.000000
#
# Coordination Sequence:
#
# PCOD9382300 Si02
#       7
#     8   4   8   8   8   8   8
#     4   8  14  25  45  77 110 136 168 211 256 298
#     4  11  23  33  43  67  98 125 160 207 261 318
#     4  10  18  32  55  78 103 136 174 214 251 294
#     4  11  24  38  52  74 104 135 167 207 259 316
#     4   9  17  29  48  74  99 125 163 209 252 296
#     4  10  20  36  56  75  94 122 169 220 259 304
#     4  10  18  33  52  68  89 121 164 210 258 308
#
# _framework density 17.267482000000001
#
# number of rings (size 3 to 8) (size 9 to 14) (size 15 to 20)
#    0.000    2.231    2.308    2.077    0.000    4.308 
#    0.000    1.538    0.000    1.385    0.000    5.385 
#    0.000    0.000    0.000    1.385    0.000    1.692 
#
# Total GULP energy -289648.534796 kJ/mol
# GULP energy per Si atom -5570.164131 kJ/mol
# Density = 1.722818 g / cm^3
# Si number density = 17.267482 Si / 1000 Ang^3
#
#
#
# Elastic Constant Matrix: (Units=GPa)
#
#
# Indices 1 2 3 4 5 6 
#
# 1 128.3456 66.0587 32.7596 0.0000 0.0000 0.0000
# 2 66.0587 109.6493 33.1481 0.0000 0.0000 0.0000
# 3 32.7596 33.1481 45.1999 0.0000 0.0000 0.0000
# 4 0.0000 0.0000 0.0000 -1.0227 0.0000 0.0000
# 5 0.0000 0.0000 0.0000 0.0000 14.2159 0.0000
# 6 0.0000 0.0000 0.0000 0.0000 0.0000 26.1801
#
#
#
# Elastic Compliance Matrix: (Units=1/GPa)
#
#
# Indices 1 2 3 4 5 6 
#
# 1 0.011919 -0.005871 -0.004333 0.000000 0.000000 0.000000
# 2 -0.005871 0.014610 -0.006459 0.000000 0.000000 0.000000
# 3 -0.004333 -0.006459 0.030002 0.000000 0.000000 0.000000
# 4 0.000000 0.000000 0.000000 -0.977797 0.000000 0.000000
# 5 0.000000 0.000000 0.000000 0.000000 0.070344 0.000000
# 6 0.000000 0.000000 0.000000 0.000000 0.000000 0.038197
#
#
# Mechanical properties :
#
#
# Convention : Reuss Voigt Hill
#
# Bulk Modulus (GPa) = 43.09635 60.79195 51.94415
# Shear Modulus (GPa) = -6.47950 17.95654 5.73852
#
# Velocity S-wave (km/s) = -1.93922 3.22825 1.82497
# Velocity P-wave (km/s) = 4.47193 7.01270 5.88116
#
# Compressibility (1/GPa) = 0.02320382
#
# Stress axis : x y z
#
# Youngs Moduli (GPa) = 83.89855 68.44842 33.33165
#
# Poissons Ratio (x) = 0.40184 0.14443
# Poissons Ratio (y) = 0.49255 0.21530
# Poissons Ratio (z) = 0.36355 0.44212
#
# Static dielectric constant tensor:
#      x y z
#    x 1.632670 0.000000 0.000000 
#    y 0.000000 1.575630 0.000000 
#    z 0.000000 0.000000 1.623840 
# 
# From -- ./inp_files/7021.got.cif
#   From: 2010.05.17/outbox.cif.g08.bks.cpg/sg47_4_cif.got.tgz:7021.got - 2010.06.03 20:15:42.
