data_PCOD9382358
_publ_section_title
;
Structure prediction by ZEFSAII (Michael W. Deem and Ramdas Pophale) SiO2 
 PCOD9382358
Probable space group: P M M M
;
_chemical_formula_sum "Si O2"
_cell_formula_units_Z 64
_cell_length_a 24.538616
_cell_length_b 8.287474
_cell_length_c 16.025021
_cell_angle_alpha 90.000000
_cell_angle_beta 90.000000
_cell_angle_gamma 90.000000
_cell_volume 3258.898623
_symmetry_space_group_name_H-M "P M M M"
_symmetry_group_IT_number 47
_symmetry_cell_setting 'orthorhombic'
loop_
_space_group_symop_operation_xyz
x,y,z
-x,-y,z
x,-y,-z
-x,y,-z
-x,-y,-z
x,y,-z
-x,y,z
x,-y,z
loop_
_atom_site_type_symbol
_atom_site_label
_atom_site_fract_x
_atom_site_fract_y
_atom_site_fract_z
Si Si1 0.134994 0.305019 0.092403
Si Si2 0.251344 0.695722 0.337645
Si Si3 0.746669 0.190718 0.853181
Si Si4 0.368066 0.694613 0.407307
Si Si5 0.062723 0.302501 0.249071
Si Si6 0.561824 0.807725 0.749338
Si Si7 0.629902 0.308344 0.092066
Si Si8 0.133827 0.303151 0.406750
O O1 0.134417 0.500000 0.094307
O O2 0.196737 0.250234 0.108128
O O3 0.096602 0.248748 0.167920
O O4 0.117052 0.252742 0.000000
O O5 0.251272 0.500000 0.331232
O O6 0.252315 0.765184 0.244669
O O7 0.306183 0.744820 0.385389
O O8 0.195647 0.743354 0.383484
O O9 0.693509 0.271552 0.892849
O O10 0.741864 0.000000 0.863921
O O11 0.383482 0.752198 0.500000
O O12 0.368250 0.500000 0.408470
O O13 0.407254 0.748031 0.333103
O O14 0.063264 0.500000 0.248838
O O15 0.093589 0.249996 0.333184
O O16 0.000000 0.251323 0.246799
O O17 0.500000 0.743967 0.753229
O O18 0.595521 0.761652 0.831654
O O19 0.559841 0.000000 0.745162
O O20 0.622369 0.500000 0.093269
O O21 0.614059 0.246463 0.000000
O O22 0.119449 0.248843 0.500000
O O23 0.132630 0.500000 0.407004
#
# Coordination Sequence:
#
# PCOD9382358 Si02
#       8
#     8   8   8   8   8   8   8   8
#     4  10  20  35  55  78 107 146 188 229 279 337
#     4  10  18  33  57  83 115 150 186 231 284 342
#     4  12  23  35  57  87 118 149 183 228 286 347
#     4  10  21  37  61  91 119 153 199 247 292 342
#     4   9  17  29  47  76 111 143 182 233 283 331
#     4  11  25  43  62  87 121 160 199 241 290 341
#     4  11  24  42  65  91 118 151 192 238 289 347
#     4   9  16  27  48  78 111 145 179 222 279 337
#
# _framework density 19.638536999999999
#
# number of rings (size 3 to 8) (size 9 to 14) (size 15 to 20)
#    0.000    1.750    2.500    2.625    0.000    6.500 
#    0.000    5.000    0.000    1.500    0.000    0.875 
#    0.000    1.000    0.000    0.000    0.000    0.000 
#
# Total GULP energy -357539.389684 kJ/mol
# GULP energy per Si atom -5586.552964 kJ/mol
# Density = 1.959384 g / cm^3
# Si number density = 19.638537 Si / 1000 Ang^3
#
#
#
# Elastic Constant Matrix: (Units=GPa)
#
#
# Indices 1 2 3 4 5 6 
#
# 1 147.0187 9.4160 82.6937 0.0000 0.0000 0.0000
# 2 9.4160 10.7346 17.4401 0.0000 0.0000 0.0000
# 3 82.6937 17.4401 197.9078 0.0000 0.0000 0.0000
# 4 0.0000 0.0000 0.0000 -44.5872 0.0000 0.0000
# 5 0.0000 0.0000 0.0000 0.0000 1.9927 0.0000
# 6 0.0000 0.0000 0.0000 0.0000 0.0000 144.1610
#
#
#
# Elastic Compliance Matrix: (Units=1/GPa)
#
#
# Indices 1 2 3 4 5 6 
#
# 1 0.008931 -0.002067 -0.003549 0.000000 0.000000 0.000000
# 2 -0.002067 0.109200 -0.008759 0.000000 0.000000 0.000000
# 3 -0.003549 -0.008759 0.007308 0.000000 0.000000 0.000000
# 4 0.000000 0.000000 0.000000 -0.022428 0.000000 0.000000
# 5 0.000000 0.000000 0.000000 0.000000 0.501842 0.000000
# 6 0.000000 0.000000 0.000000 0.000000 0.000000 0.006937
#
#
# Mechanical properties :
#
#
# Convention : Reuss Voigt Hill
#
# Bulk Modulus (GPa) = 10.34262 63.86232 37.10247
# Shear Modulus (GPa) = 7.43196 36.72070 22.07633
#
# Velocity S-wave (km/s) = 1.94746 4.32884 3.35645
# Velocity P-wave (km/s) = 3.21477 7.58780 5.82706
#
# Compressibility (1/GPa) = 0.09668726
#
# Stress axis : x y z
#
# Youngs Moduli (GPa) = 111.97324 9.15748 136.83922
#
# Poissons Ratio (x) = 0.01893 0.48570
# Poissons Ratio (y) = 0.23145 1.19861
# Poissons Ratio (z) = 0.39744 0.08021
#
# Static dielectric constant tensor:
#      x y z
#    x 1.665380 0.000000 0.000000 
#    y 0.000000 1.672440 0.000000 
#    z 0.000000 0.000000 1.704550 
# 
# From -- ./inp_files/7949.got.cif
#   From: 2010.05.17/outbox.cif.g08.bks.cpg/sg47_4_cif.got.tgz:7949.got - 2010.06.03 20:15:42.
