data_PCOD9382224
_publ_section_title
;
Structure prediction by ZEFSAII (Michael W. Deem and Ramdas Pophale) SiO2 
 PCOD9382224
Probable space group: P M M M
;
_chemical_formula_sum "Si O2"
_cell_formula_units_Z 56
_cell_length_a 8.243290
_cell_length_b 15.773546
_cell_length_c 20.745627
_cell_angle_alpha 90.000000
_cell_angle_beta 90.000000
_cell_angle_gamma 90.000000
_cell_volume 2697.469112
_symmetry_space_group_name_H-M "P M M M"
_symmetry_group_IT_number 47
_symmetry_cell_setting 'orthorhombic'
loop_
_space_group_symop_operation_xyz
x,y,z
-x,-y,z
x,-y,-z
-x,y,-z
-x,-y,-z
x,y,-z
-x,y,z
x,-y,z
loop_
_atom_site_type_symbol
_atom_site_label
_atom_site_fract_x
_atom_site_fract_y
_atom_site_fract_z
Si Si1 0.311304 0.671917 0.794846
Si Si2 0.691796 0.907397 0.651036
Si Si3 0.196303 0.594761 0.663944
Si Si4 0.805735 0.745800 0.427081
Si Si5 0.807069 0.659079 0.069965
Si Si6 0.194535 0.136127 0.069311
Si Si7 0.190944 0.137962 0.209508
O O1 0.500000 0.694648 0.791692
O O2 0.263752 0.614628 0.734677
O O3 0.274253 0.630083 0.864064
O O4 0.211526 0.759826 0.789591
O O5 0.500000 0.903948 0.640055
O O6 0.769909 0.831010 0.611997
O O7 0.723972 0.896599 0.727168
O O8 0.753736 0.000000 0.630935
O O9 0.240350 0.500000 0.643484
O O10 0.255780 0.666326 0.614565
O O11 0.000000 0.599802 0.667488
O O12 0.741487 0.748494 0.500000
O O13 0.000000 0.736597 0.430819
O O14 0.784618 0.761609 0.068892
O O15 0.000000 0.643669 0.073996
O O16 0.749354 0.626953 0.000000
O O17 0.254970 0.107472 0.139457
O O18 0.000000 0.120497 0.069438
O O19 0.258313 0.104504 0.000000
O O20 0.000000 0.117832 0.213515
#
# Coordination Sequence:
#
# PCOD9382224 Si02
#       7
#     8   8   8   8   8   8   8
#     4  11  20  30  50  80 116 155 194 240 295 350
#     4  11  24  40  59  86 120 158 197 238 291 350
#     4  10  21  38  61  88 119 156 196 237 284 343
#     4  10  22  41  66  94 121 151 189 234 284 343
#     4   8  14  26  45  70 103 146 196 246 294 346
#     4   7  11  21  40  69 102 136 179 232 285 335
#     4  10  18  31  54  80 109 149 198 246 292 343
#
# _framework density 20.760200999999999
#
# number of rings (size 3 to 8) (size 9 to 14) (size 15 to 20)
#    0.000    2.429    1.429    3.857    0.000    2.571 
#    0.000    2.857    0.000    2.143    0.000    8.000 
#    0.000    0.000    0.000    0.000    0.000    0.000 
#
# Total GULP energy -312448.272492 kJ/mol
# GULP energy per Si atom -5579.433437 kJ/mol
# Density = 2.071295 g / cm^3
# Si number density = 20.760201 Si / 1000 Ang^3
#
#
#
# Elastic Constant Matrix: (Units=GPa)
#
#
# Indices 1 2 3 4 5 6 
#
# 1 12.9959 5.3770 13.6725 0.0000 0.0000 0.0000
# 2 5.3770 87.3787 68.8468 0.0000 0.0000 0.0000
# 3 13.6725 68.8468 175.0574 0.0000 0.0000 0.0000
# 4 0.0000 0.0000 0.0000 -12.9295 0.0000 0.0000
# 5 0.0000 0.0000 0.0000 0.0000 -14.2075 0.0000
# 6 0.0000 0.0000 0.0000 0.0000 0.0000 13.4063
#
#
#
# Elastic Compliance Matrix: (Units=1/GPa)
#
#
# Indices 1 2 3 4 5 6 
#
# 1 0.083836 0.000000 -0.006548 0.000000 0.000000 0.000000
# 2 0.000000 0.016583 -0.006522 0.000000 0.000000 0.000000
# 3 -0.006548 -0.006522 0.008789 0.000000 0.000000 0.000000
# 4 0.000000 0.000000 0.000000 -0.077342 0.000000 0.000000
# 5 0.000000 0.000000 0.000000 0.000000 -0.070386 0.000000
# 6 0.000000 0.000000 0.000000 0.000000 0.000000 0.074592
#
#
# Mechanical properties :
#
#
# Convention : Reuss Voigt Hill
#
# Bulk Modulus (GPa) = 12.03823 50.13605 31.08714
# Shear Modulus (GPa) = 55.61708 9.75624 32.68666
#
# Velocity S-wave (km/s) = 5.18154 2.17018 3.97228
# Velocity P-wave (km/s) = 6.45052 5.52106 6.00380
#
# Compressibility (1/GPa) = 0.08306871
#
# Stress axis : x y z
#
# Youngs Moduli (GPa) = 11.92804 60.30256 113.78215
#
# Poissons Ratio (x) = -0.00001 0.74503
# Poissons Ratio (y) = 0.00000 0.74207
# Poissons Ratio (z) = 0.07810 0.39328
#
# Static dielectric constant tensor:
#      x y z
#    x 1.705790 0.000000 0.000000 
#    y 0.000000 1.757840 0.000000 
#    z 0.000000 0.000000 1.768680 
# 
# From -- ./inp_files/7326.got.cif
#   From: 2010.05.17/outbox.cif.g08.bks.cpg/sg47_4_cif.got.tgz:7326.got - 2010.06.03 20:15:42.
