data_PCOD9382546
_publ_section_title
;
Structure prediction by ZEFSAII (Michael W. Deem and Ramdas Pophale) SiO2 
 PCOD9382546
Probable space group: P M M M
;
_chemical_formula_sum "Si O2"
_cell_formula_units_Z 64
_cell_length_a 19.817253
_cell_length_b 7.227096
_cell_length_c 19.305562
_cell_angle_alpha 90.000000
_cell_angle_beta 90.000000
_cell_angle_gamma 90.000000
_cell_volume 2764.965561
_symmetry_space_group_name_H-M "P M M M"
_symmetry_group_IT_number 47
_symmetry_cell_setting 'orthorhombic'
loop_
_space_group_symop_operation_xyz
x,y,z
-x,-y,z
x,-y,-z
-x,y,-z
-x,-y,-z
x,y,-z
-x,y,z
x,-y,z
loop_
_atom_site_type_symbol
_atom_site_label
_atom_site_fract_x
_atom_site_fract_y
_atom_site_fract_z
Si Si1 0.576006 0.775362 0.848940
Si Si2 0.813918 0.203664 0.815443
Si Si3 0.076317 0.774303 0.708503
Si Si4 0.422497 0.775137 0.309474
Si Si5 0.707982 0.225760 0.077556
Si Si6 0.310897 0.224857 0.580107
Si Si7 0.073781 0.277394 0.919458
Si Si8 0.157923 0.224499 0.421460
O O1 0.500000 0.715302 0.864301
O O2 0.592964 0.719701 0.769790
O O3 0.631686 0.721001 0.904516
O O4 0.575848 0.000000 0.848465
O O5 0.861979 0.289803 0.757289
O O6 0.751623 0.290490 0.856350
O O7 0.867124 0.188329 0.877725
O O8 0.792018 0.000000 0.789250
O O9 0.100213 0.721410 0.631900
O O10 0.000000 0.713185 0.724634
O O11 0.075839 0.000000 0.714199
O O12 0.500000 0.720205 0.325201
O O13 0.367381 0.713314 0.365441
O O14 0.421717 0.000000 0.310386
O O15 0.713162 0.000000 0.078000
O O16 0.728820 0.284952 0.000000
O O17 0.323621 0.279788 0.500000
O O18 0.234254 0.280642 0.598975
O O19 0.311792 0.000000 0.580655
O O20 0.079092 0.500000 0.913854
O O21 0.000000 0.223113 0.892740
O O22 0.077215 0.231027 0.000000
O O23 0.146069 0.284458 0.500000
O O24 0.158557 0.000000 0.421443
#
# Coordination Sequence:
#
# PCOD9382546 Si02
#       8
#     8   8   8   8   8   8   8   8
#     4   8  14  23  33  46  66  96 132 167 203 243
#     4  10  19  29  43  64  90 114 137 176 220 259
#     4   9  17  26  36  53  75 101 133 166 205 252
#     4   8  13  19  27  39  56  81 116 157 197 235
#     4   9  17  26  36  53  75 101 133 166 205 252
#     4   8  13  19  27  39  56  81 116 157 197 235
#     4   9  18  32  48  64  84 114 148 177 209 254
#     4   8  14  23  33  46  66  96 132 167 203 243
#
# _framework density 23.146761000000001
#
# number of rings (size 3 to 8) (size 9 to 14) (size 15 to 20)
#    0.000    3.375    0.000    2.625    1.750    2.250 
#    0.000    4.375    0.000    0.000    0.000    0.000 
#    0.000    1.000    0.000    5.250    0.000    5.000 
#
# Total GULP energy -357135.700009 kJ/mol
# GULP energy per Si atom -5580.245313 kJ/mol
# Density = 2.309408 g / cm^3
# Si number density = 23.146761 Si / 1000 Ang^3
#
#
#
# Elastic Constant Matrix: (Units=GPa)
#
#
# Indices 1 2 3 4 5 6 
#
# 1 101.7508 -0.8864 67.1750 0.0000 0.0000 0.0000
# 2 -0.8864 106.5836 -0.2997 0.0000 0.0000 0.0000
# 3 67.1750 -0.2997 98.7712 0.0000 0.0000 0.0000
# 4 0.0000 0.0000 0.0000 13.6416 0.0000 0.0000
# 5 0.0000 0.0000 0.0000 0.0000 48.9351 0.0000
# 6 0.0000 0.0000 0.0000 0.0000 0.0000 -16.2325
#
#
#
# Elastic Compliance Matrix: (Units=1/GPa)
#
#
# Indices 1 2 3 4 5 6 
#
# 1 0.017838 0.000114 -0.012131 0.000000 0.000000 0.000000
# 2 0.000114 0.009383 -0.000049 0.000000 0.000000 0.000000
# 3 -0.012131 -0.000049 0.018375 0.000000 0.000000 0.000000
# 4 0.000000 0.000000 0.000000 0.073305 0.000000 0.000000
# 5 0.000000 0.000000 0.000000 0.000000 0.020435 0.000000
# 6 0.000000 0.000000 0.000000 0.000000 0.000000 -0.061605
#
#
# Mechanical properties :
#
#
# Convention : Reuss Voigt Hill
#
# Bulk Modulus (GPa) = 46.59128 48.78705 47.68917
# Shear Modulus (GPa) = 45.86365 25.34328 35.60346
#
# Velocity S-wave (km/s) = 4.45615 3.31251 3.92620
# Velocity P-wave (km/s) = 6.82999 5.97941 6.41880
#
# Compressibility (1/GPa) = 0.02146324
#
# Stress axis : x y z
#
# Youngs Moduli (GPa) = 56.06025 106.57441 54.42213
#
# Poissons Ratio (x) = -0.01218 0.66021
# Poissons Ratio (y) = -0.00640 0.00268
# Poissons Ratio (z) = 0.68009 0.00525
#
# Static dielectric constant tensor:
#      x y z
#    x 1.845810 0.000000 0.000000 
#    y 0.000000 1.968060 0.000000 
#    z 0.000000 0.000000 1.842250 
# 
# From -- ./inp_files/31388.got.cif
#   From: 2010.05.17/outbox.cif.g08.bks.cpg/sg47_16_cif.got.tgz:31388.got - 2010.06.03 20:15:42.
