data_PCOD9382905
_publ_section_title
;
Structure prediction by ZEFSAII (Michael W. Deem and Ramdas Pophale) SiO2 
 PCOD9382905
Probable space group: P M M M
;
_chemical_formula_sum "Si O2"
_cell_formula_units_Z 29
_cell_length_a 22.097817
_cell_length_b 7.547995
_cell_length_c 9.312212
_cell_angle_alpha 90.000000
_cell_angle_beta 90.000000
_cell_angle_gamma 90.000000
_cell_volume 1553.223065
_symmetry_space_group_name_H-M "P M M M"
_symmetry_group_IT_number 47
_symmetry_cell_setting 'orthorhombic'
loop_
_space_group_symop_operation_xyz
x,y,z
-x,-y,z
x,-y,-z
-x,y,-z
-x,-y,-z
x,y,-z
-x,y,z
x,-y,z
loop_
_atom_site_type_symbol
_atom_site_label
_atom_site_fract_x
_atom_site_fract_y
_atom_site_fract_z
Si Si1 0.314032 0.215084 0.335018
Si Si2 0.000000 0.000000 0.500000
Si Si3 0.567777 0.215895 0.834027
Si Si4 0.874828 0.000000 0.658507
Si Si5 0.807747 0.703868 0.167398
O O1 0.307883 0.271776 0.500000
O O2 0.377597 0.274314 0.266547
O O3 0.258106 0.277649 0.239225
O O4 0.313127 0.000000 0.332275
O O5 0.054348 0.000000 0.377473
O O6 0.500000 0.272607 0.791479
O O7 0.567742 0.000000 0.831870
O O8 0.577975 0.268299 0.000000
O O9 0.852562 0.830374 0.745830
O O10 0.843824 0.000000 0.500000
O O11 0.827108 0.500000 0.176712
O O12 0.804449 0.755115 0.000000
#
# Coordination Sequence:
#
# PCOD9382905 Si02
#       5
#     8   1   8   4   8
#     4  10  19  30  49  80 114 153 200 253 310 363
#     4   8  24  44  72 100 128 162 200 228 290 348
#     4   8  14  25  42  66 101 148 199 250 307 367
#     4  10  21  43  67  95 124 159 197 237 288 349
#     4  11  23  38  61  92 125 163 204 250 300 350
#
# _framework density 18.670852
#
# number of rings (size 3 to 8) (size 9 to 14) (size 15 to 20)
#    0.414    1.931    1.379    2.897    0.000    3.862 
#    0.000    5.517    0.000    2.483    0.000    5.793 
#    0.000    0.000    0.000    0.000    0.000    0.000 
#
# Total GULP energy -161595.226410 kJ/mol
# GULP energy per Si atom -5572.249187 kJ/mol
# Density = 1.862836 g / cm^3
# Si number density = 18.670852 Si / 1000 Ang^3
#
#
#
# Elastic Constant Matrix: (Units=GPa)
#
#
# Indices 1 2 3 4 5 6 
#
# 1 156.0516 38.4028 93.9363 0.0000 0.0000 0.0000
# 2 38.4028 70.1480 51.7451 0.0000 0.0000 0.0000
# 3 93.9363 51.7451 166.5703 0.0000 0.0000 0.0000
# 4 0.0000 0.0000 0.0000 0.6949 0.0000 0.0000
# 5 0.0000 0.0000 0.0000 0.0000 -110.3924 0.0000
# 6 0.0000 0.0000 0.0000 0.0000 0.0000 -54.9087
#
#
#
# Elastic Compliance Matrix: (Units=1/GPa)
#
#
# Indices 1 2 3 4 5 6 
#
# 1 0.009852 -0.001680 -0.005034 0.000000 0.000000 0.000000
# 2 -0.001680 0.018780 -0.004886 0.000000 0.000000 0.000000
# 3 -0.005034 -0.004886 0.010360 0.000000 0.000000 0.000000
# 4 0.000000 0.000000 0.000000 1.439001 0.000000 0.000000
# 5 0.000000 0.000000 0.000000 0.000000 -0.009059 0.000000
# 6 0.000000 0.000000 0.000000 0.000000 0.000000 -0.018212
#
#
# Mechanical properties :
#
#
# Convention : Reuss Voigt Hill
#
# Bulk Modulus (GPa) = 63.32739 84.54871 73.93805
# Shear Modulus (GPa) = 3.38023 -19.00885 -7.81431
#
# Velocity S-wave (km/s) = 1.34698 -3.19423 -2.04802
# Velocity P-wave (km/s) = 6.03412 5.63719 5.83903
#
# Compressibility (1/GPa) = 0.01579095
#
# Stress axis : x y z
#
# Youngs Moduli (GPa) = 101.50423 53.24842 96.52211
#
# Poissons Ratio (x) = 0.08946 0.48589
# Poissons Ratio (y) = 0.17054 0.47165
# Poissons Ratio (z) = 0.51097 0.26020
#
# Static dielectric constant tensor:
#      x y z
#    x 1.608520 0.000000 0.000000 
#    y 0.000000 1.694840 0.000000 
#    z 0.000000 0.000000 1.628280 
# 
# From -- ./inp_files/10331.got.cif
#   From: 2010.05.17/outbox.cif.g08.bks.cpg/sg47_6_cif.got.tgz:10331.got - 2010.06.03 20:15:42.
