data_PCOD9382977
_publ_section_title
;
Structure prediction by ZEFSAII (Michael W. Deem and Ramdas Pophale) SiO2 
 PCOD9382977
Probable space group: P M M M
;
_chemical_formula_sum "Si O2"
_cell_formula_units_Z 52
_cell_length_a 7.917408
_cell_length_b 15.586743
_cell_length_c 22.605459
_cell_angle_alpha 90.000000
_cell_angle_beta 90.000000
_cell_angle_gamma 90.000000
_cell_volume 2789.662921
_symmetry_space_group_name_H-M "P M M M"
_symmetry_group_IT_number 47
_symmetry_cell_setting 'orthorhombic'
loop_
_space_group_symop_operation_xyz
x,y,z
-x,-y,z
x,-y,-z
-x,y,-z
-x,-y,-z
x,y,-z
-x,y,z
x,-y,z
loop_
_atom_site_type_symbol
_atom_site_label
_atom_site_fract_x
_atom_site_fract_y
_atom_site_fract_z
Si Si1 0.693292 0.136568 0.000000
Si Si2 0.804498 0.402947 0.112547
Si Si3 0.190864 0.683073 0.000000
Si Si4 0.500000 0.104310 0.432342
Si Si5 0.191202 0.897416 0.349119
Si Si6 0.296947 0.213079 0.238338
Si Si7 0.694504 0.404887 0.243699
Si Si8 0.202095 0.094167 0.130854
O O1 0.725066 0.094797 0.064076
O O2 0.500000 0.165782 0.000000
O O3 0.816578 0.216491 0.000000
O O4 0.809608 0.500000 0.089861
O O5 0.701927 0.403060 0.172508
O O6 0.000000 0.377120 0.126277
O O7 0.729004 0.346152 0.060919
O O8 0.000000 0.645676 0.000000
O O9 0.500000 0.134586 0.500000
O O10 0.666478 0.130360 0.395965
O O11 0.500000 0.000000 0.433938
O O12 0.224883 0.851492 0.287036
O O13 0.000000 0.879593 0.369238
O O14 0.207147 0.000000 0.341277
O O15 0.500000 0.215921 0.242030
O O16 0.232892 0.309455 0.255329
O O17 0.254937 0.172790 0.173691
O O18 0.500000 0.405576 0.264030
O O19 0.768540 0.500000 0.260318
O O20 0.000000 0.098303 0.125909
O O21 0.247954 0.000000 0.157210
#
# Coordination Sequence:
#
# PCOD9382977 Si02
#       8
#     4   8   4   4   8   8   8   8
#     4  12  25  38  51  68  91 120 160 213 269 327
#     4   9  17  29  45  64  85 112 150 198 253 314
#     4  10  19  31  47  64  85 113 147 191 247 315
#     4   9  18  34  56  84 121 162 200 234 268 314
#     4  10  20  34  54  83 120 158 195 235 275 319
#     4  11  21  34  55  80 108 143 181 225 275 326
#     4   9  19  34  49  68  97 131 167 210 263 320
#     4  11  24  40  56  73  95 127 169 219 275 333
#
# _framework density 18.640245
#
# number of rings (size 3 to 8) (size 9 to 14) (size 15 to 20)
#    0.000    1.923    0.769    3.462    0.000    9.538 
#    0.000    1.538    0.000    2.308    0.000    0.000 
#    0.000    1.231    0.000    1.385    0.000    0.154 
#
# Total GULP energy -289666.972313 kJ/mol
# GULP energy per Si atom -5570.518698 kJ/mol
# Density = 1.859782 g / cm^3
# Si number density = 18.640245 Si / 1000 Ang^3
#
#
#
# Elastic Constant Matrix: (Units=GPa)
#
#
# Indices 1 2 3 4 5 6 
#
# 1 78.3829 22.9749 27.6312 0.0000 0.0000 0.0000
# 2 22.9749 71.3576 24.2216 0.0000 0.0000 0.0000
# 3 27.6312 24.2216 77.2442 0.0000 0.0000 0.0000
# 4 0.0000 0.0000 0.0000 6.3342 0.0000 0.0000
# 5 0.0000 0.0000 0.0000 0.0000 13.3332 0.0000
# 6 0.0000 0.0000 0.0000 0.0000 0.0000 11.2769
#
#
#
# Elastic Compliance Matrix: (Units=1/GPa)
#
#
# Indices 1 2 3 4 5 6 
#
# 1 0.015317 -0.003438 -0.004401 0.000000 0.000000 0.000000
# 2 -0.003438 0.016455 -0.003930 0.000000 0.000000 0.000000
# 3 -0.004401 -0.003930 0.015753 0.000000 0.000000 0.000000
# 4 0.000000 0.000000 0.000000 0.157874 0.000000 0.000000
# 5 0.000000 0.000000 0.000000 0.000000 0.075001 0.000000
# 6 0.000000 0.000000 0.000000 0.000000 0.000000 0.088677
#
#
# Mechanical properties :
#
#
# Convention : Reuss Voigt Hill
#
# Bulk Modulus (GPa) = 41.68975 41.84889 41.76932
# Shear Modulus (GPa) = 12.48100 16.33266 14.40683
#
# Velocity S-wave (km/s) = 2.59042 2.96329 2.78310
# Velocity P-wave (km/s) = 5.60009 5.84873 5.72576
#
# Compressibility (1/GPa) = 0.02398671
#
# Stress axis : x y z
#
# Youngs Moduli (GPa) = 65.28709 60.77265 63.48141
#
# Poissons Ratio (x) = 0.20892 0.27939
# Poissons Ratio (y) = 0.22444 0.24948
# Poissons Ratio (z) = 0.28734 0.23884
#
# Static dielectric constant tensor:
#      x y z
#    x 1.676350 0.000000 0.000000 
#    y 0.000000 1.722530 0.000000 
#    z 0.000000 0.000000 1.609380 
# 
# From -- ./inp_files/29685.got.cif
#   From: 2010.05.17/outbox.cif.g08.bks.cpg/sg47_15_cif.got.tgz:29685.got - 2010.06.03 20:15:42.
