data_PCOD9382139
_publ_section_title
;
Structure prediction by ZEFSAII (Michael W. Deem and Ramdas Pophale) SiO2 
 PCOD9382139
Probable space group: P M M M
;
_chemical_formula_sum "Si O2"
_cell_formula_units_Z 52
_cell_length_a 23.899371
_cell_length_b 14.813703
_cell_length_c 7.938470
_cell_angle_alpha 90.000000
_cell_angle_beta 90.000000
_cell_angle_gamma 90.000000
_cell_volume 2810.521502
_symmetry_space_group_name_H-M "P M M M"
_symmetry_group_IT_number 47
_symmetry_cell_setting 'orthorhombic'
loop_
_space_group_symop_operation_xyz
x,y,z
-x,-y,z
x,-y,-z
-x,y,-z
-x,-y,-z
x,y,-z
-x,y,z
x,-y,z
loop_
_atom_site_type_symbol
_atom_site_label
_atom_site_fract_x
_atom_site_fract_y
_atom_site_fract_z
Si Si1 0.109840 0.289560 0.202468
Si Si2 0.329980 0.286998 0.300797
Si Si3 0.717649 0.899794 0.797272
Si Si4 0.000000 0.395557 0.793328
Si Si5 0.777986 0.396146 0.295995
Si Si6 0.437176 0.602028 0.797678
Si Si7 0.152928 0.898922 0.205778
O O1 0.166223 0.343974 0.242948
O O2 0.117208 0.186611 0.264448
O O3 0.055500 0.343036 0.264200
O O4 0.105050 0.284958 0.000000
O O5 0.327183 0.295571 0.500000
O O6 0.320486 0.182827 0.256600
O O7 0.277151 0.344148 0.231144
O O8 0.388599 0.329064 0.246816
O O9 0.782197 0.884611 0.742682
O O10 0.700679 0.000000 0.738761
O O11 0.718481 0.901096 0.000000
O O12 0.000000 0.500000 0.740165
O O13 0.000000 0.395857 0.000000
O O14 0.776559 0.396613 0.500000
O O15 0.778703 0.500000 0.238510
O O16 0.500000 0.625294 0.737515
O O17 0.423782 0.500000 0.736951
O O18 0.439497 0.598247 0.000000
O O19 0.135894 0.000000 0.259300
O O20 0.152245 0.898871 0.000000
#
# Coordination Sequence:
#
# PCOD9382139 Si02
#       7
#     8   8   8   4   8   8   8
#     4  10  18  31  51  70  92 126 166 205 248 301
#     4  11  21  32  50  77 108 136 165 206 258 308
#     4   9  17  31  51  74 101 132 167 209 254 302
#     4   9  18  30  44  68  98 125 161 211 258 297
#     4  10  21  34  46  67 101 132 160 201 249 293
#     4   9  19  36  56  77 103 138 179 216 247 291
#     4   8  14  26  46  71  96 121 155 202 250 295
#
# _framework density 18.501904
#
# number of rings (size 3 to 8) (size 9 to 14) (size 15 to 20)
#    0.000    2.538    1.538    2.769    0.000    3.077 
#    0.000    1.538    0.000    4.615    0.000    3.231 
#    0.000    1.231    0.000    0.000    0.000    0.000 
#
# Total GULP energy -290051.222797 kJ/mol
# GULP energy per Si atom -5577.908131 kJ/mol
# Density = 1.845979 g / cm^3
# Si number density = 18.501904 Si / 1000 Ang^3
#
#
#
# Elastic Constant Matrix: (Units=GPa)
#
#
# Indices 1 2 3 4 5 6 
#
# 1 141.5648 115.1058 9.6054 0.0000 0.0000 0.0000
# 2 115.1058 199.6154 10.4854 0.0000 0.0000 0.0000
# 3 9.6054 10.4854 14.7281 0.0000 0.0000 0.0000
# 4 0.0000 0.0000 0.0000 5.3713 0.0000 0.0000
# 5 0.0000 0.0000 0.0000 0.0000 -252.4617 0.0000
# 6 0.0000 0.0000 0.0000 0.0000 0.0000 30.8133
#
#
#
# Elastic Compliance Matrix: (Units=1/GPa)
#
#
# Indices 1 2 3 4 5 6 
#
# 1 0.013460 -0.007584 -0.003379 0.000000 0.000000 0.000000
# 2 -0.007584 0.009477 -0.001801 0.000000 0.000000 0.000000
# 3 -0.003379 -0.001801 0.071383 0.000000 0.000000 0.000000
# 4 0.000000 0.000000 0.000000 0.186175 0.000000 0.000000
# 5 0.000000 0.000000 0.000000 0.000000 -0.003961 0.000000
# 6 0.000000 0.000000 0.000000 0.000000 0.000000 0.032454
#
#
# Mechanical properties :
#
#
# Convention : Reuss Voigt Hill
#
# Bulk Modulus (GPa) = 14.53647 69.58905 42.06276
# Shear Modulus (GPa) = 13.98811 -28.54130 -7.27660
#
# Velocity S-wave (km/s) = 2.75259 -3.93187 -1.98530
# Velocity P-wave (km/s) = 4.23983 4.13287 4.18669
#
# Compressibility (1/GPa) = 0.06879250
#
# Stress axis : x y z
#
# Youngs Moduli (GPa) = 74.29694 105.51490 14.00884
#
# Poissons Ratio (x) = 0.80020 0.04733
# Poissons Ratio (y) = 0.56345 0.02523
# Poissons Ratio (z) = 0.25104 0.19005
#
# Static dielectric constant tensor:
#      x y z
#    x 1.622210 0.000000 0.000000 
#    y 0.000000 1.661900 0.000000 
#    z 0.000000 0.000000 1.659640 
# 
# From -- ./inp_files/10959.got.cif
#   From: 2010.05.17/outbox.cif.g08.bks.cpg/sg47_6_cif.got.tgz:10959.got - 2010.06.03 20:15:42.
