data_PCOD9382057
_publ_section_title
;
Structure prediction by ZEFSAII (Michael W. Deem and Ramdas Pophale) SiO2 
 PCOD9382057
Probable space group: P M M M
;
_chemical_formula_sum "Si O2"
_cell_formula_units_Z 64
_cell_length_a 20.718989
_cell_length_b 20.683100
_cell_length_c 7.739017
_cell_angle_alpha 90.000000
_cell_angle_beta 90.000000
_cell_angle_gamma 90.000000
_cell_volume 3316.423564
_symmetry_space_group_name_H-M "P M M M"
_symmetry_group_IT_number 47
_symmetry_cell_setting 'orthorhombic'
loop_
_space_group_symop_operation_xyz
x,y,z
-x,-y,z
x,-y,-z
-x,y,-z
-x,-y,-z
x,y,-z
-x,y,z
x,-y,z
loop_
_atom_site_type_symbol
_atom_site_label
_atom_site_fract_x
_atom_site_fract_y
_atom_site_fract_z
Si Si1 0.289691 0.742914 0.796138
Si Si2 0.072694 0.925519 0.289316
Si Si3 0.929970 0.710269 0.297295
Si Si4 0.430268 0.712319 0.788795
Si Si5 0.398006 0.569462 0.797662
Si Si6 0.111961 0.429737 0.200388
Si Si7 0.745279 0.601154 0.300546
Si Si8 0.169743 0.184700 0.709064
O O1 0.364115 0.747675 0.736554
O O2 0.259410 0.679101 0.708890
O O3 0.242878 0.803149 0.766269
O O4 0.290884 0.728442 0.000000
O O5 0.072758 0.924504 0.500000
O O6 0.129543 0.877895 0.232609
O O7 0.000000 0.904824 0.236736
O O8 0.081854 0.000000 0.236160
O O9 0.932831 0.726816 0.500000
O O10 0.916535 0.634270 0.284495
O O11 0.872231 0.753755 0.226515
O O12 0.000000 0.725032 0.220226
O O13 0.500000 0.738164 0.733170
O O14 0.424039 0.637485 0.728259
O O15 0.430245 0.711597 0.000000
O O16 0.417919 0.500000 0.722273
O O17 0.320514 0.575355 0.782188
O O18 0.415458 0.568553 0.000000
O O19 0.093381 0.500000 0.272880
O O20 0.189381 0.422611 0.213666
O O21 0.093062 0.428137 0.000000
O O22 0.747007 0.581412 0.500000
O O23 0.171239 0.184067 0.500000
#
# Coordination Sequence:
#
# PCOD9382057 Si02
#       8
#     8   8   8   8   8   8   8   8
#     4  10  19  31  49  71  95 122 155 197 241 285
#     4   8  14  26  47  77 111 143 172 199 227 266
#     4  10  21  35  50  69  92 120 156 197 239 285
#     4   8  15  28  45  65  89 118 153 194 239 288
#     4   9  17  28  43  64  88 113 144 185 236 295
#     4  11  23  36  49  64  85 115 153 200 252 300
#     4  11  20  31  47  66  87 114 150 194 243 293
#     4  10  18  30  51  77 102 130 163 199 234 273
#
# _framework density 19.297896000000001
#
# number of rings (size 3 to 8) (size 9 to 14) (size 15 to 20)
#    0.000    2.375    1.250    3.750    0.000    5.000 
#    0.000    2.500    0.000   10.875    0.000    4.375 
#    0.000    0.500    0.000    6.250    0.000    0.000 
#
# Total GULP energy -357086.348226 kJ/mol
# GULP energy per Si atom -5579.474191 kJ/mol
# Density = 1.925397 g / cm^3
# Si number density = 19.297896 Si / 1000 Ang^3
#
#
#
# Elastic Constant Matrix: (Units=GPa)
#
#
# Indices 1 2 3 4 5 6 
#
# 1 139.4158 54.5222 -0.0591 0.0000 0.0000 0.0000
# 2 54.5222 76.4447 -0.6015 0.0000 0.0000 0.0000
# 3 -0.0591 -0.6015 38.5096 0.0000 0.0000 0.0000
# 4 0.0000 0.0000 0.0000 18.3994 0.0000 0.0000
# 5 0.0000 0.0000 0.0000 0.0000 9.4617 0.0000
# 6 0.0000 0.0000 0.0000 0.0000 0.0000 -40.9949
#
#
#
# Elastic Compliance Matrix: (Units=1/GPa)
#
#
# Indices 1 2 3 4 5 6 
#
# 1 0.009948 -0.007096 -0.000096 0.000000 0.000000 0.000000
# 2 -0.007096 0.018144 0.000273 0.000000 0.000000 0.000000
# 3 -0.000096 0.000273 0.025972 0.000000 0.000000 0.000000
# 4 0.000000 0.000000 0.000000 0.054349 0.000000 0.000000
# 5 0.000000 0.000000 0.000000 0.000000 0.105689 0.000000
# 6 0.000000 0.000000 0.000000 0.000000 0.000000 -0.024393
#
#
# Mechanical properties :
#
#
# Convention : Reuss Voigt Hill
#
# Bulk Modulus (GPa) = 24.85944 40.23259 32.54602
# Shear Modulus (GPa) = 23.04627 10.74049 16.89338
#
# Velocity S-wave (km/s) = 3.45952 2.36172 2.96193
# Velocity P-wave (km/s) = 5.37286 5.32263 5.34780
#
# Compressibility (1/GPa) = 0.04022616
#
# Stress axis : x y z
#
# Youngs Moduli (GPa) = 100.52570 55.11368 38.50352
#
# Poissons Ratio (x) = 0.39107 0.00368
# Poissons Ratio (y) = 0.71330 -0.01049
# Poissons Ratio (z) = 0.00961 -0.01502
#
# Static dielectric constant tensor:
#      x y z
#    x 1.711040 0.000000 0.000000 
#    y 0.000000 1.669980 0.000000 
#    z 0.000000 0.000000 1.721850 
# 
# From -- ./inp_files/11845.got.cif
#   From: 2010.05.17/outbox.cif.g08.bks.cpg/sg47_6_cif.got.tgz:11845.got - 2010.06.03 20:15:42.
