data_PCOD9382509
_publ_section_title
;
Structure prediction by ZEFSAII (Michael W. Deem and Ramdas Pophale) SiO2 
 PCOD9382509
Probable space group: P M M M
;
_chemical_formula_sum "Si O2"
_cell_formula_units_Z 64
_cell_length_a 17.601647
_cell_length_b 15.941828
_cell_length_c 14.624856
_cell_angle_alpha 90.000000
_cell_angle_beta 90.000000
_cell_angle_gamma 90.000000
_cell_volume 4103.770117
_symmetry_space_group_name_H-M "P M M M"
_symmetry_group_IT_number 47
_symmetry_cell_setting 'orthorhombic'
loop_
_space_group_symop_operation_xyz
x,y,z
-x,-y,z
x,-y,-z
-x,y,-z
-x,-y,-z
x,y,-z
-x,y,z
x,-y,z
loop_
_atom_site_type_symbol
_atom_site_label
_atom_site_fract_x
_atom_site_fract_y
_atom_site_fract_z
Si Si1 0.088587 0.594291 0.888842
Si Si2 0.414826 0.866225 0.108821
Si Si3 0.796711 0.736802 0.107693
Si Si4 0.413211 0.250726 0.392951
Si Si5 0.374960 0.673582 0.103653
Si Si6 0.410417 0.590929 0.286054
Si Si7 0.695450 0.905424 0.603120
Si Si8 0.746025 0.906231 0.198733
O O1 0.112701 0.500000 0.859714
O O2 0.140691 0.671126 0.856821
O O3 0.000000 0.605210 0.864698
O O4 0.092945 0.594535 0.000000
O O5 0.500000 0.895287 0.134019
O O6 0.412290 0.765097 0.118401
O O7 0.342625 0.899280 0.165396
O O8 0.403157 0.884128 0.000000
O O9 0.714828 0.691421 0.114305
O O10 0.788832 0.827062 0.155314
O O11 0.810462 0.752062 0.000000
O O12 0.414088 0.273252 0.500000
O O13 0.500000 0.237067 0.362395
O O14 0.378112 0.327809 0.337117
O O15 0.367308 0.165537 0.383302
O O16 0.402109 0.609041 0.179043
O O17 0.390503 0.647030 0.000000
O O18 0.500000 0.589387 0.309515
O O19 0.378003 0.500000 0.310317
O O20 0.727735 0.894398 0.500000
O O21 0.748932 0.898998 0.691267
O O22 0.663217 0.000000 0.606206
O O23 0.772304 0.000000 0.172278
#
# Coordination Sequence:
#
# PCOD9382509 Si02
#       8
#     8   8   8   8   8   8   8   8
#     4   8  14  26  45  68  93 120 147 174 206 243
#     4   9  17  28  41  56  76 107 148 190 225 256
#     4   9  17  28  43  64  89 116 143 171 203 241
#     4   9  17  29  44  58  72  93 122 163 216 265
#     4   9  17  28  40  54  75 105 140 177 214 245
#     4  10  20  30  39  53  74 103 139 174 206 245
#     4   9  18  31  45  61  79  99 129 172 220 266
#     4  10  19  29  42  60  84 115 146 176 214 257
#
# _framework density 15.595416
#
# number of rings (size 3 to 8) (size 9 to 14) (size 15 to 20)
#    0.000    2.875    0.000    3.375    0.000    4.750 
#    0.000    6.250    0.000    0.375    0.000    1.750 
#    0.000    0.500    0.000    4.500    0.000    0.875 
#
# Total GULP energy -356324.189590 kJ/mol
# GULP energy per Si atom -5567.565462 kJ/mol
# Density = 1.555992 g / cm^3
# Si number density = 15.595416 Si / 1000 Ang^3
#
#
#
# Elastic Constant Matrix: (Units=GPa)
#
#
# Indices 1 2 3 4 5 6 
#
# 1 39.4819 39.0876 11.6832 0.0000 0.0000 0.0000
# 2 39.0876 114.2577 39.4629 0.0000 0.0000 0.0000
# 3 11.6832 39.4629 44.2344 0.0000 0.0000 0.0000
# 4 0.0000 0.0000 0.0000 11.5716 0.0000 0.0000
# 5 0.0000 0.0000 0.0000 0.0000 5.9247 0.0000
# 6 0.0000 0.0000 0.0000 0.0000 0.0000 59.4306
#
#
#
# Elastic Compliance Matrix: (Units=1/GPa)
#
#
# Indices 1 2 3 4 5 6 
#
# 1 0.038458 -0.013945 0.002283 0.000000 0.000000 0.000000
# 2 -0.013945 0.017707 -0.012113 0.000000 0.000000 0.000000
# 3 0.002283 -0.012113 0.032810 0.000000 0.000000 0.000000
# 4 0.000000 0.000000 0.000000 0.086419 0.000000 0.000000
# 5 0.000000 0.000000 0.000000 0.000000 0.168784 0.000000
# 6 0.000000 0.000000 0.000000 0.000000 0.000000 0.016826
#
#
# Mechanical properties :
#
#
# Convention : Reuss Voigt Hill
#
# Bulk Modulus (GPa) = 24.14008 42.04904 33.09456
# Shear Modulus (GPa) = 11.83815 22.56808 17.20311
#
# Velocity S-wave (km/s) = 2.75813 3.80820 3.32488
# Velocity P-wave (km/s) = 5.06513 6.80863 6.00054
#
# Compressibility (1/GPa) = 0.04142488
#
# Stress axis : x y z
#
# Youngs Moduli (GPa) = 26.00212 56.47611 30.47806
#
# Poissons Ratio (x) = 0.78757 -0.06959
# Poissons Ratio (y) = 0.36261 0.36919
# Poissons Ratio (z) = -0.05937 0.68412
#
# Static dielectric constant tensor:
#      x y z
#    x 1.502700 0.000000 0.000000 
#    y 0.000000 1.557310 0.000000 
#    z 0.000000 0.000000 1.547580 
# 
# From -- ./inp_files/24806.got.cif
#   From: 2010.05.17/outbox.cif.g08.bks.cpg/sg47_13_cif.got.tgz:24806.got - 2010.06.03 20:15:42.
