data_PCOD9382642
_publ_section_title
;
Structure prediction by ZEFSAII (Michael W. Deem and Ramdas Pophale) SiO2 
 PCOD9382642
Probable space group: P M M M
;
_chemical_formula_sum "Si O2"
_cell_formula_units_Z 48
_cell_length_a 18.753044
_cell_length_b 22.490416
_cell_length_c 9.097207
_cell_angle_alpha 90.000000
_cell_angle_beta 90.000000
_cell_angle_gamma 90.000000
_cell_volume 3836.872237
_symmetry_space_group_name_H-M "P M M M"
_symmetry_group_IT_number 47
_symmetry_cell_setting 'orthorhombic'
loop_
_space_group_symop_operation_xyz
x,y,z
-x,-y,z
x,-y,-z
-x,y,-z
-x,-y,-z
x,y,-z
-x,y,z
x,-y,z
loop_
_atom_site_type_symbol
_atom_site_label
_atom_site_fract_x
_atom_site_fract_y
_atom_site_fract_z
Si Si1 0.500000 0.428766 0.172699
Si Si2 0.585851 0.243451 0.826026
Si Si3 0.921801 0.571977 0.827002
Si Si4 0.223056 0.430825 0.323706
Si Si5 0.586950 0.000000 0.170099
Si Si6 0.632260 0.363110 0.676999
Si Si7 0.586700 0.879242 0.330577
O O1 0.500000 0.500000 0.182844
O O2 0.430730 0.401998 0.251628
O O3 0.500000 0.411682 0.000000
O O4 0.500000 0.250339 0.805984
O O5 0.623201 0.297181 0.741151
O O6 0.606799 0.179764 0.758724
O O7 0.599942 0.245704 0.000000
O O8 0.922406 0.500000 0.813597
O O9 0.851014 0.592041 0.743989
O O10 0.000000 0.592841 0.773882
O O11 0.916313 0.585618 0.000000
O O12 0.216979 0.430418 0.500000
O O13 0.233778 0.500000 0.278002
O O14 0.291912 0.392320 0.283396
O O15 0.610212 0.940079 0.252576
O O16 0.500000 0.000000 0.171897
O O17 0.608788 0.000000 0.000000
O O18 0.625113 0.362856 0.500000
O O19 0.609927 0.876409 0.500000
O O20 0.500000 0.880488 0.331010
#
# Coordination Sequence:
#
# PCOD9382642 Si02
#       7
#     4   8   8   8   4   8   8
#     4  11  23  35  45  57  71  90 121 160 201 241
#     4  10  19  30  42  55  72  93 123 159 194 231
#     4   8  14  25  41  60  79  97 116 139 173 220
#     4   9  18  30  42  58  77  96 120 151 189 231
#     4   9  15  23  35  53  75  95 115 143 184 223
#     4  11  21  32  45  57  73  96 125 159 196 235
#     4   9  16  25  38  54  72  93 119 148 184 226
#
# _framework density 12.51019
#
# number of rings (size 3 to 8) (size 9 to 14) (size 15 to 20)
#    0.000    2.500    0.833    3.000    0.000    6.667 
#    0.000    3.333    0.000    0.000    0.000    0.000 
#    0.000    0.000    0.000    0.000    0.000    0.000 
#
# Total GULP energy -267453.170221 kJ/mol
# GULP energy per Si atom -5571.941046 kJ/mol
# Density = 1.248172 g / cm^3
# Si number density = 12.510190 Si / 1000 Ang^3
#
#
#
# Elastic Constant Matrix: (Units=GPa)
#
#
# Indices 1 2 3 4 5 6 
#
# 1 87.7618 42.0657 43.0089 0.0000 0.0000 0.0000
# 2 42.0657 86.8557 46.0712 0.0000 0.0000 0.0000
# 3 43.0089 46.0712 71.1280 0.0000 0.0000 0.0000
# 4 0.0000 0.0000 0.0000 21.4269 0.0000 0.0000
# 5 0.0000 0.0000 0.0000 0.0000 14.3324 0.0000
# 6 0.0000 0.0000 0.0000 0.0000 0.0000 1.8171
#
#
#
# Elastic Compliance Matrix: (Units=1/GPa)
#
#
# Indices 1 2 3 4 5 6 
#
# 1 0.017178 -0.004281 -0.007614 0.000000 0.000000 0.000000
# 2 -0.004281 0.018606 -0.009463 0.000000 0.000000 0.000000
# 3 -0.007614 -0.009463 0.024793 0.000000 0.000000 0.000000
# 4 0.000000 0.000000 0.000000 0.046670 0.000000 0.000000
# 5 0.000000 0.000000 0.000000 0.000000 0.069772 0.000000
# 6 0.000000 0.000000 0.000000 0.000000 0.000000 0.550319
#
#
# Mechanical properties :
#
#
# Convention : Reuss Voigt Hill
#
# Bulk Modulus (GPa) = 55.98939 56.44854 56.21896
# Shear Modulus (GPa) = 6.44323 15.15526 10.79925
#
# Velocity S-wave (km/s) = 2.27191 3.48434 2.94128
# Velocity P-wave (km/s) = 7.19265 7.83629 7.52136
#
# Compressibility (1/GPa) = 0.01786053
#
# Stress axis : x y z
#
# Youngs Moduli (GPa) = 58.21508 53.74561 40.33436
#
# Poissons Ratio (x) = 0.23007 0.30711
# Poissons Ratio (y) = 0.24920 0.38169
# Poissons Ratio (z) = 0.44326 0.50861
#
# Static dielectric constant tensor:
#      x y z
#    x 1.390250 0.000000 0.000000 
#    y 0.000000 1.397710 0.000000 
#    z 0.000000 0.000000 1.418150 
# 
# From -- ./inp_files/9709.got.cif
#   From: 2010.05.17/outbox.cif.g08.bks.cpg/sg47_5_cif.got.tgz:9709.got - 2010.06.03 20:15:42.
