data_PCOD9382992
_publ_section_title
;
Structure prediction by ZEFSAII (Michael W. Deem and Ramdas Pophale) SiO2 
 PCOD9382992
Probable space group: P M M M
;
_chemical_formula_sum "Si O2"
_cell_formula_units_Z 60
_cell_length_a 7.978170
_cell_length_b 20.138583
_cell_length_c 20.201920
_cell_angle_alpha 90.000000
_cell_angle_beta 90.000000
_cell_angle_gamma 90.000000
_cell_volume 3245.823067
_symmetry_space_group_name_H-M "P M M M"
_symmetry_group_IT_number 47
_symmetry_cell_setting 'orthorhombic'
loop_
_space_group_symop_operation_xyz
x,y,z
-x,-y,z
x,-y,-z
-x,y,-z
-x,-y,-z
x,y,-z
-x,y,z
x,-y,z
loop_
_atom_site_type_symbol
_atom_site_label
_atom_site_fract_x
_atom_site_fract_y
_atom_site_fract_z
Si Si1 0.698872 0.209276 0.675008
Si Si2 0.302663 0.734247 0.925365
Si Si3 0.294417 0.312487 0.213515
Si Si4 0.799701 0.075702 0.278809
Si Si5 0.298205 0.424887 0.686273
Si Si6 0.200614 0.677194 0.575172
Si Si7 0.805568 0.131767 0.140098
Si Si8 0.690224 0.000000 0.077693
O O1 0.500000 0.204965 0.680923
O O2 0.760784 0.249922 0.740622
O O3 0.766164 0.134450 0.669285
O O4 0.741237 0.256997 0.613850
O O5 0.500000 0.718905 0.930050
O O6 0.234912 0.693054 0.862184
O O7 0.284754 0.809525 0.898899
O O8 0.231713 0.727013 0.000000
O O9 0.500000 0.310879 0.212846
O O10 0.240958 0.378259 0.252925
O O11 0.732660 0.108904 0.210991
O O12 0.000000 0.070228 0.270781
O O13 0.737371 0.000000 0.289539
O O14 0.500000 0.427406 0.690514
O O15 0.233455 0.500000 0.687628
O O16 0.255222 0.385389 0.619456
O O17 0.264063 0.674212 0.500000
O O18 0.000000 0.677958 0.573747
O O19 0.788830 0.064792 0.099075
O O20 0.000000 0.151189 0.147758
O O21 0.500000 0.000000 0.106092
O O22 0.674711 0.000000 0.000000
#
# Coordination Sequence:
#
# PCOD9382992 Si02
#       8
#     8   8   8   8   8   8   8   4
#     4  10  19  33  55  78 101 134 175 218 258 301
#     4  10  19  31  47  67  94 129 171 218 266 313
#     4   8  15  29  48  71  97 130 171 213 257 302
#     4  10  20  34  50  71 100 133 169 214 267 317
#     4   9  18  33  54  80 109 141 177 215 252 295
#     4  10  21  36  55  81 113 145 172 202 245 300
#     4  11  21  33  47  66  92 123 162 211 264 316
#     4  11  23  35  45  59  85 125 168 207 258 323
#
# _framework density 18.485295000000001
#
# number of rings (size 3 to 8) (size 9 to 14) (size 15 to 20)
#    0.000    2.200    2.000    2.600    0.000    4.800 
#    0.000    1.333    0.000    0.800    0.000    5.600 
#    0.000    0.000    0.000    4.667    0.000    5.867 
#
# Total GULP energy -334404.090331 kJ/mol
# GULP energy per Si atom -5573.401506 kJ/mol
# Density = 1.844322 g / cm^3
# Si number density = 18.485295 Si / 1000 Ang^3
#
#
#
# Elastic Constant Matrix: (Units=GPa)
#
#
# Indices 1 2 3 4 5 6 
#
# 1 22.6955 4.4853 4.4766 0.0000 0.0000 0.0000
# 2 4.4853 147.4320 83.9396 0.0000 0.0000 0.0000
# 3 4.4766 83.9396 132.5665 0.0000 0.0000 0.0000
# 4 0.0000 0.0000 0.0000 30.7863 0.0000 0.0000
# 5 0.0000 0.0000 0.0000 0.0000 14.6003 0.0000
# 6 0.0000 0.0000 0.0000 0.0000 0.0000 10.2042
#
#
#
# Elastic Compliance Matrix: (Units=1/GPa)
#
#
# Indices 1 2 3 4 5 6 
#
# 1 0.044414 -0.000778 -0.001007 0.000000 0.000000 0.000000
# 2 -0.000778 0.010620 -0.006698 0.000000 0.000000 0.000000
# 3 -0.001007 -0.006698 0.011819 0.000000 0.000000 0.000000
# 4 0.000000 0.000000 0.000000 0.032482 0.000000 0.000000
# 5 0.000000 0.000000 0.000000 0.000000 0.068492 0.000000
# 6 0.000000 0.000000 0.000000 0.000000 0.000000 0.097999
#
#
# Mechanical properties :
#
#
# Convention : Reuss Voigt Hill
#
# Bulk Modulus (GPa) = 20.04562 54.27742 37.16152
# Shear Modulus (GPa) = 16.69890 25.10430 20.90160
#
# Velocity S-wave (km/s) = 3.00886 3.68920 3.36626
# Velocity P-wave (km/s) = 4.78943 6.89733 5.93766
#
# Compressibility (1/GPa) = 0.04988621
#
# Stress axis : x y z
#
# Youngs Moduli (GPa) = 22.51539 94.16148 84.61200
#
# Poissons Ratio (x) = 0.07322 0.08524
# Poissons Ratio (y) = 0.01751 0.56675
# Poissons Ratio (z) = 0.02268 0.63072
#
# Static dielectric constant tensor:
#      x y z
#    x 1.682260 0.000000 0.000000 
#    y 0.000000 1.638000 0.000000 
#    z 0.000000 0.000000 1.669380 
# 
# From -- ./inp_files/11584.got.cif
#   From: 2010.05.17/outbox.cif.g08.bks.cpg/sg47_6_cif.got.tgz:11584.got - 2010.06.03 20:15:42.
