data_PCOD9382331
_publ_section_title
;
Structure prediction by ZEFSAII (Michael W. Deem and Ramdas Pophale) SiO2 
 PCOD9382331
Probable space group: P M M M
;
_chemical_formula_sum "Si O2"
_cell_formula_units_Z 52
_cell_length_a 12.403093
_cell_length_b 25.770279
_cell_length_c 7.803302
_cell_angle_alpha 90.000000
_cell_angle_beta 90.000000
_cell_angle_gamma 90.000000
_cell_volume 2494.178525
_symmetry_space_group_name_H-M "P M M M"
_symmetry_group_IT_number 47
_symmetry_cell_setting 'orthorhombic'
loop_
_space_group_symop_operation_xyz
x,y,z
-x,-y,z
x,-y,-z
-x,y,-z
-x,-y,-z
x,y,-z
-x,y,z
x,-y,z
loop_
_atom_site_type_symbol
_atom_site_label
_atom_site_fract_x
_atom_site_fract_y
_atom_site_fract_z
Si Si1 0.377276 0.346745 0.705439
Si Si2 0.233577 0.059114 0.797243
Si Si3 0.379366 0.847597 0.703300
Si Si4 0.773796 0.441400 0.206778
Si Si5 0.000000 0.940532 0.295684
Si Si6 0.763312 0.248062 0.289081
Si Si7 0.000000 0.270942 0.703089
Si Si8 0.000000 0.608155 0.791961
O O1 0.383045 0.341387 0.500000
O O2 0.500000 0.344317 0.771742
O O3 0.318135 0.400693 0.743799
O O4 0.301800 0.299442 0.766476
O O5 0.324232 0.096895 0.727609
O O6 0.114354 0.081907 0.760214
O O7 0.237977 0.000000 0.726859
O O8 0.246394 0.056160 0.000000
O O9 0.387394 0.838397 0.500000
O O10 0.500000 0.845468 0.775657
O O11 0.301501 0.802440 0.770151
O O12 0.754941 0.500000 0.268515
O O13 0.890631 0.420304 0.265268
O O14 0.777587 0.442785 0.000000
O O15 0.000000 0.941833 0.500000
O O16 0.000000 0.000000 0.226904
O O17 0.765879 0.248425 0.500000
O O18 0.886737 0.249686 0.228098
O O19 0.000000 0.332869 0.728956
O O20 0.000000 0.260088 0.500000
O O21 0.000000 0.608761 0.000000
#
# Coordination Sequence:
#
# PCOD9382331 Si02
#       8
#     8   8   8   8   4   8   4   4
#     4  10  20  35  56  79 106 142 182 225 272 324
#     4  10  21  37  57  83 118 155 188 230 287 341
#     4  10  21  37  57  81 111 149 194 239 278 327
#     4  10  21  36  54  77 107 143 181 223 272 326
#     4   9  17  32  57  86 113 144 186 231 273 326
#     4   9  18  34  56  82 110 139 176 226 282 333
#     4  10  18  32  58  85 108 137 174 219 273 334
#     4  10  19  34  55  79 107 138 176 220 270 326
#
# _framework density 20.848548000000001
#
# number of rings (size 3 to 8) (size 9 to 14) (size 15 to 20)
#    0.000    2.231    1.538    1.385    0.000    6.769 
#    0.000    6.154    0.000    3.231    0.000    0.000 
#    0.000    0.000    0.000    0.000    0.000    0.000 
#
# Total GULP energy -290349.379113 kJ/mol
# GULP energy per Si atom -5583.641906 kJ/mol
# Density = 2.080110 g / cm^3
# Si number density = 20.848548 Si / 1000 Ang^3
#
#
#
# Elastic Constant Matrix: (Units=GPa)
#
#
# Indices 1 2 3 4 5 6 
#
# 1 221.3194 99.2600 8.4058 0.0000 0.0000 0.0000
# 2 99.2600 118.5558 -4.4261 0.0000 0.0000 0.0000
# 3 8.4058 -4.4261 23.4545 0.0000 0.0000 0.0000
# 4 0.0000 0.0000 0.0000 46.4162 0.0000 0.0000
# 5 0.0000 0.0000 0.0000 0.0000 9.7769 0.0000
# 6 0.0000 0.0000 0.0000 0.0000 0.0000 15.9425
#
#
#
# Elastic Compliance Matrix: (Units=1/GPa)
#
#
# Indices 1 2 3 4 5 6 
#
# 1 0.007581 -0.006494 -0.003942 0.000000 0.000000 0.000000
# 2 -0.006494 0.014058 0.004980 0.000000 0.000000 0.000000
# 3 -0.003942 0.004980 0.044988 0.000000 0.000000 0.000000
# 4 0.000000 0.000000 0.000000 0.021544 0.000000 0.000000
# 5 0.000000 0.000000 0.000000 0.000000 0.102282 0.000000
# 6 0.000000 0.000000 0.000000 0.000000 0.000000 0.062725
#
#
# Mechanical properties :
#
#
# Convention : Reuss Voigt Hill
#
# Bulk Modulus (GPa) = 17.94855 63.31211 40.63033
# Shear Modulus (GPa) = 17.68897 31.76645 24.72771
#
# Velocity S-wave (km/s) = 2.91598 3.90766 3.44766
# Velocity P-wave (km/s) = 4.46822 7.12695 5.94804
#
# Compressibility (1/GPa) = 0.05571479
#
# Stress axis : x y z
#
# Youngs Moduli (GPa) = 131.91613 71.13491 22.22792
#
# Poissons Ratio (x) = 0.46195 0.08763
# Poissons Ratio (y) = 0.85666 -0.11070
# Poissons Ratio (z) = 0.52005 -0.35426
#
# Static dielectric constant tensor:
#      x y z
#    x 1.745410 0.000000 0.000000 
#    y 0.000000 1.729300 0.000000 
#    z 0.000000 0.000000 1.762570 
# 
# From -- ./inp_files/4682.got.cif
#   From: 2010.05.17/outbox.cif.g08.bks.cpg/sg47_3_cif.got.tgz:4682.got - 2010.06.03 20:15:42.
