data_PCOD9382212
_publ_section_title
;
Structure prediction by ZEFSAII (Michael W. Deem and Ramdas Pophale) SiO2 
 PCOD9382212
Probable space group: P M M M
;
_chemical_formula_sum "Si O2"
_cell_formula_units_Z 52
_cell_length_a 8.505541
_cell_length_b 17.576950
_cell_length_c 18.325916
_cell_angle_alpha 90.000000
_cell_angle_beta 90.000000
_cell_angle_gamma 90.000000
_cell_volume 2739.751361
_symmetry_space_group_name_H-M "P M M M"
_symmetry_group_IT_number 47
_symmetry_cell_setting 'orthorhombic'
loop_
_space_group_symop_operation_xyz
x,y,z
-x,-y,z
x,-y,-z
-x,y,-z
-x,-y,-z
x,y,-z
-x,y,z
x,-y,z
loop_
_atom_site_type_symbol
_atom_site_label
_atom_site_fract_x
_atom_site_fract_y
_atom_site_fract_z
Si Si1 0.812891 0.586797 0.500000
Si Si2 0.308140 0.835027 0.699657
Si Si3 0.813540 0.588691 0.779755
Si Si4 0.686369 0.675060 0.360337
Si Si5 0.313314 0.323987 0.918581
Si Si6 0.187462 0.167526 0.866370
Si Si7 0.686042 0.000000 0.307223
Si Si8 0.189065 0.000000 0.856635
O O1 0.749594 0.500000 0.500000
O O2 0.760981 0.632027 0.428286
O O3 0.000000 0.582141 0.500000
O O4 0.500000 0.834825 0.706272
O O5 0.261040 0.762275 0.652216
O O6 0.237986 0.827502 0.781146
O O7 0.255729 0.917060 0.667959
O O8 0.769779 0.500000 0.782205
O O9 0.726643 0.630726 0.713901
O O10 0.771751 0.629462 0.855317
O O11 0.000000 0.594320 0.766699
O O12 0.500000 0.676003 0.371127
O O13 0.500000 0.334475 0.910750
O O14 0.273104 0.235187 0.907762
O O15 0.265676 0.347782 0.000000
O O16 0.000000 0.178551 0.871907
O O17 0.224827 0.081399 0.892553
O O18 0.500000 0.000000 0.320294
O O19 0.721027 0.000000 0.220505
O O20 0.000000 0.000000 0.842121
#
# Coordination Sequence:
#
# PCOD9382212 Si02
#       8
#     4   8   8   8   8   8   4   4
#     4  11  25  43  61  84 117 154 194 239 287 341
#     4   9  17  30  52  82 115 149 187 229 274 330
#     4  11  24  41  62  87 113 144 185 232 285 347
#     4  11  22  37  61  91 121 152 189 231 280 339
#     4  11  24  40  57  79 110 148 191 239 290 342
#     4  10  18  31  53  79 110 147 188 234 284 336
#     4   8  14  26  46  76 112 148 184 225 271 319
#     4   8  16  28  45  75 109 142 183 230 280 334
#
# _framework density 18.979824000000001
#
# number of rings (size 3 to 8) (size 9 to 14) (size 15 to 20)
#    0.000    1.923    1.538    2.538    0.000    6.462 
#    0.000    1.923    0.000    2.769    0.000    3.231 
#    0.000    0.000    0.000    0.000    0.000    0.000 
#
# Total GULP energy -290192.533035 kJ/mol
# GULP energy per Si atom -5580.625635 kJ/mol
# Density = 1.893663 g / cm^3
# Si number density = 18.979824 Si / 1000 Ang^3
#
#
#
# Elastic Constant Matrix: (Units=GPa)
#
#
# Indices 1 2 3 4 5 6 
#
# 1 15.0421 7.5165 3.0443 0.0000 0.0000 0.0000
# 2 7.5165 123.1010 34.5333 0.0000 0.0000 0.0000
# 3 3.0443 34.5333 70.9302 0.0000 0.0000 0.0000
# 4 0.0000 0.0000 0.0000 -21.9286 0.0000 0.0000
# 5 0.0000 0.0000 0.0000 0.0000 32.7938 0.0000
# 6 0.0000 0.0000 0.0000 0.0000 0.0000 26.2402
#
#
#
# Elastic Compliance Matrix: (Units=1/GPa)
#
#
# Indices 1 2 3 4 5 6 
#
# 1 0.068640 -0.003897 -0.001049 0.000000 0.000000 0.000000
# 2 -0.003897 0.009630 -0.004521 0.000000 0.000000 0.000000
# 3 -0.001049 -0.004521 0.016345 0.000000 0.000000 0.000000
# 4 0.000000 0.000000 0.000000 -0.045603 0.000000 0.000000
# 5 0.000000 0.000000 0.000000 0.000000 0.030494 0.000000
# 6 0.000000 0.000000 0.000000 0.000000 0.000000 0.038109
#
#
# Mechanical properties :
#
#
# Convention : Reuss Voigt Hill
#
# Bulk Modulus (GPa) = 13.21345 33.25127 23.23236
# Shear Modulus (GPa) = 30.90723 18.35305 24.63014
#
# Velocity S-wave (km/s) = 4.03975 3.11300 3.60627
# Velocity P-wave (km/s) = 5.36064 5.52072 5.44127
#
# Compressibility (1/GPa) = 0.07568046
#
# Stress axis : x y z
#
# Youngs Moduli (GPa) = 14.56883 103.84609 61.18265
#
# Poissons Ratio (x) = 0.40468 0.06416
# Poissons Ratio (y) = 0.05677 0.27661
# Poissons Ratio (z) = 0.01528 0.46949
#
# Static dielectric constant tensor:
#      x y z
#    x 1.642590 0.000000 0.000000 
#    y 0.000000 1.705870 0.000000 
#    z 0.000000 0.000000 1.622990 
# 
# From -- ./inp_files/26832.got.cif
#   From: 2010.05.17/outbox.cif.g08.bks.cpg/sg47_14_cif.got.tgz:26832.got - 2010.06.03 20:15:42.
