data_PCOD9382806
_publ_section_title
;
Structure prediction by ZEFSAII (Michael W. Deem and Ramdas Pophale) SiO2 
 PCOD9382806
Probable space group: P M M M
;
_chemical_formula_sum "Si O2"
_cell_formula_units_Z 64
_cell_length_a 21.178165
_cell_length_b 19.183772
_cell_length_c 7.378968
_cell_angle_alpha 90.000000
_cell_angle_beta 90.000000
_cell_angle_gamma 90.000000
_cell_volume 2997.905637
_symmetry_space_group_name_H-M "P M M M"
_symmetry_group_IT_number 47
_symmetry_cell_setting 'orthorhombic'
loop_
_space_group_symop_operation_xyz
x,y,z
-x,-y,z
x,-y,-z
-x,y,-z
-x,-y,-z
x,y,-z
-x,y,z
x,-y,z
loop_
_atom_site_type_symbol
_atom_site_label
_atom_site_fract_x
_atom_site_fract_y
_atom_site_fract_z
Si Si1 0.690679 0.330773 0.278316
Si Si2 0.428546 0.080081 0.279013
Si Si3 0.428755 0.419883 0.720612
Si Si4 0.928820 0.833608 0.216422
Si Si5 0.312814 0.172474 0.715313
Si Si6 0.190014 0.920857 0.782128
Si Si7 0.929007 0.328234 0.283239
Si Si8 0.812089 0.419778 0.721593
O O1 0.691203 0.330748 0.500000
O O2 0.625978 0.367973 0.220423
O O3 0.694843 0.251034 0.215723
O O4 0.750687 0.376427 0.221746
O O5 0.427811 0.080548 0.500000
O O6 0.500000 0.098620 0.224127
O O7 0.374141 0.131596 0.213989
O O8 0.415955 0.000000 0.224571
O O9 0.428625 0.419343 0.500000
O O10 0.500000 0.401489 0.777747
O O11 0.415876 0.500000 0.774627
O O12 0.873694 0.883508 0.286088
O O13 0.912609 0.752581 0.248841
O O14 0.000000 0.845888 0.287006
O O15 0.931589 0.843165 0.000000
O O16 0.322274 0.179054 0.500000
O O17 0.250663 0.126208 0.741890
O O18 0.197079 0.000000 0.715507
O O19 0.185255 0.923985 0.000000
O O20 0.931532 0.336659 0.500000
O O21 0.875135 0.380014 0.216659
O O22 0.000000 0.340482 0.212732
O O23 0.812425 0.419649 0.500000
O O24 0.809801 0.500000 0.778741
#
# Coordination Sequence:
#
# PCOD9382806 Si02
#       8
#     8   8   8   8   8   8   8   8
#     4   9  16  24  36  57  84 113 147 186 223 260
#     4   8  14  25  41  62  88 116 146 181 221 265
#     4   8  13  21  33  51  81 121 155 181 218 268
#     4   9  18  33  52  71  91 118 150 182 221 271
#     4  10  19  30  47  70  94 121 153 190 232 275
#     4  10  21  35  50  69  93 120 150 186 226 268
#     4   9  17  29  46  68  92 116 144 182 224 262
#     4   9  16  25  38  57  83 115 148 181 217 258
#
# _framework density 21.348237000000001
#
# number of rings (size 3 to 8) (size 9 to 14) (size 15 to 20)
#    0.000    3.000    0.000    2.250    0.000    4.750 
#    0.000    5.000    0.000    0.750    0.000    6.125 
#    0.000    1.500    0.000    1.375    0.000    2.125 
#
# Total GULP energy -357387.249213 kJ/mol
# GULP energy per Si atom -5584.175769 kJ/mol
# Density = 2.129965 g / cm^3
# Si number density = 21.348237 Si / 1000 Ang^3
#
#
#
# Elastic Constant Matrix: (Units=GPa)
#
#
# Indices 1 2 3 4 5 6 
#
# 1 188.5302 158.2594 1.3689 0.0000 0.0000 0.0000
# 2 158.2594 208.3345 0.7847 0.0000 0.0000 0.0000
# 3 1.3689 0.7847 75.0404 0.0000 0.0000 0.0000
# 4 0.0000 0.0000 0.0000 9.9467 0.0000 0.0000
# 5 0.0000 0.0000 0.0000 0.0000 3.7627 0.0000
# 6 0.0000 0.0000 0.0000 0.0000 0.0000 41.1358
#
#
#
# Elastic Compliance Matrix: (Units=1/GPa)
#
#
# Indices 1 2 3 4 5 6 
#
# 1 0.014641 -0.011121 -0.000151 0.000000 0.000000 0.000000
# 2 -0.011121 0.013248 0.000064 0.000000 0.000000 0.000000
# 3 -0.000151 0.000064 0.013328 0.000000 0.000000 0.000000
# 4 0.000000 0.000000 0.000000 0.100536 0.000000 0.000000
# 5 0.000000 0.000000 0.000000 0.000000 0.265768 0.000000
# 6 0.000000 0.000000 0.000000 0.000000 0.000000 0.024310
#
#
# Mechanical properties :
#
#
# Convention : Reuss Voigt Hill
#
# Bulk Modulus (GPa) = 53.18689 88.08123 70.63406
# Shear Modulus (GPa) = 10.85745 31.73518 21.29632
#
# Velocity S-wave (km/s) = 2.25764 3.85976 3.16186
# Velocity P-wave (km/s) = 5.63595 7.82384 6.81823
#
# Compressibility (1/GPa) = 0.01880163
#
# Stress axis : x y z
#
# Youngs Moduli (GPa) = 68.30194 75.48382 75.02866
#
# Poissons Ratio (x) = 0.83947 0.01131
# Poissons Ratio (y) = 0.75960 -0.00483
# Poissons Ratio (z) = 0.01030 -0.00486
#
# Static dielectric constant tensor:
#      x y z
#    x 1.741680 0.000000 0.000000 
#    y 0.000000 1.721910 0.000000 
#    z 0.000000 0.000000 1.834230 
# 
# From -- ./inp_files/11553.got.cif
#   From: 2010.05.17/outbox.cif.g08.bks.cpg/sg47_6_cif.got.tgz:11553.got - 2010.06.03 20:15:42.
