data_PCOD9382838
_publ_section_title
;
Structure prediction by ZEFSAII (Michael W. Deem and Ramdas Pophale) SiO2 
 PCOD9382838
Probable space group: P M M M
;
_chemical_formula_sum "Si O2"
_cell_formula_units_Z 64
_cell_length_a 8.814390
_cell_length_b 16.450686
_cell_length_c 23.038472
_cell_angle_alpha 90.000000
_cell_angle_beta 90.000000
_cell_angle_gamma 90.000000
_cell_volume 3340.642076
_symmetry_space_group_name_H-M "P M M M"
_symmetry_group_IT_number 47
_symmetry_cell_setting 'orthorhombic'
loop_
_space_group_symop_operation_xyz
x,y,z
-x,-y,z
x,-y,-z
-x,y,-z
-x,-y,-z
x,y,-z
-x,y,z
x,-y,z
loop_
_atom_site_type_symbol
_atom_site_label
_atom_site_fract_x
_atom_site_fract_y
_atom_site_fract_z
Si Si1 0.819299 0.092188 0.569522
Si Si2 0.832208 0.784455 0.934811
Si Si3 0.322131 0.383291 0.065885
Si Si4 0.178158 0.807532 0.767891
Si Si5 0.682523 0.763640 0.355153
Si Si6 0.317780 0.410566 0.314860
Si Si7 0.670417 0.905033 0.856004
Si Si8 0.179076 0.372858 0.188510
O O1 0.799093 0.095307 0.500000
O O2 0.738628 0.170182 0.598120
O O3 0.000000 0.097792 0.581521
O O4 0.770277 0.000000 0.588411
O O5 0.710305 0.712980 0.933312
O O6 0.790801 0.858021 0.894397
O O7 0.000000 0.749358 0.921858
O O8 0.835175 0.815799 0.000000
O O9 0.500000 0.401850 0.068552
O O10 0.246215 0.406870 0.127756
O O11 0.268042 0.408900 0.000000
O O12 0.235011 0.788604 0.704110
O O13 0.281424 0.879336 0.791955
O O14 0.201403 0.725458 0.806472
O O15 0.000000 0.826612 0.769071
O O16 0.500000 0.768976 0.350941
O O17 0.722171 0.666463 0.355983
O O18 0.500000 0.408319 0.308747
O O19 0.273352 0.500000 0.337297
O O20 0.251486 0.402284 0.249333
O O21 0.500000 0.876183 0.868811
O O22 0.676454 0.000000 0.864935
O O23 0.000000 0.389347 0.189886
#
# Coordination Sequence:
#
# PCOD9382838 Si02
#       8
#     8   8   8   8   8   8   8   8
#     4   9  19  37  60  86 119 160 202 240 280 329
#     4  10  20  33  48  65  86 116 158 209 265 327
#     4  10  19  30  48  72  96 126 165 212 269 334
#     4  10  20  34  51  71  97 132 172 214 265 327
#     4  10  20  34  57  87 117 150 189 236 282 327
#     4   9  19  36  57  82 114 152 190 229 279 340
#     4  11  23  35  47  64  89 123 164 214 270 327
#     4  10  19  31  51  77 102 130 168 218 273 328
#
# _framework density 19.157995
#
# number of rings (size 3 to 8) (size 9 to 14) (size 15 to 20)
#    0.000    2.125    1.250    2.625    0.000    5.500 
#    0.000    1.875    0.000    0.750    0.000    5.250 
#    0.000    0.000    0.000    0.000    0.000    0.000 
#
# Total GULP energy -356526.401128 kJ/mol
# GULP energy per Si atom -5570.725018 kJ/mol
# Density = 1.911439 g / cm^3
# Si number density = 19.157995 Si / 1000 Ang^3
#
#
#
# Elastic Constant Matrix: (Units=GPa)
#
#
# Indices 1 2 3 4 5 6 
#
# 1 43.4063 30.7792 15.9390 0.0000 0.0000 0.0000
# 2 30.7792 107.8469 39.0046 0.0000 0.0000 0.0000
# 3 15.9390 39.0046 54.4163 0.0000 0.0000 0.0000
# 4 0.0000 0.0000 0.0000 -12.4107 0.0000 0.0000
# 5 0.0000 0.0000 0.0000 0.0000 26.1761 0.0000
# 6 0.0000 0.0000 0.0000 0.0000 0.0000 1.7651
#
#
#
# Elastic Compliance Matrix: (Units=1/GPa)
#
#
# Indices 1 2 3 4 5 6 
#
# 1 0.029370 -0.007115 -0.003503 0.000000 0.000000 0.000000
# 2 -0.007115 0.014241 -0.008124 0.000000 0.000000 0.000000
# 3 -0.003503 -0.008124 0.025226 0.000000 0.000000 0.000000
# 4 0.000000 0.000000 0.000000 -0.080575 0.000000 0.000000
# 5 0.000000 0.000000 0.000000 0.000000 0.038203 0.000000
# 6 0.000000 0.000000 0.000000 0.000000 0.000000 0.566526
#
#
# Mechanical properties :
#
#
# Convention : Reuss Voigt Hill
#
# Bulk Modulus (GPa) = 31.89430 41.90166 36.89798
# Shear Modulus (GPa) = 7.80124 11.10255 9.45190
#
# Velocity S-wave (km/s) = 2.02012 2.40995 2.22359
# Velocity P-wave (km/s) = 4.70376 5.44637 5.08863
#
# Compressibility (1/GPa) = 0.03135356
#
# Stress axis : x y z
#
# Youngs Moduli (GPa) = 34.04867 70.21909 39.64220
#
# Poissons Ratio (x) = 0.49963 0.13885
# Poissons Ratio (y) = 0.24227 0.32204
# Poissons Ratio (z) = 0.11926 0.57044
#
# Static dielectric constant tensor:
#      x y z
#    x 1.655140 0.000000 0.000000 
#    y 0.000000 1.716700 0.000000 
#    z 0.000000 0.000000 1.692560 
# 
# From -- ./inp_files/32139.got.cif
#   From: 2010.05.17/outbox.cif.g08.bks.cpg/sg47_17_cif.got.tgz:32139.got - 2010.06.03 20:15:42.
