data_PCOD9382438
_publ_section_title
;
Structure prediction by ZEFSAII (Michael W. Deem and Ramdas Pophale) SiO2 
 PCOD9382438
Probable space group: P M M M
;
_chemical_formula_sum "Si O2"
_cell_formula_units_Z 64
_cell_length_a 7.567645
_cell_length_b 19.989463
_cell_length_c 24.321058
_cell_angle_alpha 90.000000
_cell_angle_beta 90.000000
_cell_angle_gamma 90.000000
_cell_volume 3679.123292
_symmetry_space_group_name_H-M "P M M M"
_symmetry_group_IT_number 47
_symmetry_cell_setting 'orthorhombic'
loop_
_space_group_symop_operation_xyz
x,y,z
-x,-y,z
x,-y,-z
-x,y,-z
-x,-y,-z
x,y,-z
-x,y,z
x,-y,z
loop_
_atom_site_type_symbol
_atom_site_label
_atom_site_fract_x
_atom_site_fract_y
_atom_site_fract_z
Si Si1 0.707990 0.345653 0.170279
Si Si2 0.784760 0.292059 0.331640
Si Si3 0.213064 0.576123 0.062062
Si Si4 0.783778 0.213188 0.438462
Si Si5 0.286173 0.925688 0.260634
Si Si6 0.210615 0.073706 0.609867
Si Si7 0.207015 0.425715 0.722852
Si Si8 0.706235 0.787546 0.221772
O O1 0.500000 0.342866 0.182070
O O2 0.733280 0.372940 0.109308
O O3 0.782214 0.397687 0.214959
O O4 0.781353 0.271346 0.183084
O O5 0.728907 0.263845 0.390451
O O6 0.721379 0.366364 0.315655
O O7 0.721211 0.243367 0.283011
O O8 0.000000 0.291295 0.329482
O O9 0.272732 0.500000 0.074758
O O10 0.000000 0.574826 0.061430
O O11 0.272366 0.592658 0.000000
O O12 0.728041 0.230691 0.500000
O O13 0.722605 0.138495 0.422150
O O14 0.000000 0.212459 0.437749
O O15 0.500000 0.925178 0.257948
O O16 0.238834 0.916683 0.324870
O O17 0.218222 0.862303 0.226124
O O18 0.225243 0.000000 0.244021
O O19 0.000000 0.071709 0.600499
O O20 0.282116 0.000000 0.595144
O O21 0.284659 0.500000 0.718504
O O22 0.000000 0.430773 0.709394
O O23 0.500000 0.795137 0.207139
#
# Coordination Sequence:
#
# PCOD9382438 Si02
#       8
#     8   8   8   8   8   8   8   8
#     4  10  19  28  41  64  90 112 136 169 205 237
#     4   9  16  27  42  57  74  99 131 163 200 247
#     4   9  18  32  47  62  85 119 152 175 195 225
#     4   9  16  25  38  56  76  98 127 164 202 241
#     4   9  16  26  41  58  78 107 136 160 194 241
#     4   9  16  25  38  56  76  98 127 162 196 235
#     4   9  17  28  42  59  79 104 133 166 203 244
#     4   9  17  28  41  59  84 108 131 165 205 240
#
# _framework density 17.395448999999999
#
# number of rings (size 3 to 8) (size 9 to 14) (size 15 to 20)
#    0.000    2.875    1.250    1.125    0.000    3.000 
#    0.000    1.875    0.000    1.875    0.000    4.375 
#    0.000    0.500    0.000   12.500    0.000    7.500 
#
# Total GULP energy -356627.710739 kJ/mol
# GULP energy per Si atom -5572.307980 kJ/mol
# Density = 1.735586 g / cm^3
# Si number density = 17.395449 Si / 1000 Ang^3
#
#
#
# Elastic Constant Matrix: (Units=GPa)
#
#
# Indices 1 2 3 4 5 6 
#
# 1 38.5736 -4.4627 -7.7482 0.0000 0.0000 0.0000
# 2 -4.4627 139.4150 64.9933 0.0000 0.0000 0.0000
# 3 -7.7482 64.9933 97.3918 0.0000 0.0000 0.0000
# 4 0.0000 0.0000 0.0000 27.1987 0.0000 0.0000
# 5 0.0000 0.0000 0.0000 0.0000 25.1142 0.0000
# 6 0.0000 0.0000 0.0000 0.0000 0.0000 1.4126
#
#
#
# Elastic Compliance Matrix: (Units=1/GPa)
#
#
# Indices 1 2 3 4 5 6 
#
# 1 0.026349 -0.000194 0.002226 0.000000 0.000000 0.000000
# 2 -0.000194 0.010414 -0.006965 0.000000 0.000000 0.000000
# 3 0.002226 -0.006965 0.015093 0.000000 0.000000 0.000000
# 4 0.000000 0.000000 0.000000 0.036766 0.000000 0.000000
# 5 0.000000 0.000000 0.000000 0.000000 0.039818 0.000000
# 6 0.000000 0.000000 0.000000 0.000000 0.000000 0.707904
#
#
# Mechanical properties :
#
#
# Convention : Reuss Voigt Hill
#
# Bulk Modulus (GPa) = 23.81572 42.32724 33.07148
# Shear Modulus (GPa) = 5.81256 25.58496 15.69876
#
# Velocity S-wave (km/s) = 1.82994 3.83924 3.00736
# Velocity P-wave (km/s) = 4.26443 6.63613 5.57780
#
# Compressibility (1/GPa) = 0.04198907
#
# Stress axis : x y z
#
# Youngs Moduli (GPa) = 37.95196 96.02917 66.25692
#
# Poissons Ratio (x) = 0.01865 -0.14748
# Poissons Ratio (y) = 0.00737 0.46147
# Poissons Ratio (z) = -0.08448 0.66882
#
# Static dielectric constant tensor:
#      x y z
#    x 1.642750 0.000000 0.000000 
#    y 0.000000 1.641290 0.000000 
#    z 0.000000 0.000000 1.556290 
# 
# From -- ./inp_files/11780.got.cif
#   From: 2010.05.17/outbox.cif.g08.bks.cpg/sg47_6_cif.got.tgz:11780.got - 2010.06.03 20:15:42.
