data_PCOD9382152
_publ_section_title
;
Structure prediction by ZEFSAII (Michael W. Deem and Ramdas Pophale) SiO2 
 PCOD9382152
Probable space group: P M M M
;
_chemical_formula_sum "Si O2"
_cell_formula_units_Z 52
_cell_length_a 14.972152
_cell_length_b 7.342551
_cell_length_c 21.669485
_cell_angle_alpha 90.000000
_cell_angle_beta 90.000000
_cell_angle_gamma 90.000000
_cell_volume 2382.208606
_symmetry_space_group_name_H-M "P M M M"
_symmetry_group_IT_number 47
_symmetry_cell_setting 'orthorhombic'
loop_
_space_group_symop_operation_xyz
x,y,z
-x,-y,z
x,-y,-z
-x,y,-z
-x,-y,-z
x,y,-z
-x,y,z
x,-y,z
loop_
_atom_site_type_symbol
_atom_site_label
_atom_site_fract_x
_atom_site_fract_y
_atom_site_fract_z
Si Si1 0.000000 0.777226 0.430403
Si Si2 0.902652 0.780170 0.206236
Si Si3 0.359322 0.290567 0.673095
Si Si4 0.762897 0.703675 0.107576
Si Si5 0.397104 0.722230 0.187345
Si Si6 0.845762 0.780579 0.658080
Si Si7 0.500000 0.722471 0.428045
Si Si8 0.894986 0.277182 0.000000
O O1 0.910870 0.717869 0.395543
O O2 0.000000 0.718014 0.500000
O O3 0.000000 0.000000 0.428629
O O4 0.822813 0.696368 0.168667
O O5 0.891167 0.730677 0.277280
O O6 0.000000 0.724522 0.182602
O O7 0.896704 0.000000 0.201583
O O8 0.388544 0.500000 0.679027
O O9 0.373628 0.214216 0.742572
O O10 0.255348 0.283835 0.657274
O O11 0.416417 0.218526 0.615172
O O12 0.741361 0.500000 0.084577
O O13 0.671223 0.787265 0.134049
O O14 0.833341 0.782169 0.058023
O O15 0.500000 0.768071 0.175123
O O16 0.388874 0.500000 0.187281
O O17 0.842056 0.000000 0.656324
O O18 0.500000 0.500000 0.431716
O O19 0.500000 0.783534 0.500000
O O20 0.899420 0.500000 0.000000
O O21 0.000000 0.217935 0.000000
#
# Coordination Sequence:
#
# PCOD9382152 Si02
#       8
#     4   8   8   8   8   8   4   4
#     4   9  18  34  53  69  93 136 175 196 238 311
#     4  10  19  31  48  72 101 129 160 204 253 292
#     4  10  18  31  51  73  97 127 164 204 246 297
#     4  10  19  32  52  75  99 131 169 203 242 293
#     4   9  16  28  48  74  98 124 161 206 248 285
#     4  10  19  32  50  73  99 126 162 208 251 292
#     4   9  18  32  51  73  99 134 168 197 246 313
#     4   9  18  32  48  72 106 137 163 199 248 297
#
# _framework density 21.828482000000001
#
# number of rings (size 3 to 8) (size 9 to 14) (size 15 to 20)
#    0.000    2.385    3.077    0.462    0.000    1.538 
#    0.000    1.538    0.000    6.000    0.000    0.000 
#    0.000    1.231    0.000    0.000    0.000    0.000 
#
# Total GULP energy -290075.970009 kJ/mol
# GULP energy per Si atom -5578.384039 kJ/mol
# Density = 2.177880 g / cm^3
# Si number density = 21.828482 Si / 1000 Ang^3
#
#
#
# Elastic Constant Matrix: (Units=GPa)
#
#
# Indices 1 2 3 4 5 6 
#
# 1 203.6334 2.1677 77.6861 0.0000 0.0000 0.0000
# 2 2.1677 77.5416 7.6583 0.0000 0.0000 0.0000
# 3 77.6861 7.6583 136.3761 0.0000 0.0000 0.0000
# 4 0.0000 0.0000 0.0000 -0.9473 0.0000 0.0000
# 5 0.0000 0.0000 0.0000 0.0000 25.0791 0.0000
# 6 0.0000 0.0000 0.0000 0.0000 0.0000 8.3851
#
#
#
# Elastic Compliance Matrix: (Units=1/GPa)
#
#
# Indices 1 2 3 4 5 6 
#
# 1 0.006277 0.000179 -0.003586 0.000000 0.000000 0.000000
# 2 0.000179 0.012973 -0.000830 0.000000 0.000000 0.000000
# 3 -0.003586 -0.000830 0.009422 0.000000 0.000000 0.000000
# 4 0.000000 0.000000 0.000000 -1.055621 0.000000 0.000000
# 5 0.000000 0.000000 0.000000 0.000000 0.039874 0.000000
# 6 0.000000 0.000000 0.000000 0.000000 0.000000 0.119259
#
#
# Mechanical properties :
#
#
# Convention : Reuss Voigt Hill
#
# Bulk Modulus (GPa) = 49.51115 65.84168 57.67642
# Shear Modulus (GPa) = -5.86435 28.50598 11.32082
#
# Velocity S-wave (km/s) = -1.64085 3.61765 2.27981
# Velocity P-wave (km/s) = 4.37508 6.90497 5.78013
#
# Compressibility (1/GPa) = 0.02019747
#
# Stress axis : x y z
#
# Youngs Moduli (GPa) = 159.31740 77.08128 106.13688
#
# Poissons Ratio (x) = -0.01377 0.38056
# Poissons Ratio (y) = -0.02846 0.08812
# Poissons Ratio (z) = 0.57124 0.06400
#
# Static dielectric constant tensor:
#      x y z
#    x 1.773930 0.000000 0.000000 
#    y 0.000000 1.866050 0.000000 
#    z 0.000000 0.000000 1.787820 
# 
# From -- ./inp_files/30917.got.cif
#   From: 2010.05.17/outbox.cif.g08.bks.cpg/sg47_16_cif.got.tgz:30917.got - 2010.06.03 20:15:42.
