data_PCOD9382255
_publ_section_title
;
Structure prediction by ZEFSAII (Michael W. Deem and Ramdas Pophale) SiO2 
 PCOD9382255
Probable space group: P M M M
;
_chemical_formula_sum "Si O2"
_cell_formula_units_Z 52
_cell_length_a 8.173657
_cell_length_b 12.105988
_cell_length_c 30.283191
_cell_angle_alpha 90.000000
_cell_angle_beta 90.000000
_cell_angle_gamma 90.000000
_cell_volume 2996.527611
_symmetry_space_group_name_H-M "P M M M"
_symmetry_group_IT_number 47
_symmetry_cell_setting 'orthorhombic'
loop_
_space_group_symop_operation_xyz
x,y,z
-x,-y,z
x,-y,-z
-x,y,-z
-x,-y,-z
x,y,-z
-x,y,z
x,-y,z
loop_
_atom_site_type_symbol
_atom_site_label
_atom_site_fract_x
_atom_site_fract_y
_atom_site_fract_z
Si Si1 0.800854 0.373178 0.685627
Si Si2 0.694328 0.374383 0.141710
Si Si3 0.683625 0.000000 0.761553
Si Si4 0.818545 0.000000 0.669353
Si Si5 0.808254 0.786279 0.392983
Si Si6 0.500000 0.131498 0.447154
Si Si7 0.806429 0.243540 0.227525
Si Si8 0.196744 0.370435 0.952308
O O1 0.745471 0.500000 0.688829
O O2 0.762167 0.315775 0.638918
O O3 0.740771 0.300359 0.727262
O O4 0.000000 0.373237 0.687389
O O5 0.500000 0.381430 0.141840
O O6 0.762878 0.500000 0.144692
O O7 0.747326 0.306461 0.184176
O O8 0.745047 0.324007 0.094379
O O9 0.690275 0.000000 0.708283
O O10 0.764458 0.114840 0.775037
O O11 0.500000 0.000000 0.778245
O O12 0.808151 0.107399 0.639206
O O13 0.000000 0.000000 0.690878
O O14 0.665480 0.811950 0.428067
O O15 0.000000 0.774216 0.408534
O O16 0.500000 0.138018 0.500000
O O17 0.500000 0.000000 0.434845
O O18 0.000000 0.254884 0.229684
O O19 0.247224 0.500000 0.951940
O O20 0.000000 0.367637 0.952177
O O21 0.252425 0.324185 0.000000
#
# Coordination Sequence:
#
# PCOD9382255 Si02
#       8
#     8   8   4   4   8   4   8   8
#     4   9  18  33  55  81 107 140 182 221 258 310
#     4  10  20  32  46  70 107 143 174 214 268 324
#     4  12  24  34  52  76 106 142 177 221 269 315
#     4  10  18  32  52  79 106 140 178 213 260 315
#     4  10  20  36  59  82 113 147 179 223 273 323
#     4  11  24  38  57  87 117 143 182 229 276 331
#     4  11  21  35  53  74 104 140 180 220 262 316
#     4   8  14  26  45  68  93 127 175 222 263 313
#
# _framework density 17.353418000000001
#
# number of rings (size 3 to 8) (size 9 to 14) (size 15 to 20)
#    0.000    2.077    2.308    2.538    1.077    2.154 
#    1.385    2.692    0.000    0.923    0.000    2.692 
#    0.000    4.308    0.000    0.000    0.000    0.000 
#
# Total GULP energy -289780.218813 kJ/mol
# GULP energy per Si atom -5572.696516 kJ/mol
# Density = 1.731392 g / cm^3
# Si number density = 17.353418 Si / 1000 Ang^3
#
#
#
# Elastic Constant Matrix: (Units=GPa)
#
#
# Indices 1 2 3 4 5 6 
#
# 1 60.6136 17.7957 49.3105 0.0000 0.0000 0.0000
# 2 17.7957 85.2310 49.9726 0.0000 0.0000 0.0000
# 3 49.3105 49.9726 119.4133 0.0000 0.0000 0.0000
# 4 0.0000 0.0000 0.0000 9.7510 0.0000 0.0000
# 5 0.0000 0.0000 0.0000 0.0000 578.2907 0.0000
# 6 0.0000 0.0000 0.0000 0.0000 0.0000 8.8460
#
#
#
# Elastic Compliance Matrix: (Units=1/GPa)
#
#
# Indices 1 2 3 4 5 6 
#
# 1 0.024922 0.001100 -0.010752 0.000000 0.000000 0.000000
# 2 0.001100 0.015596 -0.006981 0.000000 0.000000 0.000000
# 3 -0.010752 -0.006981 0.015736 0.000000 0.000000 0.000000
# 4 0.000000 0.000000 0.000000 0.102554 0.000000 0.000000
# 5 0.000000 0.000000 0.000000 0.000000 0.001729 0.000000
# 6 0.000000 0.000000 0.000000 0.000000 0.000000 0.113045
#
#
# Mechanical properties :
#
#
# Convention : Reuss Voigt Hill
#
# Bulk Modulus (GPa) = 43.49984 55.49061 49.49522
# Shear Modulus (GPa) = 15.89779 129.25615 72.57697
#
# Velocity S-wave (km/s) = 3.03003 8.63981 6.47408
# Velocity P-wave (km/s) = 6.11252 11.47059 9.19068
#
# Compressibility (1/GPa) = 0.02298859
#
# Stress axis : x y z
#
# Youngs Moduli (GPa) = 40.12593 64.11789 63.55028
#
# Poissons Ratio (x) = -0.07056 0.68327
# Poissons Ratio (y) = -0.04415 0.44366
# Poissons Ratio (z) = 0.43142 0.44762
#
# Static dielectric constant tensor:
#      x y z
#    x 1.617510 0.000000 0.000000 
#    y 0.000000 1.578490 0.000000 
#    z 0.000000 0.000000 1.596120 
# 
# From -- ./inp_files/33323.got.cif
#   From: 2010.05.17/outbox.cif.g08.bks.cpg/sg47_17_cif.got.tgz:33323.got - 2010.06.03 20:15:42.
