data_PCOD9382506
_publ_section_title
;
Structure prediction by ZEFSAII (Michael W. Deem and Ramdas Pophale) SiO2 
 PCOD9382506
Probable space group: P M M M
;
_chemical_formula_sum "Si O2"
_cell_formula_units_Z 56
_cell_length_a 8.714040
_cell_length_b 22.082535
_cell_length_c 19.012114
_cell_angle_alpha 90.000000
_cell_angle_beta 90.000000
_cell_angle_gamma 90.000000
_cell_volume 3658.464846
_symmetry_space_group_name_H-M "P M M M"
_symmetry_group_IT_number 47
_symmetry_cell_setting 'orthorhombic'
loop_
_space_group_symop_operation_xyz
x,y,z
-x,-y,z
x,-y,-z
-x,y,-z
-x,-y,-z
x,y,-z
-x,y,z
x,-y,z
loop_
_atom_site_type_symbol
_atom_site_label
_atom_site_fract_x
_atom_site_fract_y
_atom_site_fract_z
Si Si1 0.683304 0.640318 0.206511
Si Si2 0.318050 0.181682 0.163527
Si Si3 0.183019 0.244404 0.711030
Si Si4 0.184575 0.069972 0.081902
Si Si5 0.185388 0.683400 0.419693
Si Si6 0.684340 0.432476 0.338718
Si Si7 0.183969 0.701892 0.918017
O O1 0.500000 0.650410 0.206314
O O2 0.767026 0.695088 0.247192
O O3 0.714819 0.583022 0.256418
O O4 0.745962 0.647001 0.127871
O O5 0.500000 0.187784 0.160965
O O6 0.261024 0.191918 0.243524
O O7 0.264344 0.118312 0.131570
O O8 0.245384 0.235560 0.116058
O O9 0.230633 0.260810 0.631429
O O10 0.000000 0.236989 0.713910
O O11 0.000000 0.075951 0.087932
O O12 0.224086 0.000000 0.097166
O O13 0.224016 0.081959 0.000000
O O14 0.237013 0.689922 0.500000
O O15 0.245696 0.620886 0.385874
O O16 0.000000 0.681047 0.418573
O O17 0.500000 0.430452 0.347528
O O18 0.738649 0.500000 0.356499
O O19 0.000000 0.701432 0.911618
O O20 0.225166 0.698882 0.000000
#
# Coordination Sequence:
#
# PCOD9382506 Si02
#       7
#     8   8   8   8   8   8   8
#     4   9  16  27  43  60  79 103 134 174 213 249
#     4  11  20  28  42  64  89 114 144 181 213 247
#     4   9  16  28  45  61  82 112 141 171 210 254
#     4   9  18  32  47  62  85 120 157 187 215 249
#     4   9  18  31  46  66  90 113 139 173 211 249
#     4   9  18  31  45  62  84 111 142 171 203 250
#     4  10  19  29  42  60  82 107 136 173 217 262
#
# _framework density 15.306967
#
# number of rings (size 3 to 8) (size 9 to 14) (size 15 to 20)
#    0.000    2.571    0.000    5.143    0.000    5.429 
#    0.000    2.143    0.000    0.429    0.000    3.000 
#    0.000    0.571    0.000    6.571    0.000    1.857 
#
# Total GULP energy -311868.275232 kJ/mol
# GULP energy per Si atom -5569.076343 kJ/mol
# Density = 1.527213 g / cm^3
# Si number density = 15.306967 Si / 1000 Ang^3
#
#
#
# Elastic Constant Matrix: (Units=GPa)
#
#
# Indices 1 2 3 4 5 6 
#
# 1 27.1322 16.2125 27.9301 0.0000 0.0000 0.0000
# 2 16.2125 54.4567 48.3781 0.0000 0.0000 0.0000
# 3 27.9301 48.3781 128.4432 0.0000 0.0000 0.0000
# 4 0.0000 0.0000 0.0000 18.8069 0.0000 0.0000
# 5 0.0000 0.0000 0.0000 0.0000 12.0342 0.0000
# 6 0.0000 0.0000 0.0000 0.0000 0.0000 20.5954
#
#
#
# Elastic Compliance Matrix: (Units=1/GPa)
#
#
# Indices 1 2 3 4 5 6 
#
# 1 0.049592 -0.007791 -0.007849 0.000000 0.000000 0.000000
# 2 -0.007791 0.028822 -0.009161 0.000000 0.000000 0.000000
# 3 -0.007849 -0.009161 0.012943 0.000000 0.000000 0.000000
# 4 0.000000 0.000000 0.000000 0.053172 0.000000 0.000000
# 5 0.000000 0.000000 0.000000 0.000000 0.083097 0.000000
# 6 0.000000 0.000000 0.000000 0.000000 0.000000 0.048555
#
#
# Mechanical properties :
#
#
# Convention : Reuss Voigt Hill
#
# Bulk Modulus (GPa) = 23.95036 43.89706 33.92371
# Shear Modulus (GPa) = 14.71881 18.12139 16.42010
#
# Velocity S-wave (km/s) = 3.10429 3.44447 3.27879
# Velocity P-wave (km/s) = 5.34130 6.67527 6.04519
#
# Compressibility (1/GPa) = 0.04175302
#
# Stress axis : x y z
#
# Youngs Moduli (GPa) = 20.16451 34.69627 77.26152
#
# Poissons Ratio (x) = 0.27032 0.60645
# Poissons Ratio (y) = 0.15710 0.70783
# Poissons Ratio (z) = 0.15828 0.31787
#
# Static dielectric constant tensor:
#      x y z
#    x 1.512610 0.000000 0.000000 
#    y 0.000000 1.498910 0.000000 
#    z 0.000000 0.000000 1.545920 
# 
# From -- ./inp_files/30074.got.cif
#   From: 2010.05.17/outbox.cif.g08.bks.cpg/sg47_16_cif.got.tgz:30074.got - 2010.06.03 20:15:42.
