data_PCOD9382896
_publ_section_title
;
Structure prediction by ZEFSAII (Michael W. Deem and Ramdas Pophale) SiO2 
 PCOD9382896
Probable space group: P M M M
;
_chemical_formula_sum "Si O2"
_cell_formula_units_Z 64
_cell_length_a 8.617988
_cell_length_b 29.425961
_cell_length_c 14.354054
_cell_angle_alpha 90.000000
_cell_angle_beta 90.000000
_cell_angle_gamma 90.000000
_cell_volume 3640.081570
_symmetry_space_group_name_H-M "P M M M"
_symmetry_group_IT_number 47
_symmetry_cell_setting 'orthorhombic'
loop_
_space_group_symop_operation_xyz
x,y,z
-x,-y,z
x,-y,-z
-x,y,-z
-x,-y,-z
x,y,-z
-x,y,z
x,-y,z
loop_
_atom_site_type_symbol
_atom_site_label
_atom_site_fract_x
_atom_site_fract_y
_atom_site_fract_z
Si Si1 0.313844 0.812781 0.892571
Si Si2 0.185692 0.864951 0.721544
Si Si3 0.186111 0.725108 0.213702
Si Si4 0.811315 0.223919 0.394707
Si Si5 0.685712 0.448533 0.798345
Si Si6 0.687134 0.947446 0.393096
Si Si7 0.819291 0.444900 0.601561
Si Si8 0.312270 0.641092 0.895233
O O1 0.500000 0.810349 0.888921
O O2 0.255835 0.851365 0.821331
O O3 0.245981 0.765529 0.853063
O O4 0.266996 0.819860 0.000000
O O5 0.233396 0.824671 0.649687
O O6 0.241185 0.912238 0.678915
O O7 0.000000 0.863918 0.728662
O O8 0.236242 0.738564 0.318605
O O9 0.249467 0.677689 0.176997
O O10 0.000000 0.724992 0.211214
O O11 0.754264 0.229825 0.500000
O O12 0.000000 0.224516 0.397776
O O13 0.500000 0.451145 0.805771
O O14 0.747108 0.500000 0.812671
O O15 0.727999 0.432380 0.694058
O O16 0.740022 0.409776 0.868722
O O17 0.733877 0.936410 0.500000
O O18 0.500000 0.944597 0.389025
O O19 0.730133 0.000000 0.375302
O O20 0.761869 0.428924 0.500000
O O21 0.814634 0.500000 0.599084
O O22 0.000000 0.431763 0.610564
O O23 0.500000 0.641918 0.892428
O O24 0.263110 0.653039 0.000000
#
# Coordination Sequence:
#
# PCOD9382896 Si02
#       8
#     8   8   8   8   8   8   8   8
#     4  10  20  34  53  75 100 132 168 207 254 307
#     4  10  19  30  49  77 105 134 171 217 263 305
#     4  10  20  33  52  77 101 127 161 201 242 286
#     4   8  15  29  48  71 100 130 158 191 235 288
#     4   9  18  32  50  72  95 120 156 201 241 279
#     4   9  18  32  49  71 103 143 183 221 261 307
#     4   8  14  26  45  68  93 120 148 179 219 268
#     4  10  21  36  52  69  93 126 159 194 242 297
#
# _framework density 17.582024000000001
#
# number of rings (size 3 to 8) (size 9 to 14) (size 15 to 20)
#    0.000    2.750    0.000    3.375    0.000    4.750 
#    0.000    3.750    0.000   10.125    0.000    5.250 
#    0.000    0.000    0.000    0.000    0.000    0.000 
#
# Total GULP energy -356697.926614 kJ/mol
# GULP energy per Si atom -5573.405103 kJ/mol
# Density = 1.754201 g / cm^3
# Si number density = 17.582024 Si / 1000 Ang^3
#
#
#
# Elastic Constant Matrix: (Units=GPa)
#
#
# Indices 1 2 3 4 5 6 
#
# 1 20.2486 20.4850 25.3618 0.0000 0.0000 0.0000
# 2 20.4850 88.9048 63.9321 0.0000 0.0000 0.0000
# 3 25.3618 63.9321 141.4964 0.0000 0.0000 0.0000
# 4 0.0000 0.0000 0.0000 24.0935 0.0000 0.0000
# 5 0.0000 0.0000 0.0000 0.0000 19.7762 0.0000
# 6 0.0000 0.0000 0.0000 0.0000 0.0000 14.8227
#
#
#
# Elastic Compliance Matrix: (Units=1/GPa)
#
#
# Indices 1 2 3 4 5 6 
#
# 1 0.069709 -0.010483 -0.007758 0.000000 0.000000 0.000000
# 2 -0.010483 0.018238 -0.006361 0.000000 0.000000 0.000000
# 3 -0.007758 -0.006361 0.011332 0.000000 0.000000 0.000000
# 4 0.000000 0.000000 0.000000 0.041505 0.000000 0.000000
# 5 0.000000 0.000000 0.000000 0.000000 0.050566 0.000000
# 6 0.000000 0.000000 0.000000 0.000000 0.000000 0.067464
#
#
# Mechanical properties :
#
#
# Convention : Reuss Voigt Hill
#
# Bulk Modulus (GPa) = 19.97055 52.24529 36.10792
# Shear Modulus (GPa) = 15.39832 21.12985 18.26409
#
# Velocity S-wave (km/s) = 2.96260 3.47044 3.22653
# Velocity P-wave (km/s) = 4.80477 6.77040 5.87044
#
# Compressibility (1/GPa) = 0.05007374
#
# Stress axis : x y z
#
# Youngs Moduli (GPa) = 14.34539 54.83043 88.24443
#
# Poissons Ratio (x) = 0.57480 0.68460
# Poissons Ratio (y) = 0.15038 0.56136
# Poissons Ratio (z) = 0.11129 0.34880
#
# Static dielectric constant tensor:
#      x y z
#    x 1.598000 0.000000 0.000000 
#    y 0.000000 1.591200 0.000000 
#    z 0.000000 0.000000 1.610920 
# 
# From -- ./inp_files/22184.got.cif
#   From: 2010.05.17/outbox.cif.g08.bks.cpg/sg47_12_cif.got.tgz:22184.got - 2010.06.03 20:15:42.
