data_PCOD9382039
_publ_section_title
;
Structure prediction by ZEFSAII (Michael W. Deem and Ramdas Pophale) SiO2 
 PCOD9382039
Probable space group: P M M M
;
_chemical_formula_sum "Si O2"
_cell_formula_units_Z 64
_cell_length_a 14.569812
_cell_length_b 32.440579
_cell_length_c 9.092766
_cell_angle_alpha 90.000000
_cell_angle_beta 90.000000
_cell_angle_gamma 90.000000
_cell_volume 4297.724376
_symmetry_space_group_name_H-M "P M M M"
_symmetry_group_IT_number 47
_symmetry_cell_setting 'orthorhombic'
loop_
_space_group_symop_operation_xyz
x,y,z
-x,-y,z
x,-y,-z
-x,y,-z
-x,-y,-z
x,y,-z
-x,y,z
x,-y,z
loop_
_atom_site_type_symbol
_atom_site_label
_atom_site_fract_x
_atom_site_fract_y
_atom_site_fract_z
Si Si1 0.104795 0.423195 0.675646
Si Si2 0.105242 0.333625 0.173841
Si Si3 0.611751 0.127590 0.329685
Si Si4 0.607490 0.620287 0.676055
Si Si5 0.276525 0.702528 0.322813
Si Si6 0.388855 0.044936 0.826858
Si Si7 0.716239 0.453886 0.824886
Si Si8 0.394090 0.218300 0.320543
O O1 0.118729 0.422195 0.500000
O O2 0.113993 0.377130 0.741192
O O3 0.183373 0.449467 0.752630
O O4 0.000000 0.437099 0.704143
O O5 0.180206 0.303450 0.242066
O O6 0.000000 0.319536 0.192678
O O7 0.121342 0.340167 0.000000
O O8 0.638452 0.124768 0.500000
O O9 0.500000 0.127811 0.324710
O O10 0.644956 0.086654 0.248360
O O11 0.638148 0.172849 0.270909
O O12 0.615718 0.614162 0.500000
O O13 0.500000 0.624165 0.711837
O O14 0.661471 0.662373 0.711685
O O15 0.653499 0.581804 0.757057
O O16 0.263780 0.703308 0.500000
O O17 0.330091 0.743818 0.277798
O O18 0.500000 0.045102 0.811954
O O19 0.357432 0.000000 0.769274
O O20 0.368972 0.046534 0.000000
O O21 0.680277 0.500000 0.795288
O O22 0.723491 0.448431 0.000000
O O23 0.395279 0.217035 0.500000
O O24 0.500000 0.224954 0.274565
#
# Coordination Sequence:
#
# PCOD9382039 Si02
#       8
#     8   8   8   8   8   8   8   8
#     4  10  20  35  56  79  99 119 145 177 213 255
#     4  10  20  33  50  72  98 123 143 170 212 259
#     4   8  13  21  33  49  71 101 137 176 215 255
#     4  10  21  36  54  75  95 118 151 188 221 253
#     4  10  18  30  51  74  93 116 147 181 215 257
#     4   8  13  20  29  42  63  94 133 178 225 264
#     4  11  24  39  54  73  98 126 151 177 215 261
#     4   8  14  25  41  62  88 116 145 179 220 261
#
# _framework density 14.891602000000001
#
# number of rings (size 3 to 8) (size 9 to 14) (size 15 to 20)
#    0.000    2.625    1.250    2.625    0.000    5.000 
#    0.000    4.375    0.000    1.875    0.000    0.000 
#    0.000    0.000    0.000    0.000    0.000    0.625 
#
# Total GULP energy -356572.758991 kJ/mol
# GULP energy per Si atom -5571.449359 kJ/mol
# Density = 1.485771 g / cm^3
# Si number density = 14.891602 Si / 1000 Ang^3
#
#
#
# Elastic Constant Matrix: (Units=GPa)
#
#
# Indices 1 2 3 4 5 6 
#
# 1 59.5813 46.4163 28.0460 0.0000 0.0000 0.0000
# 2 46.4163 135.3903 44.9156 0.0000 0.0000 0.0000
# 3 28.0460 44.9156 34.2300 0.0000 0.0000 0.0000
# 4 0.0000 0.0000 0.0000 -998.4686 0.0000 0.0000
# 5 0.0000 0.0000 0.0000 0.0000 14.5697 0.0000
# 6 0.0000 0.0000 0.0000 0.0000 0.0000 4.5959
#
#
#
# Elastic Compliance Matrix: (Units=1/GPa)
#
#
# Indices 1 2 3 4 5 6 
#
# 1 0.028254 -0.003553 -0.018487 0.000000 0.000000 0.000000
# 2 -0.003553 0.013527 -0.014838 0.000000 0.000000 0.000000
# 3 -0.018487 -0.014838 0.063831 0.000000 0.000000 0.000000
# 4 0.000000 0.000000 0.000000 -0.001002 0.000000 0.000000
# 5 0.000000 0.000000 0.000000 0.000000 0.068636 0.000000
# 6 0.000000 0.000000 0.000000 0.000000 0.000000 0.217583
#
#
# Mechanical properties :
#
#
# Convention : Reuss Voigt Hill
#
# Bulk Modulus (GPa) = 31.39192 51.99526 41.69359
# Shear Modulus (GPa) = 10.52176 -188.53903 -89.00863
#
# Velocity S-wave (km/s) = 2.66100 -11.26421 -7.73956
# Velocity P-wave (km/s) = 5.52877 11.58382 7.19784
#
# Compressibility (1/GPa) = 0.03185533
#
# Stress axis : x y z
#
# Youngs Moduli (GPa) = 35.39280 73.92743 15.66626
#
# Poissons Ratio (x) = 0.26270 0.28963
# Poissons Ratio (y) = 0.12577 0.23246
# Poissons Ratio (z) = 0.65431 1.09693
#
# Static dielectric constant tensor:
#      x y z
#    x 1.480150 0.000000 0.000000 
#    y 0.000000 1.511230 0.000000 
#    z 0.000000 0.000000 1.496540 
# 
# From -- ./inp_files/8267.got.cif
#   From: 2010.05.17/outbox.cif.g08.bks.cpg/sg47_5_cif.got.tgz:8267.got - 2010.06.03 20:15:42.
