data_PCOD9382985
_publ_section_title
;
Structure prediction by ZEFSAII (Michael W. Deem and Ramdas Pophale) SiO2 
 PCOD9382985
Probable space group: P M M M
;
_chemical_formula_sum "Si O2"
_cell_formula_units_Z 60
_cell_length_a 21.567926
_cell_length_b 7.760772
_cell_length_c 19.868318
_cell_angle_alpha 90.000000
_cell_angle_beta 90.000000
_cell_angle_gamma 90.000000
_cell_volume 3325.633696
_symmetry_space_group_name_H-M "P M M M"
_symmetry_group_IT_number 47
_symmetry_cell_setting 'orthorhombic'
loop_
_space_group_symop_operation_xyz
x,y,z
-x,-y,z
x,-y,-z
-x,y,-z
-x,-y,-z
x,y,-z
-x,y,z
x,-y,z
loop_
_atom_site_type_symbol
_atom_site_label
_atom_site_fract_x
_atom_site_fract_y
_atom_site_fract_z
Si Si1 0.789754 0.796297 0.573921
Si Si2 0.317426 0.796105 0.791671
Si Si3 0.000000 0.711259 0.078294
Si Si4 0.191930 0.792048 0.280420
Si Si5 0.126629 0.293114 0.852993
Si Si6 0.354613 0.291134 0.574903
Si Si7 0.747704 0.707793 0.924359
Si Si8 0.569353 0.705175 0.297169
O O1 0.806060 0.722509 0.500000
O O2 0.817965 0.726767 0.643592
O O3 0.715493 0.775760 0.581924
O O4 0.803655 0.000000 0.571376
O O5 0.258206 0.726471 0.748977
O O6 0.303273 0.755361 0.869103
O O7 0.382242 0.732511 0.762896
O O8 0.316891 0.000000 0.783005
O O9 0.937915 0.769824 0.116437
O O10 0.000000 0.500000 0.078964
O O11 0.000000 0.762725 0.000000
O O12 0.140754 0.748219 0.224684
O O13 0.195823 0.000000 0.283582
O O14 0.126232 0.500000 0.859340
O O15 0.186094 0.228744 0.895413
O O16 0.377007 0.244356 0.500000
O O17 0.351336 0.500000 0.578124
O O18 0.397854 0.226882 0.634965
O O19 0.750744 0.500000 0.926364
O O20 0.736749 0.770247 0.000000
O O21 0.500000 0.774018 0.286547
O O22 0.564190 0.500000 0.306309
#
# Coordination Sequence:
#
# PCOD9382985 Si02
#       8
#     8   8   4   8   8   8   8   8
#     4   9  16  27  44  64  88 119 152 188 232 276
#     4  10  19  31  47  67  90 117 149 188 232 272
#     4   9  16  28  47  71 100 129 158 188 215 253
#     4   9  17  29  44  65  92 120 152 191 231 269
#     4   9  17  28  46  71  96 126 157 185 216 257
#     4   9  17  28  43  64  89 117 150 188 228 270
#     4   9  17  30  49  72  95 119 148 181 221 270
#     4  10  20  32  46  64  88 120 155 188 226 275
#
# _framework density 18.041674
#
# number of rings (size 3 to 8) (size 9 to 14) (size 15 to 20)
#    0.000    2.733    1.333    0.800    0.000    3.467 
#    0.000    1.667    0.000    2.000    0.000    6.067 
#    0.000    3.733    0.000    0.000    0.000    0.000 
#
# Total GULP energy -334425.345704 kJ/mol
# GULP energy per Si atom -5573.755762 kJ/mol
# Density = 1.800061 g / cm^3
# Si number density = 18.041674 Si / 1000 Ang^3
#
#
#
# Elastic Constant Matrix: (Units=GPa)
#
#
# Indices 1 2 3 4 5 6 
#
# 1 81.2176 -4.6067 69.0640 0.0000 0.0000 0.0000
# 2 -4.6067 22.7651 -1.9996 0.0000 0.0000 0.0000
# 3 69.0640 -1.9996 172.2625 0.0000 0.0000 0.0000
# 4 0.0000 0.0000 0.0000 11.4961 0.0000 0.0000
# 5 0.0000 0.0000 0.0000 0.0000 15.9096 0.0000
# 6 0.0000 0.0000 0.0000 0.0000 0.0000 28.6447
#
#
#
# Elastic Compliance Matrix: (Units=1/GPa)
#
#
# Indices 1 2 3 4 5 6 
#
# 1 0.018907 0.003163 -0.007543 0.000000 0.000000 0.000000
# 2 0.003163 0.044501 -0.000752 0.000000 0.000000 0.000000
# 3 -0.007543 -0.000752 0.008821 0.000000 0.000000 0.000000
# 4 0.000000 0.000000 0.000000 0.086986 0.000000 0.000000
# 5 0.000000 0.000000 0.000000 0.000000 0.062855 0.000000
# 6 0.000000 0.000000 0.000000 0.000000 0.000000 0.034910
#
#
# Mechanical properties :
#
#
# Convention : Reuss Voigt Hill
#
# Bulk Modulus (GPa) = 16.13822 44.57340 30.35581
# Shear Modulus (GPa) = 17.36725 25.46258 21.41491
#
# Velocity S-wave (km/s) = 3.10598 3.76083 3.44898
# Velocity P-wave (km/s) = 4.67195 6.60438 5.72036
#
# Compressibility (1/GPa) = 0.06196470
#
# Stress axis : x y z
#
# Youngs Moduli (GPa) = 52.89164 22.47145 113.37004
#
# Poissons Ratio (x) = -0.07108 0.85519
# Poissons Ratio (y) = -0.16731 0.08522
# Poissons Ratio (z) = 0.39898 0.01689
#
# Static dielectric constant tensor:
#      x y z
#    x 1.599950 0.000000 0.000000 
#    y 0.000000 1.659070 0.000000 
#    z 0.000000 0.000000 1.650160 
# 
# From -- ./inp_files/31370.got.cif
#   From: 2010.05.17/outbox.cif.g08.bks.cpg/sg47_16_cif.got.tgz:31370.got - 2010.06.03 20:15:42.
