data_PCOD9382292
_publ_section_title
;
Structure prediction by ZEFSAII (Michael W. Deem and Ramdas Pophale) SiO2 
 PCOD9382292
Probable space group: P M M M
;
_chemical_formula_sum "Si O2"
_cell_formula_units_Z 64
_cell_length_a 7.470354
_cell_length_b 24.621633
_cell_length_c 16.025926
_cell_angle_alpha 90.000000
_cell_angle_beta 90.000000
_cell_angle_gamma 90.000000
_cell_volume 2947.685662
_symmetry_space_group_name_H-M "P M M M"
_symmetry_group_IT_number 47
_symmetry_cell_setting 'orthorhombic'
loop_
_space_group_symop_operation_xyz
x,y,z
-x,-y,z
x,-y,-z
-x,y,-z
-x,-y,-z
x,y,-z
-x,y,z
x,-y,z
loop_
_atom_site_type_symbol
_atom_site_label
_atom_site_fract_x
_atom_site_fract_y
_atom_site_fract_z
Si Si1 0.707413 0.755067 0.860001
Si Si2 0.217023 0.252600 0.664494
Si Si3 0.281117 0.363787 0.092482
Si Si4 0.780729 0.937364 0.253919
Si Si5 0.713397 0.561301 0.755392
Si Si6 0.781514 0.862856 0.406984
Si Si7 0.215290 0.631891 0.593412
Si Si8 0.792667 0.875394 0.908898
O O1 0.500000 0.758457 0.884295
O O2 0.722561 0.751090 0.760062
O O3 0.779757 0.698395 0.895426
O O4 0.790773 0.811060 0.890615
O O5 0.273241 0.198398 0.616329
O O6 0.278754 0.308434 0.622283
O O7 0.000000 0.253242 0.665265
O O8 0.500000 0.362603 0.096133
O O9 0.218044 0.400818 0.169236
O O10 0.231414 0.383436 0.000000
O O11 0.722557 0.903861 0.335069
O O12 0.716333 0.906972 0.170458
O O13 0.000000 0.935769 0.254094
O O14 0.727283 0.000000 0.255836
O O15 0.500000 0.558175 0.767494
O O16 0.784704 0.500000 0.757521
O O17 0.741492 0.589509 0.666129
O O18 0.723396 0.877441 0.500000
O O19 0.000000 0.863115 0.406532
O O20 0.279708 0.618529 0.500000
O O21 0.000000 0.634646 0.589663
O O22 0.000000 0.892289 0.913062
O O23 0.711878 0.885724 0.000000
#
# Coordination Sequence:
#
# PCOD9382292 Si02
#       8
#     8   8   8   8   8   8   8   8
#     4  11  20  32  54  80 108 138 168 208 261 315
#     4  10  18  32  54  78 106 136 170 211 258 313
#     4   9  18  33  53  78 106 134 167 210 261 313
#     4   9  17  29  46  72 104 135 171 214 257 303
#     4  10  21  37  56  78 105 139 180 222 261 305
#     4   9  16  27  47  74 103 132 162 205 259 309
#     4  10  21  36  56  81 108 140 176 216 264 317
#     4  10  20  34  52  75 104 138 174 212 257 307
#
# _framework density 21.711948
#
# number of rings (size 3 to 8) (size 9 to 14) (size 15 to 20)
#    0.000    2.250    2.500    1.125    0.000    3.750 
#    0.000    5.000    0.000    2.625    0.000    1.750 
#    0.000    1.000    0.000    0.000    0.000    0.000 
#
# Total GULP energy -357581.280562 kJ/mol
# GULP energy per Si atom -5587.207509 kJ/mol
# Density = 2.166253 g / cm^3
# Si number density = 21.711948 Si / 1000 Ang^3
#
#
#
# Elastic Constant Matrix: (Units=GPa)
#
#
# Indices 1 2 3 4 5 6 
#
# 1 62.4385 0.1337 -3.3168 0.0000 0.0000 0.0000
# 2 0.1337 156.9910 89.8175 0.0000 0.0000 0.0000
# 3 -3.3168 89.8175 205.8521 0.0000 0.0000 0.0000
# 4 0.0000 0.0000 0.0000 1.0497 0.0000 0.0000
# 5 0.0000 0.0000 0.0000 0.0000 3.3247 0.0000
# 6 0.0000 0.0000 0.0000 0.0000 0.0000 26.9201
#
#
#
# Elastic Compliance Matrix: (Units=1/GPa)
#
#
# Indices 1 2 3 4 5 6 
#
# 1 0.016035 -0.000215 0.000352 0.000000 0.000000 0.000000
# 2 -0.000215 0.008492 -0.003709 0.000000 0.000000 0.000000
# 3 0.000352 -0.003709 0.006482 0.000000 0.000000 0.000000
# 4 0.000000 0.000000 0.000000 0.952676 0.000000 0.000000
# 5 0.000000 0.000000 0.000000 0.000000 0.300780 0.000000
# 6 0.000000 0.000000 0.000000 0.000000 0.000000 0.037147
#
#
# Mechanical properties :
#
#
# Convention : Reuss Voigt Hill
#
# Bulk Modulus (GPa) = 41.90187 66.50560 54.20374
# Shear Modulus (GPa) = 3.74053 28.83538 16.28795
#
# Velocity S-wave (km/s) = 1.31398 3.64825 2.74192
# Velocity P-wave (km/s) = 4.65220 6.96015 5.91974
#
# Compressibility (1/GPa) = 0.02386528
#
# Stress axis : x y z
#
# Youngs Moduli (GPa) = 62.36386 117.76171 154.28140
#
# Poissons Ratio (x) = 0.02534 -0.05435
# Poissons Ratio (y) = 0.01342 0.57216
# Poissons Ratio (z) = -0.02197 0.43673
#
# Static dielectric constant tensor:
#      x y z
#    x 1.809790 0.000000 0.000000 
#    y 0.000000 1.743460 0.000000 
#    z 0.000000 0.000000 1.771320 
# 
# From -- ./inp_files/7791.got.cif
#   From: 2010.05.17/outbox.cif.g08.bks.cpg/sg47_4_cif.got.tgz:7791.got - 2010.06.03 20:15:42.
