data_PCOD9382299
_publ_section_title
;
Structure prediction by ZEFSAII (Michael W. Deem and Ramdas Pophale) SiO2 
 PCOD9382299
Probable space group: P M M M
;
_chemical_formula_sum "Si O2"
_cell_formula_units_Z 36
_cell_length_a 10.542650
_cell_length_b 7.680248
_cell_length_c 24.846622
_cell_angle_alpha 90.000000
_cell_angle_beta 90.000000
_cell_angle_gamma 90.000000
_cell_volume 2011.835122
_symmetry_space_group_name_H-M "P M M M"
_symmetry_group_IT_number 47
_symmetry_cell_setting 'orthorhombic'
loop_
_space_group_symop_operation_xyz
x,y,z
-x,-y,z
x,-y,-z
-x,y,-z
-x,-y,-z
x,y,-z
-x,y,z
x,-y,z
loop_
_atom_site_type_symbol
_atom_site_label
_atom_site_fract_x
_atom_site_fract_y
_atom_site_fract_z
Si Si1 0.154434 0.800081 0.357647
Si Si2 0.000000 0.213424 0.061736
Si Si3 0.154794 0.500000 0.561764
Si Si4 0.852712 0.787550 0.238031
Si Si5 0.246864 0.208672 0.126214
Si Si6 0.500000 0.706373 0.938872
O O1 0.194645 0.669810 0.404489
O O2 0.190105 0.735178 0.297764
O O3 0.000000 0.802531 0.357044
O O4 0.196110 0.000000 0.365438
O O5 0.873893 0.272416 0.092259
O O6 0.000000 0.000000 0.062262
O O7 0.000000 0.268623 0.000000
O O8 0.197117 0.500000 0.500000
O O9 0.000000 0.500000 0.561222
O O10 0.768753 0.728368 0.187652
O O11 0.000000 0.735229 0.229319
O O12 0.853319 0.000000 0.239371
O O13 0.375567 0.245675 0.094902
O O14 0.235411 0.000000 0.129020
O O15 0.500000 0.500000 0.943901
O O16 0.500000 0.780460 0.000000
#
# Coordination Sequence:
#
# PCOD9382299 Si02
#       6
#     8   4   4   8   8   4
#     4   8  14  24  38  57  85 121 156 197 247 289
#     4   9  16  26  47  79 101 111 143 204 256 291
#     4   9  16  24  34  54  86 125 168 203 229 275
#     4   8  13  25  46  71  95 114 143 197 256 298
#     4  10  18  32  55  77  93 118 159 205 250 300
#     4  11  25  41  49  61  97 139 167 196 243 304
#
# _framework density 17.894110999999999
#
# number of rings (size 3 to 8) (size 9 to 14) (size 15 to 20)
#    0.000    3.000    1.111    2.333    0.000    2.222 
#    2.000    2.778    0.000    2.000    0.000    0.000 
#    0.000    0.000    0.000    2.000    0.000   17.778 
#
# Total GULP energy -200603.593163 kJ/mol
# GULP energy per Si atom -5572.322032 kJ/mol
# Density = 1.785338 g / cm^3
# Si number density = 17.894111 Si / 1000 Ang^3
#
#
#
# Elastic Constant Matrix: (Units=GPa)
#
#
# Indices 1 2 3 4 5 6 
#
# 1 76.7698 10.0867 60.8060 0.0000 0.0000 0.0000
# 2 10.0867 54.6589 54.3628 0.0000 0.0000 0.0000
# 3 60.8060 54.3628 215.7489 0.0000 0.0000 0.0000
# 4 0.0000 0.0000 0.0000 -110.2961 0.0000 0.0000
# 5 0.0000 0.0000 0.0000 0.0000 17.6389 0.0000
# 6 0.0000 0.0000 0.0000 0.0000 0.0000 -34.6008
#
#
#
# Elastic Compliance Matrix: (Units=1/GPa)
#
#
# Indices 1 2 3 4 5 6 
#
# 1 0.016960 0.002167 -0.005326 0.000000 0.000000 0.000000
# 2 0.002167 0.024690 -0.006832 0.000000 0.000000 0.000000
# 3 -0.005326 -0.006832 0.007858 0.000000 0.000000 0.000000
# 4 0.000000 0.000000 0.000000 -0.009067 0.000000 0.000000
# 5 0.000000 0.000000 0.000000 0.000000 0.056693 0.000000
# 6 0.000000 0.000000 0.000000 0.000000 0.000000 -0.028901
#
#
# Mechanical properties :
#
#
# Convention : Reuss Voigt Hill
#
# Bulk Modulus (GPa) = 33.86820 66.40982 50.13901
# Shear Modulus (GPa) = 50.99098 -10.65678 20.16710
#
# Velocity S-wave (km/s) = 5.34395 -2.44303 3.36076
# Velocity P-wave (km/s) = 7.55283 5.40697 6.56813
#
# Compressibility (1/GPa) = 0.02952622
#
# Stress axis : x y z
#
# Youngs Moduli (GPa) = 58.96346 40.50149 127.26541
#
# Poissons Ratio (x) = -0.08778 0.67781
# Poissons Ratio (y) = -0.12780 0.86950
# Poissons Ratio (z) = 0.31404 0.27671
#
# Static dielectric constant tensor:
#      x y z
#    x 1.596690 0.000000 0.000000 
#    y 0.000000 1.659940 0.000000 
#    z 0.000000 0.000000 1.640450 
# 
# From -- ./inp_files/32281.got.cif
#   From: 2010.05.17/outbox.cif.g08.bks.cpg/sg47_17_cif.got.tgz:32281.got - 2010.06.03 20:15:42.
