data_PCOD9382279
_publ_section_title
;
Structure prediction by ZEFSAII (Michael W. Deem and Ramdas Pophale) SiO2 
 PCOD9382279
Probable space group: P M M M
;
_chemical_formula_sum "Si O2"
_cell_formula_units_Z 64
_cell_length_a 26.383506
_cell_length_b 7.503142
_cell_length_c 14.978133
_cell_angle_alpha 90.000000
_cell_angle_beta 90.000000
_cell_angle_gamma 90.000000
_cell_volume 2965.059106
_symmetry_space_group_name_H-M "P M M M"
_symmetry_group_IT_number 47
_symmetry_cell_setting 'orthorhombic'
loop_
_space_group_symop_operation_xyz
x,y,z
-x,-y,z
x,-y,-z
-x,y,-z
-x,-y,-z
x,y,-z
-x,y,z
x,-y,z
loop_
_atom_site_type_symbol
_atom_site_label
_atom_site_fract_x
_atom_site_fract_y
_atom_site_fract_z
Si Si1 0.440499 0.214491 0.595781
Si Si2 0.652420 0.718619 0.897994
Si Si3 0.442708 0.290514 0.207666
Si Si4 0.251786 0.712500 0.786322
Si Si5 0.845673 0.281986 0.897244
Si Si6 0.092264 0.292736 0.401392
Si Si7 0.056119 0.281839 0.211608
Si Si8 0.209682 0.787935 0.598610
O O1 0.418696 0.275072 0.500000
O O2 0.500000 0.267546 0.595670
O O3 0.420938 0.274940 0.691510
O O4 0.438700 0.000000 0.596120
O O5 0.651794 0.500000 0.896123
O O6 0.598294 0.781955 0.861048
O O7 0.697387 0.779700 0.833070
O O8 0.661502 0.771067 0.000000
O O9 0.500000 0.214309 0.204958
O O10 0.447473 0.500000 0.189095
O O11 0.251961 0.500000 0.798390
O O12 0.201803 0.779290 0.837893
O O13 0.245453 0.745161 0.681367
O O14 0.845398 0.500000 0.896388
O O15 0.898133 0.224605 0.851811
O O16 0.841208 0.226790 0.000000
O O17 0.082234 0.214330 0.500000
O O18 0.077174 0.500000 0.405795
O O19 0.066357 0.218429 0.312946
O O20 0.153034 0.286654 0.386564
O O21 0.057717 0.500000 0.213335
O O22 0.000000 0.229461 0.182063
O O23 0.226964 0.727783 0.500000
O O24 0.204014 0.000000 0.596224
#
# Coordination Sequence:
#
# PCOD9382279 Si02
#       8
#     8   8   8   8   8   8   8   8
#     4   8  14  26  45  68  94 127 166 203 239 282
#     4   9  18  32  51  76 102 128 162 205 247 285
#     4   9  17  29  47  73 103 133 164 199 242 291
#     4  10  18  32  54  75  95 123 162 203 239 282
#     4   9  16  26  43  68  94 121 156 199 245 286
#     4   9  16  28  47  70  96 127 163 200 239 287
#     4   9  16  25  39  66 101 129 157 198 245 288
#     4  10  20  33  51  75 101 128 157 193 242 295
#
# _framework density 21.584727999999998
#
# number of rings (size 3 to 8) (size 9 to 14) (size 15 to 20)
#    0.000    2.875    1.250    1.125    0.000    3.250 
#    0.000    6.250    0.000    6.750    0.000    3.500 
#    0.000    1.000    0.000    0.000    0.000    0.000 
#
# Total GULP energy -357015.263033 kJ/mol
# GULP energy per Si atom -5578.363485 kJ/mol
# Density = 2.153560 g / cm^3
# Si number density = 21.584728 Si / 1000 Ang^3
#
#
#
# Elastic Constant Matrix: (Units=GPa)
#
#
# Indices 1 2 3 4 5 6 
#
# 1 110.5946 5.4912 75.1976 0.0000 0.0000 0.0000
# 2 5.4912 55.8371 -2.5920 0.0000 0.0000 0.0000
# 3 75.1976 -2.5920 139.5193 0.0000 0.0000 0.0000
# 4 0.0000 0.0000 0.0000 28.2757 0.0000 0.0000
# 5 0.0000 0.0000 0.0000 0.0000 16.8122 0.0000
# 6 0.0000 0.0000 0.0000 0.0000 0.0000 -24.9182
#
#
#
# Elastic Compliance Matrix: (Units=1/GPa)
#
#
# Indices 1 2 3 4 5 6 
#
# 1 0.014448 -0.001784 -0.007820 0.000000 0.000000 0.000000
# 2 -0.001784 0.018145 0.001299 0.000000 0.000000 0.000000
# 3 -0.007820 0.001299 0.011406 0.000000 0.000000 0.000000
# 4 0.000000 0.000000 0.000000 0.035366 0.000000 0.000000
# 5 0.000000 0.000000 0.000000 0.000000 0.059481 0.000000
# 6 0.000000 0.000000 0.000000 0.000000 0.000000 -0.040131
#
#
# Mechanical properties :
#
#
# Convention : Reuss Voigt Hill
#
# Bulk Modulus (GPa) = 36.51194 51.34941 43.93068
# Shear Modulus (GPa) = 40.17516 19.22422 29.69969
#
# Velocity S-wave (km/s) = 4.31893 2.98760 3.71342
# Velocity P-wave (km/s) = 6.46709 5.97849 6.22758
#
# Compressibility (1/GPa) = 0.02738830
#
# Stress axis : x y z
#
# Youngs Moduli (GPa) = 69.21446 55.11172 87.66944
#
# Poissons Ratio (x) = 0.09831 0.68559
# Poissons Ratio (y) = 0.12347 -0.11384
# Poissons Ratio (z) = 0.54127 -0.07157
#
# Static dielectric constant tensor:
#      x y z
#    x 1.761880 0.000000 0.000000 
#    y 0.000000 1.825290 0.000000 
#    z 0.000000 0.000000 1.802910 
# 
# From -- ./inp_files/25560.got.cif
#   From: 2010.05.17/outbox.cif.g08.bks.cpg/sg47_13_cif.got.tgz:25560.got - 2010.06.03 20:15:42.
