data_PCOD9382795
_publ_section_title
;
Structure prediction by ZEFSAII (Michael W. Deem and Ramdas Pophale) SiO2 
 PCOD9382795
Probable space group: P M M M
;
_chemical_formula_sum "Si O2"
_cell_formula_units_Z 64
_cell_length_a 21.710042
_cell_length_b 7.389514
_cell_length_c 17.822034
_cell_angle_alpha 90.000000
_cell_angle_beta 90.000000
_cell_angle_gamma 90.000000
_cell_volume 2859.129377
_symmetry_space_group_name_H-M "P M M M"
_symmetry_group_IT_number 47
_symmetry_cell_setting 'orthorhombic'
loop_
_space_group_symop_operation_xyz
x,y,z
-x,-y,z
x,-y,-z
-x,y,-z
-x,-y,-z
x,y,-z
-x,y,z
x,-y,z
loop_
_atom_site_type_symbol
_atom_site_label
_atom_site_fract_x
_atom_site_fract_y
_atom_site_fract_z
Si Si1 0.332805 0.278905 0.082205
Si Si2 0.567794 0.719979 0.799820
Si Si3 0.066348 0.718845 0.872306
Si Si4 0.801913 0.787249 0.293044
Si Si5 0.199626 0.292788 0.880383
Si Si6 0.567808 0.720374 0.625114
Si Si7 0.702125 0.282055 0.581060
Si Si8 0.933959 0.786957 0.693038
O O1 0.330689 0.500000 0.087106
O O2 0.376985 0.215596 0.148417
O O3 0.262924 0.212046 0.090222
O O4 0.357203 0.232852 0.000000
O O5 0.500000 0.775078 0.827197
O O6 0.569213 0.500000 0.800684
O O7 0.572940 0.770785 0.712839
O O8 0.067259 0.500000 0.878696
O O9 0.132614 0.786177 0.900524
O O10 0.066018 0.764550 0.783566
O O11 0.000000 0.780683 0.903219
O O12 0.793910 0.704631 0.210482
O O13 0.745005 0.766458 0.348979
O O14 0.866310 0.717071 0.328974
O O15 0.810294 0.000000 0.278687
O O16 0.198036 0.500000 0.907087
O O17 0.500000 0.779646 0.597632
O O18 0.567210 0.500000 0.620356
O O19 0.631394 0.781276 0.588403
O O20 0.727065 0.222088 0.500000
O O21 0.700065 0.500000 0.581192
O O22 0.000000 0.710271 0.666615
O O23 0.935198 0.000000 0.674897
#
# Coordination Sequence:
#
# PCOD9382795 Si02
#       8
#     8   8   8   8   8   8   8   8
#     4   9  16  24  36  57  85 117 150 180 212 254
#     4   8  13  21  34  54  82 113 140 171 215 260
#     4   8  13  21  35  57  82 106 135 174 220 264
#     4  10  19  30  47  69  91 117 149 185 225 268
#     4   9  16  27  44  63  85 114 147 184 222 261
#     4   8  14  26  45  68  91 114 144 183 223 261
#     4  10  20  32  47  68  94 123 151 179 215 261
#     4   8  14  25  41  62  86 109 138 180 225 264
#
# _framework density 22.384436999999998
#
# number of rings (size 3 to 8) (size 9 to 14) (size 15 to 20)
#    0.000    3.250    0.000    1.875    0.000    3.250 
#    0.000    2.500    0.000    1.500    0.000    6.125 
#    0.000    0.000    0.000   24.750    0.000   13.500 
#
# Total GULP energy -356753.390733 kJ/mol
# GULP energy per Si atom -5574.271730 kJ/mol
# Density = 2.233349 g / cm^3
# Si number density = 22.384437 Si / 1000 Ang^3
#
#
#
# Elastic Constant Matrix: (Units=GPa)
#
#
# Indices 1 2 3 4 5 6 
#
# 1 141.1885 0.8876 39.4664 0.0000 0.0000 0.0000
# 2 0.8876 81.9770 -2.4373 0.0000 0.0000 0.0000
# 3 39.4664 -2.4373 60.3196 0.0000 0.0000 0.0000
# 4 0.0000 0.0000 0.0000 -8.2420 0.0000 0.0000
# 5 0.0000 0.0000 0.0000 0.0000 -29.4942 0.0000
# 6 0.0000 0.0000 0.0000 0.0000 0.0000 3.2185
#
#
#
# Elastic Compliance Matrix: (Units=1/GPa)
#
#
# Indices 1 2 3 4 5 6 
#
# 1 0.008674 -0.000263 -0.005686 0.000000 0.000000 0.000000
# 2 -0.000263 0.012221 0.000666 0.000000 0.000000 0.000000
# 3 -0.005686 0.000666 0.020325 0.000000 0.000000 0.000000
# 4 0.000000 0.000000 0.000000 -0.121330 0.000000 0.000000
# 5 0.000000 0.000000 0.000000 0.000000 -0.033905 0.000000
# 6 0.000000 0.000000 0.000000 0.000000 0.000000 0.310699
#
#
# Mechanical properties :
#
#
# Convention : Reuss Voigt Hill
#
# Bulk Modulus (GPa) = 32.62151 39.92427 36.27289
# Shear Modulus (GPa) = 22.99187 9.46770 16.22979
#
# Velocity S-wave (km/s) = 3.20837 2.05883 2.69559
# Velocity P-wave (km/s) = 5.32258 4.85038 5.09195
#
# Compressibility (1/GPa) = 0.03065462
#
# Stress axis : x y z
#
# Youngs Moduli (GPa) = 115.29088 81.82512 49.19961
#
# Poissons Ratio (x) = 0.02152 0.27974
# Poissons Ratio (y) = 0.03032 -0.03276
# Poissons Ratio (z) = 0.65551 -0.05448
#
# Static dielectric constant tensor:
#      x y z
#    x 1.877800 0.000000 0.000000 
#    y 0.000000 2.137240 0.000000 
#    z 0.000000 0.000000 1.760030 
# 
# From -- ./inp_files/31546.got.cif
#   From: 2010.05.17/outbox.cif.g08.bks.cpg/sg47_16_cif.got.tgz:31546.got - 2010.06.03 20:15:42.
