data_PCOD9382595
_publ_section_title
;
Structure prediction by ZEFSAII (Michael W. Deem and Ramdas Pophale) SiO2 
 PCOD9382595
Probable space group: P M M M
;
_chemical_formula_sum "Si O2"
_cell_formula_units_Z 52
_cell_length_a 7.802166
_cell_length_b 14.096293
_cell_length_c 29.170220
_cell_angle_alpha 90.000000
_cell_angle_beta 90.000000
_cell_angle_gamma 90.000000
_cell_volume 3208.187992
_symmetry_space_group_name_H-M "P M M M"
_symmetry_group_IT_number 47
_symmetry_cell_setting 'orthorhombic'
loop_
_space_group_symop_operation_xyz
x,y,z
-x,-y,z
x,-y,-z
-x,y,-z
-x,-y,-z
x,y,-z
-x,y,z
x,-y,z
loop_
_atom_site_type_symbol
_atom_site_label
_atom_site_fract_x
_atom_site_fract_y
_atom_site_fract_z
Si Si1 0.000000 0.614887 0.052151
Si Si2 0.793143 0.890484 0.449249
Si Si3 0.290095 0.605531 0.689013
Si Si4 0.799321 0.894256 0.737963
Si Si5 0.702520 0.797616 0.354539
Si Si6 0.702778 0.614045 0.122026
Si Si7 0.701721 0.301232 0.782324
O O1 0.170938 0.640639 0.080544
O O2 0.000000 0.500000 0.050181
O O3 0.000000 0.650551 0.000000
O O4 0.736302 0.858114 0.500000
O O5 0.735117 0.830950 0.405834
O O6 0.000000 0.890403 0.449260
O O7 0.737343 0.000000 0.443606
O O8 0.500000 0.604383 0.689360
O O9 0.232219 0.500000 0.677374
O O10 0.236768 0.690518 0.655506
O O11 0.230019 0.637013 0.739707
O O12 0.780936 0.865351 0.684464
O O13 0.723153 0.808244 0.767699
O O14 0.000000 0.896514 0.748712
O O15 0.727203 0.000000 0.745284
O O16 0.500000 0.800104 0.345601
O O17 0.500000 0.634442 0.113488
O O18 0.715571 0.500000 0.129471
O O19 0.765315 0.667369 0.168031
O O20 0.500000 0.322123 0.784175
#
# Coordination Sequence:
#
# PCOD9382595 Si02
#       7
#     4   8   8   8   8   8   8
#     4   9  18  30  44  66  95 129 167 201 235 276
#     4   9  18  32  48  64  83 109 139 172 216 269
#     4   8  14  26  43  62  86 114 143 176 213 256
#     4  10  20  31  43  61  89 124 152 176 215 270
#     4  10  19  29  45  67  87 111 143 179 218 258
#     4   9  17  29  46  68  95 127 160 196 238 280
#     4   9  17  28  45  67  88 116 153 191 228 264
#
# _framework density 16.208525999999999
#
# number of rings (size 3 to 8) (size 9 to 14) (size 15 to 20)
#    0.000    2.846    0.000    3.231    1.077    5.846 
#    0.000    2.308    0.000    8.769    0.000    3.231 
#    0.000    1.231    0.000    3.385    0.000    0.154 
#
# Total GULP energy -289669.490581 kJ/mol
# GULP energy per Si atom -5570.567127 kJ/mol
# Density = 1.617164 g / cm^3
# Si number density = 16.208526 Si / 1000 Ang^3
#
#
#
# Elastic Constant Matrix: (Units=GPa)
#
#
# Indices 1 2 3 4 5 6 
#
# 1 33.2661 4.1183 20.7577 0.0000 0.0000 0.0000
# 2 4.1183 76.7333 45.8195 0.0000 0.0000 0.0000
# 3 20.7577 45.8195 128.4483 0.0000 0.0000 0.0000
# 4 0.0000 0.0000 0.0000 19.2883 0.0000 0.0000
# 5 0.0000 0.0000 0.0000 0.0000 16.9803 0.0000
# 6 0.0000 0.0000 0.0000 0.0000 0.0000 20.2252
#
#
#
# Elastic Compliance Matrix: (Units=1/GPa)
#
#
# Indices 1 2 3 4 5 6 
#
# 1 0.033633 0.001830 -0.006088 0.000000 0.000000 0.000000
# 2 0.001830 0.016659 -0.006238 0.000000 0.000000 0.000000
# 3 -0.006088 -0.006238 0.010994 0.000000 0.000000 0.000000
# 4 0.000000 0.000000 0.000000 0.051845 0.000000 0.000000
# 5 0.000000 0.000000 0.000000 0.000000 0.058892 0.000000
# 6 0.000000 0.000000 0.000000 0.000000 0.000000 0.049443
#
#
# Mechanical properties :
#
#
# Convention : Reuss Voigt Hill
#
# Bulk Modulus (GPa) = 24.81753 42.20430 33.51092
# Shear Modulus (GPa) = 19.53967 22.48225 21.01096
#
# Velocity S-wave (km/s) = 3.47582 3.72837 3.60431
# Velocity P-wave (km/s) = 5.60831 6.68051 6.16775
#
# Compressibility (1/GPa) = 0.04029410
#
# Stress axis : x y z
#
# Youngs Moduli (GPa) = 29.73275 60.02766 90.95549
#
# Poissons Ratio (x) = -0.10987 0.55375
# Poissons Ratio (y) = -0.05442 0.56741
# Poissons Ratio (z) = 0.18102 0.37447
#
# Static dielectric constant tensor:
#      x y z
#    x 1.594970 0.000000 0.000000 
#    y 0.000000 1.546870 0.000000 
#    z 0.000000 0.000000 1.537670 
# 
# From -- ./inp_files/33256.got.cif
#   From: 2010.05.17/outbox.cif.g08.bks.cpg/sg47_17_cif.got.tgz:33256.got - 2010.06.03 20:15:42.
