data_PCOD9382612
_publ_section_title
;
Structure prediction by ZEFSAII (Michael W. Deem and Ramdas Pophale) SiO2 
 PCOD9382612
Probable space group: P M M M
;
_chemical_formula_sum "Si O2"
_cell_formula_units_Z 52
_cell_length_a 7.384734
_cell_length_b 14.522703
_cell_length_c 19.000463
_cell_angle_alpha 90.000000
_cell_angle_beta 90.000000
_cell_angle_gamma 90.000000
_cell_volume 2037.729329
_symmetry_space_group_name_H-M "P M M M"
_symmetry_group_IT_number 47
_symmetry_cell_setting 'orthorhombic'
loop_
_space_group_symop_operation_xyz
x,y,z
-x,-y,z
x,-y,-z
-x,y,-z
-x,-y,-z
x,y,-z
-x,y,z
x,-y,z
loop_
_atom_site_type_symbol
_atom_site_label
_atom_site_fract_x
_atom_site_fract_y
_atom_site_fract_z
Si Si1 0.797343 0.891983 0.225603
Si Si2 0.705870 0.896024 0.385141
Si Si3 0.713010 0.500000 0.416558
Si Si4 0.211568 0.848969 0.924518
Si Si5 0.712296 0.697918 0.630326
Si Si6 0.218254 0.398125 0.232604
Si Si7 0.788750 0.629203 0.924635
O O1 0.701687 0.885048 0.300378
O O2 0.706935 0.867052 0.151834
O O3 0.000000 0.847886 0.230703
O O4 0.822786 0.000000 0.218117
O O5 0.500000 0.898629 0.411980
O O6 0.787303 0.794333 0.401332
O O7 0.783362 0.000000 0.399950
O O8 0.500000 0.500000 0.395281
O O9 0.719253 0.500000 0.500000
O O10 0.790969 0.400398 0.394163
O O11 0.212165 0.739137 0.927800
O O12 0.000000 0.879748 0.921006
O O13 0.284414 0.883207 0.000000
O O14 0.500000 0.699436 0.610993
O O15 0.722017 0.683124 0.715378
O O16 0.269002 0.500000 0.260435
O O17 0.285993 0.394179 0.152180
O O18 0.000000 0.393535 0.230002
O O19 0.000000 0.600671 0.923845
O O20 0.711061 0.598270 0.000000
#
# Coordination Sequence:
#
# PCOD9382612 Si02
#       7
#     8   8   4   8   8   8   8
#     4   9  16  25  39  61  87 116 154 199 245 291
#     4   9  18  31  47  69  97 128 159 192 235 284
#     4   9  18  34  57  83 106 131 166 200 233 283
#     4   8  13  21  33  50  74 106 146 194 245 291
#     4  10  19  33  54  76 101 133 166 202 242 290
#     4  10  19  29  45  71 100 129 164 210 257 296
#     4   8  14  24  37  55  83 121 162 201 244 294
#
# _framework density 25.518599999999999
#
# number of rings (size 3 to 8) (size 9 to 14) (size 15 to 20)
#    0.000    3.000    0.769    1.846    0.000    2.462 
#    0.000    3.077    0.000    2.308    0.000   10.769 
#    0.000    0.000    0.000    5.231    0.000    5.538 
#
# Total GULP energy -289581.914399 kJ/mol
# GULP energy per Si atom -5568.882969 kJ/mol
# Density = 2.546052 g / cm^3
# Si number density = 25.518600 Si / 1000 Ang^3
#
#
#
# Elastic Constant Matrix: (Units=GPa)
#
#
# Indices 1 2 3 4 5 6 
#
# 1 91.3398 6.9595 6.6749 0.0000 0.0000 0.0000
# 2 6.9595 201.7794 17.3434 0.0000 0.0000 0.0000
# 3 6.6749 17.3434 65.5592 0.0000 0.0000 0.0000
# 4 0.0000 0.0000 0.0000 22.2652 0.0000 0.0000
# 5 0.0000 0.0000 0.0000 0.0000 -6.9752 0.0000
# 6 0.0000 0.0000 0.0000 0.0000 0.0000 1.5622
#
#
#
# Elastic Compliance Matrix: (Units=1/GPa)
#
#
# Indices 1 2 3 4 5 6 
#
# 1 0.011047 -0.000291 -0.001048 0.000000 0.000000 0.000000
# 2 -0.000291 0.005079 -0.001314 0.000000 0.000000 0.000000
# 3 -0.001048 -0.001314 0.015708 0.000000 0.000000 0.000000
# 4 0.000000 0.000000 0.000000 0.044913 0.000000 0.000000
# 5 0.000000 0.000000 0.000000 0.000000 -0.143365 0.000000
# 6 0.000000 0.000000 0.000000 0.000000 0.000000 0.640111
#
#
# Mechanical properties :
#
#
# Convention : Reuss Voigt Hill
#
# Bulk Modulus (GPa) = 37.69597 46.73712 42.21654
# Shear Modulus (GPa) = 8.50860 25.21716 16.86288
#
# Velocity S-wave (km/s) = 1.82798 3.14696 2.57341
# Velocity P-wave (km/s) = 4.38855 5.61775 5.04076
#
# Compressibility (1/GPa) = 0.02652803
#
# Stress axis : x y z
#
# Youngs Moduli (GPa) = 90.52344 196.89380 63.66315
#
# Poissons Ratio (x) = 0.05729 0.06670
# Poissons Ratio (y) = 0.02634 0.08365
# Poissons Ratio (z) = 0.09485 0.25871
#
# Static dielectric constant tensor:
#      x y z
#    x 2.074020 0.000000 0.000000 
#    y 0.000000 2.044930 0.000000 
#    z 0.000000 0.000000 2.094770 
# 
# From -- ./inp_files/29624.got.cif
#   From: 2010.05.17/outbox.cif.g08.bks.cpg/sg47_15_cif.got.tgz:29624.got - 2010.06.03 20:15:42.
