data_PCOD9382737
_publ_section_title
;
Structure prediction by ZEFSAII (Michael W. Deem and Ramdas Pophale) SiO2 
 PCOD9382737
Probable space group: P M M M
;
_chemical_formula_sum "Si O2"
_cell_formula_units_Z 64
_cell_length_a 14.482119
_cell_length_b 9.160217
_cell_length_c 29.499685
_cell_angle_alpha 90.000000
_cell_angle_beta 90.000000
_cell_angle_gamma 90.000000
_cell_volume 3913.409116
_symmetry_space_group_name_H-M "P M M M"
_symmetry_group_IT_number 47
_symmetry_cell_setting 'orthorhombic'
loop_
_space_group_symop_operation_xyz
x,y,z
-x,-y,z
x,-y,-z
-x,y,-z
-x,-y,-z
x,y,-z
-x,y,z
x,-y,z
loop_
_atom_site_type_symbol
_atom_site_label
_atom_site_fract_x
_atom_site_fract_y
_atom_site_fract_z
Si Si1 0.393233 0.174790 0.225384
Si Si2 0.389114 0.670262 0.130742
Si Si3 0.215052 0.174432 0.723712
Si Si4 0.721753 0.173756 0.051095
Si Si5 0.889797 0.831449 0.183087
Si Si6 0.111937 0.830011 0.550224
Si Si7 0.108744 0.325743 0.357736
Si Si8 0.891551 0.326862 0.909978
O O1 0.500000 0.210144 0.235674
O O2 0.366424 0.254420 0.178723
O O3 0.321155 0.211862 0.264874
O O4 0.386637 0.000000 0.217902
O O5 0.500000 0.680239 0.125666
O O6 0.362905 0.500000 0.131381
O O7 0.340360 0.751237 0.089338
O O8 0.160380 0.206824 0.770344
O O9 0.169098 0.257569 0.682241
O O10 0.207884 0.000000 0.715891
O O11 0.823914 0.239599 0.057343
O O12 0.723428 0.000000 0.057761
O O13 0.688491 0.204137 0.000000
O O14 0.868165 0.727712 0.140901
O O15 0.000000 0.825727 0.190353
O O16 0.865307 0.000000 0.171421
O O17 0.143446 0.781605 0.500000
O O18 0.140017 0.736216 0.593485
O O19 0.000000 0.824985 0.549359
O O20 0.137749 0.000000 0.556208
O O21 0.114537 0.500000 0.357388
O O22 0.000000 0.285396 0.351322
O O23 0.877648 0.500000 0.914051
O O24 0.000000 0.295317 0.917635
#
# Coordination Sequence:
#
# PCOD9382737 Si02
#       8
#     8   8   8   8   8   8   8   8
#     4   9  18  33  53  76 100 126 158 195 234 279
#     4  10  21  37  58  82 104 125 150 185 233 287
#     4  10  19  30  46  67  93 127 162 195 233 277
#     4  11  24  39  55  75  98 126 159 193 230 275
#     4   9  17  29  46  68  93 123 160 196 228 271
#     4   8  14  26  44  63  85 120 165 206 241 280
#     4  10  20  30  41  63  96 131 165 203 245 284
#     4  10  21  36  54  75  98 125 157 195 238 281
#
# _framework density 16.354026999999999
#
# number of rings (size 3 to 8) (size 9 to 14) (size 15 to 20)
#    0.000    2.375    0.000    3.000    0.000    6.500 
#    0.000    5.000    0.000    0.000    0.000    0.000 
#    0.000    0.500    0.000    5.750    0.000    1.875 
#
# Total GULP energy -357097.671237 kJ/mol
# GULP energy per Si atom -5579.651113 kJ/mol
# Density = 1.631680 g / cm^3
# Si number density = 16.354027 Si / 1000 Ang^3
#
#
#
# Elastic Constant Matrix: (Units=GPa)
#
#
# Indices 1 2 3 4 5 6 
#
# 1 56.2663 36.6288 55.5712 0.0000 0.0000 0.0000
# 2 36.6288 58.5230 57.5425 0.0000 0.0000 0.0000
# 3 55.5712 57.5425 114.0141 0.0000 0.0000 0.0000
# 4 0.0000 0.0000 0.0000 -47.1263 0.0000 0.0000
# 5 0.0000 0.0000 0.0000 0.0000 16.9239 0.0000
# 6 0.0000 0.0000 0.0000 0.0000 0.0000 20.4707
#
#
#
# Elastic Compliance Matrix: (Units=1/GPa)
#
#
# Indices 1 2 3 4 5 6 
#
# 1 0.037478 -0.010910 -0.012761 0.000000 0.000000 0.000000
# 2 -0.010910 0.037096 -0.013404 0.000000 0.000000 0.000000
# 3 -0.012761 -0.013404 0.021756 0.000000 0.000000 0.000000
# 4 0.000000 0.000000 0.000000 -0.021220 0.000000 0.000000
# 5 0.000000 0.000000 0.000000 0.000000 0.059088 0.000000
# 6 0.000000 0.000000 0.000000 0.000000 0.000000 0.048850
#
#
# Mechanical properties :
#
#
# Convention : Reuss Voigt Hill
#
# Bulk Modulus (GPa) = 45.08788 58.69872 51.89330
# Shear Modulus (GPa) = 18.89703 3.32438 11.11070
#
# Velocity S-wave (km/s) = 3.40295 1.42729 2.60933
# Velocity P-wave (km/s) = 6.56276 6.21986 6.39361
#
# Compressibility (1/GPa) = 0.02217891
#
# Stress axis : x y z
#
# Youngs Moduli (GPa) = 26.68214 26.95740 45.96497
#
# Poissons Ratio (x) = 0.29411 0.58655
# Poissons Ratio (y) = 0.29110 0.61613
# Poissons Ratio (z) = 0.34049 0.36135
#
# Static dielectric constant tensor:
#      x y z
#    x 1.564550 0.000000 0.000000 
#    y 0.000000 1.545740 0.000000 
#    z 0.000000 0.000000 1.530810 
# 
# From -- ./inp_files/32790.got.cif
#   From: 2010.05.17/outbox.cif.g08.bks.cpg/sg47_17_cif.got.tgz:32790.got - 2010.06.03 20:15:42.
