data_PCOD9382180
_publ_section_title
;
Structure prediction by ZEFSAII (Michael W. Deem and Ramdas Pophale) SiO2 
 PCOD9382180
Probable space group: P M M M
;
_chemical_formula_sum "Si O2"
_cell_formula_units_Z 40
_cell_length_a 10.719786
_cell_length_b 24.509958
_cell_length_c 7.564265
_cell_angle_alpha 90.000000
_cell_angle_beta 90.000000
_cell_angle_gamma 90.000000
_cell_volume 1987.446368
_symmetry_space_group_name_H-M "P M M M"
_symmetry_group_IT_number 47
_symmetry_cell_setting 'orthorhombic'
loop_
_space_group_symop_operation_xyz
x,y,z
-x,-y,z
x,-y,-z
-x,y,-z
-x,-y,-z
x,y,-z
-x,y,z
x,-y,z
loop_
_atom_site_type_symbol
_atom_site_label
_atom_site_fract_x
_atom_site_fract_y
_atom_site_fract_z
Si Si1 0.359331 0.936921 0.715860
Si Si2 0.140980 0.858242 0.710157
Si Si3 0.249947 0.378807 0.708724
Si Si4 0.858782 0.733183 0.210787
Si Si5 0.000000 0.563300 0.716450
Si Si6 0.500000 0.563443 0.716923
O O1 0.359153 0.935377 0.500000
O O2 0.500000 0.921198 0.771417
O O3 0.249103 0.897668 0.779877
O O4 0.338296 0.000000 0.766331
O O5 0.134079 0.867970 0.500000
O O6 0.173640 0.794695 0.735896
O O7 0.000000 0.866648 0.781819
O O8 0.250494 0.390459 0.500000
O O9 0.234015 0.314137 0.730339
O O10 0.124502 0.406720 0.780890
O O11 0.376135 0.405346 0.779164
O O12 0.000000 0.721784 0.279441
O O13 0.863581 0.731605 0.000000
O O14 0.000000 0.500000 0.765284
O O15 0.000000 0.565783 0.500000
O O16 0.500000 0.500000 0.768389
O O17 0.500000 0.564456 0.500000
#
# Coordination Sequence:
#
# PCOD9382180 Si02
#       6
#     8   8   8   8   4   4
#     4   8  14  26  45  71 102 130 155 191 241 289
#     4   9  17  29  48  73  98 125 161 202 240 283
#     4  10  18  31  52  75  99 127 160 198 240 290
#     4  10  20  34  51  70  97 131 166 206 249 289
#     4   9  16  26  47  77  99 119 154 197 236 279
#     4   9  18  32  51  77 105 127 152 195 248 295
#
# _framework density 20.126328999999998
#
# number of rings (size 3 to 8) (size 9 to 14) (size 15 to 20)
#    0.000    2.800    1.000    1.800    0.000    3.600 
#    1.800    2.500    0.000    4.200    0.000    4.200 
#    0.000    0.000    0.000    0.000    0.000    0.000 
#
# Total GULP energy -223173.120499 kJ/mol
# GULP energy per Si atom -5579.328012 kJ/mol
# Density = 2.008052 g / cm^3
# Si number density = 20.126329 Si / 1000 Ang^3
#
#
#
# Elastic Constant Matrix: (Units=GPa)
#
#
# Indices 1 2 3 4 5 6 
#
# 1 201.6028 136.7815 9.6591 0.0000 0.0000 0.0000
# 2 136.7815 151.5605 -7.8660 0.0000 0.0000 0.0000
# 3 9.6591 -7.8660 45.4765 0.0000 0.0000 0.0000
# 4 0.0000 0.0000 0.0000 -66.5774 0.0000 0.0000
# 5 0.0000 0.0000 0.0000 0.0000 -3.2387 0.0000
# 6 0.0000 0.0000 0.0000 0.0000 0.0000 41.5627
#
#
#
# Elastic Compliance Matrix: (Units=1/GPa)
#
#
# Indices 1 2 3 4 5 6 
#
# 1 0.013903 -0.012815 -0.005170 0.000000 0.000000 0.000000
# 2 -0.012815 0.018471 0.005917 0.000000 0.000000 0.000000
# 3 -0.005170 0.005917 0.024111 0.000000 0.000000 0.000000
# 4 0.000000 0.000000 0.000000 -0.015020 0.000000 0.000000
# 5 0.000000 0.000000 0.000000 0.000000 -0.308762 0.000000
# 6 0.000000 0.000000 0.000000 0.000000 0.000000 0.024060
#
#
# Mechanical properties :
#
#
# Convention : Reuss Voigt Hill
#
# Bulk Modulus (GPa) = 30.91361 75.08767 53.00064
# Shear Modulus (GPa) = -24.00176 11.68699 -6.15738
#
# Velocity S-wave (km/s) = -3.45709 2.41235 -1.75100
# Velocity P-wave (km/s) = 0.73629 6.71926 4.72262
#
# Compressibility (1/GPa) = 0.03234821
#
# Stress axis : x y z
#
# Youngs Moduli (GPa) = 71.92788 54.13929 41.47510
#
# Poissons Ratio (x) = 0.69382 0.21441
# Poissons Ratio (y) = 0.92179 -0.24540
# Poissons Ratio (z) = 0.37184 -0.32033
#
# Static dielectric constant tensor:
#      x y z
#    x 1.717540 0.000000 0.000000 
#    y 0.000000 1.677100 0.000000 
#    z 0.000000 0.000000 1.735370 
# 
# From -- ./inp_files/1729.got.cif
#   From: 2010.05.17/outbox.cif.g08.bks.cpg/sg47_1_cif.got.tgz:1729.got - 2010.06.03 20:15:42.
