data_PCOD9382801
_publ_section_title
;
Structure prediction by ZEFSAII (Michael W. Deem and Ramdas Pophale) SiO2 
 PCOD9382801
Probable space group: P M M M
;
_chemical_formula_sum "Si O2"
_cell_formula_units_Z 52
_cell_length_a 19.656266
_cell_length_b 19.541604
_cell_length_c 8.059388
_cell_angle_alpha 90.000000
_cell_angle_beta 90.000000
_cell_angle_gamma 90.000000
_cell_volume 3095.731550
_symmetry_space_group_name_H-M "P M M M"
_symmetry_group_IT_number 47
_symmetry_cell_setting 'orthorhombic'
loop_
_space_group_symop_operation_xyz
x,y,z
-x,-y,z
x,-y,-z
-x,y,-z
-x,-y,-z
x,y,-z
-x,y,z
x,-y,z
loop_
_atom_site_type_symbol
_atom_site_label
_atom_site_fract_x
_atom_site_fract_y
_atom_site_fract_z
Si Si1 0.075372 0.077757 0.198814
Si Si2 0.350350 0.078237 0.298488
Si Si3 0.716479 0.721799 0.802384
Si Si4 0.574322 0.418066 0.500000
Si Si5 0.211231 0.852108 0.693871
Si Si6 0.575500 0.788198 0.801612
Si Si7 0.327931 0.420801 0.193913
O O1 0.138749 0.125194 0.239295
O O2 0.000000 0.099270 0.258955
O O3 0.088039 0.000000 0.260138
O O4 0.071845 0.074400 0.000000
O O5 0.350953 0.080731 0.500000
O O6 0.276026 0.104763 0.238428
O O7 0.404967 0.133148 0.235634
O O8 0.362043 0.000000 0.247581
O O9 0.770198 0.773064 0.723534
O O10 0.641013 0.745068 0.740711
O O11 0.725090 0.640739 0.777099
O O12 0.718274 0.734179 0.000000
O O13 0.567462 0.500000 0.500000
O O14 0.500000 0.385926 0.500000
O O15 0.614435 0.405326 0.670378
O O16 0.209794 0.866223 0.500000
O O17 0.500000 0.771716 0.735863
O O18 0.573388 0.778326 0.000000
O O19 0.305757 0.500000 0.216682
O O20 0.350520 0.414496 0.000000
#
# Coordination Sequence:
#
# PCOD9382801 Si02
#       7
#     8   8   8   4   8   8   8
#     4   9  18  32  49  70  98 131 163 193 228 273
#     4   9  18  31  44  59  81 109 143 184 229 274
#     4   9  18  32  49  66  89 120 154 193 238 288
#     4   9  18  30  44  66  94 122 154 195 244 300
#     4  10  19  30  47  69  94 121 153 192 232 278
#     4   9  18  31  44  59  80 107 143 187 233 278
#     4   9  18  32  50  70  93 123 158 200 248 296
#
# _framework density 16.797322000000001
#
# number of rings (size 3 to 8) (size 9 to 14) (size 15 to 20)
#    0.000    2.846    0.000    1.385    1.077    3.692 
#    0.000    5.385    0.000    0.000    0.000    0.000 
#    0.000    0.615    0.000    7.077    0.000    2.000 
#
# Total GULP energy -289513.631717 kJ/mol
# GULP energy per Si atom -5567.569841 kJ/mol
# Density = 1.675909 g / cm^3
# Si number density = 16.797322 Si / 1000 Ang^3
#
#
#
# Elastic Constant Matrix: (Units=GPa)
#
#
# Indices 1 2 3 4 5 6 
#
# 1 96.8789 35.3590 13.7547 0.0000 0.0000 0.0000
# 2 35.3590 89.7072 10.1717 0.0000 0.0000 0.0000
# 3 13.7547 10.1717 19.7785 0.0000 0.0000 0.0000
# 4 0.0000 0.0000 0.0000 12.7139 0.0000 0.0000
# 5 0.0000 0.0000 0.0000 0.0000 9.5638 0.0000
# 6 0.0000 0.0000 0.0000 0.0000 0.0000 11.2118
#
#
#
# Elastic Compliance Matrix: (Units=1/GPa)
#
#
# Indices 1 2 3 4 5 6 
#
# 1 0.012846 -0.004301 -0.006722 0.000000 0.000000 0.000000
# 2 -0.004301 0.013278 -0.003837 0.000000 0.000000 0.000000
# 3 -0.006722 -0.003837 0.057208 0.000000 0.000000 0.000000
# 4 0.000000 0.000000 0.000000 0.078654 0.000000 0.000000
# 5 0.000000 0.000000 0.000000 0.000000 0.104561 0.000000
# 6 0.000000 0.000000 0.000000 0.000000 0.000000 0.089192
#
#
# Mechanical properties :
#
#
# Convention : Reuss Voigt Hill
#
# Bulk Modulus (GPa) = 18.65272 36.10394 27.37833
# Shear Modulus (GPa) = 12.39679 16.50318 14.44998
#
# Velocity S-wave (km/s) = 2.71960 3.13787 2.93619
# Velocity P-wave (km/s) = 4.58152 5.88802 5.27537
#
# Compressibility (1/GPa) = 0.05361148
#
# Stress axis : x y z
#
# Youngs Moduli (GPa) = 77.84262 75.31311 17.48010
#
# Poissons Ratio (x) = 0.32395 0.11750
# Poissons Ratio (y) = 0.33483 0.06708
# Poissons Ratio (z) = 0.52324 0.28899
#
# Static dielectric constant tensor:
#      x y z
#    x 1.567040 0.000000 0.000000 
#    y 0.000000 1.582230 0.000000 
#    z 0.000000 0.000000 1.604350 
# 
# From -- ./inp_files/9589.got.cif
#   From: 2010.05.17/outbox.cif.g08.bks.cpg/sg47_5_cif.got.tgz:9589.got - 2010.06.03 20:15:42.
