data_PCOD9382736
_publ_section_title
;
Structure prediction by ZEFSAII (Michael W. Deem and Ramdas Pophale) SiO2 
 PCOD9382736
Probable space group: P M M M
;
_chemical_formula_sum "Si O2"
_cell_formula_units_Z 36
_cell_length_a 9.388992
_cell_length_b 7.593009
_cell_length_c 25.493260
_cell_angle_alpha 90.000000
_cell_angle_beta 90.000000
_cell_angle_gamma 90.000000
_cell_volume 1817.432370
_symmetry_space_group_name_H-M "P M M M"
_symmetry_group_IT_number 47
_symmetry_cell_setting 'orthorhombic'
loop_
_space_group_symop_operation_xyz
x,y,z
-x,-y,z
x,-y,-z
-x,y,-z
-x,-y,-z
x,y,-z
-x,y,z
x,-y,z
loop_
_atom_site_type_symbol
_atom_site_label
_atom_site_fract_x
_atom_site_fract_y
_atom_site_fract_z
Si Si1 0.158725 0.705235 0.759319
Si Si2 0.660779 0.201193 0.857913
Si Si3 0.164612 0.714638 0.558638
Si Si4 0.336788 0.283735 0.339620
Si Si5 0.168334 0.000000 0.062379
O O1 0.142143 0.500000 0.746373
O O2 0.247012 0.710239 0.813111
O O3 0.247712 0.779651 0.710668
O O4 0.000000 0.781677 0.765527
O O5 0.500000 0.270681 0.865677
O O6 0.751298 0.167587 0.911064
O O7 0.646546 0.000000 0.838266
O O8 0.208277 0.770762 0.500000
O O9 0.166590 0.500000 0.558732
O O10 0.262712 0.772932 0.606359
O O11 0.000000 0.766747 0.566972
O O12 0.500000 0.227688 0.336224
O O13 0.337228 0.500000 0.339430
O O14 0.000000 0.000000 0.075635
O O15 0.183667 0.000000 0.000000
#
# Coordination Sequence:
#
# PCOD9382736 Si02
#       5
#     8   8   8   8   4
#     4  10  19  30  46  67  93 126 160 193 232 279
#     4   9  19  32  49  73  98 125 155 191 231 272
#     4   8  13  21  32  46  68 101 141 183 225 271
#     4   9  16  24  35  53  79 111 146 185 229 277
#     4   9  17  31  53  77  99 125 156 189 224 265
#
# _framework density 19.808164999999999
#
# number of rings (size 3 to 8) (size 9 to 14) (size 15 to 20)
#    0.667    2.333    0.000    2.667    0.000    5.333 
#    0.000    2.222    0.000    0.667    0.000    4.667 
#    0.000    0.889    0.000    9.333    0.000   12.889 
#
# Total GULP energy -200411.254438 kJ/mol
# GULP energy per Si atom -5566.979290 kJ/mol
# Density = 1.976308 g / cm^3
# Si number density = 19.808165 Si / 1000 Ang^3
#
#
#
# Elastic Constant Matrix: (Units=GPa)
#
#
# Indices 1 2 3 4 5 6 
#
# 1 196.8517 5.9686 118.8879 0.0000 0.0000 0.0000
# 2 5.9686 32.9512 1.6255 0.0000 0.0000 0.0000
# 3 118.8879 1.6255 164.3905 0.0000 0.0000 0.0000
# 4 0.0000 0.0000 0.0000 52.8367 0.0000 0.0000
# 5 0.0000 0.0000 0.0000 0.0000 -8.9323 0.0000
# 6 0.0000 0.0000 0.0000 0.0000 0.0000 5.2620
#
#
#
# Elastic Compliance Matrix: (Units=1/GPa)
#
#
# Indices 1 2 3 4 5 6 
#
# 1 0.009077 -0.001321 -0.006551 0.000000 0.000000 0.000000
# 2 -0.001321 0.030555 0.000653 0.000000 0.000000 0.000000
# 3 -0.006551 0.000653 0.010814 0.000000 0.000000 0.000000
# 4 0.000000 0.000000 0.000000 0.018926 0.000000 0.000000
# 5 0.000000 0.000000 0.000000 0.000000 -0.111953 0.000000
# 6 0.000000 0.000000 0.000000 0.000000 0.000000 0.190043
#
#
# Mechanical properties :
#
#
# Convention : Reuss Voigt Hill
#
# Bulk Modulus (GPa) = 27.77147 71.90639 49.83893
# Shear Modulus (GPa) = 28.75176 27.68069 28.21622
#
# Velocity S-wave (km/s) = 3.81400 3.74229 3.77832
# Velocity P-wave (km/s) = 5.78326 7.41978 6.65204
#
# Compressibility (1/GPa) = 0.03600818
#
# Stress axis : x y z
#
# Youngs Moduli (GPa) = 110.17392 32.72788 92.46898
#
# Poissons Ratio (x) = 0.04323 0.60578
# Poissons Ratio (y) = 0.14553 -0.06040
# Poissons Ratio (z) = 0.72177 -0.02138
#
# Static dielectric constant tensor:
#      x y z
#    x 1.713510 0.000000 0.000000 
#    y 0.000000 1.810260 0.000000 
#    z 0.000000 0.000000 1.660990 
# 
# From -- ./inp_files/12251.got.cif
#   From: 2010.05.17/outbox.cif.g08.bks.cpg/sg47_7_cif.got.tgz:12251.got - 2010.06.03 20:15:42.
