data_PCOD9382965
_publ_section_title
;
Structure prediction by ZEFSAII (Michael W. Deem and Ramdas Pophale) SiO2 
 PCOD9382965
Probable space group: P M M M
;
_chemical_formula_sum "Si O2"
_cell_formula_units_Z 64
_cell_length_a 14.665041
_cell_length_b 32.264928
_cell_length_c 8.735764
_cell_angle_alpha 90.000000
_cell_angle_beta 90.000000
_cell_angle_gamma 90.000000
_cell_volume 4133.470807
_symmetry_space_group_name_H-M "P M M M"
_symmetry_group_IT_number 47
_symmetry_cell_setting 'orthorhombic'
loop_
_space_group_symop_operation_xyz
x,y,z
-x,-y,z
x,-y,-z
-x,y,-z
-x,-y,-z
x,y,-z
-x,y,z
x,-y,z
loop_
_atom_site_type_symbol
_atom_site_label
_atom_site_fract_x
_atom_site_fract_y
_atom_site_fract_z
Si Si1 0.216802 0.626417 0.816203
Si Si2 0.109849 0.045185 0.181715
Si Si3 0.105631 0.131815 0.684329
Si Si4 0.893334 0.704354 0.315226
Si Si5 0.603708 0.753281 0.183051
Si Si6 0.396047 0.661024 0.316987
Si Si7 0.783421 0.787462 0.315012
Si Si8 0.894906 0.453382 0.813638
O O1 0.157207 0.665187 0.757632
O O2 0.318474 0.632381 0.753547
O O3 0.170023 0.583694 0.762980
O O4 0.218100 0.627074 0.000000
O O5 0.141920 0.087327 0.260052
O O6 0.000000 0.044743 0.203392
O O7 0.143747 0.000000 0.236997
O O8 0.126413 0.047561 0.000000
O O9 0.104524 0.131869 0.500000
O O10 0.165584 0.170782 0.735516
O O11 0.000000 0.136681 0.735833
O O12 0.887550 0.700951 0.500000
O O13 0.842533 0.746927 0.270975
O O14 0.000000 0.705540 0.273164
O O15 0.500000 0.766141 0.222220
O O16 0.617834 0.707484 0.253119
O O17 0.682791 0.782199 0.247823
O O18 0.610752 0.750476 0.000000
O O19 0.386683 0.662266 0.500000
O O20 0.500000 0.648720 0.278812
O O21 0.778356 0.787760 0.500000
O O22 0.869210 0.500000 0.764536
O O23 0.000000 0.445730 0.767454
O O24 0.894041 0.453316 0.000000
#
# Coordination Sequence:
#
# PCOD9382965 Si02
#       8
#     8   8   8   8   8   8   8   8
#     4  11  20  30  49  75  97 117 151 196 234 270
#     4   8  14  25  40  58  82 114 153 195 236 274
#     4   9  17  28  42  62  89 122 159 193 224 263
#     4  10  20  32  45  63  92 130 162 186 219 266
#     4  10  20  33  49  69  91 115 149 195 238 271
#     4  10  20  34  51  69  91 121 154 186 228 282
#     4  10  19  31  46  64  91 127 159 186 223 273
#     4   8  15  29  48  70  97 126 152 182 225 273
#
# _framework density 15.483356000000001
#
# number of rings (size 3 to 8) (size 9 to 14) (size 15 to 20)
#    0.000    2.500    1.250    2.625    0.000    4.500 
#    0.000    1.250    0.000    4.125    0.000    7.000 
#    0.000    0.500    0.000    5.500    0.000    4.250 
#
# Total GULP energy -356741.139149 kJ/mol
# GULP energy per Si atom -5574.080299 kJ/mol
# Density = 1.544812 g / cm^3
# Si number density = 15.483356 Si / 1000 Ang^3
#
#
#
# Elastic Constant Matrix: (Units=GPa)
#
#
# Indices 1 2 3 4 5 6 
#
# 1 109.5000 81.0293 28.4468 0.0000 0.0000 0.0000
# 2 81.0293 147.6685 31.2880 0.0000 0.0000 0.0000
# 3 28.4468 31.2880 16.8924 0.0000 0.0000 0.0000
# 4 0.0000 0.0000 0.0000 25.6004 0.0000 0.0000
# 5 0.0000 0.0000 0.0000 0.0000 22.0319 0.0000
# 6 0.0000 0.0000 0.0000 0.0000 0.0000 9.4849
#
#
#
# Elastic Compliance Matrix: (Units=1/GPa)
#
#
# Indices 1 2 3 4 5 6 
#
# 1 0.018996 -0.006000 -0.020875 0.000000 0.000000 0.000000
# 2 -0.006000 0.013042 -0.014051 0.000000 0.000000 0.000000
# 3 -0.020875 -0.014051 0.120376 0.000000 0.000000 0.000000
# 4 0.000000 0.000000 0.000000 0.039062 0.000000 0.000000
# 5 0.000000 0.000000 0.000000 0.000000 0.045389 0.000000
# 6 0.000000 0.000000 0.000000 0.000000 0.000000 0.105431
#
#
# Mechanical properties :
#
#
# Convention : Reuss Voigt Hill
#
# Bulk Modulus (GPa) = 14.17208 61.73212 37.95210
# Shear Modulus (GPa) = 11.16902 20.30991 15.73947
#
# Velocity S-wave (km/s) = 2.68872 3.62570 3.19178
# Velocity P-wave (km/s) = 4.33727 7.58183 6.17641
#
# Compressibility (1/GPa) = 0.07056127
#
# Stress axis : x y z
#
# Youngs Moduli (GPa) = 52.64351 76.67755 8.30731
#
# Poissons Ratio (x) = 0.46010 0.17341
# Poissons Ratio (y) = 0.31589 0.11672
# Poissons Ratio (z) = 1.09891 1.07739
#
# Static dielectric constant tensor:
#      x y z
#    x 1.510320 0.000000 0.000000 
#    y 0.000000 1.517930 0.000000 
#    z 0.000000 0.000000 1.526040 
# 
# From -- ./inp_files/8257.got.cif
#   From: 2010.05.17/outbox.cif.g08.bks.cpg/sg47_5_cif.got.tgz:8257.got - 2010.06.03 20:15:42.
