data_PCOD9382262
_publ_section_title
;
Structure prediction by ZEFSAII (Michael W. Deem and Ramdas Pophale) SiO2 
 PCOD9382262
Probable space group: P M M M
;
_chemical_formula_sum "Si O2"
_cell_formula_units_Z 40
_cell_length_a 7.533764
_cell_length_b 13.032905
_cell_length_c 19.807010
_cell_angle_alpha 90.000000
_cell_angle_beta 90.000000
_cell_angle_gamma 90.000000
_cell_volume 1944.787534
_symmetry_space_group_name_H-M "P M M M"
_symmetry_group_IT_number 47
_symmetry_cell_setting 'orthorhombic'
loop_
_space_group_symop_operation_xyz
x,y,z
-x,-y,z
x,-y,-z
-x,y,-z
-x,-y,-z
x,y,-z
-x,y,z
x,-y,z
loop_
_atom_site_type_symbol
_atom_site_label
_atom_site_fract_x
_atom_site_fract_y
_atom_site_fract_z
Si Si1 0.282020 0.618505 0.189019
Si Si2 0.716835 0.883071 0.422828
Si Si3 0.211134 0.000000 0.922978
Si Si4 0.289679 0.775472 0.076762
Si Si5 0.787050 0.500000 0.577178
Si Si6 0.290953 0.697712 0.333248
O O1 0.500000 0.618979 0.189529
O O2 0.228100 0.500000 0.183539
O O3 0.220902 0.688744 0.126928
O O4 0.219985 0.666135 0.260036
O O5 0.770561 0.858827 0.500000
O O6 0.500000 0.881134 0.422520
O O7 0.782315 0.798196 0.370448
O O8 0.770060 0.000000 0.407459
O O9 0.265429 0.109711 0.893767
O O10 0.000000 0.000000 0.925857
O O11 0.284175 0.000000 0.000000
O O12 0.500000 0.758981 0.071353
O O13 0.216109 0.772848 0.000000
O O14 0.722730 0.500000 0.500000
O O15 0.727537 0.600781 0.617229
O O16 0.000000 0.500000 0.576320
O O17 0.500000 0.716992 0.323245
#
# Coordination Sequence:
#
# PCOD9382262 Si02
#       6
#     8   8   4   8   4   8
#     4   9  17  30  48  73 102 127 161 209 251 291
#     4   8  14  25  43  70  99 121 148 192 242 289
#     4   9  17  31  51  73  99 129 164 211 254 287
#     4   9  17  30  50  75 102 133 167 202 247 303
#     4  11  23  35  49  73 102 131 166 206 247 293
#     4  10  18  32  53  74  97 128 166 206 247 294
#
# _framework density 20.567799999999998
#
# number of rings (size 3 to 8) (size 9 to 14) (size 15 to 20)
#    0.000    2.800    1.000    1.800    0.000    3.200 
#    1.800    3.000    0.000    0.600    0.000    5.600 
#    0.000    0.000    0.000    0.000    0.000    0.000 
#
# Total GULP energy -223157.210152 kJ/mol
# GULP energy per Si atom -5578.930254 kJ/mol
# Density = 2.052099 g / cm^3
# Si number density = 20.567800 Si / 1000 Ang^3
#
#
#
# Elastic Constant Matrix: (Units=GPa)
#
#
# Indices 1 2 3 4 5 6 
#
# 1 51.0340 -0.4407 4.0761 0.0000 0.0000 0.0000
# 2 -0.4407 202.3150 117.8790 0.0000 0.0000 0.0000
# 3 4.0761 117.8790 144.0448 0.0000 0.0000 0.0000
# 4 0.0000 0.0000 0.0000 -111.4573 0.0000 0.0000
# 5 0.0000 0.0000 0.0000 0.0000 -9.6186 0.0000
# 6 0.0000 0.0000 0.0000 0.0000 0.0000 -35.7660
#
#
#
# Elastic Compliance Matrix: (Units=1/GPa)
#
#
# Indices 1 2 3 4 5 6 
#
# 1 0.019691 0.000703 -0.001132 0.000000 0.000000 0.000000
# 2 0.000703 0.009473 -0.007772 0.000000 0.000000 0.000000
# 3 -0.001132 -0.007772 0.013334 0.000000 0.000000 0.000000
# 4 0.000000 0.000000 0.000000 -0.008972 0.000000 0.000000
# 5 0.000000 0.000000 0.000000 0.000000 -0.103965 0.000000
# 6 0.000000 0.000000 0.000000 0.000000 0.000000 -0.027960
#
#
# Mechanical properties :
#
#
# Convention : Reuss Voigt Hill
#
# Bulk Modulus (GPa) = 38.32082 71.15807 54.73945
# Shear Modulus (GPa) = -68.21503 -12.97642 -40.59572
#
# Velocity S-wave (km/s) = -5.76523 -2.51452 -4.44751
# Velocity P-wave (km/s) = 5.06412 5.12265 0.54599
#
# Compressibility (1/GPa) = 0.02609547
#
# Stress axis : x y z
#
# Youngs Moduli (GPa) = 50.78392 105.56861 74.99458
#
# Poissons Ratio (x) = -0.07416 0.08490
# Poissons Ratio (y) = -0.03568 0.58284
# Poissons Ratio (z) = 0.05749 0.82045
#
# Static dielectric constant tensor:
#      x y z
#    x 1.757190 0.000000 0.000000 
#    y 0.000000 1.706730 0.000000 
#    z 0.000000 0.000000 1.723420 
# 
# From -- ./inp_files/18927.got.cif
#   From: 2010.05.17/outbox.cif.g08.bks.cpg/sg47_10_cif.got.tgz:18927.got - 2010.06.03 20:15:42.
