data_PCOD9382435
_publ_section_title
;
Structure prediction by ZEFSAII (Michael W. Deem and Ramdas Pophale) SiO2 
 PCOD9382435
Probable space group: P M M M
;
_chemical_formula_sum "Si O2"
_cell_formula_units_Z 64
_cell_length_a 18.984208
_cell_length_b 20.086501
_cell_length_c 7.442082
_cell_angle_alpha 90.000000
_cell_angle_beta 90.000000
_cell_angle_gamma 90.000000
_cell_volume 2837.861690
_symmetry_space_group_name_H-M "P M M M"
_symmetry_group_IT_number 47
_symmetry_cell_setting 'orthorhombic'
loop_
_space_group_symop_operation_xyz
x,y,z
-x,-y,z
x,-y,-z
-x,y,-z
-x,-y,-z
x,y,-z
-x,y,z
x,-y,z
loop_
_atom_site_type_symbol
_atom_site_label
_atom_site_fract_x
_atom_site_fract_y
_atom_site_fract_z
Si Si1 0.923424 0.599024 0.790458
Si Si2 0.233346 0.427756 0.217466
Si Si3 0.375752 0.923856 0.782138
Si Si4 0.925119 0.110718 0.207231
Si Si5 0.721107 0.719600 0.289938
Si Si6 0.223610 0.078927 0.202857
Si Si7 0.424242 0.780841 0.712095
Si Si8 0.879007 0.253497 0.282822
O O1 0.848157 0.575005 0.716699
O O2 0.915005 0.678509 0.777163
O O3 0.000000 0.579892 0.714030
O O4 0.924424 0.579651 0.000000
O O5 0.263110 0.500000 0.269758
O O6 0.272822 0.360687 0.275371
O O7 0.231161 0.424962 0.000000
O O8 0.297871 0.902510 0.713267
O O9 0.422107 0.860955 0.732188
O O10 0.393298 0.000000 0.724001
O O11 0.372656 0.926537 0.000000
O O12 0.850983 0.091193 0.293415
O O13 0.919838 0.190178 0.210498
O O14 0.000000 0.089307 0.285323
O O15 0.923712 0.086444 0.000000
O O16 0.721788 0.737173 0.500000
O O17 0.648391 0.749176 0.212989
O O18 0.796897 0.746158 0.220302
O O19 0.230089 0.000000 0.185744
O O20 0.220820 0.107808 0.000000
O O21 0.424312 0.765383 0.500000
O O22 0.500000 0.757424 0.786016
O O23 0.880006 0.251694 0.500000
#
# Coordination Sequence:
#
# PCOD9382435 Si02
#       8
#     8   8   8   8   8   8   8   8
#     4   9  17  29  45  66  95 129 161 195 236 280
#     4   9  18  32  51  76 102 129 165 206 246 289
#     4   9  18  33  53  76 102 133 167 200 236 286
#     4  10  19  28  41  63  88 115 152 199 245 285
#     4   9  19  35  53  73  97 127 164 203 242 289
#     4   8  15  29  47  65  86 115 153 195 236 278
#     4  10  21  36  54  77 104 131 160 198 243 290
#     4  10  19  30  45  64  88 120 157 195 235 281
#
# _framework density 22.552192000000002
#
# number of rings (size 3 to 8) (size 9 to 14) (size 15 to 20)
#    0.000    2.750    0.000    2.250    0.000    4.500 
#    0.000    3.750    0.000    1.500    0.000    7.000 
#    0.000    0.000    0.000    0.000    0.000    0.000 
#
# Total GULP energy -356941.168552 kJ/mol
# GULP energy per Si atom -5577.205759 kJ/mol
# Density = 2.250086 g / cm^3
# Si number density = 22.552192 Si / 1000 Ang^3
#
#
#
# Elastic Constant Matrix: (Units=GPa)
#
#
# Indices 1 2 3 4 5 6 
#
# 1 167.5710 48.7284 5.3915 0.0000 0.0000 0.0000
# 2 48.7284 75.7157 -4.7532 0.0000 0.0000 0.0000
# 3 5.3915 -4.7532 78.3349 0.0000 0.0000 0.0000
# 4 0.0000 0.0000 0.0000 11.3446 0.0000 0.0000
# 5 0.0000 0.0000 0.0000 0.0000 0.7167 0.0000
# 6 0.0000 0.0000 0.0000 0.0000 0.0000 8.6690
#
#
#
# Elastic Compliance Matrix: (Units=1/GPa)
#
#
# Indices 1 2 3 4 5 6 
#
# 1 0.007391 -0.004807 -0.000800 0.000000 0.000000 0.000000
# 2 -0.004807 0.016384 0.001325 0.000000 0.000000 0.000000
# 3 -0.000800 0.001325 0.012901 0.000000 0.000000 0.000000
# 4 0.000000 0.000000 0.000000 0.088148 0.000000 0.000000
# 5 0.000000 0.000000 0.000000 0.000000 1.395294 0.000000
# 6 0.000000 0.000000 0.000000 0.000000 0.000000 0.115354
#
#
# Mechanical properties :
#
#
# Convention : Reuss Voigt Hill
#
# Bulk Modulus (GPa) = 35.57234 46.70610 41.13922
# Shear Modulus (GPa) = 3.02406 22.29638 12.66022
#
# Velocity S-wave (km/s) = 1.15924 3.14770 2.37190
# Velocity P-wave (km/s) = 4.19516 5.82803 5.07766
#
# Compressibility (1/GPa) = 0.02811173
#
# Stress axis : x y z
#
# Youngs Moduli (GPa) = 135.29574 61.03463 77.51229
#
# Poissons Ratio (x) = 0.29339 0.06204
# Poissons Ratio (y) = 0.65037 -0.10270
# Poissons Ratio (z) = 0.10829 -0.08087
#
# Static dielectric constant tensor:
#      x y z
#    x 1.904260 0.000000 0.000000 
#    y 0.000000 1.826340 0.000000 
#    z 0.000000 0.000000 1.845850 
# 
# From -- ./inp_files/9922.got.cif
#   From: 2010.05.17/outbox.cif.g08.bks.cpg/sg47_5_cif.got.tgz:9922.got - 2010.06.03 20:15:42.
