data_PCOD9382044
_publ_section_title
;
Structure prediction by ZEFSAII (Michael W. Deem and Ramdas Pophale) SiO2 
 PCOD9382044
Probable space group: P M M M
;
_chemical_formula_sum "Si O2"
_cell_formula_units_Z 56
_cell_length_a 20.734887
_cell_length_b 16.021513
_cell_length_c 7.726398
_cell_angle_alpha 90.000000
_cell_angle_beta 90.000000
_cell_angle_gamma 90.000000
_cell_volume 2566.742343
_symmetry_space_group_name_H-M "P M M M"
_symmetry_group_IT_number 47
_symmetry_cell_setting 'orthorhombic'
loop_
_space_group_symop_operation_xyz
x,y,z
-x,-y,z
x,-y,-z
-x,y,-z
-x,-y,-z
x,y,-z
-x,y,z
x,-y,z
loop_
_atom_site_type_symbol
_atom_site_label
_atom_site_fract_x
_atom_site_fract_y
_atom_site_fract_z
Si Si1 0.848274 0.909682 0.208710
Si Si2 0.072975 0.744751 0.707478
Si Si3 0.291949 0.145337 0.212262
Si Si4 0.843229 0.590913 0.296019
Si Si5 0.569573 0.130160 0.201739
Si Si6 0.708207 0.339201 0.795111
Si Si7 0.430395 0.675507 0.293313
O O1 0.891545 0.831812 0.259554
O O2 0.774277 0.897018 0.267250
O O3 0.872417 0.000000 0.268557
O O4 0.846503 0.910175 0.000000
O O5 0.069677 0.735768 0.500000
O O6 0.116288 0.668438 0.777266
O O7 0.000000 0.743791 0.775320
O O8 0.360072 0.106789 0.273321
O O9 0.288223 0.242648 0.266456
O O10 0.294239 0.143859 0.000000
O O11 0.858069 0.587313 0.500000
O O12 0.857934 0.500000 0.219991
O O13 0.767324 0.609873 0.280573
O O14 0.500000 0.104577 0.278411
O O15 0.571018 0.231615 0.211176
O O16 0.568489 0.105429 0.000000
O O17 0.635689 0.369324 0.757019
O O18 0.717275 0.338169 0.000000
O O19 0.429426 0.686674 0.500000
O O20 0.500000 0.637417 0.245757
#
# Coordination Sequence:
#
# PCOD9382044 Si02
#       7
#     8   8   8   8   8   8   8
#     4  10  20  35  56  81 111 148 189 230 271 319
#     4  10  22  40  61  85 113 143 175 218 271 326
#     4   8  14  26  45  70  99 135 178 223 268 312
#     4  10  21  37  58  84 112 142 177 218 268 329
#     4   8  13  22  38  62  94 133 178 226 274 322
#     4  10  18  30  51  75 104 143 184 227 273 322
#     4   9  16  25  40  67 103 140 181 229 277 324
#
# _framework density 21.817537000000002
#
# number of rings (size 3 to 8) (size 9 to 14) (size 15 to 20)
#    0.000    2.714    1.429    1.714    0.000    2.286 
#    0.000    2.857    0.000    0.857    0.000    8.000 
#    0.000    0.000    0.000   19.286    0.000   18.286 
#
# Total GULP energy -312326.607758 kJ/mol
# GULP energy per Si atom -5577.260853 kJ/mol
# Density = 2.176788 g / cm^3
# Si number density = 21.817537 Si / 1000 Ang^3
#
#
#
# Elastic Constant Matrix: (Units=GPa)
#
#
# Indices 1 2 3 4 5 6 
#
# 1 182.5469 85.5381 -0.3521 0.0000 0.0000 0.0000
# 2 85.5381 122.7263 6.9746 0.0000 0.0000 0.0000
# 3 -0.3521 6.9746 38.7486 0.0000 0.0000 0.0000
# 4 0.0000 0.0000 0.0000 1.2004 0.0000 0.0000
# 5 0.0000 0.0000 0.0000 0.0000 16.5389 0.0000
# 6 0.0000 0.0000 0.0000 0.0000 0.0000 5.1550
#
#
#
# Elastic Compliance Matrix: (Units=1/GPa)
#
#
# Indices 1 2 3 4 5 6 
#
# 1 0.008182 -0.005766 0.001112 0.000000 0.000000 0.000000
# 2 -0.005766 0.012296 -0.002266 0.000000 0.000000 0.000000
# 3 0.001112 -0.002266 0.026225 0.000000 0.000000 0.000000
# 4 0.000000 0.000000 0.000000 0.833071 0.000000 0.000000
# 5 0.000000 0.000000 0.000000 0.000000 0.060463 0.000000
# 6 0.000000 0.000000 0.000000 0.000000 0.000000 0.193988
#
#
# Mechanical properties :
#
#
# Convention : Reuss Voigt Hill
#
# Bulk Modulus (GPa) = 30.42805 58.70478 44.56642
# Shear Modulus (GPa) = 4.31399 21.36960 12.84180
#
# Velocity S-wave (km/s) = 1.40769 3.13304 2.42874
# Velocity P-wave (km/s) = 4.07664 6.32878 5.32318
#
# Compressibility (1/GPa) = 0.03286441
#
# Stress axis : x y z
#
# Youngs Moduli (GPa) = 122.21969 81.32918 38.13110
#
# Poissons Ratio (x) = 0.46894 -0.04241
# Poissons Ratio (y) = 0.70471 0.08639
# Poissons Ratio (z) = -0.13593 0.18426
#
# Static dielectric constant tensor:
#      x y z
#    x 1.824180 0.000000 0.000000 
#    y 0.000000 1.802400 0.000000 
#    z 0.000000 0.000000 1.843430 
# 
# From -- ./inp_files/7265.got.cif
#   From: 2010.05.17/outbox.cif.g08.bks.cpg/sg47_4_cif.got.tgz:7265.got - 2010.06.03 20:15:42.
