data_PCOD9382000
_publ_section_title
;
Structure prediction by ZEFSAII (Michael W. Deem and Ramdas Pophale) SiO2 
 PCOD9382000
Probable space group: P M M M
;
_chemical_formula_sum "Si O2"
_cell_formula_units_Z 64
_cell_length_a 14.931061
_cell_length_b 32.343294
_cell_length_c 7.685060
_cell_angle_alpha 90.000000
_cell_angle_beta 90.000000
_cell_angle_gamma 90.000000
_cell_volume 3711.266836
_symmetry_space_group_name_H-M "P M M M"
_symmetry_group_IT_number 47
_symmetry_cell_setting 'orthorhombic'
loop_
_space_group_symop_operation_xyz
x,y,z
-x,-y,z
x,-y,-z
-x,y,-z
-x,-y,-z
x,y,-z
-x,y,z
x,-y,z
loop_
_atom_site_type_symbol
_atom_site_label
_atom_site_fract_x
_atom_site_fract_y
_atom_site_fract_z
Si Si1 0.708924 0.285035 0.704812
Si Si2 0.607758 0.455552 0.291405
Si Si3 0.900382 0.255029 0.790326
Si Si4 0.900716 0.840974 0.787563
Si Si5 0.284782 0.125850 0.791792
Si Si6 0.395484 0.634814 0.713185
Si Si7 0.399243 0.202987 0.206541
Si Si8 0.398714 0.046640 0.290538
O O1 0.692633 0.285127 0.500000
O O2 0.814917 0.281194 0.734536
O O3 0.663853 0.326856 0.775101
O O4 0.659648 0.244049 0.772466
O O5 0.623203 0.456051 0.500000
O O6 0.500000 0.455267 0.267899
O O7 0.640964 0.500000 0.221983
O O8 0.637611 0.410546 0.226539
O O9 0.887050 0.207070 0.736582
O O10 0.000000 0.268016 0.730864
O O11 0.901188 0.255122 0.000000
O O12 0.816363 0.867501 0.726552
O O13 0.000000 0.853919 0.729565
O O14 0.901943 0.841533 0.000000
O O15 0.347507 0.162906 0.721752
O O16 0.329282 0.081835 0.758990
O O17 0.280298 0.131171 0.000000
O O18 0.393934 0.633941 0.500000
O O19 0.500000 0.640441 0.762167
O O20 0.500000 0.207791 0.277716
O O21 0.407444 0.196342 0.000000
O O22 0.401439 0.045502 0.500000
O O23 0.500000 0.056910 0.229744
O O24 0.377137 0.000000 0.230156
#
# Coordination Sequence:
#
# PCOD9382000 Si02
#       8
#     8   8   8   8   8   8   8   8
#     4  11  20  28  41  62  91 121 146 177 217 264
#     4   7   9  15  29  47  68 100 143 184 215 247
#     4   9  17  32  51  64  80 112 150 185 221 259
#     4   8  14  27  48  69  87 109 138 175 218 257
#     4  10  18  30  50  72  90 109 144 188 219 246
#     4   8  14  23  33  50  81 118 149 175 211 259
#     4  10  20  32  44  61  89 122 154 186 214 247
#     4   9  19  35  51  67  91 121 147 173 212 262
#
# _framework density 17.244786000000001
#
# number of rings (size 3 to 8) (size 9 to 14) (size 15 to 20)
#    0.000    3.000    1.250    3.375    0.000    2.500 
#    0.000    0.625    0.000    0.750    0.000    2.625 
#    0.000    2.500    0.000   20.375    0.000   12.750 
#
# Total GULP energy -356516.980822 kJ/mol
# GULP energy per Si atom -5570.577825 kJ/mol
# Density = 1.720554 g / cm^3
# Si number density = 17.244786 Si / 1000 Ang^3
#
#
#
# Elastic Constant Matrix: (Units=GPa)
#
#
# Indices 1 2 3 4 5 6 
#
# 1 129.1218 84.4252 2.6656 0.0000 0.0000 0.0000
# 2 84.4252 136.9586 -0.3716 0.0000 0.0000 0.0000
# 3 2.6656 -0.3716 25.5019 0.0000 0.0000 0.0000
# 4 0.0000 0.0000 0.0000 11.2164 0.0000 0.0000
# 5 0.0000 0.0000 0.0000 0.0000 8.7773 0.0000
# 6 0.0000 0.0000 0.0000 0.0000 0.0000 3.5518
#
#
#
# Elastic Compliance Matrix: (Units=1/GPa)
#
#
# Indices 1 2 3 4 5 6 
#
# 1 0.013029 -0.008036 -0.001479 0.000000 0.000000 0.000000
# 2 -0.008036 0.012258 0.001019 0.000000 0.000000 0.000000
# 3 -0.001479 0.001019 0.039382 0.000000 0.000000 0.000000
# 4 0.000000 0.000000 0.000000 0.089155 0.000000 0.000000
# 5 0.000000 0.000000 0.000000 0.000000 0.113930 0.000000
# 6 0.000000 0.000000 0.000000 0.000000 0.000000 0.281548
#
#
# Mechanical properties :
#
#
# Convention : Reuss Voigt Hill
#
# Bulk Modulus (GPa) = 20.97453 51.66898 36.32175
# Shear Modulus (GPa) = 8.58831 18.36664 13.47748
#
# Velocity S-wave (km/s) = 2.23407 3.26706 2.79864
# Velocity P-wave (km/s) = 4.34096 6.65272 5.61706
#
# Compressibility (1/GPa) = 0.04767688
#
# Stress axis : x y z
#
# Youngs Moduli (GPa) = 76.75109 81.58216 25.39223
#
# Poissons Ratio (x) = 0.65556 0.03755
# Poissons Ratio (y) = 0.61674 -0.02586
# Poissons Ratio (z) = 0.11351 -0.08309
#
# Static dielectric constant tensor:
#      x y z
#    x 1.589690 0.000000 0.000000 
#    y 0.000000 1.601630 0.000000 
#    z 0.000000 0.000000 1.670920 
# 
# From -- ./inp_files/8260.got.cif
#   From: 2010.05.17/outbox.cif.g08.bks.cpg/sg47_5_cif.got.tgz:8260.got - 2010.06.03 20:15:42.
