data_PCOD9382744
_publ_section_title
;
Structure prediction by ZEFSAII (Michael W. Deem and Ramdas Pophale) SiO2 
 PCOD9382744
Probable space group: P M M M
;
_chemical_formula_sum "Si O2"
_cell_formula_units_Z 52
_cell_length_a 9.251884
_cell_length_b 26.913739
_cell_length_c 14.036709
_cell_angle_alpha 90.000000
_cell_angle_beta 90.000000
_cell_angle_gamma 90.000000
_cell_volume 3495.179721
_symmetry_space_group_name_H-M "P M M M"
_symmetry_group_IT_number 47
_symmetry_cell_setting 'orthorhombic'
loop_
_space_group_symop_operation_xyz
x,y,z
-x,-y,z
x,-y,-z
-x,y,-z
-x,-y,-z
x,y,-z
-x,y,z
x,-y,z
loop_
_atom_site_type_symbol
_atom_site_label
_atom_site_fract_x
_atom_site_fract_y
_atom_site_fract_z
Si Si1 0.673016 0.299139 0.719796
Si Si2 0.672920 0.197565 0.389339
Si Si3 0.166339 0.500000 0.384236
Si Si4 0.826735 0.752185 0.109690
Si Si5 0.326648 0.600533 0.387612
Si Si6 0.672513 0.057660 0.887849
Si Si7 0.827526 0.145812 0.781017
O O1 0.500000 0.300038 0.733893
O O2 0.704126 0.253464 0.647754
O O3 0.750596 0.285703 0.818284
O O4 0.716399 0.351200 0.672693
O O5 0.711002 0.192346 0.500000
O O6 0.500000 0.189977 0.379407
O O7 0.757383 0.160689 0.319694
O O8 0.168874 0.500000 0.500000
O O9 0.247868 0.550305 0.355397
O O10 0.000000 0.500000 0.353464
O O11 0.794216 0.807619 0.148738
O O12 0.000000 0.745952 0.114889
O O13 0.781561 0.746990 0.000000
O O14 0.294777 0.608857 0.500000
O O15 0.500000 0.594211 0.380048
O O16 0.500000 0.064509 0.875242
O O17 0.759009 0.096403 0.824502
O O18 0.705905 0.000000 0.866179
O O19 0.704328 0.065793 0.000000
O O20 0.000000 0.141677 0.773299
#
# Coordination Sequence:
#
# PCOD9382744 Si02
#       7
#     8   8   4   8   8   8   8
#     4   9  17  28  44  67  89 112 147 185 218 255
#     4   9  17  30  47  66  90 120 152 184 218 258
#     4   9  17  27  39  59  86 115 148 181 211 250
#     4   9  18  31  44  61  89 121 148 175 212 259
#     4   9  16  27  43  62  87 117 145 176 216 258
#     4   9  18  32  49  69  92 117 146 181 221 265
#     4  10  19  30  46  68  93 120 149 181 218 261
#
# _framework density 14.877634
#
# number of rings (size 3 to 8) (size 9 to 14) (size 15 to 20)
#    0.000    2.846    0.000    2.077    0.000    5.846 
#    0.000    0.769    0.000    3.231    0.000    3.769 
#    0.000    4.308    0.000    0.000    0.000    0.000 
#
# Total GULP energy -289801.257619 kJ/mol
# GULP energy per Si atom -5573.101108 kJ/mol
# Density = 1.484377 g / cm^3
# Si number density = 14.877634 Si / 1000 Ang^3
#
#
#
# Elastic Constant Matrix: (Units=GPa)
#
#
# Indices 1 2 3 4 5 6 
#
# 1 40.8650 60.6047 54.5505 0.0000 0.0000 0.0000
# 2 60.6047 130.8485 80.2846 0.0000 0.0000 0.0000
# 3 54.5505 80.2846 124.0803 0.0000 0.0000 0.0000
# 4 0.0000 0.0000 0.0000 24.2761 0.0000 0.0000
# 5 0.0000 0.0000 0.0000 0.0000 20.7593 0.0000
# 6 0.0000 0.0000 0.0000 0.0000 0.0000 21.1792
#
#
#
# Elastic Compliance Matrix: (Units=1/GPa)
#
#
# Indices 1 2 3 4 5 6 
#
# 1 0.114097 -0.036598 -0.026481 0.000000 0.000000 0.000000
# 2 -0.036598 0.024413 0.000294 0.000000 0.000000 0.000000
# 3 -0.026481 0.000294 0.019512 0.000000 0.000000 0.000000
# 4 0.000000 0.000000 0.000000 0.041193 0.000000 0.000000
# 5 0.000000 0.000000 0.000000 0.000000 0.048171 0.000000
# 6 0.000000 0.000000 0.000000 0.000000 0.000000 0.047216
#
#
# Mechanical properties :
#
#
# Convention : Reuss Voigt Hill
#
# Bulk Modulus (GPa) = 30.81610 76.29703 53.55657
# Shear Modulus (GPa) = 11.60123 19.93318 15.76721
#
# Velocity S-wave (km/s) = 2.79548 3.66431 3.25898
# Velocity P-wave (km/s) = 5.58369 8.32450 7.08784
#
# Compressibility (1/GPa) = 0.03245056
#
# Stress axis : x y z
#
# Youngs Moduli (GPa) = 8.76450 40.96157 51.25174
#
# Poissons Ratio (x) = 1.49910 1.35721
# Poissons Ratio (y) = 0.32076 -0.01504
# Poissons Ratio (z) = 0.23209 -0.01202
#
# Static dielectric constant tensor:
#      x y z
#    x 1.492420 0.000000 0.000000 
#    y 0.000000 1.476580 0.000000 
#    z 0.000000 0.000000 1.470980 
# 
# From -- ./inp_files/4523.got.cif
#   From: 2010.05.17/outbox.cif.g08.bks.cpg/sg47_3_cif.got.tgz:4523.got - 2010.06.03 20:15:42.
