data_PCOD9382725
_publ_section_title
;
Structure prediction by ZEFSAII (Michael W. Deem and Ramdas Pophale) SiO2 
 PCOD9382725
Probable space group: P M M M
;
_chemical_formula_sum "Si O2"
_cell_formula_units_Z 64
_cell_length_a 23.137757
_cell_length_b 19.106868
_cell_length_c 9.157250
_cell_angle_alpha 90.000000
_cell_angle_beta 90.000000
_cell_angle_gamma 90.000000
_cell_volume 4048.329283
_symmetry_space_group_name_H-M "P M M M"
_symmetry_group_IT_number 47
_symmetry_cell_setting 'orthorhombic'
loop_
_space_group_symop_operation_xyz
x,y,z
-x,-y,z
x,-y,-z
-x,y,-z
-x,-y,-z
x,y,-z
-x,y,z
x,-y,z
loop_
_atom_site_type_symbol
_atom_site_label
_atom_site_fract_x
_atom_site_fract_y
_atom_site_fract_z
Si Si1 0.306502 0.579866 0.325258
Si Si2 0.564507 0.627451 0.674636
Si Si3 0.566071 0.777164 0.167807
Si Si4 0.931297 0.079045 0.674512
Si Si5 0.247438 0.289354 0.823642
Si Si6 0.329329 0.175263 0.670187
Si Si7 0.744448 0.079562 0.838562
Si Si8 0.850601 0.186961 0.833355
O O1 0.300717 0.592009 0.500000
O O2 0.289726 0.500000 0.293322
O O3 0.375465 0.588074 0.291558
O O4 0.267451 0.636162 0.240277
O O5 0.565815 0.641214 0.500000
O O6 0.500000 0.595878 0.704345
O O7 0.567624 0.699520 0.763590
O O8 0.500000 0.800685 0.170403
O O9 0.606812 0.823740 0.266784
O O10 0.586079 0.775081 0.000000
O O11 0.922191 0.080502 0.500000
O O12 0.899300 0.146058 0.743047
O O13 0.000000 0.083550 0.701852
O O14 0.912721 0.000000 0.725318
O O15 0.294041 0.235192 0.757096
O O16 0.183925 0.257253 0.782792
O O17 0.250255 0.288841 0.000000
O O18 0.327527 0.190583 0.500000
O O19 0.298086 0.103768 0.712525
O O20 0.799193 0.129925 0.835702
O O21 0.762466 0.000000 0.822990
O O22 0.716886 0.088442 0.000000
O O23 0.870449 0.198645 0.000000
#
# Coordination Sequence:
#
# PCOD9382725 Si02
#       8
#     8   8   8   8   8   8   8   8
#     4  10  20  32  47  69  96 125 157 194 240 294
#     4   9  17  29  45  65  90 119 150 186 230 283
#     4  10  19  30  46  66  86 110 144 186 229 278
#     4   9  18  31  46  69 104 141 171 197 229 273
#     4  10  20  34  49  66  91 123 161 199 238 281
#     4  11  20  30  47  68  90 115 146 187 234 281
#     4   9  18  32  48  67  93 122 152 189 232 276
#     4   9  18  31  48  70  94 124 164 204 233 264
#
# _framework density 15.808991000000001
#
# number of rings (size 3 to 8) (size 9 to 14) (size 15 to 20)
#    0.000    2.375    1.250    3.375    0.000    5.000 
#    0.000    1.875    0.000    0.375    0.000    5.250 
#    0.000    0.500    0.000    5.500    0.000    4.000 
#
# Total GULP energy -356284.521342 kJ/mol
# GULP energy per Si atom -5566.945646 kJ/mol
# Density = 1.577301 g / cm^3
# Si number density = 15.808991 Si / 1000 Ang^3
#
#
#
# Elastic Constant Matrix: (Units=GPa)
#
#
# Indices 1 2 3 4 5 6 
#
# 1 60.5202 32.8276 34.9583 0.0000 0.0000 0.0000
# 2 32.8276 65.9864 25.0683 0.0000 0.0000 0.0000
# 3 34.9583 25.0683 54.0377 0.0000 0.0000 0.0000
# 4 0.0000 0.0000 0.0000 26.0923 0.0000 0.0000
# 5 0.0000 0.0000 0.0000 0.0000 23.4977 0.0000
# 6 0.0000 0.0000 0.0000 0.0000 0.0000 23.1061
#
#
#
# Elastic Compliance Matrix: (Units=1/GPa)
#
#
# Indices 1 2 3 4 5 6 
#
# 1 0.030461 -0.009308 -0.015388 0.000000 0.000000 0.000000
# 2 -0.009308 0.021241 -0.003832 0.000000 0.000000 0.000000
# 3 -0.015388 -0.003832 0.030238 0.000000 0.000000 0.000000
# 4 0.000000 0.000000 0.000000 0.038326 0.000000 0.000000
# 5 0.000000 0.000000 0.000000 0.000000 0.042557 0.000000
# 6 0.000000 0.000000 0.000000 0.000000 0.000000 0.043279
#
#
# Mechanical properties :
#
#
# Convention : Reuss Voigt Hill
#
# Bulk Modulus (GPa) = 40.18664 40.69474 40.44069
# Shear Modulus (GPa) = 18.41942 20.38521 19.40231
#
# Velocity S-wave (km/s) = 3.41709 3.59481 3.50708
# Velocity P-wave (km/s) = 6.40656 6.55955 6.48350
#
# Compressibility (1/GPa) = 0.02488389
#
# Stress axis : x y z
#
# Youngs Moduli (GPa) = 32.82908 47.07833 33.07080
#
# Poissons Ratio (x) = 0.43821 0.50889
# Poissons Ratio (y) = 0.30558 0.12673
# Poissons Ratio (z) = 0.50517 0.18042
#
# Static dielectric constant tensor:
#      x y z
#    x 1.545620 0.000000 0.000000 
#    y 0.000000 1.534960 0.000000 
#    z 0.000000 0.000000 1.544860 
# 
# From -- ./inp_files/12883.got.cif
#   From: 2010.05.17/outbox.cif.g08.bks.cpg/sg47_7_cif.got.tgz:12883.got - 2010.06.03 20:15:42.
