data_PCOD9382156
_publ_section_title
;
Structure prediction by ZEFSAII (Michael W. Deem and Ramdas Pophale) SiO2 
 PCOD9382156
Probable space group: P M M M
;
_chemical_formula_sum "Si O2"
_cell_formula_units_Z 64
_cell_length_a 20.160872
_cell_length_b 20.874750
_cell_length_c 9.442579
_cell_angle_alpha 90.000000
_cell_angle_beta 90.000000
_cell_angle_gamma 90.000000
_cell_volume 3973.939237
_symmetry_space_group_name_H-M "P M M M"
_symmetry_group_IT_number 47
_symmetry_cell_setting 'orthorhombic'
loop_
_space_group_symop_operation_xyz
x,y,z
-x,-y,z
x,-y,-z
-x,y,-z
-x,-y,-z
x,y,-z
-x,y,z
x,-y,z
loop_
_atom_site_type_symbol
_atom_site_label
_atom_site_fract_x
_atom_site_fract_y
_atom_site_fract_z
Si Si1 0.926605 0.598752 0.834735
Si Si2 0.579331 0.687247 0.167097
Si Si3 0.423676 0.071985 0.671941
Si Si4 0.201146 0.757019 0.666809
Si Si5 0.647670 0.427347 0.331975
Si Si6 0.072669 0.245554 0.834685
Si Si7 0.346792 0.198613 0.328403
Si Si8 0.202719 0.603480 0.666810
O O1 0.926742 0.676623 0.826796
O O2 0.861403 0.578596 0.750176
O O3 0.000000 0.577880 0.783889
O O4 0.921083 0.581379 0.000000
O O5 0.500000 0.688981 0.181604
O O6 0.608225 0.623342 0.239048
O O7 0.611632 0.746683 0.249922
O O8 0.595795 0.689459 0.000000
O O9 0.423613 0.071074 0.500000
O O10 0.500000 0.084803 0.715444
O O11 0.375515 0.129432 0.713690
O O12 0.405540 0.000000 0.719153
O O13 0.190566 0.766447 0.500000
O O14 0.136140 0.778411 0.750502
O O15 0.269585 0.791097 0.707300
O O16 0.209121 0.680347 0.689255
O O17 0.643259 0.410633 0.500000
O O18 0.623645 0.500000 0.313970
O O19 0.725830 0.424586 0.294060
O O20 0.000000 0.224764 0.781577
O O21 0.077831 0.229096 0.000000
O O22 0.353194 0.206064 0.500000
O O23 0.192287 0.592244 0.500000
#
# Coordination Sequence:
#
# PCOD9382156 Si02
#       8
#     8   8   8   8   8   8   8   8
#     4   8  14  24  39  61  87 116 150 184 221 271
#     4  11  24  38  52  73  99 124 154 196 243 290
#     4   8  14  25  44  72 101 129 164 202 236 272
#     4   9  16  25  40  64  92 119 150 190 234 277
#     4  10  21  38  57  73  91 119 157 199 243 294
#     4   8  14  24  37  56  85 120 154 186 225 275
#     4  10  18  31  51  74 101 131 163 198 236 282
#     4   9  16  28  44  65  90 113 146 190 233 280
#
# _framework density 16.104927
#
# number of rings (size 3 to 8) (size 9 to 14) (size 15 to 20)
#    0.000    2.875    1.250    1.875    0.000    3.500 
#    0.000    3.750    0.000    0.750    0.000    4.375 
#    0.000    0.500    0.000    6.250    0.000    1.250 
#
# Total GULP energy -356610.135286 kJ/mol
# GULP energy per Si atom -5572.033364 kJ/mol
# Density = 1.606827 g / cm^3
# Si number density = 16.104927 Si / 1000 Ang^3
#
#
#
# Elastic Constant Matrix: (Units=GPa)
#
#
# Indices 1 2 3 4 5 6 
#
# 1 130.4686 66.7442 56.3801 0.0000 0.0000 0.0000
# 2 66.7442 78.2926 37.5396 0.0000 0.0000 0.0000
# 3 56.3801 37.5396 38.1711 0.0000 0.0000 0.0000
# 4 0.0000 0.0000 0.0000 3.3466 0.0000 0.0000
# 5 0.0000 0.0000 0.0000 0.0000 28.5348 0.0000
# 6 0.0000 0.0000 0.0000 0.0000 0.0000 33.0768
#
#
#
# Elastic Compliance Matrix: (Units=1/GPa)
#
#
# Indices 1 2 3 4 5 6 
#
# 1 0.022671 -0.006190 -0.027399 0.000000 0.000000 0.000000
# 2 -0.006190 0.025860 -0.016289 0.000000 0.000000 0.000000
# 3 -0.027399 -0.016289 0.082686 0.000000 0.000000 0.000000
# 4 0.000000 0.000000 0.000000 0.298807 0.000000 0.000000
# 5 0.000000 0.000000 0.000000 0.000000 0.035045 0.000000
# 6 0.000000 0.000000 0.000000 0.000000 0.000000 0.030233
#
#
# Mechanical properties :
#
#
# Convention : Reuss Voigt Hill
#
# Bulk Modulus (GPa) = 31.78456 63.14000 47.46228
# Shear Modulus (GPa) = 8.25703 18.74287 13.49995
#
# Velocity S-wave (km/s) = 2.26675 3.41515 2.89840
# Velocity P-wave (km/s) = 5.16039 7.40550 6.38244
#
# Compressibility (1/GPa) = 0.03146182
#
# Stress axis : x y z
#
# Youngs Moduli (GPa) = 44.10860 38.66989 12.09395
#
# Poissons Ratio (x) = 0.23937 0.33136
# Poissons Ratio (y) = 0.27304 0.19700
# Poissons Ratio (z) = 1.20851 0.62989
#
# Static dielectric constant tensor:
#      x y z
#    x 1.545920 0.000000 0.000000 
#    y 0.000000 1.541510 0.000000 
#    z 0.000000 0.000000 1.532580 
# 
# From -- ./inp_files/11826.got.cif
#   From: 2010.05.17/outbox.cif.g08.bks.cpg/sg47_6_cif.got.tgz:11826.got - 2010.06.03 20:15:42.
