data_PCOD9382106
_publ_section_title
;
Structure prediction by ZEFSAII (Michael W. Deem and Ramdas Pophale) SiO2 
 PCOD9382106
Probable space group: P M M M
;
_chemical_formula_sum "Si O2"
_cell_formula_units_Z 52
_cell_length_a 14.778898
_cell_length_b 17.859645
_cell_length_c 11.859258
_cell_angle_alpha 90.000000
_cell_angle_beta 90.000000
_cell_angle_gamma 90.000000
_cell_volume 3130.202191
_symmetry_space_group_name_H-M "P M M M"
_symmetry_group_IT_number 47
_symmetry_cell_setting 'orthorhombic'
loop_
_space_group_symop_operation_xyz
x,y,z
-x,-y,z
x,-y,-z
-x,y,-z
-x,-y,-z
x,y,-z
-x,y,z
x,-y,z
loop_
_atom_site_type_symbol
_atom_site_label
_atom_site_fract_x
_atom_site_fract_y
_atom_site_fract_z
Si Si1 0.320176 0.416822 0.201095
Si Si2 0.894952 0.910075 0.368531
Si Si3 0.398025 0.258828 0.864684
Si Si4 0.000000 0.584822 0.637328
Si Si5 0.809187 0.651156 0.365918
Si Si6 0.214653 0.798419 0.778910
Si Si7 0.826206 0.417504 0.000000
Si Si8 0.895111 0.253111 0.000000
O O1 0.361646 0.500000 0.194793
O O2 0.381375 0.344340 0.177260
O O3 0.267889 0.403368 0.318022
O O4 0.240890 0.413337 0.107164
O O5 0.876534 0.890032 0.500000
O O6 0.826843 0.870355 0.282761
O O7 0.000000 0.888042 0.345202
O O8 0.889836 0.000000 0.360013
O O9 0.500000 0.235747 0.835709
O O10 0.319691 0.205656 0.815409
O O11 0.388533 0.260198 0.000000
O O12 0.907964 0.623832 0.673035
O O13 0.000000 0.500000 0.677603
O O14 0.000000 0.584153 0.500000
O O15 0.807567 0.653890 0.500000
O O16 0.794722 0.731386 0.310681
O O17 0.156276 0.777588 0.889503
O O18 0.870334 0.500000 0.000000
O O19 0.886261 0.343530 0.000000
O O20 0.000000 0.231537 0.000000
#
# Coordination Sequence:
#
# PCOD9382106 Si02
#       8
#     8   8   8   4   8   8   4   4
#     4  10  18  31  49  67  97 129 171 229 285 331
#     4   9  19  36  60  90 119 148 181 212 247 304
#     4  10  19  34  55  77 101 134 183 234 278 323
#     4   9  18  30  40  59  92 128 175 223 255 294
#     4  10  20  30  46  69  94 134 181 219 261 316
#     4  11  20  36  54  78 110 142 172 221 273 320
#     4  10  18  33  46  64  97 141 183 224 273 320
#     4  12  22  33  49  76 108 145 183 217 269 333
#
# _framework density 16.612345000000001
#
# number of rings (size 3 to 8) (size 9 to 14) (size 15 to 20)
#    0.000    1.923    4.615    1.846    2.154    1.385 
#    0.000    1.154    0.000   13.385    0.000    6.462 
#    0.000    0.000    0.000    0.000    0.000    0.000 
#
# Total GULP energy -289962.597431 kJ/mol
# GULP energy per Si atom -5576.203797 kJ/mol
# Density = 1.657453 g / cm^3
# Si number density = 16.612345 Si / 1000 Ang^3
#
#
#
# Elastic Constant Matrix: (Units=GPa)
#
#
# Indices 1 2 3 4 5 6 
#
# 1 123.7469 36.8062 45.7581 0.0000 0.0000 0.0000
# 2 36.8062 50.7291 27.8554 0.0000 0.0000 0.0000
# 3 45.7581 27.8554 83.3586 0.0000 0.0000 0.0000
# 4 0.0000 0.0000 0.0000 15.0993 0.0000 0.0000
# 5 0.0000 0.0000 0.0000 0.0000 23.6250 0.0000
# 6 0.0000 0.0000 0.0000 0.0000 0.0000 13.6917
#
#
#
# Elastic Compliance Matrix: (Units=1/GPa)
#
#
# Indices 1 2 3 4 5 6 
#
# 1 0.011435 -0.005940 -0.004292 0.000000 0.000000 0.000000
# 2 -0.005940 0.027228 -0.005838 0.000000 0.000000 0.000000
# 3 -0.004292 -0.005838 0.016303 0.000000 0.000000 0.000000
# 4 0.000000 0.000000 0.000000 0.066228 0.000000 0.000000
# 5 0.000000 0.000000 0.000000 0.000000 0.042328 0.000000
# 6 0.000000 0.000000 0.000000 0.000000 0.000000 0.073037
#
#
# Mechanical properties :
#
#
# Convention : Reuss Voigt Hill
#
# Bulk Modulus (GPa) = 43.80931 53.18601 48.49766
# Shear Modulus (GPa) = 18.09578 20.31083 19.20330
#
# Velocity S-wave (km/s) = 3.30403 3.50041 3.40364
# Velocity P-wave (km/s) = 6.40190 6.95864 6.68606
#
# Compressibility (1/GPa) = 0.02282620
#
# Stress axis : x y z
#
# Youngs Moduli (GPa) = 87.45287 36.72726 61.33729
#
# Poissons Ratio (x) = 0.21815 0.26326
# Poissons Ratio (y) = 0.51944 0.35809
# Poissons Ratio (z) = 0.37535 0.21442
#
# Static dielectric constant tensor:
#      x y z
#    x 1.558540 0.000000 0.000000 
#    y 0.000000 1.560550 0.000000 
#    z 0.000000 0.000000 1.570820 
# 
# From -- ./inp_files/17843.got.cif
#   From: 2010.05.17/outbox.cif.g08.bks.cpg/sg47_9_cif.got.tgz:17843.got - 2010.06.03 20:15:42.
