data_PCOD9382136
_publ_section_title
;
Structure prediction by ZEFSAII (Michael W. Deem and Ramdas Pophale) SiO2 
 PCOD9382136
Probable space group: P M M M
;
_chemical_formula_sum "Si O2"
_cell_formula_units_Z 48
_cell_length_a 17.403950
_cell_length_b 16.491860
_cell_length_c 7.394359
_cell_angle_alpha 90.000000
_cell_angle_beta 90.000000
_cell_angle_gamma 90.000000
_cell_volume 2122.354851
_symmetry_space_group_name_H-M "P M M M"
_symmetry_group_IT_number 47
_symmetry_cell_setting 'orthorhombic'
loop_
_space_group_symop_operation_xyz
x,y,z
-x,-y,z
x,-y,-z
-x,y,-z
-x,-y,-z
x,y,-z
-x,y,z
x,-y,z
loop_
_atom_site_type_symbol
_atom_site_label
_atom_site_fract_x
_atom_site_fract_y
_atom_site_fract_z
Si Si1 0.681006 0.910290 0.720509
Si Si2 0.670105 0.588419 0.291642
Si Si3 0.834797 0.353208 0.208521
Si Si4 0.838621 0.833664 0.718747
Si Si5 0.589108 0.751168 0.720927
Si Si6 0.000000 0.093775 0.279318
Si Si7 0.000000 0.403550 0.785253
O O1 0.678664 0.910423 0.500000
O O2 0.769079 0.892042 0.772950
O O3 0.630335 0.833958 0.780728
O O4 0.656772 0.000000 0.779979
O O5 0.644348 0.585335 0.500000
O O6 0.652848 0.500000 0.210669
O O7 0.761778 0.602459 0.291622
O O8 0.631400 0.669440 0.213980
O O9 0.821644 0.257247 0.219812
O O10 0.919286 0.370406 0.287898
O O11 0.836433 0.379935 0.000000
O O12 0.839614 0.832435 0.500000
O O13 0.922113 0.862710 0.780924
O O14 0.593930 0.751521 0.500000
O O15 0.500000 0.750170 0.770585
O O16 0.000000 0.095380 0.500000
O O17 0.000000 0.000000 0.225385
O O18 0.000000 0.500000 0.765727
O O19 0.000000 0.382935 0.000000
#
# Coordination Sequence:
#
# PCOD9382136 Si02
#       7
#     8   8   8   8   8   4   4
#     4   9  16  27  47  74 104 137 170 209 256 302
#     4  10  20  35  55  79 107 137 171 213 262 313
#     4  11  21  34  54  76 102 138 179 216 257 309
#     4  10  18  31  50  73 105 138 173 217 262 309
#     4   9  17  30  49  76 109 138 167 209 260 315
#     4   9  17  28  47  77 106 137 180 224 267 317
#     4   9  19  34  49  69  98 131 170 213 251 296
#
# _framework density 22.616387
#
# number of rings (size 3 to 8) (size 9 to 14) (size 15 to 20)
#    0.000    2.333    1.667    2.000    0.000    3.667 
#    0.000    4.583    0.000    6.000    0.000    1.167 
#    0.000    1.333    0.000    0.000    0.000    0.000 
#
# Total GULP energy -268200.941782 kJ/mol
# GULP energy per Si atom -5587.519620 kJ/mol
# Density = 2.256491 g / cm^3
# Si number density = 22.616387 Si / 1000 Ang^3
#
#
#
# Elastic Constant Matrix: (Units=GPa)
#
#
# Indices 1 2 3 4 5 6 
#
# 1 137.8396 98.8573 4.3013 0.0000 0.0000 0.0000
# 2 98.8573 172.5794 1.5849 0.0000 0.0000 0.0000
# 3 4.3013 1.5849 77.0451 0.0000 0.0000 0.0000
# 4 0.0000 0.0000 0.0000 35.2905 0.0000 0.0000
# 5 0.0000 0.0000 0.0000 0.0000 -27.5038 0.0000
# 6 0.0000 0.0000 0.0000 0.0000 0.0000 7.8698
#
#
#
# Elastic Compliance Matrix: (Units=1/GPa)
#
#
# Indices 1 2 3 4 5 6 
#
# 1 0.012336 -0.007061 -0.000543 0.000000 0.000000 0.000000
# 2 -0.007061 0.009838 0.000192 0.000000 0.000000 0.000000
# 3 -0.000543 0.000192 0.013006 0.000000 0.000000 0.000000
# 4 0.000000 0.000000 0.000000 0.028336 0.000000 0.000000
# 5 0.000000 0.000000 0.000000 0.000000 -0.036359 0.000000
# 6 0.000000 0.000000 0.000000 0.000000 0.000000 0.127068
#
#
# Mechanical properties :
#
#
# Convention : Reuss Voigt Hill
#
# Bulk Modulus (GPa) = 49.13151 66.32791 57.72971
# Shear Modulus (GPa) = 28.43565 21.97934 25.20750
#
# Velocity S-wave (km/s) = 3.54969 3.12081 3.34214
# Velocity P-wave (km/s) = 6.21059 6.50976 6.36193
#
# Compressibility (1/GPa) = 0.02035354
#
# Stress axis : x y z
#
# Youngs Moduli (GPa) = 81.06244 101.65054 76.88877
#
# Poissons Ratio (x) = 0.71780 0.04178
# Poissons Ratio (y) = 0.57242 -0.01475
# Poissons Ratio (z) = 0.04405 -0.01950
#
# Static dielectric constant tensor:
#      x y z
#    x 1.800600 0.000000 0.000000 
#    y 0.000000 1.801040 0.000000 
#    z 0.000000 0.000000 1.866830 
# 
# From -- ./inp_files/9143.got.cif
#   From: 2010.05.17/outbox.cif.g08.bks.cpg/sg47_5_cif.got.tgz:9143.got - 2010.06.03 20:15:42.
