data_PCOD9382285
_publ_section_title
;
Structure prediction by ZEFSAII (Michael W. Deem and Ramdas Pophale) SiO2 
 PCOD9382285
Probable space group: P M M M
;
_chemical_formula_sum "Si O2"
_cell_formula_units_Z 40
_cell_length_a 7.409288
_cell_length_b 10.503796
_cell_length_c 25.185662
_cell_angle_alpha 90.000000
_cell_angle_beta 90.000000
_cell_angle_gamma 90.000000
_cell_volume 1960.090507
_symmetry_space_group_name_H-M "P M M M"
_symmetry_group_IT_number 47
_symmetry_cell_setting 'orthorhombic'
loop_
_space_group_symop_operation_xyz
x,y,z
-x,-y,z
x,-y,-z
-x,y,-z
-x,-y,-z
x,y,-z
-x,y,z
x,-y,z
loop_
_atom_site_type_symbol
_atom_site_label
_atom_site_fract_x
_atom_site_fract_y
_atom_site_fract_z
Si Si1 0.220360 0.646285 0.354690
Si Si2 0.221180 0.500000 0.060929
Si Si3 0.785549 0.254720 0.125418
Si Si4 0.780010 0.144754 0.439179
Si Si5 0.713263 0.000000 0.939825
Si Si6 0.219244 0.647776 0.765094
O O1 0.273990 0.500000 0.365874
O O2 0.281224 0.748658 0.397855
O O3 0.279000 0.679161 0.294592
O O4 0.000000 0.647299 0.355057
O O5 0.282931 0.626228 0.091231
O O6 0.000000 0.500000 0.061026
O O7 0.278053 0.500000 0.000000
O O8 0.759265 0.124771 0.093946
O O9 0.717507 0.265994 0.185928
O O10 0.000000 0.272988 0.129437
O O11 0.725290 0.170880 0.500000
O O12 0.000000 0.145935 0.438624
O O13 0.725274 0.000000 0.425569
O O14 0.500000 0.000000 0.945297
O O15 0.790230 0.000000 0.000000
O O16 0.266597 0.500000 0.776232
O O17 0.000000 0.652492 0.763349
#
# Coordination Sequence:
#
# PCOD9382285 Si02
#       6
#     8   4   8   8   4   8
#     4   8  13  20  31  48  72 101 132 172 222 268
#     4   9  16  26  47  77  97 111 142 190 234 271
#     4  10  18  32  54  76  96 120 153 192 233 280
#     4   8  13  20  27  37  60  98 143 185 218 249
#     4  11  25  41  51  65  97 133 158 187 230 276
#     4   8  13  24  42  65  90 110 135 182 238 279
#
# _framework density 20.407219999999999
#
# number of rings (size 3 to 8) (size 9 to 14) (size 15 to 20)
#    0.000    3.200    1.000    2.700    0.000    2.000 
#    1.800    2.500    0.000    1.800    0.000    0.000 
#    0.000    0.000    0.000    0.000    0.000    2.000 
#
# Total GULP energy -223104.547534 kJ/mol
# GULP energy per Si atom -5577.613688 kJ/mol
# Density = 2.036077 g / cm^3
# Si number density = 20.407220 Si / 1000 Ang^3
#
#
#
# Elastic Constant Matrix: (Units=GPa)
#
#
# Indices 1 2 3 4 5 6 
#
# 1 63.9462 -1.1254 7.0849 0.0000 0.0000 0.0000
# 2 -1.1254 175.6332 149.6345 0.0000 0.0000 0.0000
# 3 7.0849 149.6345 222.9646 0.0000 0.0000 0.0000
# 4 0.0000 0.0000 0.0000 41.4799 0.0000 0.0000
# 5 0.0000 0.0000 0.0000 0.0000 -31.8600 0.0000
# 6 0.0000 0.0000 0.0000 0.0000 0.0000 211.8008
#
#
#
# Elastic Compliance Matrix: (Units=1/GPa)
#
#
# Indices 1 2 3 4 5 6 
#
# 1 0.015807 0.001236 -0.001332 0.000000 0.000000 0.000000
# 2 0.001236 0.013392 -0.009027 0.000000 0.000000 0.000000
# 3 -0.001332 -0.009027 0.010586 0.000000 0.000000 0.000000
# 4 0.000000 0.000000 0.000000 0.024108 0.000000 0.000000
# 5 0.000000 0.000000 0.000000 0.000000 -0.031387 0.000000
# 6 0.000000 0.000000 0.000000 0.000000 0.000000 0.004721
#
#
# Mechanical properties :
#
#
# Convention : Reuss Voigt Hill
#
# Bulk Modulus (GPa) = 46.42628 85.97022 66.19825
# Shear Modulus (GPa) = 79.80413 64.74749 72.27581
#
# Velocity S-wave (km/s) = 6.26025 5.63885 5.95766
# Velocity P-wave (km/s) = 8.66335 9.19860 8.93499
#
# Compressibility (1/GPa) = 0.02153952
#
# Stress axis : x y z
#
# Youngs Moduli (GPa) = 63.26136 74.66877 94.46820
#
# Poissons Ratio (x) = -0.09228 0.12580
# Poissons Ratio (y) = -0.07818 0.85278
# Poissons Ratio (z) = 0.08425 0.67405
#
# Static dielectric constant tensor:
#      x y z
#    x 1.769140 0.000000 0.000000 
#    y 0.000000 1.599010 0.000000 
#    z 0.000000 0.000000 1.730220 
# 
# From -- ./inp_files/32995.got.cif
#   From: 2010.05.17/outbox.cif.g08.bks.cpg/sg47_17_cif.got.tgz:32995.got - 2010.06.03 20:15:42.
