data_PCOD9382887
_publ_section_title
;
Structure prediction by ZEFSAII (Michael W. Deem and Ramdas Pophale) SiO2 
 PCOD9382887
Probable space group: P M M M
;
_chemical_formula_sum "Si O2"
_cell_formula_units_Z 60
_cell_length_a 19.444844
_cell_length_b 19.156407
_cell_length_c 7.350284
_cell_angle_alpha 90.000000
_cell_angle_beta 90.000000
_cell_angle_gamma 90.000000
_cell_volume 2737.931879
_symmetry_space_group_name_H-M "P M M M"
_symmetry_group_IT_number 47
_symmetry_cell_setting 'orthorhombic'
loop_
_space_group_symop_operation_xyz
x,y,z
-x,-y,z
x,-y,-z
-x,y,-z
-x,-y,-z
x,y,-z
-x,y,z
x,-y,z
loop_
_atom_site_type_symbol
_atom_site_label
_atom_site_fract_x
_atom_site_fract_y
_atom_site_fract_z
Si Si1 0.924215 0.581882 0.778830
Si Si2 0.686131 0.078029 0.713853
Si Si3 0.787749 0.656139 0.790616
Si Si4 0.196074 0.181849 0.279112
Si Si5 0.363931 0.334820 0.222596
Si Si6 0.500000 0.580516 0.221611
Si Si7 0.422131 0.811731 0.218589
Si Si8 0.079022 0.077782 0.278867
O O1 0.919049 0.500000 0.733908
O O2 0.856566 0.621717 0.711289
O O3 0.000000 0.607277 0.717993
O O4 0.924817 0.587102 0.000000
O O5 0.701797 0.072281 0.500000
O O6 0.741610 0.132914 0.786467
O O7 0.613183 0.115774 0.732142
O O8 0.688578 0.000000 0.789795
O O9 0.797261 0.739557 0.787357
O O10 0.711517 0.641357 0.713938
O O11 0.784886 0.631990 0.000000
O O12 0.197294 0.185431 0.500000
O O13 0.127504 0.140750 0.221874
O O14 0.430029 0.380255 0.278160
O O15 0.378140 0.255017 0.280870
O O16 0.362458 0.335469 0.000000
O O17 0.500000 0.500000 0.277785
O O18 0.500000 0.582353 0.000000
O O19 0.500000 0.805635 0.284410
O O20 0.423825 0.807827 0.000000
O O21 0.079691 0.077608 0.500000
O O22 0.000000 0.085641 0.221702
O O23 0.103547 0.000000 0.223506
#
# Coordination Sequence:
#
# PCOD9382887 Si02
#       8
#     8   8   8   8   8   4   8   8
#     4   8  15  29  48  71 100 131 162 198 240 285
#     4  10  21  35  50  70  97 127 162 206 249 287
#     4  10  19  30  49  73  97 126 161 197 236 285
#     4  10  19  31  48  71  98 126 159 198 243 290
#     4   9  16  28  44  66  97 128 155 190 236 285
#     4   9  16  26  44  72 102 127 152 192 245 287
#     4  10  19  33  53  71  94 129 163 194 240 297
#     4   8  14  26  45  67  90 120 159 200 241 284
#
# _framework density 21.914351
#
# number of rings (size 3 to 8) (size 9 to 14) (size 15 to 20)
#    0.000    2.733    2.000    1.200    0.000    3.467 
#    0.000    4.000    0.000    1.600    0.000    1.867 
#    0.000    2.667    0.000    0.000    0.000    0.000 
#
# Total GULP energy -334949.508068 kJ/mol
# GULP energy per Si atom -5582.491801 kJ/mol
# Density = 2.186447 g / cm^3
# Si number density = 21.914351 Si / 1000 Ang^3
#
#
#
# Elastic Constant Matrix: (Units=GPa)
#
#
# Indices 1 2 3 4 5 6 
#
# 1 194.2895 81.8206 0.2857 0.0000 0.0000 0.0000
# 2 81.8206 107.6089 -4.6545 0.0000 0.0000 0.0000
# 3 0.2857 -4.6545 81.1914 0.0000 0.0000 0.0000
# 4 0.0000 0.0000 0.0000 13.7430 0.0000 0.0000
# 5 0.0000 0.0000 0.0000 0.0000 4.8608 0.0000
# 6 0.0000 0.0000 0.0000 0.0000 0.0000 -21.7104
#
#
#
# Elastic Compliance Matrix: (Units=1/GPa)
#
#
# Indices 1 2 3 4 5 6 
#
# 1 0.007582 -0.005780 -0.000358 0.000000 0.000000 0.000000
# 2 -0.005780 0.013723 0.000807 0.000000 0.000000 0.000000
# 3 -0.000358 0.000807 0.012364 0.000000 0.000000 0.000000
# 4 0.000000 0.000000 0.000000 0.072764 0.000000 0.000000
# 5 0.000000 0.000000 0.000000 0.000000 0.205727 0.000000
# 6 0.000000 0.000000 0.000000 0.000000 0.000000 -0.046061
#
#
# Mechanical properties :
#
#
# Convention : Reuss Voigt Hill
#
# Bulk Modulus (GPa) = 43.46664 59.77703 51.62184
# Shear Modulus (GPa) = 17.57903 19.75456 18.66679
#
# Velocity S-wave (km/s) = 2.83533 3.00566 2.92174
# Velocity P-wave (km/s) = 5.53142 6.27552 5.91518
#
# Compressibility (1/GPa) = 0.02300615
#
# Stress axis : x y z
#
# Youngs Moduli (GPa) = 131.89646 72.87121 80.87927
#
# Poissons Ratio (x) = 0.42121 0.02896
# Poissons Ratio (y) = 0.76239 -0.06527
# Poissons Ratio (z) = 0.04723 -0.05881
#
# Static dielectric constant tensor:
#      x y z
#    x 1.808130 0.000000 0.000000 
#    y 0.000000 1.745090 0.000000 
#    z 0.000000 0.000000 1.822840 
# 
# From -- ./inp_files/18769.got.cif
#   From: 2010.05.17/outbox.cif.g08.bks.cpg/sg47_10_cif.got.tgz:18769.got - 2010.06.03 20:15:42.
