data_PCOD9382844
_publ_section_title
;
Structure prediction by ZEFSAII (Michael W. Deem and Ramdas Pophale) SiO2 
 PCOD9382844
Probable space group: P M M M
;
_chemical_formula_sum "Si O2"
_cell_formula_units_Z 64
_cell_length_a 19.878042
_cell_length_b 8.699201
_cell_length_c 20.045718
_cell_angle_alpha 90.000000
_cell_angle_beta 90.000000
_cell_angle_gamma 90.000000
_cell_volume 3466.367354
_symmetry_space_group_name_H-M "P M M M"
_symmetry_group_IT_number 47
_symmetry_cell_setting 'orthorhombic'
loop_
_space_group_symop_operation_xyz
x,y,z
-x,-y,z
x,-y,-z
-x,y,-z
-x,-y,-z
x,y,-z
-x,y,z
x,-y,z
loop_
_atom_site_type_symbol
_atom_site_label
_atom_site_fract_x
_atom_site_fract_y
_atom_site_fract_z
Si Si1 0.599536 0.181436 0.429611
Si Si2 0.921500 0.818584 0.787811
Si Si3 0.677920 0.679523 0.814204
Si Si4 0.423003 0.815218 0.921465
Si Si5 0.238831 0.180726 0.425944
Si Si6 0.081559 0.677751 0.073427
Si Si7 0.425014 0.180653 0.283556
Si Si8 0.202911 0.682703 0.718217
O O1 0.577401 0.250629 0.500000
O O2 0.680182 0.191564 0.426750
O O3 0.573256 0.237227 0.359528
O O4 0.582027 0.000000 0.431186
O O5 0.899771 0.779092 0.863592
O O6 0.871768 0.729607 0.739544
O O7 0.000000 0.773215 0.780636
O O8 0.916511 0.000000 0.776377
O O9 0.688029 0.500000 0.828601
O O10 0.639437 0.753568 0.877648
O O11 0.623423 0.710942 0.756812
O O12 0.746018 0.740352 0.777290
O O13 0.500000 0.762186 0.903428
O O14 0.423376 0.000000 0.913930
O O15 0.413910 0.779548 0.000000
O O16 0.215979 0.238987 0.500000
O O17 0.216770 0.255924 0.356402
O O18 0.221303 0.000000 0.423094
O O19 0.102156 0.500000 0.083898
O O20 0.000000 0.678650 0.071128
O O21 0.105357 0.727871 0.000000
O O22 0.500000 0.181071 0.255695
O O23 0.401741 0.000000 0.282280
O O24 0.211038 0.500000 0.716625
#
# Coordination Sequence:
#
# PCOD9382844 Si02
#       8
#     8   8   8   8   8   8   8   8
#     4   8  14  26  45  70  99 131 170 215 259 302
#     4  10  21  36  56  83 111 140 178 225 275 326
#     4  11  23  36  51  76 107 139 177 220 264 315
#     4   9  19  37  60  83 106 137 181 231 281 330
#     4   9  17  32  56  81 104 136 179 225 272 320
#     4   8  14  27  49  76 107 143 177 207 244 296
#     4  10  19  30  48  73 101 137 177 217 262 309
#     4  11  23  37  55  80 110 146 182 218 267 324
#
# _framework density 18.463132000000002
#
# number of rings (size 3 to 8) (size 9 to 14) (size 15 to 20)
#    0.000    2.500    1.250    3.000    0.000    5.250 
#    0.000    3.750    0.000    1.500    0.000    3.500 
#    0.000    0.000    0.000    0.000    0.000    0.000 
#
# Total GULP energy -356309.051050 kJ/mol
# GULP energy per Si atom -5567.328923 kJ/mol
# Density = 1.842111 g / cm^3
# Si number density = 18.463132 Si / 1000 Ang^3
#
#
#
# Elastic Constant Matrix: (Units=GPa)
#
#
# Indices 1 2 3 4 5 6 
#
# 1 62.5008 19.1212 48.1097 0.0000 0.0000 0.0000
# 2 19.1212 19.9047 28.5221 0.0000 0.0000 0.0000
# 3 48.1097 28.5221 131.6785 0.0000 0.0000 0.0000
# 4 0.0000 0.0000 0.0000 104.2162 0.0000 0.0000
# 5 0.0000 0.0000 0.0000 0.0000 92.7686 0.0000
# 6 0.0000 0.0000 0.0000 0.0000 0.0000 14.5205
#
#
#
# Elastic Compliance Matrix: (Units=1/GPa)
#
#
# Indices 1 2 3 4 5 6 
#
# 1 0.025375 -0.016083 -0.005787 0.000000 0.000000 0.000000
# 2 -0.016083 0.083045 -0.012112 0.000000 0.000000 0.000000
# 3 -0.005787 -0.012112 0.012332 0.000000 0.000000 0.000000
# 4 0.000000 0.000000 0.000000 0.009595 0.000000 0.000000
# 5 0.000000 0.000000 0.000000 0.000000 0.010780 0.000000
# 6 0.000000 0.000000 0.000000 0.000000 0.000000 0.068868
#
#
# Mechanical properties :
#
#
# Convention : Reuss Voigt Hill
#
# Bulk Modulus (GPa) = 18.94389 45.06556 32.00472
# Shear Modulus (GPa) = 16.91727 50.18978 33.55353
#
# Velocity S-wave (km/s) = 3.03028 5.21946 4.26764
# Velocity P-wave (km/s) = 4.74617 7.79648 6.45412
#
# Compressibility (1/GPa) = 0.05278747
#
# Stress axis : x y z
#
# Youngs Moduli (GPa) = 39.40896 12.04164 81.08928
#
# Poissons Ratio (x) = 0.19367 0.46928
# Poissons Ratio (y) = 0.63383 0.98213
# Poissons Ratio (z) = 0.22807 0.14584
#
# Static dielectric constant tensor:
#      x y z
#    x 1.639210 0.000000 0.000000 
#    y 0.000000 1.642040 0.000000 
#    z 0.000000 0.000000 1.681300 
# 
# From -- ./inp_files/28802.got.cif
#   From: 2010.05.17/outbox.cif.g08.bks.cpg/sg47_15_cif.got.tgz:28802.got - 2010.06.03 20:15:42.
