data_PCOD9382144
_publ_section_title
;
Structure prediction by ZEFSAII (Michael W. Deem and Ramdas Pophale) SiO2 
 PCOD9382144
Probable space group: P M M M
;
_chemical_formula_sum "Si O2"
_cell_formula_units_Z 40
_cell_length_a 21.422715
_cell_length_b 12.169323
_cell_length_c 7.484351
_cell_angle_alpha 90.000000
_cell_angle_beta 90.000000
_cell_angle_gamma 90.000000
_cell_volume 1951.169844
_symmetry_space_group_name_H-M "P M M M"
_symmetry_group_IT_number 47
_symmetry_cell_setting 'orthorhombic'
loop_
_space_group_symop_operation_xyz
x,y,z
-x,-y,z
x,-y,-z
-x,y,-z
-x,-y,-z
x,y,-z
-x,y,z
x,-y,z
loop_
_atom_site_type_symbol
_atom_site_label
_atom_site_fract_x
_atom_site_fract_y
_atom_site_fract_z
Si Si1 0.306649 0.124224 0.786418
Si Si2 0.600076 0.500000 0.716197
Si Si3 0.253411 0.500000 0.285399
Si Si4 0.193177 0.731170 0.794271
Si Si5 0.567337 0.741665 0.715103
Si Si6 0.929087 0.626761 0.781625
O O1 0.245777 0.188801 0.714495
O O2 0.370809 0.190368 0.758838
O O3 0.311114 0.000000 0.717542
O O4 0.298904 0.119126 0.000000
O O5 0.592277 0.500000 0.500000
O O6 0.673434 0.500000 0.755285
O O7 0.573285 0.615788 0.780314
O O8 0.246067 0.500000 0.500000
O O9 0.223221 0.390097 0.210143
O O10 0.124320 0.709671 0.716444
O O11 0.183940 0.765582 0.000000
O O12 0.566210 0.737542 0.500000
O O13 0.500000 0.787390 0.775108
O O14 0.916010 0.500000 0.727194
O O15 0.000000 0.653203 0.728940
O O16 0.927182 0.626776 0.000000
#
# Coordination Sequence:
#
# PCOD9382144 Si02
#       6
#     8   4   4   8   8   8
#     4  10  22  37  51  69  95 128 165 206 247 282
#     4   9  17  31  50  74 102 124 146 187 242 293
#     4  11  19  28  48  76 102 126 155 195 245 291
#     4  10  18  31  51  71  96 130 166 197 234 288
#     4  10  20  35  55  76  98 126 159 195 239 292
#     4   8  13  22  41  71 100 124 155 193 232 280
#
# _framework density 20.500522
#
# number of rings (size 3 to 8) (size 9 to 14) (size 15 to 20)
#    0.000    2.400    3.000    1.200    0.000    2.400 
#    0.000    2.500    0.000    3.000    0.000    4.200 
#    0.000    0.000    0.000    3.600    0.000    4.000 
#
# Total GULP energy -223138.651295 kJ/mol
# GULP energy per Si atom -5578.466282 kJ/mol
# Density = 2.045386 g / cm^3
# Si number density = 20.500522 Si / 1000 Ang^3
#
#
#
# Elastic Constant Matrix: (Units=GPa)
#
#
# Indices 1 2 3 4 5 6 
#
# 1 208.6645 90.6400 9.0076 0.0000 0.0000 0.0000
# 2 90.6400 127.6735 -2.1368 0.0000 0.0000 0.0000
# 3 9.0076 -2.1368 58.7158 0.0000 0.0000 0.0000
# 4 0.0000 0.0000 0.0000 16.3993 0.0000 0.0000
# 5 0.0000 0.0000 0.0000 0.0000 33.6004 0.0000
# 6 0.0000 0.0000 0.0000 0.0000 0.0000 -70.5538
#
#
#
# Elastic Compliance Matrix: (Units=1/GPa)
#
#
# Indices 1 2 3 4 5 6 
#
# 1 0.007021 -0.005006 -0.001259 0.000000 0.000000 0.000000
# 2 -0.005006 0.011406 0.001183 0.000000 0.000000 0.000000
# 3 -0.001259 0.001183 0.017267 0.000000 0.000000 0.000000
# 4 0.000000 0.000000 0.000000 0.060978 0.000000 0.000000
# 5 0.000000 0.000000 0.000000 0.000000 0.029762 0.000000
# 6 0.000000 0.000000 0.000000 0.000000 0.000000 -0.014174
#
#
# Mechanical properties :
#
#
# Convention : Reuss Voigt Hill
#
# Bulk Modulus (GPa) = 39.16852 65.56394 52.36623
# Shear Modulus (GPa) = 38.18700 15.72537 26.95619
#
# Velocity S-wave (km/s) = 4.32062 2.77261 3.63009
# Velocity P-wave (km/s) = 6.63611 6.50391 6.57034
#
# Compressibility (1/GPa) = 0.02553071
#
# Stress axis : x y z
#
# Youngs Moduli (GPa) = 142.42823 87.67366 57.91252
#
# Poissons Ratio (x) = 0.43886 0.07293
# Poissons Ratio (y) = 0.71294 -0.06851
# Poissons Ratio (z) = 0.17936 -0.10372
#
# Static dielectric constant tensor:
#      x y z
#    x 1.761950 0.000000 0.000000 
#    y 0.000000 1.702530 0.000000 
#    z 0.000000 0.000000 1.798170 
# 
# From -- ./inp_files/4113.got.cif
#   From: 2010.05.17/outbox.cif.g08.bks.cpg/sg47_3_cif.got.tgz:4113.got - 2010.06.03 20:15:42.
