data_PCOD9382269
_publ_section_title
;
Structure prediction by ZEFSAII (Michael W. Deem and Ramdas Pophale) SiO2 
 PCOD9382269
Probable space group: P M M M
;
_chemical_formula_sum "Si O2"
_cell_formula_units_Z 48
_cell_length_a 7.712836
_cell_length_b 20.881904
_cell_length_c 14.763801
_cell_angle_alpha 90.000000
_cell_angle_beta 90.000000
_cell_angle_gamma 90.000000
_cell_volume 2377.838610
_symmetry_space_group_name_H-M "P M M M"
_symmetry_group_IT_number 47
_symmetry_cell_setting 'orthorhombic'
loop_
_space_group_symop_operation_xyz
x,y,z
-x,-y,z
x,-y,-z
-x,y,-z
-x,-y,-z
x,y,-z
-x,y,z
x,-y,z
loop_
_atom_site_type_symbol
_atom_site_label
_atom_site_fract_x
_atom_site_fract_y
_atom_site_fract_z
Si Si1 0.707029 0.000000 0.603274
Si Si2 0.205693 0.870090 0.293157
Si Si3 0.211840 0.679195 0.100884
Si Si4 0.788787 0.828585 0.100513
Si Si5 0.702719 0.258131 0.396792
Si Si6 0.786624 0.500000 0.395739
Si Si7 0.200900 0.379087 0.282477
O O1 0.760155 0.063449 0.657075
O O2 0.500000 0.000000 0.597984
O O3 0.775668 0.000000 0.500000
O O4 0.269901 0.866955 0.189096
O O5 0.279450 0.810597 0.349572
O O6 0.000000 0.859731 0.290207
O O7 0.260077 0.753880 0.113477
O O8 0.277715 0.636917 0.184030
O O9 0.000000 0.678380 0.102947
O O10 0.265573 0.659232 0.000000
O O11 0.000000 0.830839 0.098440
O O12 0.729390 0.848955 0.000000
O O13 0.768073 0.255469 0.500000
O O14 0.500000 0.274804 0.398923
O O15 0.792570 0.313381 0.339037
O O16 0.729827 0.500000 0.500000
O O17 0.726669 0.563050 0.341946
O O18 0.000000 0.500000 0.398388
O O19 0.000000 0.396076 0.266693
#
# Coordination Sequence:
#
# PCOD9382269 Si02
#       7
#     4   8   8   8   8   4   8
#     4  11  25  43  58  75 110 154 181 211 268 319
#     4  11  21  36  60  86 106 136 182 223 258 307
#     4   8  13  24  46  76 106 133 165 212 267 316
#     4   8  14  27  50  81 111 134 163 211 268 316
#     4  11  23  36  51  75 107 139 173 220 274 320
#     4   9  18  30  46  72 106 139 175 227 280 313
#     4  10  18  32  53  76 101 137 181 221 264 317
#
# _framework density 20.186399000000002
#
# number of rings (size 3 to 8) (size 9 to 14) (size 15 to 20)
#    0.000    2.333    1.667    3.250    0.000    4.667 
#    0.000    1.250    0.000   10.000    0.000    0.000 
#    0.000    1.333    0.000    0.000    0.000    0.000 
#
# Total GULP energy -267877.892362 kJ/mol
# GULP energy per Si atom -5580.789424 kJ/mol
# Density = 2.014045 g / cm^3
# Si number density = 20.186399 Si / 1000 Ang^3
#
#
#
# Elastic Constant Matrix: (Units=GPa)
#
#
# Indices 1 2 3 4 5 6 
#
# 1 35.2599 -13.9782 -0.9576 0.0000 0.0000 0.0000
# 2 -13.9782 110.1824 85.7774 0.0000 0.0000 0.0000
# 3 -0.9576 85.7774 229.6874 0.0000 0.0000 0.0000
# 4 0.0000 0.0000 0.0000 35.7335 0.0000 0.0000
# 5 0.0000 0.0000 0.0000 0.0000 113.0942 0.0000
# 6 0.0000 0.0000 0.0000 0.0000 0.0000 37.5213
#
#
#
# Elastic Compliance Matrix: (Units=1/GPa)
#
#
# Indices 1 2 3 4 5 6 
#
# 1 0.030412 0.005300 -0.001853 0.000000 0.000000 0.000000
# 2 0.005300 0.013720 -0.005102 0.000000 0.000000 0.000000
# 3 -0.001853 -0.005102 0.006251 0.000000 0.000000 0.000000
# 4 0.000000 0.000000 0.000000 0.027985 0.000000 0.000000
# 5 0.000000 0.000000 0.000000 0.000000 0.008842 0.000000
# 6 0.000000 0.000000 0.000000 0.000000 0.000000 0.026652
#
#
# Mechanical properties :
#
#
# Convention : Reuss Voigt Hill
#
# Bulk Modulus (GPa) = 21.24255 57.42365 39.33310
# Shear Modulus (GPa) = 37.63327 57.55567 47.59447
#
# Velocity S-wave (km/s) = 4.32243 5.34547 4.86093
# Velocity P-wave (km/s) = 5.95459 8.16132 7.14368
#
# Compressibility (1/GPa) = 0.04707533
#
# Stress axis : x y z
#
# Youngs Moduli (GPa) = 32.88194 72.88656 159.96814
#
# Poissons Ratio (x) = -0.38634 0.29637
# Poissons Ratio (y) = -0.17429 0.81610
# Poissons Ratio (z) = 0.06092 0.37184
#
# Static dielectric constant tensor:
#      x y z
#    x 1.758260 0.000000 0.000000 
#    y 0.000000 1.631490 0.000000 
#    z 0.000000 0.000000 1.744980 
# 
# From -- ./inp_files/21115.got.cif
#   From: 2010.05.17/outbox.cif.g08.bks.cpg/sg47_11_cif.got.tgz:21115.got - 2010.06.03 20:15:42.
