data_PCOD9382389
_publ_section_title
;
Structure prediction by ZEFSAII (Michael W. Deem and Ramdas Pophale) SiO2 
 PCOD9382389
Probable space group: P M M M
;
_chemical_formula_sum "Si O2"
_cell_formula_units_Z 56
_cell_length_a 32.634743
_cell_length_b 8.131947
_cell_length_c 13.295047
_cell_angle_alpha 90.000000
_cell_angle_beta 90.000000
_cell_angle_gamma 90.000000
_cell_volume 3528.292759
_symmetry_space_group_name_H-M "P M M M"
_symmetry_group_IT_number 47
_symmetry_cell_setting 'orthorhombic'
loop_
_space_group_symop_operation_xyz
x,y,z
-x,-y,z
x,-y,-z
-x,y,-z
-x,-y,-z
x,y,-z
-x,y,z
x,-y,z
loop_
_atom_site_type_symbol
_atom_site_label
_atom_site_fract_x
_atom_site_fract_y
_atom_site_fract_z
Si Si1 0.900810 0.317815 0.622604
Si Si2 0.047313 0.000000 0.622613
Si Si3 0.364452 0.303294 0.388595
Si Si4 0.813412 0.810034 0.620540
Si Si5 0.724729 0.191648 0.321328
Si Si6 0.301754 0.301867 0.111816
Si Si7 0.606318 0.302474 0.175055
Si Si8 0.453792 0.195572 0.000000
O O1 0.901264 0.316411 0.500000
O O2 0.914370 0.500000 0.654435
O O3 0.853833 0.285332 0.654785
O O4 0.928858 0.164930 0.654891
O O5 0.047990 0.000000 0.500000
O O6 0.000000 0.000000 0.653908
O O7 0.374876 0.237918 0.500000
O O8 0.370182 0.500000 0.390667
O O9 0.316217 0.271994 0.366986
O O10 0.389602 0.240648 0.290796
O O11 0.815531 0.815371 0.500000
O O12 0.768796 0.739832 0.646759
O O13 0.815587 0.000000 0.656766
O O14 0.721068 0.213094 0.201821
O O15 0.723709 0.000000 0.350787
O O16 0.298132 0.500000 0.124792
O O17 0.349883 0.261627 0.124836
O O18 0.288171 0.258416 0.000000
O O19 0.603692 0.500000 0.179438
O O20 0.570872 0.244886 0.100625
O O21 0.500000 0.264114 0.000000
O O22 0.456026 0.000000 0.000000
#
# Coordination Sequence:
#
# PCOD9382389 Si02
#       8
#     8   4   8   8   8   8   8   4
#     4   9  16  25  38  54  71 100 140 177 223 276
#     4   9  16  26  38  52  74 100 131 181 233 273
#     4   9  18  32  48  67  94 123 151 185 222 263
#     4   9  16  27  39  51  78 114 144 181 221 256
#     4  10  19  27  40  65  90 116 151 187 221 259
#     4   9  17  31  47  62  86 117 148 183 221 260
#     4   9  17  32  52  71  90 118 151 181 221 266
#     4  11  23  35  49  73  99 117 141 183 231 277
#
# _framework density 15.871699
#
# number of rings (size 3 to 8) (size 9 to 14) (size 15 to 20)
#    0.000    2.714    1.429    1.929    0.000    5.429 
#    0.000    2.857    0.000    0.429    0.000    3.000 
#    0.000    0.000    0.000    0.000    0.000    1.429 
#
# Total GULP energy -311788.263550 kJ/mol
# GULP energy per Si atom -5567.647563 kJ/mol
# Density = 1.583557 g / cm^3
# Si number density = 15.871699 Si / 1000 Ang^3
#
#
#
# Elastic Constant Matrix: (Units=GPa)
#
#
# Indices 1 2 3 4 5 6 
#
# 1 94.9265 30.6091 28.4904 0.0000 0.0000 0.0000
# 2 30.6091 43.1192 14.0338 0.0000 0.0000 0.0000
# 3 28.4904 14.0338 76.5351 0.0000 0.0000 0.0000
# 4 0.0000 0.0000 0.0000 10.3556 0.0000 0.0000
# 5 0.0000 0.0000 0.0000 0.0000 8.7525 0.0000
# 6 0.0000 0.0000 0.0000 0.0000 0.0000 33.9790
#
#
#
# Elastic Compliance Matrix: (Units=1/GPa)
#
#
# Indices 1 2 3 4 5 6 
#
# 1 0.014614 -0.009149 -0.003762 0.000000 0.000000 0.000000
# 2 -0.009149 0.030392 -0.002167 0.000000 0.000000 0.000000
# 3 -0.003762 -0.002167 0.014864 0.000000 0.000000 0.000000
# 4 0.000000 0.000000 0.000000 0.096566 0.000000 0.000000
# 5 0.000000 0.000000 0.000000 0.000000 0.114253 0.000000
# 6 0.000000 0.000000 0.000000 0.000000 0.000000 0.029430
#
#
# Mechanical properties :
#
#
# Convention : Reuss Voigt Hill
#
# Bulk Modulus (GPa) = 33.65642 40.09415 36.87529
# Shear Modulus (GPa) = 14.69813 20.04726 17.37270
#
# Velocity S-wave (km/s) = 3.04642 3.55784 3.31202
# Velocity P-wave (km/s) = 5.79876 6.49568 6.15709
#
# Compressibility (1/GPa) = 0.02971201
#
# Stress axis : x y z
#
# Youngs Moduli (GPa) = 68.42783 32.90375 67.27760
#
# Poissons Ratio (x) = 0.30105 0.25313
# Poissons Ratio (y) = 0.62608 0.14578
# Poissons Ratio (z) = 0.25745 0.07130
#
# Static dielectric constant tensor:
#      x y z
#    x 1.528680 0.000000 0.000000 
#    y 0.000000 1.568620 0.000000 
#    z 0.000000 0.000000 1.540050 
# 
# From -- ./inp_files/25829.got.cif
#   From: 2010.05.17/outbox.cif.g08.bks.cpg/sg47_13_cif.got.tgz:25829.got - 2010.06.03 20:15:42.
