data_PCOD9382293
_publ_section_title
;
Structure prediction by ZEFSAII (Michael W. Deem and Ramdas Pophale) SiO2 
 PCOD9382293
Probable space group: P M M M
;
_chemical_formula_sum "Si O2"
_cell_formula_units_Z 56
_cell_length_a 14.961520
_cell_length_b 9.039812
_cell_length_c 23.185321
_cell_angle_alpha 90.000000
_cell_angle_beta 90.000000
_cell_angle_gamma 90.000000
_cell_volume 3135.799086
_symmetry_space_group_name_H-M "P M M M"
_symmetry_group_IT_number 47
_symmetry_cell_setting 'orthorhombic'
loop_
_space_group_symop_operation_xyz
x,y,z
-x,-y,z
x,-y,-z
-x,y,-z
-x,-y,-z
x,y,-z
-x,y,z
x,-y,z
loop_
_atom_site_type_symbol
_atom_site_label
_atom_site_fract_x
_atom_site_fract_y
_atom_site_fract_z
Si Si1 0.101608 0.169143 0.238265
Si Si2 0.257943 0.325129 0.823828
Si Si3 0.500000 0.665813 0.930592
Si Si4 0.398088 0.319791 0.500000
Si Si5 0.900662 0.172610 0.377302
Si Si6 0.287156 0.321449 0.612214
Si Si7 0.603751 0.319869 0.726867
Si Si8 0.314920 0.176493 0.933420
O O1 0.171049 0.283948 0.212888
O O2 0.100732 0.177768 0.307548
O O3 0.000000 0.194380 0.218400
O O4 0.127498 0.000000 0.222878
O O5 0.265556 0.500000 0.833257
O O6 0.342855 0.276141 0.784680
O O7 0.251769 0.242743 0.884744
O O8 0.500000 0.500000 0.905361
O O9 0.588945 0.754925 0.917079
O O10 0.500000 0.652463 0.000000
O O11 0.399801 0.500000 0.500000
O O12 0.500000 0.268088 0.500000
O O13 0.346595 0.275075 0.557689
O O14 0.812756 0.260354 0.395408
O O15 0.000000 0.225711 0.395811
O O16 0.893128 0.000000 0.394116
O O17 0.283134 0.500000 0.613990
O O18 0.337308 0.272917 0.671253
O O19 0.500000 0.271096 0.724827
O O20 0.602459 0.500000 0.725850
O O21 0.317991 0.000000 0.930881
O O22 0.294887 0.218776 0.000000
#
# Coordination Sequence:
#
# PCOD9382293 Si02
#       8
#     8   8   4   4   8   8   8   8
#     4   9  18  34  55  77 104 138 173 213 265 325
#     4  11  21  32  52  81 108 136 173 219 269 317
#     4   9  17  31  51  73  97 131 177 224 265 306
#     4   9  18  32  54  81 106 140 185 225 262 309
#     4   9  18  33  53  76 104 139 174 212 265 323
#     4  10  18  32  54  79 105 137 180 225 264 306
#     4   9  18  31  47  72 107 140 170 210 261 313
#     4  10  21  36  52  71 101 142 183 220 260 314
#
# _framework density 17.858286
#
# number of rings (size 3 to 8) (size 9 to 14) (size 15 to 20)
#    0.000    2.429    1.429    2.357    1.000    4.000 
#    0.000    2.143    0.000    6.429    0.000    3.000 
#    0.000    0.000    0.000    0.000    0.000    0.000 
#
# Total GULP energy -312155.851190 kJ/mol
# GULP energy per Si atom -5574.211628 kJ/mol
# Density = 1.781764 g / cm^3
# Si number density = 17.858286 Si / 1000 Ang^3
#
#
#
# Elastic Constant Matrix: (Units=GPa)
#
#
# Indices 1 2 3 4 5 6 
#
# 1 113.1667 27.0074 38.6733 0.0000 0.0000 0.0000
# 2 27.0074 31.9407 25.1959 0.0000 0.0000 0.0000
# 3 38.6733 25.1959 83.9767 0.0000 0.0000 0.0000
# 4 0.0000 0.0000 0.0000 15.7058 0.0000 0.0000
# 5 0.0000 0.0000 0.0000 0.0000 15.9454 0.0000
# 6 0.0000 0.0000 0.0000 0.0000 0.0000 26.7982
#
#
#
# Elastic Compliance Matrix: (Units=1/GPa)
#
#
# Indices 1 2 3 4 5 6 
#
# 1 0.011679 -0.007379 -0.003165 0.000000 0.000000 0.000000
# 2 -0.007379 0.045677 -0.010307 0.000000 0.000000 0.000000
# 3 -0.003165 -0.010307 0.016458 0.000000 0.000000 0.000000
# 4 0.000000 0.000000 0.000000 0.063671 0.000000 0.000000
# 5 0.000000 0.000000 0.000000 0.000000 0.062714 0.000000
# 6 0.000000 0.000000 0.000000 0.000000 0.000000 0.037316
#
#
# Mechanical properties :
#
#
# Convention : Reuss Voigt Hill
#
# Bulk Modulus (GPa) = 31.13903 45.64861 38.39382
# Shear Modulus (GPa) = 17.24617 20.90371 19.07494
#
# Velocity S-wave (km/s) = 3.11098 3.42502 3.27177
# Velocity P-wave (km/s) = 5.51170 6.42324 5.98485
#
# Compressibility (1/GPa) = 0.03211404
#
# Stress axis : x y z
#
# Youngs Moduli (GPa) = 85.62430 21.89269 60.76159
#
# Poissons Ratio (x) = 0.16154 0.19228
# Poissons Ratio (y) = 0.63181 0.62625
# Poissons Ratio (z) = 0.27096 0.22564
#
# Static dielectric constant tensor:
#      x y z
#    x 1.613690 0.000000 0.000000 
#    y 0.000000 1.604400 0.000000 
#    z 0.000000 0.000000 1.623810 
# 
# From -- ./inp_files/31045.got.cif
#   From: 2010.05.17/outbox.cif.g08.bks.cpg/sg47_16_cif.got.tgz:31045.got - 2010.06.03 20:15:42.
