data_PCOD9382810
_publ_section_title
;
Structure prediction by ZEFSAII (Michael W. Deem and Ramdas Pophale) SiO2 
 PCOD9382810
Probable space group: P M M M
;
_chemical_formula_sum "Si O2"
_cell_formula_units_Z 44
_cell_length_a 8.711146
_cell_length_b 16.389794
_cell_length_c 17.156249
_cell_angle_alpha 90.000000
_cell_angle_beta 90.000000
_cell_angle_gamma 90.000000
_cell_volume 2449.464381
_symmetry_space_group_name_H-M "P M M M"
_symmetry_group_IT_number 47
_symmetry_cell_setting 'orthorhombic'
loop_
_space_group_symop_operation_xyz
x,y,z
-x,-y,z
x,-y,-z
-x,y,-z
-x,-y,-z
x,y,-z
-x,y,z
x,-y,z
loop_
_atom_site_type_symbol
_atom_site_label
_atom_site_fract_x
_atom_site_fract_y
_atom_site_fract_z
Si Si1 0.184904 0.908422 0.090909
Si Si2 0.681674 0.766260 0.197419
Si Si3 0.319936 0.206924 0.378389
Si Si4 0.818117 0.377720 0.413989
Si Si5 0.175633 0.096173 0.500000
Si Si6 0.314777 0.588702 0.245128
O O1 0.243993 0.831740 0.140032
O O2 0.000000 0.908128 0.094298
O O3 0.235725 0.000000 0.117249
O O4 0.229565 0.900151 0.000000
O O5 0.500000 0.763253 0.180419
O O6 0.701759 0.797738 0.285937
O O7 0.739315 0.671627 0.201842
O O8 0.500000 0.223801 0.392858
O O9 0.220380 0.281909 0.410158
O O10 0.264432 0.128857 0.424728
O O11 0.766787 0.406915 0.500000
O O12 0.738668 0.409232 0.335333
O O13 0.000000 0.392358 0.408315
O O14 0.000000 0.126741 0.500000
O O15 0.172448 0.000000 0.500000
O O16 0.500000 0.592870 0.245419
O O17 0.268396 0.500000 0.212190
#
# Coordination Sequence:
#
# PCOD9382810 Si02
#       6
#     8   8   8   8   4   8
#     4   9  19  36  57  82 111 140 169 204 254 318
#     4   9  19  34  54  81 106 134 174 217 261 309
#     4  10  20  34  51  69  95 133 176 218 260 313
#     4  10  19  30  47  70  97 128 168 221 271 313
#     4  11  23  35  47  67  96 131 174 223 271 315
#     4   9  19  35  52  72 102 140 180 219 262 315
#
# _framework density 17.96311
#
# number of rings (size 3 to 8) (size 9 to 14) (size 15 to 20)
#    0.000    2.455    0.909    3.000    0.000    7.636 
#    0.000    6.364    0.000    0.545    0.000    3.818 
#    0.000    0.000    0.000    0.000    0.000    0.000 
#
# Total GULP energy -245153.127198 kJ/mol
# GULP energy per Si atom -5571.661982 kJ/mol
# Density = 1.792223 g / cm^3
# Si number density = 17.963110 Si / 1000 Ang^3
#
#
#
# Elastic Constant Matrix: (Units=GPa)
#
#
# Indices 1 2 3 4 5 6 
#
# 1 17.4916 29.9775 22.9910 0.0000 0.0000 0.0000
# 2 29.9775 160.6399 66.3479 0.0000 0.0000 0.0000
# 3 22.9910 66.3479 62.0354 0.0000 0.0000 0.0000
# 4 0.0000 0.0000 0.0000 13.9601 0.0000 0.0000
# 5 0.0000 0.0000 0.0000 0.0000 29.3005 0.0000
# 6 0.0000 0.0000 0.0000 0.0000 0.0000-1002.7210
#
#
#
# Elastic Compliance Matrix: (Units=1/GPa)
#
#
# Indices 1 2 3 4 5 6 
#
# 1 0.115645 -0.006948 -0.035428 0.000000 0.000000 0.000000
# 2 -0.006948 0.011568 -0.009797 0.000000 0.000000 0.000000
# 3 -0.035428 -0.009797 0.039728 0.000000 0.000000 0.000000
# 4 0.000000 0.000000 0.000000 0.071633 0.000000 0.000000
# 5 0.000000 0.000000 0.000000 0.000000 0.034129 0.000000
# 6 0.000000 0.000000 0.000000 0.000000 0.000000 -0.000997
#
#
# Mechanical properties :
#
#
# Convention : Reuss Voigt Hill
#
# Bulk Modulus (GPa) = 15.97592 53.19996 34.58794
# Shear Modulus (GPa) = 12.59704 -183.83538 -85.61917
#
# Velocity S-wave (km/s) = 2.65103 -10.12732 -6.91139
# Velocity P-wave (km/s) = 4.27594 10.34745 6.66281
#
# Compressibility (1/GPa) = 0.06259421
#
# Stress axis : x y z
#
# Youngs Moduli (GPa) = 8.64715 86.44338 25.17090
#
# Poissons Ratio (x) = 0.60063 0.89176
# Poissons Ratio (y) = 0.06008 0.24661
# Poissons Ratio (z) = 0.30635 0.84692
#
# Static dielectric constant tensor:
#      x y z
#    x 1.615270 0.000000 0.000000 
#    y 0.000000 1.666440 0.000000 
#    z 0.000000 0.000000 1.593340 
# 
# From -- ./inp_files/26368.got.cif
#   From: 2010.05.17/outbox.cif.g08.bks.cpg/sg47_14_cif.got.tgz:26368.got - 2010.06.03 20:15:42.
