data_PCOD9382879
_publ_section_title
;
Structure prediction by ZEFSAII (Michael W. Deem and Ramdas Pophale) SiO2 
 PCOD9382879
Probable space group: P M M M
;
_chemical_formula_sum "Si O2"
_cell_formula_units_Z 40
_cell_length_a 13.346393
_cell_length_b 18.970908
_cell_length_c 9.259015
_cell_angle_alpha 90.000000
_cell_angle_beta 90.000000
_cell_angle_gamma 90.000000
_cell_volume 2344.319579
_symmetry_space_group_name_H-M "P M M M"
_symmetry_group_IT_number 47
_symmetry_cell_setting 'orthorhombic'
loop_
_space_group_symop_operation_xyz
x,y,z
-x,-y,z
x,-y,-z
-x,y,-z
-x,-y,-z
x,y,-z
-x,y,z
x,-y,z
loop_
_atom_site_type_symbol
_atom_site_label
_atom_site_fract_x
_atom_site_fract_y
_atom_site_fract_z
Si Si1 0.000000 0.827248 0.834233
Si Si2 0.386151 0.584614 0.829802
Si Si3 0.200852 0.825969 0.671745
Si Si4 0.203103 0.657645 0.670889
Si Si5 0.000000 0.344405 0.166840
Si Si6 0.612173 0.918480 0.675705
O O1 0.899299 0.849624 0.753021
O O2 0.000000 0.741366 0.831319
O O3 0.000000 0.849759 0.000000
O O4 0.500000 0.605578 0.788976
O O5 0.379748 0.500000 0.814987
O O6 0.300258 0.620763 0.737119
O O7 0.372515 0.601010 0.000000
O O8 0.188390 0.837744 0.500000
O O9 0.213070 0.742057 0.692514
O O10 0.298839 0.867711 0.723365
O O11 0.194571 0.644573 0.500000
O O12 0.101447 0.633810 0.751438
O O13 0.000000 0.367236 0.000000
O O14 0.611550 0.916509 0.500000
O O15 0.500000 0.897800 0.723353
O O16 0.629339 0.000000 0.716962
#
# Coordination Sequence:
#
# PCOD9382879 Si02
#       6
#     4   8   8   8   4   8
#     4   9  17  29  46  67  92 124 159 192 230 277
#     4   9  19  36  54  70  93 128 165 196 229 276
#     4   9  17  29  47  71  97 123 153 192 236 279
#     4  10  19  30  48  75 102 124 152 196 245 287
#     4   9  17  31  50  69  94 129 163 193 230 281
#     4   8  14  26  45  68  93 122 157 195 232 272
#
# _framework density 17.062519999999999
#
# number of rings (size 3 to 8) (size 9 to 14) (size 15 to 20)
#    0.000    3.000    0.000    2.400    0.000    4.800 
#    0.000    4.000    0.000    7.200    0.000    1.400 
#    0.000    0.000    0.000    0.000    0.000    0.000 
#
# Total GULP energy -222884.130726 kJ/mol
# GULP energy per Si atom -5572.103268 kJ/mol
# Density = 1.702369 g / cm^3
# Si number density = 17.062520 Si / 1000 Ang^3
#
#
#
# Elastic Constant Matrix: (Units=GPa)
#
#
# Indices 1 2 3 4 5 6 
#
# 1 200.7215 59.4380 93.4724 0.0000 0.0000 0.0000
# 2 59.4380 24.3172 40.3355 0.0000 0.0000 0.0000
# 3 93.4724 40.3355 76.1897 0.0000 0.0000 0.0000
# 4 0.0000 0.0000 0.0000 11.8752 0.0000 0.0000
# 5 0.0000 0.0000 0.0000 0.0000 27.8085 0.0000
# 6 0.0000 0.0000 0.0000 0.0000 0.0000 -102.2626
#
#
#
# Elastic Compliance Matrix: (Units=1/GPa)
#
#
# Indices 1 2 3 4 5 6 
#
# 1 0.019005 -0.063835 0.010478 0.000000 0.000000 0.000000
# 2 -0.063835 0.551877 -0.213853 0.000000 0.000000 0.000000
# 3 0.010478 -0.213853 0.113486 0.000000 0.000000 0.000000
# 4 0.000000 0.000000 0.000000 0.084209 0.000000 0.000000
# 5 0.000000 0.000000 0.000000 0.000000 0.035960 0.000000
# 6 0.000000 0.000000 0.000000 0.000000 0.000000 -0.009779
#
#
# Mechanical properties :
#
#
# Convention : Reuss Voigt Hill
#
# Bulk Modulus (GPa) = 6.66897 76.41336 41.54117
# Shear Modulus (GPa) = 3.62539 -5.31694 -0.84577
#
# Velocity S-wave (km/s) = 1.45924 -1.76718 -0.70482
# Velocity P-wave (km/s) = 2.59927 6.38104 4.87206
#
# Compressibility (1/GPa) = 0.14994822
#
# Stress axis : x y z
#
# Youngs Moduli (GPa) = 52.61636 1.81200 8.81168
#
# Poissons Ratio (x) = 0.11567 -0.09233
# Poissons Ratio (y) = 3.35878 1.88441
# Poissons Ratio (z) = -0.55133 0.38750
#
# Static dielectric constant tensor:
#      x y z
#    x 1.569360 0.000000 0.000000 
#    y 0.000000 1.563550 0.000000 
#    z 0.000000 0.000000 1.564730 
# 
# From -- ./inp_files/4069.got.cif
#   From: 2010.05.17/outbox.cif.g08.bks.cpg/sg47_3_cif.got.tgz:4069.got - 2010.06.03 20:15:42.
