data_PCOD9382864
_publ_section_title
;
Structure prediction by ZEFSAII (Michael W. Deem and Ramdas Pophale) SiO2 
 PCOD9382864
Probable space group: P M M M
;
_chemical_formula_sum "Si O2"
_cell_formula_units_Z 40
_cell_length_a 7.465919
_cell_length_b 29.464448
_cell_length_c 8.281798
_cell_angle_alpha 90.000000
_cell_angle_beta 90.000000
_cell_angle_gamma 90.000000
_cell_volume 1821.823151
_symmetry_space_group_name_H-M "P M M M"
_symmetry_group_IT_number 47
_symmetry_cell_setting 'orthorhombic'
loop_
_space_group_symop_operation_xyz
x,y,z
-x,-y,z
x,-y,-z
-x,y,-z
-x,-y,-z
x,y,-z
-x,y,z
x,-y,z
loop_
_atom_site_type_symbol
_atom_site_label
_atom_site_fract_x
_atom_site_fract_y
_atom_site_fract_z
Si Si1 0.215397 0.105047 0.500000
Si Si2 0.287706 0.647353 0.677969
Si Si3 0.781857 0.052937 0.180220
Si Si4 0.719048 0.738910 0.824104
Si Si5 0.784676 0.450866 0.813921
Si Si6 0.287270 0.211569 0.500000
O O1 0.280781 0.081415 0.665357
O O2 0.257596 0.158046 0.500000
O O3 0.000000 0.099865 0.500000
O O4 0.211497 0.655281 0.500000
O O5 0.500000 0.654413 0.668790
O O6 0.224579 0.686358 0.798852
O O7 0.263382 0.595295 0.726115
O O8 0.000000 0.054483 0.180160
O O9 0.732140 0.000000 0.198824
O O10 0.724396 0.068143 0.000000
O O11 0.500000 0.740966 0.825856
O O12 0.781154 0.766213 0.666316
O O13 0.779040 0.755487 0.000000
O O14 0.723167 0.500000 0.747907
O O15 0.000000 0.452217 0.815264
O O16 0.723792 0.447837 0.000000
O O17 0.500000 0.220667 0.500000
#
# Coordination Sequence:
#
# PCOD9382864 Si02
#       6
#     4   8   8   8   8   4
#     4  10  19  30  48  74 102 129 161 206 253 289
#     4  10  19  32  52  77 100 121 157 210 254 292
#     4   8  14  26  46  72 100 131 168 206 243 287
#     4   9  17  32  54  74  94 125 164 206 249 291
#     4   9  19  35  51  69  98 134 167 197 236 295
#     4  10  20  35  51  71  99 131 168 203 241 302
#
# _framework density 21.956028
#
# number of rings (size 3 to 8) (size 9 to 14) (size 15 to 20)
#    0.000    2.800    1.000    2.100    0.000    4.400 
#    0.000    4.000    0.000    2.400    0.000    1.400 
#    0.000    0.000    0.000    0.000    0.000    0.000 
#
# Total GULP energy -223160.701710 kJ/mol
# GULP energy per Si atom -5579.017543 kJ/mol
# Density = 2.190605 g / cm^3
# Si number density = 21.956028 Si / 1000 Ang^3
#
#
#
# Elastic Constant Matrix: (Units=GPa)
#
#
# Indices 1 2 3 4 5 6 
#
# 1 60.1019 -5.4058 7.4979 0.0000 0.0000 0.0000
# 2 -5.4058 130.2723 105.2419 0.0000 0.0000 0.0000
# 3 7.4979 105.2419 210.1202 0.0000 0.0000 0.0000
# 4 0.0000 0.0000 0.0000 9.4059 0.0000 0.0000
# 5 0.0000 0.0000 0.0000 0.0000 -0.3291 0.0000
# 6 0.0000 0.0000 0.0000 0.0000 0.0000 19.3181
#
#
#
# Elastic Compliance Matrix: (Units=1/GPa)
#
#
# Indices 1 2 3 4 5 6 
#
# 1 0.017021 0.002010 -0.001614 0.000000 0.000000 0.000000
# 2 0.002010 0.013131 -0.006648 0.000000 0.000000 0.000000
# 3 -0.001614 -0.006648 0.008147 0.000000 0.000000 0.000000
# 4 0.000000 0.000000 0.000000 0.106316 0.000000 0.000000
# 5 0.000000 0.000000 0.000000 0.000000 -3.038235 0.000000
# 6 0.000000 0.000000 0.000000 0.000000 0.000000 0.051765
#
#
# Mechanical properties :
#
#
# Convention : Reuss Voigt Hill
#
# Bulk Modulus (GPa) = 38.76959 68.35137 53.56048
# Shear Modulus (GPa) = -1.77258 25.22300 11.72521
#
# Velocity S-wave (km/s) = -0.89949 3.39307 2.31342
# Velocity P-wave (km/s) = 4.07644 6.82269 5.61990
#
# Compressibility (1/GPa) = 0.02579341
#
# Stress axis : x y z
#
# Youngs Moduli (GPa) = 58.75222 76.15760 122.74824
#
# Poissons Ratio (x) = -0.15311 0.19815
# Poissons Ratio (y) = -0.11812 0.81608
# Poissons Ratio (z) = 0.09484 0.50633
#
# Static dielectric constant tensor:
#      x y z
#    x 1.839340 0.000000 0.000000 
#    y 0.000000 1.771050 0.000000 
#    z 0.000000 0.000000 1.811560 
# 
# From -- ./inp_files/1725.got.cif
#   From: 2010.05.17/outbox.cif.g08.bks.cpg/sg47_1_cif.got.tgz:1725.got - 2010.06.03 20:15:42.
