data_PCOD9382368
_publ_section_title
;
Structure prediction by ZEFSAII (Michael W. Deem and Ramdas Pophale) SiO2 
 PCOD9382368
Probable space group: P M M M
;
_chemical_formula_sum "Si O2"
_cell_formula_units_Z 48
_cell_length_a 17.735944
_cell_length_b 9.286071
_cell_length_c 15.075058
_cell_angle_alpha 90.000000
_cell_angle_beta 90.000000
_cell_angle_gamma 90.000000
_cell_volume 2482.820374
_symmetry_space_group_name_H-M "P M M M"
_symmetry_group_IT_number 47
_symmetry_cell_setting 'orthorhombic'
loop_
_space_group_symop_operation_xyz
x,y,z
-x,-y,z
x,-y,-z
-x,y,-z
-x,-y,-z
x,y,-z
-x,y,z
x,-y,z
loop_
_atom_site_type_symbol
_atom_site_label
_atom_site_fract_x
_atom_site_fract_y
_atom_site_fract_z
Si Si1 0.500000 0.828115 0.393834
Si Si2 0.326255 0.326411 0.898720
Si Si3 0.845699 0.665730 0.847886
Si Si4 0.087831 0.847178 0.000000
Si Si5 0.233756 0.830833 0.600828
Si Si6 0.363628 0.325012 0.706788
Si Si7 0.910917 0.667906 0.350593
O O1 0.500000 0.810428 0.500000
O O2 0.428059 0.749997 0.350860
O O3 0.500000 0.000000 0.375340
O O4 0.332531 0.500000 0.904209
O O5 0.241211 0.294298 0.865992
O O6 0.373761 0.284653 0.811244
O O7 0.339708 0.272119 0.000000
O O8 0.851966 0.500000 0.875315
O O9 0.891929 0.762696 0.912947
O O10 0.880469 0.676303 0.750413
O O11 0.000000 0.864406 0.000000
O O12 0.128431 0.000000 0.000000
O O13 0.263550 0.817783 0.500000
O O14 0.285219 0.736167 0.666586
O O15 0.148319 0.771126 0.601097
O O16 0.235608 0.000000 0.625534
O O17 0.364081 0.500000 0.700127
O O18 0.902903 0.500000 0.378964
O O19 0.000000 0.704229 0.357025
#
# Coordination Sequence:
#
# PCOD9382368 Si02
#       7
#     4   8   8   4   8   8   8
#     4  11  25  45  68  97 134 168 197 237 298 365
#     4   9  17  33  60  91 120 152 195 245 295 349
#     4  10  18  34  57  78 105 148 200 251 305 362
#     4  11  23  33  43  71 113 150 193 252 311 363
#     4  11  24  40  59  85 120 162 203 248 311 380
#     4  11  22  40  68  98 126 158 202 252 296 349
#     4  10  21  37  57  82 112 150 204 266 317 362
#
# _framework density 19.332851999999999
#
# number of rings (size 3 to 8) (size 9 to 14) (size 15 to 20)
#    0.000    1.667    2.500    2.500    0.000    6.667 
#    0.000    2.083    0.000    2.500    0.000    0.000 
#    0.000    0.000    0.000    0.000    0.000    0.000 
#
# Total GULP energy -267588.502795 kJ/mol
# GULP energy per Si atom -5574.760475 kJ/mol
# Density = 1.928885 g / cm^3
# Si number density = 19.332852 Si / 1000 Ang^3
#
#
#
# Elastic Constant Matrix: (Units=GPa)
#
#
# Indices 1 2 3 4 5 6 
#
# 1 86.5843 44.6354 42.5005 0.0000 0.0000 0.0000
# 2 44.6354 69.0047 64.3019 0.0000 0.0000 0.0000
# 3 42.5005 64.3019 128.6598 0.0000 0.0000 0.0000
# 4 0.0000 0.0000 0.0000 43.0807 0.0000 0.0000
# 5 0.0000 0.0000 0.0000 0.0000 34.9893 0.0000
# 6 0.0000 0.0000 0.0000 0.0000 0.0000 26.5269
#
#
#
# Elastic Compliance Matrix: (Units=1/GPa)
#
#
# Indices 1 2 3 4 5 6 
#
# 1 0.017331 -0.010997 -0.000229 0.000000 0.000000 0.000000
# 2 -0.010997 0.034102 -0.013411 0.000000 0.000000 0.000000
# 3 -0.000229 -0.013411 0.014551 0.000000 0.000000 0.000000
# 4 0.000000 0.000000 0.000000 0.023212 0.000000 0.000000
# 5 0.000000 0.000000 0.000000 0.000000 0.028580 0.000000
# 6 0.000000 0.000000 0.000000 0.000000 0.000000 0.037698
#
#
# Mechanical properties :
#
#
# Convention : Reuss Voigt Hill
#
# Bulk Modulus (GPa) = 59.84500 65.23602 62.54051
# Shear Modulus (GPa) = 23.77353 29.77344 26.77349
#
# Velocity S-wave (km/s) = 3.51051 3.92860 3.72542
# Velocity P-wave (km/s) = 6.88867 7.37532 7.13615
#
# Compressibility (1/GPa) = 0.01670983
#
# Stress axis : x y z
#
# Youngs Moduli (GPa) = 57.70009 29.32350 68.72595
#
# Poissons Ratio (x) = 0.32248 0.01572
# Poissons Ratio (y) = 0.63455 0.92168
# Poissons Ratio (z) = 0.01320 0.39326
#
# Static dielectric constant tensor:
#      x y z
#    x 1.707260 0.000000 0.000000 
#    y 0.000000 1.683470 0.000000 
#    z 0.000000 0.000000 1.699210 
# 
# From -- ./inp_files/24431.got.cif
#   From: 2010.05.17/outbox.cif.g08.bks.cpg/sg47_13_cif.got.tgz:24431.got - 2010.06.03 20:15:42.
