data_PCOD9382257
_publ_section_title
;
Structure prediction by ZEFSAII (Michael W. Deem and Ramdas Pophale) SiO2 
 PCOD9382257
Probable space group: P M M M
;
_chemical_formula_sum "Si O2"
_cell_formula_units_Z 40
_cell_length_a 22.904510
_cell_length_b 11.545180
_cell_length_c 7.646241
_cell_angle_alpha 90.000000
_cell_angle_beta 90.000000
_cell_angle_gamma 90.000000
_cell_volume 2021.946667
_symmetry_space_group_name_H-M "P M M M"
_symmetry_group_IT_number 47
_symmetry_cell_setting 'orthorhombic'
loop_
_space_group_symop_operation_xyz
x,y,z
-x,-y,z
x,-y,-z
-x,y,-z
-x,-y,-z
x,y,-z
-x,y,z
x,-y,z
loop_
_atom_site_type_symbol
_atom_site_label
_atom_site_fract_x
_atom_site_fract_y
_atom_site_fract_z
Si Si1 0.636659 0.867296 0.290035
Si Si2 0.432694 0.629671 0.789846
Si Si3 0.230575 0.867936 0.286788
Si Si4 0.067542 0.500000 0.715094
Si Si5 0.000000 0.869695 0.790457
Si Si6 0.118262 0.263699 0.707663
O O1 0.637776 0.875683 0.500000
O O2 0.599740 0.750898 0.252064
O O3 0.703247 0.845217 0.227793
O O4 0.619238 0.000000 0.229434
O O5 0.500000 0.638699 0.729377
O O6 0.410706 0.500000 0.730441
O O7 0.432980 0.624374 0.000000
O O8 0.231683 0.861135 0.500000
O O9 0.177880 0.789393 0.220516
O O10 0.216265 0.000000 0.241429
O O11 0.066786 0.500000 0.500000
O O12 0.100964 0.387871 0.778761
O O13 0.000000 0.500000 0.768809
O O14 0.059916 0.811249 0.730903
O O15 0.000000 0.000000 0.725626
O O16 0.000000 0.867720 0.000000
O O17 0.127449 0.275669 0.500000
#
# Coordination Sequence:
#
# PCOD9382257 Si02
#       6
#     8   8   8   4   4   8
#     4   9  18  33  52  78 111 138 165 210 264 311
#     4   9  19  36  55  75 103 140 180 219 254 292
#     4   8  15  29  49  73  99 126 160 202 242 287
#     4   9  16  28  46  72  98 116 147 200 243 275
#     4  11  23  34  45  68  98 121 152 205 256 293
#     4  10  18  32  53  71  92 126 164 197 237 293
#
# _framework density 19.782917999999999
#
# number of rings (size 3 to 8) (size 9 to 14) (size 15 to 20)
#    0.000    2.800    1.000    2.700    0.000    3.200 
#    1.800    5.000    0.000    1.200    0.000    0.000 
#    0.000    0.000    0.000    0.000    0.000    0.000 
#
# Total GULP energy -222737.714500 kJ/mol
# GULP energy per Si atom -5568.442862 kJ/mol
# Density = 1.973789 g / cm^3
# Si number density = 19.782918 Si / 1000 Ang^3
#
#
#
# Elastic Constant Matrix: (Units=GPa)
#
#
# Indices 1 2 3 4 5 6 
#
# 1 120.1318 118.3117 4.9743 0.0000 0.0000 0.0000
# 2 118.3117 222.5276 8.1163 0.0000 0.0000 0.0000
# 3 4.9743 8.1163 37.3372 0.0000 0.0000 0.0000
# 4 0.0000 0.0000 0.0000 14.1196 0.0000 0.0000
# 5 0.0000 0.0000 0.0000 0.0000 36.0445 0.0000
# 6 0.0000 0.0000 0.0000 0.0000 0.0000 52.0552
#
#
#
# Elastic Compliance Matrix: (Units=1/GPa)
#
#
# Indices 1 2 3 4 5 6 
#
# 1 0.017477 -0.009281 -0.000311 0.000000 0.000000 0.000000
# 2 -0.009281 0.009458 -0.000820 0.000000 0.000000 0.000000
# 3 -0.000311 -0.000820 0.027003 0.000000 0.000000 0.000000
# 4 0.000000 0.000000 0.000000 0.070823 0.000000 0.000000
# 5 0.000000 0.000000 0.000000 0.000000 0.027743 0.000000
# 6 0.000000 0.000000 0.000000 0.000000 0.000000 0.019210
#
#
# Mechanical properties :
#
#
# Convention : Reuss Voigt Hill
#
# Bulk Modulus (GPa) = 30.19765 71.42235 50.81000
# Shear Modulus (GPa) = 24.56082 37.01682 30.78882
#
# Velocity S-wave (km/s) = 3.52734 4.33037 3.94932
# Velocity P-wave (km/s) = 5.64687 7.82204 6.82171
#
# Compressibility (1/GPa) = 0.03311516
#
# Stress axis : x y z
#
# Youngs Moduli (GPa) = 57.21708 105.72971 37.03360
#
# Poissons Ratio (x) = 0.98126 0.01152
# Poissons Ratio (y) = 0.53102 0.03035
# Poissons Ratio (z) = 0.01779 0.08665
#
# Static dielectric constant tensor:
#      x y z
#    x 1.688060 0.000000 0.000000 
#    y 0.000000 1.716240 0.000000 
#    z 0.000000 0.000000 1.734970 
# 
# From -- ./inp_files/10706.got.cif
#   From: 2010.05.17/outbox.cif.g08.bks.cpg/sg47_6_cif.got.tgz:10706.got - 2010.06.03 20:15:42.
