data_PCOD9382857
_publ_section_title
;
Structure prediction by ZEFSAII (Michael W. Deem and Ramdas Pophale) SiO2 
 PCOD9382857
Probable space group: P M M M
;
_chemical_formula_sum "Si O2"
_cell_formula_units_Z 64
_cell_length_a 9.494219
_cell_length_b 16.355391
_cell_length_c 22.904202
_cell_angle_alpha 90.000000
_cell_angle_beta 90.000000
_cell_angle_gamma 90.000000
_cell_volume 3556.602599
_symmetry_space_group_name_H-M "P M M M"
_symmetry_group_IT_number 47
_symmetry_cell_setting 'orthorhombic'
loop_
_space_group_symop_operation_xyz
x,y,z
-x,-y,z
x,-y,-z
-x,y,-z
-x,-y,-z
x,y,-z
-x,y,z
x,-y,z
loop_
_atom_site_type_symbol
_atom_site_label
_atom_site_fract_x
_atom_site_fract_y
_atom_site_fract_z
Si Si1 0.844915 0.904760 0.233393
Si Si2 0.167884 0.274537 0.932796
Si Si3 0.832121 0.091540 0.094605
Si Si4 0.830690 0.766404 0.565210
Si Si5 0.831363 0.586942 0.395795
Si Si6 0.339521 0.810974 0.323144
Si Si7 0.338411 0.623868 0.717767
Si Si8 0.669522 0.405538 0.146818
O O1 0.815526 0.900258 0.164458
O O2 0.729118 0.866080 0.273865
O O3 0.000000 0.866735 0.243711
O O4 0.853373 0.000000 0.247421
O O5 0.218241 0.179248 0.929284
O O6 0.250073 0.336934 0.890761
O O7 0.000000 0.274708 0.918235
O O8 0.183221 0.301056 0.000000
O O9 0.000000 0.088842 0.081702
O O10 0.777470 0.000000 0.077423
O O11 0.794211 0.794626 0.500000
O O12 0.791278 0.670134 0.571458
O O13 0.751967 0.810650 0.617928
O O14 0.000000 0.772932 0.572169
O O15 0.793027 0.500000 0.424114
O O16 0.762217 0.588893 0.331894
O O17 0.000000 0.589496 0.390360
O O18 0.500000 0.833101 0.336049
O O19 0.337202 0.720296 0.295571
O O20 0.500000 0.595403 0.710086
O O21 0.296948 0.605674 0.784289
O O22 0.500000 0.394924 0.140799
O O23 0.703291 0.500000 0.130356
#
# Coordination Sequence:
#
# PCOD9382857 Si02
#       8
#     8   8   8   8   8   8   8   8
#     4   9  17  30  50  75 101 128 156 186 226 283
#     4  10  21  35  52  76 103 131 166 209 253 294
#     4   8  15  30  53  80 107 133 161 195 240 298
#     4   9  18  32  48  65  89 126 167 200 232 275
#     4   9  17  28  44  69  97 122 152 193 240 287
#     4  10  19  30  48  73  99 126 155 195 245 289
#     4   9  18  32  49  70  95 123 158 199 245 296
#     4  10  21  36  53  71  94 131 176 216 254 298
#
# _framework density 17.994700000000002
#
# number of rings (size 3 to 8) (size 9 to 14) (size 15 to 20)
#    0.000    2.750    0.000    2.250    0.000    3.500 
#    0.000    3.750    0.000    1.500    0.000    7.000 
#    0.000    0.000    0.000    0.000    0.000    0.000 
#
# Total GULP energy -356466.162551 kJ/mol
# GULP energy per Si atom -5569.783790 kJ/mol
# Density = 1.795374 g / cm^3
# Si number density = 17.994700 Si / 1000 Ang^3
#
#
#
# Elastic Constant Matrix: (Units=GPa)
#
#
# Indices 1 2 3 4 5 6 
#
# 1 27.6151 19.2820 25.0504 0.0000 0.0000 0.0000
# 2 19.2820 57.7428 34.1551 0.0000 0.0000 0.0000
# 3 25.0504 34.1551 56.1635 0.0000 0.0000 0.0000
# 4 0.0000 0.0000 0.0000 28.8224 0.0000 0.0000
# 5 0.0000 0.0000 0.0000 0.0000 14.8621 0.0000
# 6 0.0000 0.0000 0.0000 0.0000 0.0000 13.9349
#
#
#
# Elastic Compliance Matrix: (Units=1/GPa)
#
#
# Indices 1 2 3 4 5 6 
#
# 1 0.062505 -0.006844 -0.023717 0.000000 0.000000 0.000000
# 2 -0.006844 0.027797 -0.013852 0.000000 0.000000 0.000000
# 3 -0.023717 -0.013852 0.036807 0.000000 0.000000 0.000000
# 4 0.000000 0.000000 0.000000 0.034695 0.000000 0.000000
# 5 0.000000 0.000000 0.000000 0.000000 0.067285 0.000000
# 6 0.000000 0.000000 0.000000 0.000000 0.000000 0.071762
#
#
# Mechanical properties :
#
#
# Convention : Reuss Voigt Hill
#
# Bulk Modulus (GPa) = 26.12039 33.16627 29.64333
# Shear Modulus (GPa) = 12.42425 15.72614 14.07520
#
# Velocity S-wave (km/s) = 2.63047 2.95944 2.79979
# Velocity P-wave (km/s) = 4.87575 5.49080 5.19239
#
# Compressibility (1/GPa) = 0.03828426
#
# Stress axis : x y z
#
# Youngs Moduli (GPa) = 15.99873 35.97522 27.16838
#
# Poissons Ratio (x) = 0.24620 0.64435
# Poissons Ratio (y) = 0.10949 0.37633
# Poissons Ratio (z) = 0.37944 0.49833
#
# Static dielectric constant tensor:
#      x y z
#    x 1.613070 0.000000 0.000000 
#    y 0.000000 1.668210 0.000000 
#    z 0.000000 0.000000 1.595930 
# 
# From -- ./inp_files/29939.got.cif
#   From: 2010.05.17/outbox.cif.g08.bks.cpg/sg47_15_cif.got.tgz:29939.got - 2010.06.03 20:15:42.
