data_PCOD9382907
_publ_section_title
;
Structure prediction by ZEFSAII (Michael W. Deem and Ramdas Pophale) SiO2 
 PCOD9382907
Probable space group: P M M M
;
_chemical_formula_sum "Si O2"
_cell_formula_units_Z 40
_cell_length_a 11.672510
_cell_length_b 20.904754
_cell_length_c 7.598534
_cell_angle_alpha 90.000000
_cell_angle_beta 90.000000
_cell_angle_gamma 90.000000
_cell_volume 1854.125501
_symmetry_space_group_name_H-M "P M M M"
_symmetry_group_IT_number 47
_symmetry_cell_setting 'orthorhombic'
loop_
_space_group_symop_operation_xyz
x,y,z
-x,-y,z
x,-y,-z
-x,y,-z
-x,-y,-z
x,y,-z
-x,y,z
x,-y,z
loop_
_atom_site_type_symbol
_atom_site_label
_atom_site_fract_x
_atom_site_fract_y
_atom_site_fract_z
Si Si1 0.375682 0.619621 0.791453
Si Si2 0.807141 0.068670 0.000000
Si Si3 0.874158 0.423257 0.209361
Si Si4 0.372813 0.098027 0.705248
Si Si5 0.126789 0.786074 0.000000
Si Si6 0.303605 0.242915 0.295899
O O1 0.500000 0.595408 0.722824
O O2 0.250411 0.598625 0.719590
O O3 0.374050 0.695875 0.764585
O O4 0.374290 0.604278 0.000000
O O5 0.724417 0.071598 0.169352
O O6 0.872416 0.136225 0.000000
O O7 0.867998 0.000000 0.000000
O O8 0.874736 0.500000 0.225735
O O9 0.000000 0.400600 0.277840
O O10 0.873540 0.407615 0.000000
O O11 0.353574 0.082866 0.500000
O O12 0.500000 0.076533 0.755034
O O13 0.367377 0.175169 0.723164
O O14 0.194447 0.762388 0.170286
O O15 0.000000 0.760897 0.000000
O O16 0.273251 0.250087 0.500000
#
# Coordination Sequence:
#
# PCOD9382907 Si02
#       6
#     8   4   8   8   4   8
#     4  10  19  30  49  82 116 146 186 237 289 341
#     4  10  21  35  52  77 105 137 177 223 271 322
#     4   8  15  29  48  71 103 147 195 239 286 340
#     4   9  18  32  51  75 105 142 178 215 265 327
#     4  10  22  40  59  80 107 142 183 231 277 328
#     4  10  20  36  56  80 111 146 181 223 279 339
#
# _framework density 21.573512999999998
#
# number of rings (size 3 to 8) (size 9 to 14) (size 15 to 20)
#    0.000    2.600    1.000    1.500    0.000    4.200 
#    0.000    3.000    0.000    0.600    0.000    8.400 
#    0.000    0.000    0.000    0.000    0.000    0.000 
#
# Total GULP energy -223083.636512 kJ/mol
# GULP energy per Si atom -5577.090913 kJ/mol
# Density = 2.152441 g / cm^3
# Si number density = 21.573513 Si / 1000 Ang^3
#
#
#
# Elastic Constant Matrix: (Units=GPa)
#
#
# Indices 1 2 3 4 5 6 
#
# 1 209.4383 33.6118 39.5779 0.0000 0.0000 0.0000
# 2 33.6118 33.8902 -12.5796 0.0000 0.0000 0.0000
# 3 39.5779 -12.5796 52.9326 0.0000 0.0000 0.0000
# 4 0.0000 0.0000 0.0000 -5.4083 0.0000 0.0000
# 5 0.0000 0.0000 0.0000 0.0000 -85.9382 0.0000
# 6 0.0000 0.0000 0.0000 0.0000 0.0000 -40.3950
#
#
#
# Elastic Compliance Matrix: (Units=1/GPa)
#
#
# Indices 1 2 3 4 5 6 
#
# 1 0.008336 -0.011605 -0.008991 0.000000 0.000000 0.000000
# 2 -0.011605 0.048517 0.020207 0.000000 0.000000 0.000000
# 3 -0.008991 0.020207 0.030417 0.000000 0.000000 0.000000
# 4 0.000000 0.000000 0.000000 -0.184900 0.000000 0.000000
# 5 0.000000 0.000000 0.000000 0.000000 -0.011636 0.000000
# 6 0.000000 0.000000 0.000000 0.000000 0.000000 -0.024756
#
#
# Mechanical properties :
#
#
# Convention : Reuss Voigt Hill
#
# Bulk Modulus (GPa) = 11.56158 46.38681 28.97420
# Shear Modulus (GPa) = -47.88662 -10.63824 -29.26243
#
# Velocity S-wave (km/s) = -4.71648 -2.22303 -3.68694
# Velocity P-wave (km/s) = 4.92843 3.86772 2.15988
#
# Compressibility (1/GPa) = 0.08649338
#
# Stress axis : x y z
#
# Youngs Moduli (GPa) = 119.95977 20.61114 32.87659
#
# Poissons Ratio (x) = 0.23919 0.29559
# Poissons Ratio (y) = 1.39213 -0.66435
# Poissons Ratio (z) = 1.07855 -0.41650
#
# Static dielectric constant tensor:
#      x y z
#    x 1.960290 0.000000 0.000000 
#    y 0.000000 1.802460 0.000000 
#    z 0.000000 0.000000 1.748510 
# 
# From -- ./inp_files/4096.got.cif
#   From: 2010.05.17/outbox.cif.g08.bks.cpg/sg47_3_cif.got.tgz:4096.got - 2010.06.03 20:15:42.
