data_PCOD9382283
_publ_section_title
;
Structure prediction by ZEFSAII (Michael W. Deem and Ramdas Pophale) SiO2 
 PCOD9382283
Probable space group: P M M M
;
_chemical_formula_sum "Si O2"
_cell_formula_units_Z 56
_cell_length_a 22.214207
_cell_length_b 16.801512
_cell_length_c 8.222244
_cell_angle_alpha 90.000000
_cell_angle_beta 90.000000
_cell_angle_gamma 90.000000
_cell_volume 3068.806755
_symmetry_space_group_name_H-M "P M M M"
_symmetry_group_IT_number 47
_symmetry_cell_setting 'orthorhombic'
loop_
_space_group_symop_operation_xyz
x,y,z
-x,-y,z
x,-y,-z
-x,y,-z
-x,-y,-z
x,y,-z
-x,y,z
x,-y,z
loop_
_atom_site_type_symbol
_atom_site_label
_atom_site_fract_x
_atom_site_fract_y
_atom_site_fract_z
Si Si1 0.855588 0.758624 0.691443
Si Si2 0.069926 0.911920 0.804117
Si Si3 0.433880 0.207407 0.000000
Si Si4 0.320231 0.910926 0.000000
Si Si5 0.303701 0.406811 0.187231
Si Si6 0.613507 0.278047 0.678368
Si Si7 0.834460 0.411150 0.195381
Si Si8 0.271208 0.838206 0.315840
O O1 0.863441 0.752501 0.500000
O O2 0.894371 0.833799 0.750635
O O3 0.868272 0.670336 0.760184
O O4 0.786227 0.783276 0.723525
O O5 0.000000 0.905715 0.753298
O O6 0.092510 0.000000 0.748533
O O7 0.071258 0.913154 0.000000
O O8 0.377813 0.146997 0.000000
O O9 0.426546 0.258307 0.834838
O O10 0.500000 0.169311 0.000000
O O11 0.281423 0.895816 0.163157
O O12 0.342921 0.000000 0.000000
O O13 0.316981 0.500000 0.181846
O O14 0.352004 0.360450 0.291783
O O15 0.235113 0.399908 0.249863
O O16 0.305254 0.375389 0.000000
O O17 0.584380 0.275085 0.500000
O O18 0.668514 0.214681 0.678480
O O19 0.854741 0.500000 0.252175
O O20 0.832698 0.415126 0.000000
O O21 0.262353 0.871594 0.500000
#
# Coordination Sequence:
#
# PCOD9382283 Si02
#       8
#     8   8   4   4   8   8   8   8
#     4  11  21  32  52  80 113 151 181 220 277 332
#     4   9  20  39  59  78 101 136 187 239 280 324
#     4  10  22  39  57  76 102 134 174 227 269 310
#     4  10  22  37  58  81 104 142 174 212 278 329
#     4   9  16  27  47  76 108 140 173 213 263 314
#     4  10  18  32  54  76 104 140 176 215 264 318
#     4   9  18  30  49  79 114 150 185 222 265 322
#     4   9  20  34  50  80 114 141 175 215 264 333
#
# _framework density 18.248135999999999
#
# number of rings (size 3 to 8) (size 9 to 14) (size 15 to 20)
#    0.000    2.429    2.143    1.714    2.000    2.429 
#    0.000    3.571    0.000    1.286    0.000    8.000 
#    0.000    0.000    0.000    0.000    0.000    0.000 
#
# Total GULP energy -311836.733481 kJ/mol
# GULP energy per Si atom -5568.513098 kJ/mol
# Density = 1.820660 g / cm^3
# Si number density = 18.248136 Si / 1000 Ang^3
#
#
#
# Elastic Constant Matrix: (Units=GPa)
#
#
# Indices 1 2 3 4 5 6 
#
# 1 30.9416 33.1526 23.9194 0.0000 0.0000 0.0000
# 2 33.1526 124.9143 42.0310 0.0000 0.0000 0.0000
# 3 23.9194 42.0310 66.4378 0.0000 0.0000 0.0000
# 4 0.0000 0.0000 0.0000 -11.3383 0.0000 0.0000
# 5 0.0000 0.0000 0.0000 0.0000 -17.4046 0.0000
# 6 0.0000 0.0000 0.0000 0.0000 0.0000 5.6228
#
#
#
# Elastic Compliance Matrix: (Units=1/GPa)
#
#
# Indices 1 2 3 4 5 6 
#
# 1 0.052556 -0.009632 -0.012828 0.000000 0.000000 0.000000
# 2 -0.009632 0.011936 -0.004083 0.000000 0.000000 0.000000
# 3 -0.012828 -0.004083 0.022253 0.000000 0.000000 0.000000
# 4 0.000000 0.000000 0.000000 -0.088196 0.000000 0.000000
# 5 0.000000 0.000000 0.000000 0.000000 -0.057456 0.000000
# 6 0.000000 0.000000 0.000000 0.000000 0.000000 0.177847
#
#
# Mechanical properties :
#
#
# Convention : Reuss Voigt Hill
#
# Bulk Modulus (GPa) = 29.71020 46.72219 38.21619
# Shear Modulus (GPa) = 27.28580 3.58869 15.43724
#
# Velocity S-wave (km/s) = 3.87106 1.40388 2.91170
# Velocity P-wave (km/s) = 6.02468 5.31857 5.68260
#
# Compressibility (1/GPa) = 0.03365847
#
# Stress axis : x y z
#
# Youngs Moduli (GPa) = 19.02733 83.78158 44.93728
#
# Poissons Ratio (x) = 0.80700 0.57645
# Poissons Ratio (y) = 0.18327 0.18349
# Poissons Ratio (z) = 0.24408 0.34209
#
# Static dielectric constant tensor:
#      x y z
#    x 1.610100 0.000000 0.000000 
#    y 0.000000 1.672120 0.000000 
#    z 0.000000 0.000000 1.665980 
# 
# From -- ./inp_files/11282.got.cif
#   From: 2010.05.17/outbox.cif.g08.bks.cpg/sg47_6_cif.got.tgz:11282.got - 2010.06.03 20:15:42.
