data_PCOD9382982
_publ_section_title
;
Structure prediction by ZEFSAII (Michael W. Deem and Ramdas Pophale) SiO2 
 PCOD9382982
Probable space group: P M M M
;
_chemical_formula_sum "Si O2"
_cell_formula_units_Z 52
_cell_length_a 14.037440
_cell_length_b 8.951306
_cell_length_c 27.091468
_cell_angle_alpha 90.000000
_cell_angle_beta 90.000000
_cell_angle_gamma 90.000000
_cell_volume 3404.135631
_symmetry_space_group_name_H-M "P M M M"
_symmetry_group_IT_number 47
_symmetry_cell_setting 'orthorhombic'
loop_
_space_group_symop_operation_xyz
x,y,z
-x,-y,z
x,-y,-z
-x,y,-z
-x,-y,-z
x,y,-z
-x,y,z
x,-y,z
loop_
_atom_site_type_symbol
_atom_site_label
_atom_site_fract_x
_atom_site_fract_y
_atom_site_fract_z
Si Si1 0.609337 0.820955 0.209258
Si Si2 0.208689 0.821665 0.148591
Si Si3 0.110557 0.320148 0.055716
Si Si4 0.386652 0.178445 0.396782
Si Si5 0.615509 0.328113 0.500000
Si Si6 0.110200 0.179792 0.251643
Si Si7 0.288648 0.321665 0.302344
O O1 0.500000 0.788201 0.197345
O O2 0.684548 0.783261 0.166381
O O3 0.642954 0.736909 0.258398
O O4 0.618228 0.000000 0.218332
O O5 0.174555 0.744576 0.098981
O O6 0.141868 0.782174 0.195539
O O7 0.202994 0.000000 0.142164
O O8 0.113738 0.500000 0.057193
O O9 0.000000 0.275477 0.063594
O O10 0.137791 0.273375 0.000000
O O11 0.500000 0.210087 0.389956
O O12 0.356827 0.243781 0.449907
O O13 0.327736 0.253844 0.353070
O O14 0.375009 0.000000 0.395891
O O15 0.647884 0.500000 0.500000
O O16 0.500000 0.329141 0.500000
O O17 0.184340 0.259969 0.287767
O O18 0.000000 0.218021 0.259799
O O19 0.121313 0.000000 0.256608
O O20 0.288705 0.500000 0.304045
#
# Coordination Sequence:
#
# PCOD9382982 Si02
#       7
#     8   8   8   8   4   8   8
#     4   9  18  33  49  64  88 122 155 186 223 269
#     4   9  17  29  47  70  90 111 145 186 225 264
#     4   9  18  31  45  63  89 119 147 176 217 270
#     4  10  19  31  47  66  92 127 162 192 226 272
#     4   9  17  29  45  67  94 121 152 193 237 275
#     4   9  18  33  50  67  91 122 153 185 224 273
#     4  11  21  30  44  69  97 122 152 191 231 269
#
# _framework density 15.275537
#
# number of rings (size 3 to 8) (size 9 to 14) (size 15 to 20)
#    0.000    2.538    0.000    4.385    0.000    8.000 
#    0.000    0.769    0.000    0.462    0.000    3.769 
#    0.000    4.308    0.000    0.000    0.000    0.000 
#
# Total GULP energy -289953.173466 kJ/mol
# GULP energy per Si atom -5576.022567 kJ/mol
# Density = 1.524077 g / cm^3
# Si number density = 15.275537 Si / 1000 Ang^3
#
#
#
# Elastic Constant Matrix: (Units=GPa)
#
#
# Indices 1 2 3 4 5 6 
#
# 1 114.9946 53.8705 82.0169 0.0000 0.0000 0.0000
# 2 53.8705 59.1969 64.2702 0.0000 0.0000 0.0000
# 3 82.0169 64.2702 154.8084 0.0000 0.0000 0.0000
# 4 0.0000 0.0000 0.0000 37.4751 0.0000 0.0000
# 5 0.0000 0.0000 0.0000 0.0000 22.4849 0.0000
# 6 0.0000 0.0000 0.0000 0.0000 0.0000 17.7131
#
#
#
# Elastic Compliance Matrix: (Units=1/GPa)
#
#
# Indices 1 2 3 4 5 6 
#
# 1 0.016818 -0.010252 -0.004654 0.000000 0.000000 0.000000
# 2 -0.010252 0.037005 -0.009932 0.000000 0.000000 0.000000
# 3 -0.004654 -0.009932 0.013048 0.000000 0.000000 0.000000
# 4 0.000000 0.000000 0.000000 0.026684 0.000000 0.000000
# 5 0.000000 0.000000 0.000000 0.000000 0.044474 0.000000
# 6 0.000000 0.000000 0.000000 0.000000 0.000000 0.056455
#
#
# Mechanical properties :
#
#
# Convention : Reuss Voigt Hill
#
# Bulk Modulus (GPa) = 58.15121 81.03500 69.59311
# Shear Modulus (GPa) = 20.00862 24.12410 22.06636
#
# Velocity S-wave (km/s) = 3.62311 3.97831 3.80485
# Velocity P-wave (km/s) = 7.46012 8.61781 8.05978
#
# Compressibility (1/GPa) = 0.01719655
#
# Stress axis : x y z
#
# Youngs Moduli (GPa) = 59.46019 27.02340 76.63784
#
# Poissons Ratio (x) = 0.27704 0.35666
# Poissons Ratio (y) = 0.60958 0.76113
# Poissons Ratio (z) = 0.27672 0.26838
#
# Static dielectric constant tensor:
#      x y z
#    x 1.500510 0.000000 0.000000 
#    y 0.000000 1.510210 0.000000 
#    z 0.000000 0.000000 1.486380 
# 
# From -- ./inp_files/7697.got.cif
#   From: 2010.05.17/outbox.cif.g08.bks.cpg/sg47_4_cif.got.tgz:7697.got - 2010.06.03 20:15:42.
