data_PCOD9382971
_publ_section_title
;
Structure prediction by ZEFSAII (Michael W. Deem and Ramdas Pophale) SiO2 
 PCOD9382971
Probable space group: P M M M
;
_chemical_formula_sum "Si O2"
_cell_formula_units_Z 32
_cell_length_a 8.771188
_cell_length_b 17.424074
_cell_length_c 13.246158
_cell_angle_alpha 90.000000
_cell_angle_beta 90.000000
_cell_angle_gamma 90.000000
_cell_volume 2024.408059
_symmetry_space_group_name_H-M "P M M M"
_symmetry_group_IT_number 47
_symmetry_cell_setting 'orthorhombic'
loop_
_space_group_symop_operation_xyz
x,y,z
-x,-y,z
x,-y,-z
-x,y,-z
-x,-y,-z
x,y,-z
-x,y,z
x,-y,z
loop_
_atom_site_type_symbol
_atom_site_label
_atom_site_fract_x
_atom_site_fract_y
_atom_site_fract_z
Si Si1 0.176262 0.500000 0.877414
Si Si2 0.816620 0.818676 0.809180
Si Si3 0.317539 0.090754 0.000000
Si Si4 0.185512 0.088394 0.386434
Si Si5 0.318183 0.661643 0.880160
O O1 0.257631 0.578641 0.845925
O O2 0.000000 0.500000 0.846694
O O3 0.181559 0.500000 0.000000
O O4 0.765347 0.856419 0.703616
O O5 0.758428 0.732268 0.823153
O O6 0.000000 0.820089 0.813816
O O7 0.751280 0.868774 0.901381
O O8 0.500000 0.101292 0.000000
O O9 0.283787 0.000000 0.000000
O O10 0.234983 0.109670 0.500000
O O11 0.000000 0.088973 0.386693
O O12 0.231721 0.000000 0.367157
O O13 0.500000 0.664936 0.870290
O O14 0.281588 0.670103 0.000000
#
# Coordination Sequence:
#
# PCOD9382971 Si02
#       5
#     4   8   4   8   8
#     4   9  17  29  47  69  94 123 162 203 234 272
#     4  11  20  30  49  73  96 124 163 204 239 282
#     4  11  23  35  45  62  95 134 163 193 241 295
#     4   8  15  29  48  70  95 122 157 205 254 289
#     4  10  19  31  46  66  98 134 162 190 235 290
#
# _framework density 15.807089
#
# number of rings (size 3 to 8) (size 9 to 14) (size 15 to 20)
#    0.000    2.250    1.250    3.750    0.000    4.500 
#    0.000    0.000    0.000    3.000    0.000    9.625 
#    0.000    7.000    0.000    0.000    0.000    0.000 
#
# Total GULP energy -178487.815739 kJ/mol
# GULP energy per Si atom -5577.744242 kJ/mol
# Density = 1.577111 g / cm^3
# Si number density = 15.807089 Si / 1000 Ang^3
#
#
#
# Elastic Constant Matrix: (Units=GPa)
#
#
# Indices 1 2 3 4 5 6 
#
# 1 41.1701 51.3108 33.2054 0.0000 0.0000 0.0000
# 2 51.3108 158.5845 86.5652 0.0000 0.0000 0.0000
# 3 33.2054 86.5652 108.6741 0.0000 0.0000 0.0000
# 4 0.0000 0.0000 0.0000 14.1145 0.0000 0.0000
# 5 0.0000 0.0000 0.0000 0.0000 2.1852 0.0000
# 6 0.0000 0.0000 0.0000 0.0000 0.0000 28.1781
#
#
#
# Elastic Compliance Matrix: (Units=1/GPa)
#
#
# Indices 1 2 3 4 5 6 
#
# 1 0.041445 -0.011496 -0.003507 0.000000 0.000000 0.000000
# 2 -0.011496 0.014345 -0.007915 0.000000 0.000000 0.000000
# 3 -0.003507 -0.007915 0.016578 0.000000 0.000000 0.000000
# 4 0.000000 0.000000 0.000000 0.070849 0.000000 0.000000
# 5 0.000000 0.000000 0.000000 0.000000 0.457630 0.000000
# 6 0.000000 0.000000 0.000000 0.000000 0.000000 0.035489
#
#
# Mechanical properties :
#
#
# Convention : Reuss Voigt Hill
#
# Bulk Modulus (GPa) = 37.68678 72.28794 54.98736
# Shear Modulus (GPa) = 7.23574 18.05202 12.64388
#
# Velocity S-wave (km/s) = 2.14184 3.38305 2.83130
# Velocity P-wave (km/s) = 5.47815 7.81605 6.74910
#
# Compressibility (1/GPa) = 0.02653451
#
# Stress axis : x y z
#
# Youngs Moduli (GPa) = 24.12855 69.70847 60.32217
#
# Poissons Ratio (x) = 0.80133 0.21153
# Poissons Ratio (y) = 0.27737 0.47742
# Poissons Ratio (z) = 0.08461 0.55171
#
# Static dielectric constant tensor:
#      x y z
#    x 1.530290 0.000000 0.000000 
#    y 0.000000 1.519970 0.000000 
#    z 0.000000 0.000000 1.512270 
# 
# From -- ./inp_files/3552.got.cif
#   From: 2010.05.17/outbox.cif.g08.bks.cpg/sg47_2_cif.got.tgz:3552.got - 2010.06.03 20:15:42.
