data_PCOD9382217
_publ_section_title
;
Structure prediction by ZEFSAII (Michael W. Deem and Ramdas Pophale) SiO2 
 PCOD9382217
Probable space group: P M M M
;
_chemical_formula_sum "Si O2"
_cell_formula_units_Z 52
_cell_length_a 21.125129
_cell_length_b 7.524928
_cell_length_c 15.344656
_cell_angle_alpha 90.000000
_cell_angle_beta 90.000000
_cell_angle_gamma 90.000000
_cell_volume 2439.264388
_symmetry_space_group_name_H-M "P M M M"
_symmetry_group_IT_number 47
_symmetry_cell_setting 'orthorhombic'
loop_
_space_group_symop_operation_xyz
x,y,z
-x,-y,z
x,-y,-z
-x,y,-z
-x,-y,-z
x,y,-z
-x,y,z
x,-y,z
loop_
_atom_site_type_symbol
_atom_site_label
_atom_site_fract_x
_atom_site_fract_y
_atom_site_fract_z
Si Si1 0.208397 0.285084 0.404443
Si Si2 0.870864 0.799062 0.177118
Si Si3 0.926099 0.301012 0.000000
Si Si4 0.261837 0.218150 0.899001
Si Si5 0.427396 0.217074 0.598728
Si Si6 0.679490 0.209916 0.727858
Si Si7 0.070732 0.295857 0.353867
O O1 0.232524 0.230774 0.500000
O O2 0.206033 0.500000 0.401112
O O3 0.255692 0.229797 0.327853
O O4 0.135726 0.220197 0.394213
O O5 0.907193 0.798525 0.086674
O O6 0.803455 0.722750 0.147162
O O7 0.911514 0.704875 0.251230
O O8 0.860969 0.000000 0.208790
O O9 0.897288 0.500000 0.000000
O O10 0.000000 0.319791 0.000000
O O11 0.313165 0.275630 0.827079
O O12 0.259731 0.000000 0.901400
O O13 0.267306 0.274915 0.000000
O O14 0.411085 0.272654 0.500000
O O15 0.500000 0.268563 0.616590
O O16 0.377136 0.283734 0.669009
O O17 0.425766 0.000000 0.598934
O O18 0.668255 0.000000 0.736075
O O19 0.067148 0.500000 0.384024
O O20 0.000000 0.218321 0.367565
#
# Coordination Sequence:
#
# PCOD9382217 Si02
#       7
#     8   8   4   8   8   8   8
#     4  10  21  35  51  73 100 129 164 209 257 304
#     4  11  20  33  51  70  93 123 161 206 259 312
#     4  11  23  35  47  67  95 125 160 205 258 314
#     4   9  17  30  48  71  97 124 158 202 249 294
#     4   8  14  25  44  75 110 136 162 199 241 288
#     4  10  18  31  54  77  99 132 170 206 245 293
#     4  10  21  36  51  67  92 127 165 206 254 307
#
# _framework density 21.317902
#
# number of rings (size 3 to 8) (size 9 to 14) (size 15 to 20)
#    0.000    2.231    2.308    2.077    0.000    4.000 
#    0.000    1.538    0.000    0.923    0.000    7.538 
#    0.000    0.000    0.000    1.385    0.000    1.692 
#
# Total GULP energy -290036.474053 kJ/mol
# GULP energy per Si atom -5577.624501 kJ/mol
# Density = 2.126938 g / cm^3
# Si number density = 21.317902 Si / 1000 Ang^3
#
#
#
# Elastic Constant Matrix: (Units=GPa)
#
#
# Indices 1 2 3 4 5 6 
#
# 1 114.1303 -0.0060 52.7141 0.0000 0.0000 0.0000
# 2 -0.0060 59.5415 -2.6049 0.0000 0.0000 0.0000
# 3 52.7141 -2.6049 114.6045 0.0000 0.0000 0.0000
# 4 0.0000 0.0000 0.0000 8.4626 0.0000 0.0000
# 5 0.0000 0.0000 0.0000 0.0000 34.3294 0.0000
# 6 0.0000 0.0000 0.0000 0.0000 0.0000 14.9129
#
#
#
# Elastic Compliance Matrix: (Units=1/GPa)
#
#
# Indices 1 2 3 4 5 6 
#
# 1 0.011128 -0.000223 -0.005124 0.000000 0.000000 0.000000
# 2 -0.000223 0.016816 0.000485 0.000000 0.000000 0.000000
# 3 -0.005124 0.000485 0.011093 0.000000 0.000000 0.000000
# 4 0.000000 0.000000 0.000000 0.118167 0.000000 0.000000
# 5 0.000000 0.000000 0.000000 0.000000 0.029130 0.000000
# 6 0.000000 0.000000 0.000000 0.000000 0.000000 0.067056
#
#
# Mechanical properties :
#
#
# Convention : Reuss Voigt Hill
#
# Bulk Modulus (GPa) = 34.11329 43.16475 38.63902
# Shear Modulus (GPa) = 18.32267 27.41920 22.87094
#
# Velocity S-wave (km/s) = 2.93490 3.59026 3.27899
# Velocity P-wave (km/s) = 5.24612 6.12199 5.70090
#
# Compressibility (1/GPa) = 0.02931409
#
# Stress axis : x y z
#
# Youngs Moduli (GPa) = 89.85977 59.46645 90.14344
#
# Poissons Ratio (x) = 0.01326 0.46187
# Poissons Ratio (y) = 0.02004 -0.04370
# Poissons Ratio (z) = 0.46042 -0.02883
#
# Static dielectric constant tensor:
#      x y z
#    x 1.774700 0.000000 0.000000 
#    y 0.000000 1.945550 0.000000 
#    z 0.000000 0.000000 1.765780 
# 
# From -- ./inp_files/25000.got.cif
#   From: 2010.05.17/outbox.cif.g08.bks.cpg/sg47_13_cif.got.tgz:25000.got - 2010.06.03 20:15:42.
