data_PCOD9382527
_publ_section_title
;
Structure prediction by ZEFSAII (Michael W. Deem and Ramdas Pophale) SiO2 
 PCOD9382527
Probable space group: P M M M
;
_chemical_formula_sum "Si O2"
_cell_formula_units_Z 52
_cell_length_a 14.002916
_cell_length_b 26.738698
_cell_length_c 9.147579
_cell_angle_alpha 90.000000
_cell_angle_beta 90.000000
_cell_angle_gamma 90.000000
_cell_volume 3425.034170
_symmetry_space_group_name_H-M "P M M M"
_symmetry_group_IT_number 47
_symmetry_cell_setting 'orthorhombic'
loop_
_space_group_symop_operation_xyz
x,y,z
-x,-y,z
x,-y,-z
-x,y,-z
-x,-y,-z
x,y,-z
-x,y,z
x,-y,z
loop_
_atom_site_type_symbol
_atom_site_label
_atom_site_fract_x
_atom_site_fract_y
_atom_site_fract_z
Si Si1 0.109975 0.758696 0.325619
Si Si2 0.212657 0.850875 0.174177
Si Si3 0.610710 0.802614 0.325724
Si Si4 0.706985 0.696286 0.326672
Si Si5 0.613223 0.397589 0.174067
Si Si6 0.384046 0.500000 0.668192
Si Si7 0.112763 0.941623 0.673512
O O1 0.119290 0.769167 0.500000
O O2 0.143645 0.807688 0.239125
O O3 0.185521 0.714789 0.292754
O O4 0.000000 0.746497 0.295087
O O5 0.316840 0.837303 0.237371
O O6 0.175213 0.903515 0.234290
O O7 0.212277 0.849426 0.000000
O O8 0.624248 0.810726 0.500000
O O9 0.500000 0.810203 0.290070
O O10 0.641514 0.745117 0.297402
O O11 0.700637 0.685371 0.500000
O O12 0.670978 0.649165 0.236909
O O13 0.500000 0.390294 0.206604
O O14 0.644651 0.449350 0.249535
O O15 0.623272 0.401433 0.000000
O O16 0.500000 0.500000 0.669059
O O17 0.352418 0.500000 0.500000
O O18 0.127866 0.933116 0.500000
O O19 0.000000 0.933105 0.702180
O O20 0.132829 0.000000 0.703657
#
# Coordination Sequence:
#
# PCOD9382527 Si02
#       7
#     8   8   8   8   8   4   8
#     4   9  18  33  50  66  89 123 160 194 225 263
#     4  11  21  30  45  71 100 125 148 182 231 280
#     4   9  18  33  51  68  89 122 162 196 223 260
#     4   9  17  29  46  68  90 115 151 190 226 264
#     4  10  19  29  42  63  93 124 150 180 222 271
#     4   9  17  29  45  63  84 115 154 191 223 258
#     4   9  18  33  52  71  91 119 155 191 226 268
#
# _framework density 15.18233
#
# number of rings (size 3 to 8) (size 9 to 14) (size 15 to 20)
#    0.000    2.538    0.000    4.385    0.000    8.000 
#    0.000    0.769    0.000    0.462    0.000    3.769 
#    0.000    4.308    0.000    0.000    0.000    0.000 
#
# Total GULP energy -289996.839895 kJ/mol
# GULP energy per Si atom -5576.862306 kJ/mol
# Density = 1.514777 g / cm^3
# Si number density = 15.182330 Si / 1000 Ang^3
#
#
#
# Elastic Constant Matrix: (Units=GPa)
#
#
# Indices 1 2 3 4 5 6 
#
# 1 109.0059 70.5766 63.9224 0.0000 0.0000 0.0000
# 2 70.5766 115.1806 76.9489 0.0000 0.0000 0.0000
# 3 63.9224 76.9489 78.4256 0.0000 0.0000 0.0000
# 4 0.0000 0.0000 0.0000 -16.6780 0.0000 0.0000
# 5 0.0000 0.0000 0.0000 0.0000 10.0467 0.0000
# 6 0.0000 0.0000 0.0000 0.0000 0.0000 20.8838
#
#
#
# Elastic Compliance Matrix: (Units=1/GPa)
#
#
# Indices 1 2 3 4 5 6 
#
# 1 0.018067 -0.003578 -0.011216 0.000000 0.000000 0.000000
# 2 -0.003578 0.025910 -0.022506 0.000000 0.000000 0.000000
# 3 -0.011216 -0.022506 0.043974 0.000000 0.000000 0.000000
# 4 0.000000 0.000000 0.000000 -0.059959 0.000000 0.000000
# 5 0.000000 0.000000 0.000000 0.000000 0.099536 0.000000
# 6 0.000000 0.000000 0.000000 0.000000 0.000000 0.047884
#
#
# Mechanical properties :
#
#
# Convention : Reuss Voigt Hill
#
# Bulk Modulus (GPa) = 74.88908 80.61201 77.75054
# Shear Modulus (GPa) = 19.64938 8.92811 14.28874
#
# Velocity S-wave (km/s) = 3.60144 2.42762 3.07113
# Velocity P-wave (km/s) = 8.16868 7.81467 7.99363
#
# Compressibility (1/GPa) = 0.01335308
#
# Stress axis : x y z
#
# Youngs Moduli (GPa) = 55.34853 38.59560 22.74054
#
# Poissons Ratio (x) = 0.13809 0.25505
# Poissons Ratio (y) = 0.19803 0.51179
# Poissons Ratio (z) = 0.62077 0.86862
#
# Static dielectric constant tensor:
#      x y z
#    x 1.497450 0.000000 0.000000 
#    y 0.000000 1.481560 0.000000 
#    z 0.000000 0.000000 1.501370 
# 
# From -- ./inp_files/7699.got.cif
#   From: 2010.05.17/outbox.cif.g08.bks.cpg/sg47_4_cif.got.tgz:7699.got - 2010.06.03 20:15:42.
