data_PCOD9382289
_publ_section_title
;
Structure prediction by ZEFSAII (Michael W. Deem and Ramdas Pophale) SiO2 
 PCOD9382289
Probable space group: P M M M
;
_chemical_formula_sum "Si O2"
_cell_formula_units_Z 48
_cell_length_a 19.646475
_cell_length_b 7.493744
_cell_length_c 15.633784
_cell_angle_alpha 90.000000
_cell_angle_beta 90.000000
_cell_angle_gamma 90.000000
_cell_volume 2301.694076
_symmetry_space_group_name_H-M "P M M M"
_symmetry_group_IT_number 47
_symmetry_cell_setting 'orthorhombic'
loop_
_space_group_symop_operation_xyz
x,y,z
-x,-y,z
x,-y,-z
-x,y,-z
-x,-y,-z
x,y,-z
-x,y,z
x,-y,z
loop_
_atom_site_type_symbol
_atom_site_label
_atom_site_fract_x
_atom_site_fract_y
_atom_site_fract_z
Si Si1 0.329046 0.208359 0.904344
Si Si2 0.822976 0.290188 0.850388
Si Si3 0.922024 0.281533 0.000000
Si Si4 0.173924 0.785319 0.345966
Si Si5 0.578295 0.781323 0.749993
Si Si6 0.921934 0.218453 0.500000
Si Si7 0.675551 0.782054 0.597396
O O1 0.251654 0.215152 0.870709
O O2 0.379640 0.282580 0.832722
O O3 0.346894 0.000000 0.911399
O O4 0.332670 0.286029 0.000000
O O5 0.816590 0.500000 0.865783
O O6 0.841423 0.261601 0.751723
O O7 0.879582 0.222959 0.916661
O O8 0.923653 0.500000 0.000000
O O9 0.000000 0.221539 0.000000
O O10 0.119324 0.723517 0.415785
O O11 0.249680 0.723432 0.371426
O O12 0.175318 0.000000 0.350976
O O13 0.500000 0.725788 0.750989
O O14 0.618812 0.725382 0.665075
O O15 0.579300 0.000000 0.750316
O O16 0.000000 0.276441 0.500000
O O17 0.921944 0.000000 0.500000
O O18 0.663515 0.725331 0.500000
O O19 0.676251 0.000000 0.597532
#
# Coordination Sequence:
#
# PCOD9382289 Si02
#       7
#     8   8   4   8   8   4   8
#     4  10  19  32  53  77 102 134 171 212 257 306
#     4  11  21  34  55  80 103 134 176 217 258 312
#     4   9  20  38  55  73 102 137 170 208 259 313
#     4  10  18  32  54  77 104 138 175 213 257 310
#     4   9  17  28  44  72 107 135 164 207 256 305
#     4   9  18  32  53  81 110 140 173 214 265 318
#     4   9  15  25  45  71  97 131 169 205 249 297
#
# _framework density 20.854205
#
# number of rings (size 3 to 8) (size 9 to 14) (size 15 to 20)
#    0.000    2.333    3.333    0.500    0.000    1.333 
#    0.000    3.750    0.000    4.500    0.000    1.167 
#    0.000    1.333    0.000    0.000    0.000    0.000 
#
# Total GULP energy -268093.140333 kJ/mol
# GULP energy per Si atom -5585.273757 kJ/mol
# Density = 2.080674 g / cm^3
# Si number density = 20.854205 Si / 1000 Ang^3
#
#
#
# Elastic Constant Matrix: (Units=GPa)
#
#
# Indices 1 2 3 4 5 6 
#
# 1 202.1362 0.4155 125.2734 0.0000 0.0000 0.0000
# 2 0.4155 55.4470 -0.8768 0.0000 0.0000 0.0000
# 3 125.2734 -0.8768 234.5092 0.0000 0.0000 0.0000
# 4 0.0000 0.0000 0.0000 -9.1265 0.0000 0.0000
# 5 0.0000 0.0000 0.0000 0.0000 34.9440 0.0000
# 6 0.0000 0.0000 0.0000 0.0000 0.0000 28.0136
#
#
#
# Elastic Compliance Matrix: (Units=1/GPa)
#
#
# Indices 1 2 3 4 5 6 
#
# 1 0.007396 -0.000118 -0.003952 0.000000 0.000000 0.000000
# 2 -0.000118 0.018038 0.000130 0.000000 0.000000 0.000000
# 3 -0.003952 0.000130 0.006376 0.000000 0.000000 0.000000
# 4 0.000000 0.000000 0.000000 -0.109571 0.000000 0.000000
# 5 0.000000 0.000000 0.000000 0.000000 0.028617 0.000000
# 6 0.000000 0.000000 0.000000 0.000000 0.000000 0.035697
#
#
# Mechanical properties :
#
#
# Convention : Reuss Voigt Hill
#
# Bulk Modulus (GPa) = 41.78484 82.41297 62.09891
# Shear Modulus (GPa) = 2075.83400 35.25157 1055.54279
#
# Velocity S-wave (km/s) = 31.58424 4.11589 22.52226
# Velocity P-wave (km/s) = 36.74460 7.88618 26.57402
#
# Compressibility (1/GPa) = 0.02393212
#
# Stress axis : x y z
#
# Youngs Moduli (GPa) = 135.20182 55.43791 156.84812
#
# Poissons Ratio (x) = 0.00654 0.61979
# Poissons Ratio (y) = 0.01594 -0.02046
# Poissons Ratio (z) = 0.53425 -0.00723
#
# Static dielectric constant tensor:
#      x y z
#    x 1.692700 0.000000 0.000000 
#    y 0.000000 1.813670 0.000000 
#    z 0.000000 0.000000 1.730410 
# 
# From -- ./inp_files/24488.got.cif
#   From: 2010.05.17/outbox.cif.g08.bks.cpg/sg47_13_cif.got.tgz:24488.got - 2010.06.03 20:15:42.
