data_PCOD9382700
_publ_section_title
;
Structure prediction by ZEFSAII (Michael W. Deem and Ramdas Pophale) SiO2 
 PCOD9382700
Probable space group: P M M M
;
_chemical_formula_sum "Si O2"
_cell_formula_units_Z 64
_cell_length_a 29.960089
_cell_length_b 14.659537
_cell_length_c 9.061422
_cell_angle_alpha 90.000000
_cell_angle_beta 90.000000
_cell_angle_gamma 90.000000
_cell_volume 3979.785905
_symmetry_space_group_name_H-M "P M M M"
_symmetry_group_IT_number 47
_symmetry_cell_setting 'orthorhombic'
loop_
_space_group_symop_operation_xyz
x,y,z
-x,-y,z
x,-y,-z
-x,y,-z
-x,-y,-z
x,y,-z
-x,y,z
x,-y,z
loop_
_atom_site_type_symbol
_atom_site_label
_atom_site_fract_x
_atom_site_fract_y
_atom_site_fract_z
Si Si1 0.450310 0.230493 0.677546
Si Si2 0.140384 0.606477 0.177497
Si Si3 0.272985 0.104191 0.177411
Si Si4 0.404986 0.393317 0.824245
Si Si5 0.689332 0.390570 0.328028
Si Si6 0.951023 0.610487 0.326842
Si Si7 0.633202 0.107476 0.675835
Si Si8 0.228822 0.713171 0.178193
O O1 0.447905 0.239654 0.500000
O O2 0.500000 0.196659 0.714472
O O3 0.441075 0.327366 0.752314
O O4 0.410001 0.164196 0.723803
O O5 0.147545 0.500000 0.221971
O O6 0.093165 0.639694 0.241463
O O7 0.182018 0.668530 0.224645
O O8 0.138090 0.607843 0.000000
O O9 0.320803 0.132682 0.244013
O O10 0.236648 0.180692 0.216835
O O11 0.263424 0.000000 0.226017
O O12 0.276785 0.103381 0.000000
O O13 0.413503 0.500000 0.792860
O O14 0.357089 0.369096 0.753065
O O15 0.403126 0.381394 0.000000
O O16 0.686245 0.364481 0.500000
O O17 0.695372 0.500000 0.319566
O O18 0.730653 0.342115 0.250426
O O19 0.947285 0.633050 0.500000
O O20 0.951544 0.500000 0.316241
O O21 0.000000 0.642214 0.273363
O O22 0.639068 0.120403 0.500000
O O23 0.625689 0.000000 0.702522
O O24 0.231736 0.704679 0.000000
#
# Coordination Sequence:
#
# PCOD9382700 Si02
#       8
#     8   8   8   8   8   8   8   8
#     4  10  21  35  51  72  95 117 142 175 216 260
#     4   9  17  27  39  59  88 120 153 187 222 262
#     4   9  18  32  49  68  89 115 148 183 219 261
#     4  10  21  36  52  68  88 117 151 184 217 255
#     4  10  20  32  47  68  92 118 149 183 218 259
#     4   8  14  25  40  57  80 114 154 191 225 262
#     4   9  18  33  52  72  93 116 142 174 214 262
#     4  10  19  30  45  65  92 124 153 184 224 267
#
# _framework density 16.081267
#
# number of rings (size 3 to 8) (size 9 to 14) (size 15 to 20)
#    0.000    2.625    0.000    2.250    0.000    6.500 
#    0.000    5.000    0.000    0.000    0.000    2.625 
#    0.000    0.500    0.000    6.250    0.000    1.250 
#
# Total GULP energy -356799.667400 kJ/mol
# GULP energy per Si atom -5574.994803 kJ/mol
# Density = 1.604466 g / cm^3
# Si number density = 16.081267 Si / 1000 Ang^3
#
#
#
# Elastic Constant Matrix: (Units=GPa)
#
#
# Indices 1 2 3 4 5 6 
#
# 1 114.2965 60.4707 24.0424 0.0000 0.0000 0.0000
# 2 60.4707 60.7576 21.3963 0.0000 0.0000 0.0000
# 3 24.0424 21.3963 10.7048 0.0000 0.0000 0.0000
# 4 0.0000 0.0000 0.0000 16.5656 0.0000 0.0000
# 5 0.0000 0.0000 0.0000 0.0000 26.8438 0.0000
# 6 0.0000 0.0000 0.0000 0.0000 0.0000 18.6175
#
#
#
# Elastic Compliance Matrix: (Units=1/GPa)
#
#
# Indices 1 2 3 4 5 6 
#
# 1 0.019331 -0.013340 -0.016753 0.000000 0.000000 0.000000
# 2 -0.013340 0.064788 -0.099535 0.000000 0.000000 0.000000
# 3 -0.016753 -0.099535 0.329989 0.000000 0.000000 0.000000
# 4 0.000000 0.000000 0.000000 0.060366 0.000000 0.000000
# 5 0.000000 0.000000 0.000000 0.000000 0.037253 0.000000
# 6 0.000000 0.000000 0.000000 0.000000 0.000000 0.053713
#
#
# Mechanical properties :
#
#
# Convention : Reuss Voigt Hill
#
# Bulk Modulus (GPa) = 6.45776 44.17530 25.31653
# Shear Modulus (GPa) = 5.70574 17.72869 11.71721
#
# Velocity S-wave (km/s) = 1.88567 3.32391 2.70223
# Velocity P-wave (km/s) = 2.96065 6.50083 5.05105
#
# Compressibility (1/GPa) = 0.15485256
#
# Stress axis : x y z
#
# Youngs Moduli (GPa) = 51.73070 15.43504 3.03041
#
# Poissons Ratio (x) = 0.20590 0.05077
# Poissons Ratio (y) = 0.69008 0.30163
# Poissons Ratio (z) = 0.86664 1.53632
#
# Static dielectric constant tensor:
#      x y z
#    x 1.530030 0.000000 0.000000 
#    y 0.000000 1.550840 0.000000 
#    z 0.000000 0.000000 1.535630 
# 
# From -- ./inp_files/8336.got.cif
#   From: 2010.05.17/outbox.cif.g08.bks.cpg/sg47_5_cif.got.tgz:8336.got - 2010.06.03 20:15:42.
