data_PCOD9382225
_publ_section_title
;
Structure prediction by ZEFSAII (Michael W. Deem and Ramdas Pophale) SiO2 
 PCOD9382225
Probable space group: P M M M
;
_chemical_formula_sum "Si O2"
_cell_formula_units_Z 52
_cell_length_a 8.593049
_cell_length_b 12.048844
_cell_length_c 29.292241
_cell_angle_alpha 90.000000
_cell_angle_beta 90.000000
_cell_angle_gamma 90.000000
_cell_volume 3032.810454
_symmetry_space_group_name_H-M "P M M M"
_symmetry_group_IT_number 47
_symmetry_cell_setting 'orthorhombic'
loop_
_space_group_symop_operation_xyz
x,y,z
-x,-y,z
x,-y,-z
-x,y,-z
-x,-y,-z
x,y,-z
-x,y,z
x,-y,z
loop_
_atom_site_type_symbol
_atom_site_label
_atom_site_fract_x
_atom_site_fract_y
_atom_site_fract_z
Si Si1 0.176807 0.000000 0.845941
Si Si2 0.182573 0.775001 0.903831
Si Si3 0.185398 0.634309 0.450855
Si Si4 0.813784 0.239627 0.737843
Si Si5 0.809342 0.130352 0.000000
Si Si6 0.314235 0.627931 0.174773
Si Si7 0.679609 0.000000 0.750851
Si Si8 0.190184 0.628937 0.351623
O O1 0.192194 0.109128 0.876334
O O2 0.299184 0.000000 0.805581
O O3 0.000000 0.000000 0.826203
O O4 0.266097 0.683164 0.873227
O O5 0.000000 0.745130 0.906955
O O6 0.240662 0.804699 0.954482
O O7 0.250567 0.672777 0.500000
O O8 0.199465 0.500000 0.450091
O O9 0.245343 0.672094 0.401349
O O10 0.000000 0.657758 0.451597
O O11 0.752765 0.298776 0.783711
O O12 0.758522 0.303973 0.692600
O O13 0.000000 0.243912 0.739518
O O14 0.759662 0.113034 0.735086
O O15 0.000000 0.127938 0.000000
O O16 0.761391 0.000000 0.000000
O O17 0.500000 0.629244 0.178443
O O18 0.259964 0.500000 0.178107
O O19 0.500000 0.000000 0.738154
O O20 0.235011 0.500000 0.346874
O O21 0.000000 0.631586 0.352594
#
# Coordination Sequence:
#
# PCOD9382225 Si02
#       8
#     4   8   8   8   4   8   4   8
#     4  10  18  31  54  82 104 128 160 200 247 295
#     4  10  19  33  57  83 107 131 163 204 249 300
#     4   7   9  15  30  55  90 128 159 189 234 292
#     4  11  21  34  53  75 100 130 168 210 250 296
#     4   9  16  30  54  85 110 128 155 202 257 298
#     4  11  24  39  53  72 102 138 173 207 247 297
#     4  12  24  36  51  73 102 132 163 205 253 300
#     4   8  14  24  40  66  98 130 163 199 241 291
#
# _framework density 17.145811999999999
#
# number of rings (size 3 to 8) (size 9 to 14) (size 15 to 20)
#    0.000    2.385    2.308    3.462    0.000    1.846 
#    0.000    0.769    0.000    2.769    0.000    0.538 
#    0.000    6.769    0.000   17.385    0.000   14.154 
#
# Total GULP energy -289745.306362 kJ/mol
# GULP energy per Si atom -5572.025122 kJ/mol
# Density = 1.710679 g / cm^3
# Si number density = 17.145812 Si / 1000 Ang^3
#
#
#
# Elastic Constant Matrix: (Units=GPa)
#
#
# Indices 1 2 3 4 5 6 
#
# 1 23.9053 20.8654 20.2518 0.0000 0.0000 0.0000
# 2 20.8654 101.0032 60.8385 0.0000 0.0000 0.0000
# 3 20.2518 60.8385 159.9715 0.0000 0.0000 0.0000
# 4 0.0000 0.0000 0.0000 16.2667 0.0000 0.0000
# 5 0.0000 0.0000 0.0000 0.0000 -11.2560 0.0000
# 6 0.0000 0.0000 0.0000 0.0000 0.0000 9.8899
#
#
#
# Elastic Compliance Matrix: (Units=1/GPa)
#
#
# Indices 1 2 3 4 5 6 
#
# 1 0.052312 -0.008843 -0.003259 0.000000 0.000000 0.000000
# 2 -0.008843 0.014338 -0.004333 0.000000 0.000000 0.000000
# 3 -0.003259 -0.004333 0.008312 0.000000 0.000000 0.000000
# 4 0.000000 0.000000 0.000000 0.061475 0.000000 0.000000
# 5 0.000000 0.000000 0.000000 0.000000 -0.088842 0.000000
# 6 0.000000 0.000000 0.000000 0.000000 0.000000 0.101113
#
#
# Mechanical properties :
#
#
# Convention : Reuss Voigt Hill
#
# Bulk Modulus (GPa) = 23.75898 54.31014 39.03456
# Shear Modulus (GPa) = 25.56114 15.17507 20.36811
#
# Velocity S-wave (km/s) = 3.86529 2.97822 3.45038
# Velocity P-wave (km/s) = 5.81444 6.60081 6.22006
#
# Compressibility (1/GPa) = 0.04208936
#
# Stress axis : x y z
#
# Youngs Moduli (GPa) = 19.11614 69.74657 120.31285
#
# Poissons Ratio (x) = 0.61680 0.39213
# Poissons Ratio (y) = 0.16905 0.52134
# Poissons Ratio (z) = 0.06230 0.30222
#
# Static dielectric constant tensor:
#      x y z
#    x 1.583390 0.000000 0.000000 
#    y 0.000000 1.563920 0.000000 
#    z 0.000000 0.000000 1.617240 
# 
# From -- ./inp_files/34346.got.cif
#   From: 2010.05.17/outbox.cif.g08.bks.cpg/sg47_18_cif.got.tgz:34346.got - 2010.06.03 20:15:42.
