data_PCOD9382259
_publ_section_title
;
Structure prediction by ZEFSAII (Michael W. Deem and Ramdas Pophale) SiO2 
 PCOD9382259
Probable space group: P M M M
;
_chemical_formula_sum "Si O2"
_cell_formula_units_Z 52
_cell_length_a 7.430613
_cell_length_b 16.538878
_cell_length_c 18.395078
_cell_angle_alpha 90.000000
_cell_angle_beta 90.000000
_cell_angle_gamma 90.000000
_cell_volume 2260.644750
_symmetry_space_group_name_H-M "P M M M"
_symmetry_group_IT_number 47
_symmetry_cell_setting 'orthorhombic'
loop_
_space_group_symop_operation_xyz
x,y,z
-x,-y,z
x,-y,-z
-x,y,-z
-x,-y,-z
x,y,-z
-x,y,z
x,-y,z
loop_
_atom_site_type_symbol
_atom_site_label
_atom_site_fract_x
_atom_site_fract_y
_atom_site_fract_z
Si Si1 0.793336 0.251887 0.921592
Si Si2 0.292728 0.369753 0.192672
Si Si3 0.282742 0.909841 0.142430
Si Si4 0.279544 0.500000 0.918817
Si Si5 0.719304 0.092484 0.690111
Si Si6 0.720134 0.592528 0.354225
Si Si7 0.280581 0.764063 0.417857
O O1 0.710929 0.283414 0.845839
O O2 0.783361 0.156301 0.913331
O O3 0.000000 0.276671 0.921337
O O4 0.713144 0.278038 0.000000
O O5 0.500000 0.393861 0.201428
O O6 0.218338 0.424706 0.128519
O O7 0.217292 0.386233 0.271922
O O8 0.500000 0.907286 0.142208
O O9 0.225483 0.894170 0.226139
O O10 0.225800 0.000000 0.123602
O O11 0.500000 0.500000 0.922681
O O12 0.212819 0.500000 0.000000
O O13 0.500000 0.092993 0.688772
O O14 0.778907 0.166356 0.638584
O O15 0.772689 0.000000 0.669166
O O16 0.500000 0.591690 0.356887
O O17 0.775696 0.500000 0.373088
O O18 0.775907 0.671675 0.399734
O O19 0.228046 0.784634 0.500000
O O20 0.500000 0.763473 0.414419
#
# Coordination Sequence:
#
# PCOD9382259 Si02
#       7
#     8   8   8   4   8   8   8
#     4  11  24  37  48  69 103 137 164 196 249 310
#     4  10  18  32  53  73  93 123 166 213 252 292
#     4   9  18  34  56  77  95 124 170 216 252 289
#     4   9  16  26  45  73  94 110 148 207 257 293
#     4   8  14  26  44  67  94 123 160 205 246 286
#     4   9  16  27  44  66  91 122 165 213 256 294
#     4   9  16  23  34  59  97 138 169 191 231 297
#
# _framework density 23.002286000000002
#
# number of rings (size 3 to 8) (size 9 to 14) (size 15 to 20)
#    0.000    2.692    0.769    2.769    0.000    5.538 
#    0.000    5.000    0.000    1.385    0.000    0.000 
#    0.000    9.846    0.000   19.077    0.000   19.692 
#
# Total GULP energy -290043.312858 kJ/mol
# GULP energy per Si atom -5577.756017 kJ/mol
# Density = 2.294993 g / cm^3
# Si number density = 23.002286 Si / 1000 Ang^3
#
#
#
# Elastic Constant Matrix: (Units=GPa)
#
#
# Indices 1 2 3 4 5 6 
#
# 1 71.4395 -1.1855 1.5557 0.0000 0.0000 0.0000
# 2 -1.1855 127.4972 26.7493 0.0000 0.0000 0.0000
# 3 1.5557 26.7493 43.9808 0.0000 0.0000 0.0000
# 4 0.0000 0.0000 0.0000 40.4403 0.0000 0.0000
# 5 0.0000 0.0000 0.0000 0.0000 -0.8060 0.0000
# 6 0.0000 0.0000 0.0000 0.0000 0.0000 -31.1784
#
#
#
# Elastic Compliance Matrix: (Units=1/GPa)
#
#
# Indices 1 2 3 4 5 6 
#
# 1 0.014017 0.000269 -0.000659 0.000000 0.000000 0.000000
# 2 0.000269 0.008996 -0.005481 0.000000 0.000000 0.000000
# 3 -0.000659 -0.005481 0.026094 0.000000 0.000000 0.000000
# 4 0.000000 0.000000 0.000000 0.024728 0.000000 0.000000
# 5 0.000000 0.000000 0.000000 0.000000 -1.240664 0.000000
# 6 0.000000 0.000000 0.000000 0.000000 0.000000 -0.032073
#
#
# Mechanical properties :
#
#
# Convention : Reuss Voigt Hill
#
# Bulk Modulus (GPa) = 26.76392 33.01738 29.89065
# Shear Modulus (GPa) = -4.25638 16.07769 5.91065
#
# Velocity S-wave (km/s) = -1.36178 2.64665 1.60473
# Velocity P-wave (km/s) = 3.03117 4.87081 4.05665
#
# Compressibility (1/GPa) = 0.03736373
#
# Stress axis : x y z
#
# Youngs Moduli (GPa) = 71.34362 111.16450 38.32312
#
# Poissons Ratio (x) = -0.02986 0.02526
# Poissons Ratio (y) = -0.01916 0.21004
# Poissons Ratio (z) = 0.04703 0.60926
#
# Static dielectric constant tensor:
#      x y z
#    x 1.946890 0.000000 0.000000 
#    y 0.000000 2.034230 0.000000 
#    z 0.000000 0.000000 1.823100 
# 
# From -- ./inp_files/26743.got.cif
#   From: 2010.05.17/outbox.cif.g08.bks.cpg/sg47_14_cif.got.tgz:26743.got - 2010.06.03 20:15:42.
