data_PCOD9382326
_publ_section_title
;
Structure prediction by ZEFSAII (Michael W. Deem and Ramdas Pophale) SiO2 
 PCOD9382326
Probable space group: P M M M
;
_chemical_formula_sum "Si O2"
_cell_formula_units_Z 64
_cell_length_a 16.066824
_cell_length_b 7.770144
_cell_length_c 24.554344
_cell_angle_alpha 90.000000
_cell_angle_beta 90.000000
_cell_angle_gamma 90.000000
_cell_volume 3065.402023
_symmetry_space_group_name_H-M "P M M M"
_symmetry_group_IT_number 47
_symmetry_cell_setting 'orthorhombic'
loop_
_space_group_symop_operation_xyz
x,y,z
-x,-y,z
x,-y,-z
-x,y,-z
-x,-y,-z
x,y,-z
-x,y,z
x,-y,z
loop_
_atom_site_type_symbol
_atom_site_label
_atom_site_fract_x
_atom_site_fract_y
_atom_site_fract_z
Si Si1 0.248627 0.793190 0.938184
Si Si2 0.847423 0.708044 0.750699
Si Si3 0.408148 0.707611 0.866425
Si Si4 0.408340 0.797090 0.630188
Si Si5 0.345630 0.291614 0.748913
Si Si6 0.907614 0.289288 0.367433
Si Si7 0.247314 0.704646 0.561281
Si Si8 0.908476 0.795051 0.130313
O O1 0.333435 0.756476 0.906084
O O2 0.169135 0.725213 0.904404
O O3 0.240859 0.000000 0.940497
O O4 0.250560 0.727561 0.000000
O O5 0.848496 0.500000 0.751570
O O6 0.750906 0.763158 0.749402
O O7 0.890973 0.764089 0.694923
O O8 0.890000 0.768377 0.805960
O O9 0.500000 0.768165 0.883272
O O10 0.409706 0.500000 0.864746
O O11 0.387996 0.766937 0.804909
O O12 0.500000 0.724597 0.617084
O O13 0.389373 0.767990 0.693898
O O14 0.331922 0.727604 0.595030
O O15 0.410393 0.000000 0.620192
O O16 0.347004 0.500000 0.748127
O O17 0.905744 0.500000 0.367582
O O18 0.831969 0.227226 0.405067
O O19 0.000000 0.236670 0.385105
O O20 0.253296 0.774913 0.500000
O O21 0.234159 0.500000 0.557145
O O22 0.000000 0.724349 0.116693
O O23 0.911018 0.000000 0.120699
#
# Coordination Sequence:
#
# PCOD9382326 Si02
#       8
#     8   8   8   8   8   8   8   8
#     4  10  22  39  57  78 107 146 191 235 277 324
#     4  10  18  32  57  84 112 145 178 220 275 332
#     4  10  21  37  58  84 112 144 181 224 279 337
#     4  11  24  39  57  83 114 148 184 226 280 336
#     4  10  19  35  60  86 113 144 180 224 273 330
#     4   9  17  31  53  83 115 143 175 219 271 325
#     4  10  21  38  59  82 109 146 193 237 276 323
#     4  10  21  36  55  81 112 145 183 228 276 327
#
# _framework density 20.878174000000001
#
# number of rings (size 3 to 8) (size 9 to 14) (size 15 to 20)
#    0.000    2.000    2.500    1.125    0.000    5.000 
#    0.000    5.000    0.000    0.375    0.000    2.625 
#    0.000    0.000    0.000    0.000    0.000    0.000 
#
# Total GULP energy -357506.826964 kJ/mol
# GULP energy per Si atom -5586.044171 kJ/mol
# Density = 2.083065 g / cm^3
# Si number density = 20.878174 Si / 1000 Ang^3
#
#
#
# Elastic Constant Matrix: (Units=GPa)
#
#
# Indices 1 2 3 4 5 6 
#
# 1 216.8212 5.4961 101.2180 0.0000 0.0000 0.0000
# 2 5.4961 26.4282 1.5015 0.0000 0.0000 0.0000
# 3 101.2180 1.5015 168.1350 0.0000 0.0000 0.0000
# 4 0.0000 0.0000 0.0000 22.7714 0.0000 0.0000
# 5 0.0000 0.0000 0.0000 0.0000 -1.6421 0.0000
# 6 0.0000 0.0000 0.0000 0.0000 0.0000 23.1510
#
#
#
# Elastic Compliance Matrix: (Units=1/GPa)
#
#
# Indices 1 2 3 4 5 6 
#
# 1 0.006448 -0.001121 -0.003872 0.000000 0.000000 0.000000
# 2 -0.001121 0.038052 0.000335 0.000000 0.000000 0.000000
# 3 -0.003872 0.000335 0.008275 0.000000 0.000000 0.000000
# 4 0.000000 0.000000 0.000000 0.043915 0.000000 0.000000
# 5 0.000000 0.000000 0.000000 0.000000 -0.608965 0.000000
# 6 0.000000 0.000000 0.000000 0.000000 0.000000 0.043195
#
#
# Mechanical properties :
#
#
# Convention : Reuss Voigt Hill
#
# Bulk Modulus (GPa) = 23.00939 69.75730 46.38334
# Shear Modulus (GPa) = -11.22894 29.06730 8.91918
#
# Velocity S-wave (km/s) = -2.32164 3.73531 2.06913
# Velocity P-wave (km/s) = 1.96419 7.21717 5.28893
#
# Compressibility (1/GPa) = 0.04346052
#
# Stress axis : x y z
#
# Youngs Moduli (GPa) = 155.08911 26.27949 120.84056
#
# Poissons Ratio (x) = 0.02946 0.46785
# Poissons Ratio (y) = 0.17385 -0.04048
# Poissons Ratio (z) = 0.60045 -0.00880
#
# Static dielectric constant tensor:
#      x y z
#    x 1.754480 0.000000 0.000000 
#    y 0.000000 1.782010 0.000000 
#    z 0.000000 0.000000 1.711920 
# 
# From -- ./inp_files/7843.got.cif
#   From: 2010.05.17/outbox.cif.g08.bks.cpg/sg47_4_cif.got.tgz:7843.got - 2010.06.03 20:15:42.
