data_PCOD9382579
_publ_section_title
;
Structure prediction by ZEFSAII (Michael W. Deem and Ramdas Pophale) SiO2 
 PCOD9382579
Probable space group: P M M M
;
_chemical_formula_sum "Si O2"
_cell_formula_units_Z 64
_cell_length_a 14.826824
_cell_length_b 21.557888
_cell_length_c 9.530037
_cell_angle_alpha 90.000000
_cell_angle_beta 90.000000
_cell_angle_gamma 90.000000
_cell_volume 3046.133483
_symmetry_space_group_name_H-M "P M M M"
_symmetry_group_IT_number 47
_symmetry_cell_setting 'orthorhombic'
loop_
_space_group_symop_operation_xyz
x,y,z
-x,-y,z
x,-y,-z
-x,y,-z
-x,-y,-z
x,y,-z
-x,y,z
x,-y,z
loop_
_atom_site_type_symbol
_atom_site_label
_atom_site_fract_x
_atom_site_fract_y
_atom_site_fract_z
Si Si1 0.358915 0.186186 0.160027
Si Si2 0.861983 0.930147 0.662226
Si Si3 0.391808 0.565694 0.662542
Si Si4 0.891202 0.570148 0.838796
Si Si5 0.357630 0.069602 0.660903
Si Si6 0.644171 0.300964 0.659078
Si Si7 0.861990 0.189512 0.838145
Si Si8 0.142660 0.307592 0.659004
O O1 0.387625 0.123145 0.235655
O O2 0.390965 0.245071 0.248500
O O3 0.248423 0.188105 0.161270
O O4 0.387763 0.188858 0.000000
O O5 0.888974 0.920096 0.500000
O O6 0.752198 0.930198 0.663045
O O7 0.891103 0.873548 0.760028
O O8 0.890006 0.000000 0.704342
O O9 0.358868 0.567551 0.500000
O O10 0.500000 0.563897 0.657264
O O11 0.360747 0.500000 0.725140
O O12 0.368405 0.631407 0.727309
O O13 0.862253 0.500000 0.797223
O O14 0.865900 0.626222 0.736233
O O15 0.000000 0.569291 0.841662
O O16 0.860572 0.581588 0.000000
O O17 0.384268 0.082403 0.500000
O O18 0.386624 0.000000 0.698185
O O19 0.606635 0.300765 0.500000
O O20 0.751220 0.293666 0.646832
O O21 0.892602 0.250671 0.753390
O O22 0.890406 0.191713 0.000000
O O23 0.106220 0.309423 0.500000
#
# Coordination Sequence:
#
# PCOD9382579 Si02
#       8
#     8   8   8   8   8   8   8   8
#     4   9  16  24  35  53  79 111 145 180 216 256
#     4   8  13  21  33  50  75 108 144 181 221 263
#     4   8  14  26  45  67  88 111 143 183 222 259
#     4   9  19  36  54  69  88 116 147 179 218 264
#     4   8  13  21  33  49  72 105 142 177 215 259
#     4   9  17  28  43  64  90 118 146 180 222 264
#     4   9  16  25  37  54  80 114 149 183 218 259
#     4  10  19  29  44  67  93 119 147 182 223 265
#
# _framework density 21.01024
#
# number of rings (size 3 to 8) (size 9 to 14) (size 15 to 20)
#    0.000    3.250    0.000    2.625    0.000    5.000 
#    0.000    4.375    0.000    0.750    0.000    0.875 
#    0.000    1.000    0.000   11.000    0.000   14.625 
#
# Total GULP energy -356864.180260 kJ/mol
# GULP energy per Si atom -5576.002817 kJ/mol
# Density = 2.096242 g / cm^3
# Si number density = 21.010240 Si / 1000 Ang^3
#
#
#
# Elastic Constant Matrix: (Units=GPa)
#
#
# Indices 1 2 3 4 5 6 
#
# 1 55.1722 1.2824 4.7409 0.0000 0.0000 0.0000
# 2 1.2824 230.3001 141.7937 0.0000 0.0000 0.0000
# 3 4.7409 141.7937 149.1810 0.0000 0.0000 0.0000
# 4 0.0000 0.0000 0.0000 24.0192 0.0000 0.0000
# 5 0.0000 0.0000 0.0000 0.0000 -10.0991 0.0000
# 6 0.0000 0.0000 0.0000 0.0000 0.0000 75.3443
#
#
#
# Elastic Compliance Matrix: (Units=1/GPa)
#
#
# Indices 1 2 3 4 5 6 
#
# 1 0.018211 0.000615 -0.001163 0.000000 0.000000 0.000000
# 2 0.000615 0.010489 -0.009989 0.000000 0.000000 0.000000
# 3 -0.001163 -0.009989 0.016235 0.000000 0.000000 0.000000
# 4 0.000000 0.000000 0.000000 0.041633 0.000000 0.000000
# 5 0.000000 0.000000 0.000000 0.000000 -0.099019 0.000000
# 6 0.000000 0.000000 0.000000 0.000000 0.000000 0.013272
#
#
# Mechanical properties :
#
#
# Convention : Reuss Voigt Hill
#
# Bulk Modulus (GPa) = 41.91191 81.14303 61.52747
# Shear Modulus (GPa) = 167.51000 36.97530 102.24265
#
# Velocity S-wave (km/s) = 8.93873 4.19963 6.98347
# Velocity P-wave (km/s) = 11.24838 7.88799 9.71459
#
# Compressibility (1/GPa) = 0.02385956
#
# Stress axis : x y z
#
# Youngs Moduli (GPa) = 54.91276 95.33900 61.59685
#
# Poissons Ratio (x) = -0.05859 0.07163
# Poissons Ratio (y) = -0.03375 0.61529
# Poissons Ratio (z) = 0.06385 0.95234
#
# Static dielectric constant tensor:
#      x y z
#    x 1.808550 0.000000 0.000000 
#    y 0.000000 1.755770 0.000000 
#    z 0.000000 0.000000 1.720660 
# 
# From -- ./inp_files/11831.got.cif
#   From: 2010.05.17/outbox.cif.g08.bks.cpg/sg47_6_cif.got.tgz:11831.got - 2010.06.03 20:15:42.
