data_PCOD9382103
_publ_section_title
;
Structure prediction by ZEFSAII (Michael W. Deem and Ramdas Pophale) SiO2 
 PCOD9382103
Probable space group: P M M M
;
_chemical_formula_sum "Si O2"
_cell_formula_units_Z 64
_cell_length_a 22.262130
_cell_length_b 8.574292
_cell_length_c 19.295352
_cell_angle_alpha 90.000000
_cell_angle_beta 90.000000
_cell_angle_gamma 90.000000
_cell_volume 3683.135441
_symmetry_space_group_name_H-M "P M M M"
_symmetry_group_IT_number 47
_symmetry_cell_setting 'orthorhombic'
loop_
_space_group_symop_operation_xyz
x,y,z
-x,-y,z
x,-y,-z
-x,y,-z
-x,-y,-z
x,y,-z
-x,y,z
x,-y,z
loop_
_atom_site_type_symbol
_atom_site_label
_atom_site_fract_x
_atom_site_fract_y
_atom_site_fract_z
Si Si1 0.933849 0.186063 0.130842
Si Si2 0.568990 0.187442 0.578043
Si Si3 0.764014 0.309806 0.222028
Si Si4 0.669780 0.679085 0.325109
Si Si5 0.095538 0.183126 0.423254
Si Si6 0.810900 0.312343 0.924150
Si Si7 0.239855 0.825501 0.579161
Si Si8 0.104840 0.686340 0.723538
O O1 0.879680 0.266195 0.090367
O O2 0.927684 0.234711 0.211462
O O3 0.000000 0.231409 0.105723
O O4 0.927593 0.000000 0.125353
O O5 0.586293 0.241904 0.500000
O O6 0.500000 0.237179 0.590263
O O7 0.614200 0.240477 0.637448
O O8 0.569737 0.000000 0.576321
O O9 0.762375 0.500000 0.223081
O O10 0.702110 0.254354 0.256442
O O11 0.774572 0.256546 0.143339
O O12 0.824456 0.267070 0.265359
O O13 0.653987 0.500000 0.313359
O O14 0.725135 0.696309 0.378802
O O15 0.075689 0.240764 0.500000
O O16 0.168302 0.193119 0.422921
O O17 0.079141 0.265439 0.351335
O O18 0.079506 0.000000 0.419294
O O19 0.806979 0.500000 0.924003
O O20 0.791984 0.254965 0.000000
O O21 0.261009 0.822843 0.500000
O O22 0.253270 0.000000 0.607300
O O23 0.101462 0.500000 0.730779
#
# Coordination Sequence:
#
# PCOD9382103 Si02
#       8
#     8   8   8   8   8   8   8   8
#     4  10  21  35  51  72  97 125 157 193 234 280
#     4   9  19  35  49  60  83 124 170 210 245 282
#     4   8  16  29  43  66  96 121 147 183 231 280
#     4  11  19  27  42  65  93 120 152 197 240 279
#     4   9  17  28  42  62  89 120 153 189 232 283
#     4   9  18  34  55  75  98 129 160 188 222 273
#     4   9  17  27  38  56  85 119 153 186 221 268
#     4  10  18  31  49  67  92 123 156 196 239 285
#
# _framework density 17.376498999999999
#
# number of rings (size 3 to 8) (size 9 to 14) (size 15 to 20)
#    0.000    2.625    1.250    3.375    0.000    4.000 
#    0.000    3.750    0.000    0.375    0.000    2.625 
#    0.000    0.500    0.000    6.250    0.000    1.000 
#
# Total GULP energy -356604.453392 kJ/mol
# GULP energy per Si atom -5571.944584 kJ/mol
# Density = 1.733695 g / cm^3
# Si number density = 17.376499 Si / 1000 Ang^3
#
#
#
# Elastic Constant Matrix: (Units=GPa)
#
#
# Indices 1 2 3 4 5 6 
#
# 1 77.0810 6.8384 32.7202 0.0000 0.0000 0.0000
# 2 6.8384 6.1976 7.5181 0.0000 0.0000 0.0000
# 3 32.7202 7.5181 113.8744 0.0000 0.0000 0.0000
# 4 0.0000 0.0000 0.0000 10.1231 0.0000 0.0000
# 5 0.0000 0.0000 0.0000 0.0000 7.1214 0.0000
# 6 0.0000 0.0000 0.0000 0.0000 0.0000 10.8577
#
#
#
# Elastic Compliance Matrix: (Units=1/GPa)
#
#
# Indices 1 2 3 4 5 6 
#
# 1 0.015664 -0.012853 -0.003652 0.000000 0.000000 0.000000
# 2 -0.012853 0.185948 -0.008583 0.000000 0.000000 0.000000
# 3 -0.003652 -0.008583 0.010398 0.000000 0.000000 0.000000
# 4 0.000000 0.000000 0.000000 0.098784 0.000000 0.000000
# 5 0.000000 0.000000 0.000000 0.000000 0.140422 0.000000
# 6 0.000000 0.000000 0.000000 0.000000 0.000000 0.092101
#
#
# Mechanical properties :
#
#
# Convention : Reuss Voigt Hill
#
# Bulk Modulus (GPa) = 6.17923 32.36738 19.27331
# Shear Modulus (GPa) = 7.72273 15.62551 11.67412
#
# Velocity S-wave (km/s) = 2.11045 3.00197 2.59479
# Velocity P-wave (km/s) = 3.08261 5.53925 4.48251
#
# Compressibility (1/GPa) = 0.16183234
#
# Stress axis : x y z
#
# Youngs Moduli (GPa) = 63.84061 5.37784 96.17506
#
# Poissons Ratio (x) = 0.06912 0.35125
# Poissons Ratio (y) = 0.82056 0.82551
# Poissons Ratio (z) = 0.23316 0.04616
#
# Static dielectric constant tensor:
#      x y z
#    x 1.603300 0.000000 0.000000 
#    y 0.000000 1.605040 0.000000 
#    z 0.000000 0.000000 1.634060 
# 
# From -- ./inp_files/31577.got.cif
#   From: 2010.05.17/outbox.cif.g08.bks.cpg/sg47_16_cif.got.tgz:31577.got - 2010.06.03 20:15:42.
