data_PCOD9382836
_publ_section_title
;
Structure prediction by ZEFSAII (Michael W. Deem and Ramdas Pophale) SiO2 
 PCOD9382836
Probable space group: P M M M
;
_chemical_formula_sum "Si O2"
_cell_formula_units_Z 44
_cell_length_a 8.221547
_cell_length_b 7.246000
_cell_length_c 32.537342
_cell_angle_alpha 90.000000
_cell_angle_beta 90.000000
_cell_angle_gamma 90.000000
_cell_volume 1938.357798
_symmetry_space_group_name_H-M "P M M M"
_symmetry_group_IT_number 47
_symmetry_cell_setting 'orthorhombic'
loop_
_space_group_symop_operation_xyz
x,y,z
-x,-y,z
x,-y,-z
-x,y,-z
-x,-y,-z
x,y,-z
-x,y,z
x,-y,z
loop_
_atom_site_type_symbol
_atom_site_label
_atom_site_fract_x
_atom_site_fract_y
_atom_site_fract_z
Si Si1 0.500000 0.783019 0.693249
Si Si2 0.500000 0.278611 0.596427
Si Si3 0.818178 0.275706 0.452197
Si Si4 0.195795 0.221510 0.000000
Si Si5 0.177024 0.774992 0.261555
Si Si6 0.191014 0.224326 0.088857
Si Si7 0.316319 0.224013 0.176512
O O1 0.500000 0.763049 0.644495
O O2 0.667099 0.710333 0.712837
O O3 0.500000 0.000000 0.703537
O O4 0.500000 0.500000 0.591887
O O5 0.334455 0.212269 0.574623
O O6 0.796917 0.223518 0.500000
O O7 0.818125 0.500000 0.451160
O O8 0.000000 0.217562 0.438842
O O9 0.257077 0.287468 0.044400
O O10 0.000000 0.253581 0.000000
O O11 0.217852 0.000000 0.000000
O O12 0.201857 0.720353 0.213959
O O13 0.000000 0.715480 0.276744
O O14 0.177536 0.000000 0.262567
O O15 0.272697 0.287942 0.130826
O O16 0.000000 0.270470 0.090904
O O17 0.201368 0.000000 0.088508
O O18 0.500000 0.276222 0.187104
O O19 0.309910 0.000000 0.175169
#
# Coordination Sequence:
#
# PCOD9382836 Si02
#       7
#     4   4   8   4   8   8   8
#     4  10  20  33  45  63  90 117 148 184 220 265
#     4  10  19  30  48  72  96 122 151 183 221 261
#     4   8  14  26  46  72  98 122 152 189 221 250
#     4   7  10  16  23  31  47  71 101 139 183 237
#     4   9  16  27  42  56  73 101 136 175 218 258
#     4   8  12  17  25  36  50  73 106 144 191 243
#     4   9  14  20  30  45  63  82 112 160 208 246
#
# _framework density 22.699625000000001
#
# number of rings (size 3 to 8) (size 9 to 14) (size 15 to 20)
#    0.000    3.364    0.909    2.455    0.000    4.000 
#    0.000    0.455    0.000    3.818    0.000    1.273 
#    0.000    0.000    0.000    0.000    0.000    0.000 
#
# Total GULP energy -245544.166882 kJ/mol
# GULP energy per Si atom -5580.549247 kJ/mol
# Density = 2.264796 g / cm^3
# Si number density = 22.699625 Si / 1000 Ang^3
#
#
#
# Elastic Constant Matrix: (Units=GPa)
#
#
# Indices 1 2 3 4 5 6 
#
# 1 183.2724 6.9955 106.9385 0.0000 0.0000 0.0000
# 2 6.9955 101.9804 -3.5078 0.0000 0.0000 0.0000
# 3 106.9385 -3.5078 143.1896 0.0000 0.0000 0.0000
# 4 0.0000 0.0000 0.0000 -7.7376 0.0000 0.0000
# 5 0.0000 0.0000 0.0000 0.0000 15.3466 0.0000
# 6 0.0000 0.0000 0.0000 0.0000 0.0000 -39.1001
#
#
#
# Elastic Compliance Matrix: (Units=1/GPa)
#
#
# Indices 1 2 3 4 5 6 
#
# 1 0.009756 -0.000921 -0.007309 0.000000 0.000000 0.000000
# 2 -0.000921 0.009901 0.000930 0.000000 0.000000 0.000000
# 3 -0.007309 0.000930 0.012465 0.000000 0.000000 0.000000
# 4 0.000000 0.000000 0.000000 -0.129239 0.000000 0.000000
# 5 0.000000 0.000000 0.000000 0.000000 0.065161 0.000000
# 6 0.000000 0.000000 0.000000 0.000000 0.000000 -0.025575
#
#
# Mechanical properties :
#
#
# Convention : Reuss Voigt Hill
#
# Bulk Modulus (GPa) = 57.06627 72.14385 64.60506
# Shear Modulus (GPa) = -134.80029 14.90287 -59.94871
#
# Velocity S-wave (km/s) = -7.71449 2.56505 -5.14460
# Velocity P-wave (km/s) = 7.35913 6.37367 2.60126
#
# Compressibility (1/GPa) = 0.01752349
#
# Stress axis : x y z
#
# Youngs Moduli (GPa) = 102.49991 101.00039 80.22512
#
# Poissons Ratio (x) = 0.09298 0.58634
# Poissons Ratio (y) = 0.09436 -0.07462
# Poissons Ratio (z) = 0.74914 -0.09394
#
# Static dielectric constant tensor:
#      x y z
#    x 1.817020 0.000000 0.000000 
#    y 0.000000 2.291110 0.000000 
#    z 0.000000 0.000000 1.801810 
# 
# From -- ./inp_files/33962.got.cif
#   From: 2010.05.17/outbox.cif.g08.bks.cpg/sg47_17_cif.got.tgz:33962.got - 2010.06.03 20:15:42.
