data_PCOD9382123
_publ_section_title
;
Structure prediction by ZEFSAII (Michael W. Deem and Ramdas Pophale) SiO2 
 PCOD9382123
Probable space group: P M M M
;
_chemical_formula_sum "Si O2"
_cell_formula_units_Z 40
_cell_length_a 21.283339
_cell_length_b 12.256826
_cell_length_c 7.424231
_cell_angle_alpha 90.000000
_cell_angle_beta 90.000000
_cell_angle_gamma 90.000000
_cell_volume 1936.730801
_symmetry_space_group_name_H-M "P M M M"
_symmetry_group_IT_number 47
_symmetry_cell_setting 'orthorhombic'
loop_
_space_group_symop_operation_xyz
x,y,z
-x,-y,z
x,-y,-z
-x,y,-z
-x,-y,-z
x,y,-z
-x,y,z
x,-y,z
loop_
_atom_site_type_symbol
_atom_site_label
_atom_site_fract_x
_atom_site_fract_y
_atom_site_fract_z
Si Si1 0.811919 0.125803 0.220265
Si Si2 0.728723 0.500000 0.786471
Si Si3 0.930332 0.263152 0.789126
Si Si4 0.877457 0.500000 0.286705
Si Si5 0.689847 0.736606 0.779422
Si Si6 0.571057 0.874741 0.219434
O O1 0.873938 0.189348 0.284719
O O2 0.749577 0.190710 0.275503
O O3 0.810921 0.000000 0.275635
O O4 0.812116 0.127571 0.000000
O O5 0.803966 0.500000 0.763069
O O6 0.700373 0.612990 0.716247
O O7 0.716871 0.500000 0.000000
O O8 0.910041 0.389480 0.778915
O O9 0.000000 0.248199 0.711182
O O10 0.934205 0.234974 0.000000
O O11 0.882234 0.500000 0.500000
O O12 0.625338 0.793136 0.720914
O O13 0.689801 0.735533 0.000000
O O14 0.500000 0.847105 0.276095
O O15 0.584418 0.000000 0.273059
O O16 0.571330 0.873897 0.000000
#
# Coordination Sequence:
#
# PCOD9382123 Si02
#       6
#     8   4   8   4   8   8
#     4   9  16  26  44  70  95 120 155 197 236 279
#     4  10  18  31  50  70  94 124 158 200 247 287
#     4  10  20  34  52  73  98 126 156 195 242 287
#     4  12  23  35  52  72  95 124 162 204 242 287
#     4   9  15  24  41  63  90 124 161 194 230 279
#     4   8  13  21  34  57  93 131 159 186 228 282
#
# _framework density 20.653361
#
# number of rings (size 3 to 8) (size 9 to 14) (size 15 to 20)
#    0.000    2.600    2.000    2.400    0.000    4.400 
#    0.000    2.500    0.000    3.600    0.000    1.400 
#    0.000    1.600    0.000    2.200    0.000    2.000 
#
# Total GULP energy -223375.820695 kJ/mol
# GULP energy per Si atom -5584.395517 kJ/mol
# Density = 2.060635 g / cm^3
# Si number density = 20.653361 Si / 1000 Ang^3
#
#
#
# Elastic Constant Matrix: (Units=GPa)
#
#
# Indices 1 2 3 4 5 6 
#
# 1 215.7726 142.0382 3.0049 0.0000 0.0000 0.0000
# 2 142.0382 234.5946 -6.0589 0.0000 0.0000 0.0000
# 3 3.0049 -6.0589 66.8609 0.0000 0.0000 0.0000
# 4 0.0000 0.0000 0.0000 -31.2122 0.0000 0.0000
# 5 0.0000 0.0000 0.0000 0.0000 -21.2451 0.0000
# 6 0.0000 0.0000 0.0000 0.0000 0.0000 53.9788
#
#
#
# Elastic Compliance Matrix: (Units=1/GPa)
#
#
# Indices 1 2 3 4 5 6 
#
# 1 0.007746 -0.004710 -0.000775 0.000000 0.000000 0.000000
# 2 -0.004710 0.007136 0.000858 0.000000 0.000000 0.000000
# 3 -0.000775 0.000858 0.015069 0.000000 0.000000 0.000000
# 4 0.000000 0.000000 0.000000 -0.032039 0.000000 0.000000
# 5 0.000000 0.000000 0.000000 0.000000 -0.047070 0.000000
# 6 0.000000 0.000000 0.000000 0.000000 0.000000 0.018526
#
#
# Mechanical properties :
#
#
# Convention : Reuss Voigt Hill
#
# Bulk Modulus (GPa) = 48.31251 88.35517 68.33384
# Shear Modulus (GPa) = -345.31031 25.52055 -159.89488
#
# Velocity S-wave (km/s) = -12.94435 3.51901 -8.80831
# Velocity P-wave (km/s) = 14.14091 7.70611 8.38395
#
# Compressibility (1/GPa) = 0.02069857
#
# Stress axis : x y z
#
# Youngs Moduli (GPa) = 129.10621 140.12743 66.36125
#
# Poissons Ratio (x) = 0.65995 0.05142
# Poissons Ratio (y) = 0.60805 -0.05696
# Poissons Ratio (z) = 0.10004 -0.12028
#
# Static dielectric constant tensor:
#      x y z
#    x 1.706930 0.000000 0.000000 
#    y 0.000000 1.702050 0.000000 
#    z 0.000000 0.000000 1.759130 
# 
# From -- ./inp_files/4092.got.cif
#   From: 2010.05.17/outbox.cif.g08.bks.cpg/sg47_3_cif.got.tgz:4092.got - 2010.06.03 20:15:42.
