data_PCOD9382375
_publ_section_title
;
Structure prediction by ZEFSAII (Michael W. Deem and Ramdas Pophale) SiO2 
 PCOD9382375
Probable space group: P M M M
;
_chemical_formula_sum "Si O2"
_cell_formula_units_Z 44
_cell_length_a 11.983905
_cell_length_b 15.138759
_cell_length_c 13.733506
_cell_angle_alpha 90.000000
_cell_angle_beta 90.000000
_cell_angle_gamma 90.000000
_cell_volume 2491.552568
_symmetry_space_group_name_H-M "P M M M"
_symmetry_group_IT_number 47
_symmetry_cell_setting 'orthorhombic'
loop_
_space_group_symop_operation_xyz
x,y,z
-x,-y,z
x,-y,-z
-x,y,-z
-x,-y,-z
x,y,-z
-x,y,z
x,-y,z
loop_
_atom_site_type_symbol
_atom_site_label
_atom_site_fract_x
_atom_site_fract_y
_atom_site_fract_z
Si Si1 0.500000 0.898194 0.826243
Si Si2 0.735607 0.255101 0.389863
Si Si3 0.500000 0.848414 0.608294
Si Si4 0.865994 0.000000 0.110763
Si Si5 0.626524 0.601280 0.276880
Si Si6 0.665518 0.256249 0.111698
Si Si7 0.132644 0.814790 0.207537
O O1 0.500000 0.901962 0.708630
O O2 0.603350 0.835620 0.859360
O O3 0.500000 0.000000 0.862844
O O4 0.776831 0.251541 0.500000
O O5 0.613263 0.209206 0.386694
O O6 0.711481 0.353885 0.352119
O O7 0.816007 0.207213 0.312974
O O8 0.500000 0.891066 0.500000
O O9 0.839764 0.086285 0.172754
O O10 0.000000 0.000000 0.100257
O O11 0.819104 0.000000 0.000000
O O12 0.500000 0.603292 0.316679
O O13 0.653403 0.500000 0.253416
O O14 0.627844 0.665740 0.183336
O O15 0.796837 0.244244 0.132297
O O16 0.641533 0.274889 0.000000
O O17 0.000000 0.801780 0.204896
#
# Coordination Sequence:
#
# PCOD9382375 Si02
#       7
#     4   8   4   4   8   8   8
#     4  12  23  37  56  83 117 153 192 230 279 340
#     4  10  19  35  58  81 111 144 177 225 284 343
#     4  10  18  36  57  76 105 143 183 223 273 331
#     4   9  18  34  55  78 105 140 191 246 285 318
#     4  10  19  34  57  85 115 145 180 228 285 346
#     4  11  22  37  55  80 117 153 188 232 282 339
#     4  10  21  36  55  80 110 148 195 241 280 329
#
# _framework density 17.659670999999999
#
# number of rings (size 3 to 8) (size 9 to 14) (size 15 to 20)
#    0.000    1.727    5.455    0.818    1.273    3.091 
#    0.000    2.273    0.000   10.364    0.000   10.182 
#    0.000    0.000    0.000    0.000    0.000    0.000 
#
# Total GULP energy -245184.023671 kJ/mol
# GULP energy per Si atom -5572.364174 kJ/mol
# Density = 1.761948 g / cm^3
# Si number density = 17.659671 Si / 1000 Ang^3
#
#
#
# Elastic Constant Matrix: (Units=GPa)
#
#
# Indices 1 2 3 4 5 6 
#
# 1 94.6184 27.6302 18.1001 0.0000 0.0000 0.0000
# 2 27.6302 110.8289 31.7633 0.0000 0.0000 0.0000
# 3 18.1001 31.7633 108.7073 0.0000 0.0000 0.0000
# 4 0.0000 0.0000 0.0000 2.4736 0.0000 0.0000
# 5 0.0000 0.0000 0.0000 0.0000 10.3452 0.0000
# 6 0.0000 0.0000 0.0000 0.0000 0.0000 21.6052
#
#
#
# Elastic Compliance Matrix: (Units=1/GPa)
#
#
# Indices 1 2 3 4 5 6 
#
# 1 0.011535 -0.002538 -0.001179 0.000000 0.000000 0.000000
# 2 -0.002538 0.010406 -0.002618 0.000000 0.000000 0.000000
# 3 -0.001179 -0.002618 0.010160 0.000000 0.000000 0.000000
# 4 0.000000 0.000000 0.000000 0.404261 0.000000 0.000000
# 5 0.000000 0.000000 0.000000 0.000000 0.096664 0.000000
# 6 0.000000 0.000000 0.000000 0.000000 0.000000 0.046285
#
#
# Mechanical properties :
#
#
# Convention : Reuss Voigt Hill
#
# Bulk Modulus (GPa) = 51.46235 52.12686 51.79460
# Shear Modulus (GPa) = 8.35479 22.66220 15.50850
#
# Velocity S-wave (km/s) = 2.17745 3.58617 2.96664
# Velocity P-wave (km/s) = 5.96038 6.83586 6.41308
#
# Compressibility (1/GPa) = 0.01943168
#
# Stress axis : x y z
#
# Youngs Moduli (GPa) = 86.68940 96.09909 98.42241
#
# Poissons Ratio (x) = 0.24389 0.11605
# Poissons Ratio (y) = 0.22001 0.25767
# Poissons Ratio (z) = 0.10222 0.25158
#
# Static dielectric constant tensor:
#      x y z
#    x 1.621940 0.000000 0.000000 
#    y 0.000000 1.603950 0.000000 
#    z 0.000000 0.000000 1.614660 
# 
# From -- ./inp_files/22657.got.cif
#   From: 2010.05.17/outbox.cif.g08.bks.cpg/sg47_12_cif.got.tgz:22657.got - 2010.06.03 20:15:42.
