data_PCOD9382191
_publ_section_title
;
Structure prediction by ZEFSAII (Michael W. Deem and Ramdas Pophale) SiO2 
 PCOD9382191
Probable space group: P M M M
;
_chemical_formula_sum "Si O2"
_cell_formula_units_Z 48
_cell_length_a 7.461462
_cell_length_b 14.768600
_cell_length_c 21.047170
_cell_angle_alpha 90.000000
_cell_angle_beta 90.000000
_cell_angle_gamma 90.000000
_cell_volume 2319.300216
_symmetry_space_group_name_H-M "P M M M"
_symmetry_group_IT_number 47
_symmetry_cell_setting 'orthorhombic'
loop_
_space_group_symop_operation_xyz
x,y,z
-x,-y,z
x,-y,-z
-x,y,-z
-x,-y,-z
x,y,-z
-x,y,z
x,-y,z
loop_
_atom_site_type_symbol
_atom_site_label
_atom_site_fract_x
_atom_site_fract_y
_atom_site_fract_z
Si Si1 0.712915 0.102495 0.747015
Si Si2 0.281296 0.399142 0.573923
Si Si3 0.215878 0.211429 0.874967
Si Si4 0.289295 0.786350 0.627812
Si Si5 0.781744 0.601045 0.074000
Si Si6 0.780983 0.104024 0.000000
Si Si7 0.214908 0.103920 0.500000
O O1 0.500000 0.093834 0.736737
O O2 0.736684 0.160243 0.810710
O O3 0.787599 0.156954 0.686479
O O4 0.784670 0.000000 0.752983
O O5 0.229400 0.386678 0.500000
O O6 0.500000 0.397959 0.574576
O O7 0.225458 0.500000 0.594208
O O8 0.215628 0.314040 0.614389
O O9 0.278861 0.314923 0.883423
O O10 0.277744 0.155274 0.936504
O O11 0.000000 0.213608 0.877742
O O12 0.500000 0.773574 0.641141
O O13 0.273925 0.843467 0.563047
O O14 0.722019 0.500000 0.092287
O O15 0.000000 0.600244 0.075117
O O16 0.732175 0.616757 0.000000
O O17 0.000000 0.105166 0.000000
O O18 0.724305 0.000000 0.000000
O O19 0.000000 0.102830 0.500000
O O20 0.278905 0.000000 0.500000
#
# Coordination Sequence:
#
# PCOD9382191 Si02
#       7
#     8   8   8   8   8   4   4
#     4  10  22  37  50  69 102 140 174 209 251 299
#     4   8  13  24  48  81 105 120 153 206 250 284
#     4  10  18  31  52  76  99 129 169 210 254 302
#     4  10  19  35  57  76  97 134 177 208 240 295
#     4   8  13  24  46  76 104 127 159 207 257 302
#     4   9  16  26  44  72  98 119 159 215 252 283
#     4  11  23  35  50  77 108 130 159 213 268 303
#
# _framework density 20.695896999999999
#
# number of rings (size 3 to 8) (size 9 to 14) (size 15 to 20)
#    0.000    2.667    1.667    2.250    0.000    3.000 
#    0.000    1.250    0.000    4.000    0.000    1.167 
#    0.000    0.000    0.000    0.000    0.000    0.000 
#
# Total GULP energy -267918.845721 kJ/mol
# GULP energy per Si atom -5581.642619 kJ/mol
# Density = 2.064879 g / cm^3
# Si number density = 20.695897 Si / 1000 Ang^3
#
#
#
# Elastic Constant Matrix: (Units=GPa)
#
#
# Indices 1 2 3 4 5 6 
#
# 1 60.5498 5.4597 -5.4393 0.0000 0.0000 0.0000
# 2 5.4597 250.5605 115.4150 0.0000 0.0000 0.0000
# 3 -5.4393 115.4150 153.2015 0.0000 0.0000 0.0000
# 4 0.0000 0.0000 0.0000 231.8992 0.0000 0.0000
# 5 0.0000 0.0000 0.0000 0.0000 13.6218 0.0000
# 6 0.0000 0.0000 0.0000 0.0000 0.0000 1.0848
#
#
#
# Elastic Compliance Matrix: (Units=1/GPa)
#
#
# Indices 1 2 3 4 5 6 
#
# 1 0.016723 -0.000977 0.001330 0.000000 0.000000 0.000000
# 2 -0.000977 0.006169 -0.004682 0.000000 0.000000 0.000000
# 3 0.001330 -0.004682 0.010102 0.000000 0.000000 0.000000
# 4 0.000000 0.000000 0.000000 0.004312 0.000000 0.000000
# 5 0.000000 0.000000 0.000000 0.000000 0.073412 0.000000
# 6 0.000000 0.000000 0.000000 0.000000 0.000000 0.921842
#
#
# Mechanical properties :
#
#
# Convention : Reuss Voigt Hill
#
# Bulk Modulus (GPa) = 41.09302 77.24254 59.16778
# Shear Modulus (GPa) = 4.76494 72.57959 38.67227
#
# Velocity S-wave (km/s) = 1.51900 5.92838 4.32742
# Velocity P-wave (km/s) = 4.79325 9.17957 7.32256
#
# Compressibility (1/GPa) = 0.02433503
#
# Stress axis : x y z
#
# Youngs Moduli (GPa) = 59.79843 162.09870 98.99128
#
# Poissons Ratio (x) = 0.15835 -0.13162
# Poissons Ratio (y) = 0.05842 0.46350
# Poissons Ratio (z) = -0.07951 0.75898
#
# Static dielectric constant tensor:
#      x y z
#    x 1.814280 0.000000 0.000000 
#    y 0.000000 1.757780 0.000000 
#    z 0.000000 0.000000 1.686980 
# 
# From -- ./inp_files/26501.got.cif
#   From: 2010.05.17/outbox.cif.g08.bks.cpg/sg47_14_cif.got.tgz:26501.got - 2010.06.03 20:15:42.
