data_PCOD9382192
_publ_section_title
;
Structure prediction by ZEFSAII (Michael W. Deem and Ramdas Pophale) SiO2 
 PCOD9382192
Probable space group: P M M M
;
_chemical_formula_sum "Si O2"
_cell_formula_units_Z 52
_cell_length_a 14.496557
_cell_length_b 7.474583
_cell_length_c 22.558303
_cell_angle_alpha 90.000000
_cell_angle_beta 90.000000
_cell_angle_gamma 90.000000
_cell_volume 2444.321130
_symmetry_space_group_name_H-M "P M M M"
_symmetry_group_IT_number 47
_symmetry_cell_setting 'orthorhombic'
loop_
_space_group_symop_operation_xyz
x,y,z
-x,-y,z
x,-y,-z
-x,y,-z
-x,-y,-z
x,y,-z
-x,y,z
x,-y,z
loop_
_atom_site_type_symbol
_atom_site_label
_atom_site_fract_x
_atom_site_fract_y
_atom_site_fract_z
Si Si1 0.606283 0.789935 0.741874
Si Si2 0.894424 0.713819 0.065251
Si Si3 0.401206 0.217502 0.932763
Si Si4 0.706311 0.283542 0.380355
Si Si5 0.104187 0.282084 0.568904
Si Si6 0.746191 0.214153 0.841695
Si Si7 0.605403 0.718275 0.500000
O O1 0.500000 0.717794 0.746344
O O2 0.647170 0.775419 0.675861
O O3 0.689696 0.717842 0.784009
O O4 0.597371 0.000000 0.756727
O O5 0.894937 0.500000 0.061406
O O6 0.844984 0.752440 0.128031
O O7 0.000000 0.777234 0.067454
O O8 0.855129 0.777888 0.000000
O O9 0.500000 0.267611 0.906423
O O10 0.318398 0.282631 0.894571
O O11 0.397929 0.000000 0.933405
O O12 0.397084 0.278024 0.000000
O O13 0.706759 0.500000 0.378766
O O14 0.813029 0.224603 0.387976
O O15 0.656523 0.225005 0.440611
O O16 0.122418 0.230736 0.500000
O O17 0.104178 0.500000 0.569174
O O18 0.000000 0.224390 0.584284
O O19 0.743248 0.000000 0.836408
O O20 0.606998 0.500000 0.500000
O O21 0.500000 0.775827 0.500000
#
# Coordination Sequence:
#
# PCOD9382192 Si02
#       7
#     8   8   8   8   8   8   4
#     4  10  22  38  52  70 103 143 177 212 259 312
#     4   9  19  36  56  79 109 141 169 205 261 319
#     4   8  13  22  40  68  96 118 148 197 251 294
#     4  10  18  31  52  77 101 131 173 218 263 313
#     4   8  13  24  46  76 104 125 152 199 256 307
#     4  10  19  32  52  75  98 131 177 220 251 289
#     4   9  16  26  44  72 100 123 159 219 276 311
#
# _framework density 21.273800000000001
#
# number of rings (size 3 to 8) (size 9 to 14) (size 15 to 20)
#    0.000    2.846    0.769    2.769    0.000    4.615 
#    0.000    1.923    0.000    6.000    0.000    6.462 
#    0.000    0.000    0.000    0.000    0.000    0.000 
#
# Total GULP energy -289519.878315 kJ/mol
# GULP energy per Si atom -5567.689968 kJ/mol
# Density = 2.122538 g / cm^3
# Si number density = 21.273800 Si / 1000 Ang^3
#
#
#
# Elastic Constant Matrix: (Units=GPa)
#
#
# Indices 1 2 3 4 5 6 
#
# 1 136.5848 4.8217 68.1090 0.0000 0.0000 0.0000
# 2 4.8217 60.6947 1.4661 0.0000 0.0000 0.0000
# 3 68.1090 1.4661 119.8171 0.0000 0.0000 0.0000
# 4 0.0000 0.0000 0.0000 14.7640 0.0000 0.0000
# 5 0.0000 0.0000 0.0000 0.0000 47.2608 0.0000
# 6 0.0000 0.0000 0.0000 0.0000 0.0000 11.7547
#
#
#
# Elastic Compliance Matrix: (Units=1/GPa)
#
#
# Indices 1 2 3 4 5 6 
#
# 1 0.010245 -0.000673 -0.005816 0.000000 0.000000 0.000000
# 2 -0.000673 0.016525 0.000181 0.000000 0.000000 0.000000
# 3 -0.005816 0.000181 0.011650 0.000000 0.000000 0.000000
# 4 0.000000 0.000000 0.000000 0.067732 0.000000 0.000000
# 5 0.000000 0.000000 0.000000 0.000000 0.021159 0.000000
# 6 0.000000 0.000000 0.000000 0.000000 0.000000 0.085072
#
#
# Mechanical properties :
#
#
# Convention : Reuss Voigt Hill
#
# Bulk Modulus (GPa) = 38.75501 51.76559 45.26030
# Shear Modulus (GPa) = 21.40398 30.93589 26.16993
#
# Velocity S-wave (km/s) = 3.17538 3.81751 3.51115
# Velocity P-wave (km/s) = 5.63035 6.61944 6.14483
#
# Compressibility (1/GPa) = 0.02580312
#
# Stress axis : x y z
#
# Youngs Moduli (GPa) = 97.60673 60.51425 85.83955
#
# Poissons Ratio (x) = 0.04075 0.49920
# Poissons Ratio (y) = 0.06573 -0.01550
# Poissons Ratio (z) = 0.56764 -0.01093
#
# Static dielectric constant tensor:
#      x y z
#    x 1.823180 0.000000 0.000000 
#    y 0.000000 1.869800 0.000000 
#    z 0.000000 0.000000 1.764280 
# 
# From -- ./inp_files/30843.got.cif
#   From: 2010.05.17/outbox.cif.g08.bks.cpg/sg47_16_cif.got.tgz:30843.got - 2010.06.03 20:15:42.
