data_PCOD9382614
_publ_section_title
;
Structure prediction by ZEFSAII (Michael W. Deem and Ramdas Pophale) SiO2 
 PCOD9382614
Probable space group: P M M M
;
_chemical_formula_sum "Si O2"
_cell_formula_units_Z 30
_cell_length_a 9.393092
_cell_length_b 20.628701
_cell_length_c 7.402250
_cell_angle_alpha 90.000000
_cell_angle_beta 90.000000
_cell_angle_gamma 90.000000
_cell_volume 1434.313895
_symmetry_space_group_name_H-M "P M M M"
_symmetry_group_IT_number 47
_symmetry_cell_setting 'orthorhombic'
loop_
_space_group_symop_operation_xyz
x,y,z
-x,-y,z
x,-y,-z
-x,y,-z
-x,-y,-z
x,y,-z
-x,y,z
x,-y,z
loop_
_atom_site_type_symbol
_atom_site_label
_atom_site_fract_x
_atom_site_fract_y
_atom_site_fract_z
Si Si1 0.768895 0.500000 0.500000
Si Si2 0.663639 0.000000 0.720642
Si Si3 0.163256 0.873072 0.279301
Si Si4 0.331594 0.400340 0.207373
Si Si5 0.336834 0.251983 0.718357
O O1 0.757447 0.556378 0.342755
O O2 0.745853 0.064699 0.777840
O O3 0.500000 0.000000 0.778531
O O4 0.663588 0.000000 0.500000
O O5 0.164332 0.873012 0.500000
O O6 0.235818 0.806016 0.221041
O O7 0.000000 0.878011 0.222055
O O8 0.500000 0.407881 0.259078
O O9 0.297241 0.324147 0.220893
O O10 0.317377 0.420545 0.000000
O O11 0.335374 0.252752 0.500000
O O12 0.500000 0.239659 0.775295
#
# Coordination Sequence:
#
# PCOD9382614 Si02
#       5
#     2   4   8   8   8
#     4  12  19  30  48  74 111 142 171 218 273 324
#     4   9  15  23  37  63 100 139 176 218 269 321
#     4   9  16  25  40  64  95 133 178 225 268 313
#     4  10  19  29  45  71 103 140 178 217 268 326
#     4   9  16  28  44  64  95 135 175 217 267 320
#
# _framework density 20.915924
#
# number of rings (size 3 to 8) (size 9 to 14) (size 15 to 20)
#    0.000    2.533    1.333    2.800    0.000    5.867 
#    0.000    0.000    0.000    0.800    0.000    2.800 
#    0.000    9.600    0.000    0.000    0.000    0.000 
#
# Total GULP energy -167103.858524 kJ/mol
# GULP energy per Si atom -5570.128617 kJ/mol
# Density = 2.086832 g / cm^3
# Si number density = 20.915924 Si / 1000 Ang^3
#
#
#
# Elastic Constant Matrix: (Units=GPa)
#
#
# Indices 1 2 3 4 5 6 
#
# 1 105.3186 89.5837 15.0320 0.0000 0.0000 0.0000
# 2 89.5837 173.9892 23.8962 0.0000 0.0000 0.0000
# 3 15.0320 23.8962 89.6039 0.0000 0.0000 0.0000
# 4 0.0000 0.0000 0.0000 -81.8022 0.0000 0.0000
# 5 0.0000 0.0000 0.0000 0.0000 -4.6353 0.0000
# 6 0.0000 0.0000 0.0000 0.0000 0.0000 -11.1444
#
#
#
# Elastic Compliance Matrix: (Units=1/GPa)
#
#
# Indices 1 2 3 4 5 6 
#
# 1 0.016918 -0.008638 -0.000535 0.000000 0.000000 0.000000
# 2 -0.008638 0.010376 -0.001318 0.000000 0.000000 0.000000
# 3 -0.000535 -0.001318 0.011601 0.000000 0.000000 0.000000
# 4 0.000000 0.000000 0.000000 -0.012225 0.000000 0.000000
# 5 0.000000 0.000000 0.000000 0.000000 -0.215734 0.000000
# 6 0.000000 0.000000 0.000000 0.000000 0.000000 -0.089731
#
#
# Mechanical properties :
#
#
# Convention : Reuss Voigt Hill
#
# Bulk Modulus (GPa) = 55.81902 69.54838 62.68370
# Shear Modulus (GPa) = -19.85375 -3.48973 -11.67174
#
# Velocity S-wave (km/s) = -3.08428 -1.29309 -2.36483
# Velocity P-wave (km/s) = 3.74988 5.57621 4.75162
#
# Compressibility (1/GPa) = 0.01791504
#
# Stress axis : x y z
#
# Youngs Moduli (GPa) = 59.10738 96.37811 86.19614
#
# Poissons Ratio (x) = 0.83247 0.04609
# Poissons Ratio (y) = 0.51054 0.11361
# Poissons Ratio (z) = 0.03161 0.12703
#
# Static dielectric constant tensor:
#      x y z
#    x 1.725850 0.000000 0.000000 
#    y 0.000000 1.709090 0.000000 
#    z 0.000000 0.000000 1.763380 
# 
# From -- ./inp_files/1029.got.cif
#   From: 2010.05.17/outbox.cif.g08.bks.cpg/sg47_1_cif.got.tgz:1029.got - 2010.06.03 20:15:42.
