data_PCOD9382495
_publ_section_title
;
Structure prediction by ZEFSAII (Michael W. Deem and Ramdas Pophale) SiO2 
 PCOD9382495
Probable space group: P M M M
;
_chemical_formula_sum "Si O2"
_cell_formula_units_Z 36
_cell_length_a 13.246041
_cell_length_b 20.217206
_cell_length_c 8.837584
_cell_angle_alpha 90.000000
_cell_angle_beta 90.000000
_cell_angle_gamma 90.000000
_cell_volume 2366.686786
_symmetry_space_group_name_H-M "P M M M"
_symmetry_group_IT_number 47
_symmetry_cell_setting 'orthorhombic'
loop_
_space_group_symop_operation_xyz
x,y,z
-x,-y,z
x,-y,-z
-x,y,-z
-x,-y,-z
x,y,-z
-x,y,z
x,-y,z
loop_
_atom_site_type_symbol
_atom_site_label
_atom_site_fract_x
_atom_site_fract_y
_atom_site_fract_z
Si Si1 0.379905 0.789818 0.679630
Si Si2 0.690233 0.344400 0.818163
Si Si3 0.886499 0.576210 0.815920
Si Si4 0.500000 0.578329 0.319129
Si Si5 0.377703 0.927168 0.177725
O O1 0.369521 0.783114 0.500000
O O2 0.500000 0.783955 0.716026
O O3 0.323704 0.730418 0.762692
O O4 0.344636 0.862352 0.732591
O O5 0.796229 0.376358 0.767363
O O6 0.598531 0.387105 0.750278
O O7 0.684695 0.346881 0.000000
O O8 0.867296 0.500000 0.770188
O O9 0.000000 0.594612 0.766587
O O10 0.886919 0.576748 0.000000
O O11 0.500000 0.500000 0.287113
O O12 0.500000 0.588067 0.500000
O O13 0.500000 0.928182 0.188097
O O14 0.342497 0.000000 0.230144
O O15 0.352917 0.920351 0.000000
#
# Coordination Sequence:
#
# PCOD9382495 Si02
#       5
#     8   8   8   4   8
#     4  10  19  29  41  59  90 126 154 183 222 265
#     4  11  20  30  48  69  89 117 153 189 224 270
#     4   8  15  29  48  69  90 110 140 189 241 278
#     4  11  23  35  45  61  90 123 150 183 227 271
#     4   8  14  25  41  60  83 113 151 191 223 255
#
# _framework density 15.211138
#
# number of rings (size 3 to 8) (size 9 to 14) (size 15 to 20)
#    0.000    2.556    1.111    3.667    0.000    3.111 
#    0.000    2.222    0.000    2.667    0.000    7.778 
#    0.000    0.889    0.000   10.222    0.000    3.333 
#
# Total GULP energy -200608.923836 kJ/mol
# GULP energy per Si atom -5572.470107 kJ/mol
# Density = 1.517652 g / cm^3
# Si number density = 15.211138 Si / 1000 Ang^3
#
#
#
# Elastic Constant Matrix: (Units=GPa)
#
#
# Indices 1 2 3 4 5 6 
#
# 1 84.9655 67.5501 27.0629 0.0000 0.0000 0.0000
# 2 67.5501 139.9762 47.4792 0.0000 0.0000 0.0000
# 3 27.0629 47.4792 31.3844 0.0000 0.0000 0.0000
# 4 0.0000 0.0000 0.0000 21.1510 0.0000 0.0000
# 5 0.0000 0.0000 0.0000 0.0000 1.8452 0.0000
# 6 0.0000 0.0000 0.0000 0.0000 0.0000 11.7768
#
#
#
# Elastic Compliance Matrix: (Units=1/GPa)
#
#
# Indices 1 2 3 4 5 6 
#
# 1 0.019516 -0.007620 -0.005301 0.000000 0.000000 0.000000
# 2 -0.007620 0.017649 -0.020129 0.000000 0.000000 0.000000
# 3 -0.005301 -0.020129 0.066886 0.000000 0.000000 0.000000
# 4 0.000000 0.000000 0.000000 0.047279 0.000000 0.000000
# 5 0.000000 0.000000 0.000000 0.000000 0.541954 0.000000
# 6 0.000000 0.000000 0.000000 0.000000 0.000000 0.084913
#
#
# Mechanical properties :
#
#
# Convention : Reuss Voigt Hill
#
# Bulk Modulus (GPa) = 26.34997 60.05673 43.20335
# Shear Modulus (GPa) = 5.83466 14.57019 10.20242
#
# Velocity S-wave (km/s) = 1.96064 3.09829 2.59264
# Velocity P-wave (km/s) = 4.74193 7.23651 6.11772
#
# Compressibility (1/GPa) = 0.03795071
#
# Stress axis : x y z
#
# Youngs Moduli (GPa) = 51.23966 56.66006 14.95080
#
# Poissons Ratio (x) = 0.43175 0.07925
# Poissons Ratio (y) = 0.39045 0.30095
# Poissons Ratio (z) = 0.27162 1.14052
#
# Static dielectric constant tensor:
#      x y z
#    x 1.485700 0.000000 0.000000 
#    y 0.000000 1.517670 0.000000 
#    z 0.000000 0.000000 1.507370 
# 
# From -- ./inp_files/3937.got.cif
#   From: 2010.05.17/outbox.cif.g08.bks.cpg/sg47_2_cif.got.tgz:3937.got - 2010.06.03 20:15:42.
