data_PCOD9382357
_publ_section_title
;
Structure prediction by ZEFSAII (Michael W. Deem and Ramdas Pophale) SiO2 
 PCOD9382357
Probable space group: P M M M
;
_chemical_formula_sum "Si O2"
_cell_formula_units_Z 44
_cell_length_a 14.264239
_cell_length_b 11.966911
_cell_length_c 15.455866
_cell_angle_alpha 90.000000
_cell_angle_beta 90.000000
_cell_angle_gamma 90.000000
_cell_volume 2638.298994
_symmetry_space_group_name_H-M "P M M M"
_symmetry_group_IT_number 47
_symmetry_cell_setting 'orthorhombic'
loop_
_space_group_symop_operation_xyz
x,y,z
-x,-y,z
x,-y,-z
-x,y,-z
-x,-y,-z
x,y,-z
-x,y,z
x,-y,z
loop_
_atom_site_type_symbol
_atom_site_label
_atom_site_fract_x
_atom_site_fract_y
_atom_site_fract_z
Si Si1 0.885605 0.130626 0.500000
Si Si2 0.729593 0.633747 0.240631
Si Si3 0.895827 0.000000 0.797580
Si Si4 0.391761 0.635697 0.594680
Si Si5 0.700349 0.000000 0.103493
Si Si6 0.609936 0.763039 0.103970
Si Si7 0.107796 0.224790 0.315220
O O1 0.858131 0.195175 0.587644
O O2 0.000000 0.127036 0.500000
O O3 0.854888 0.000000 0.500000
O O4 0.735430 0.500000 0.237632
O O5 0.666526 0.670527 0.322722
O O6 0.677614 0.680097 0.155938
O O7 0.829074 0.688927 0.262259
O O8 0.891098 0.108600 0.736995
O O9 0.804808 0.000000 0.857924
O O10 0.000000 0.000000 0.840074
O O11 0.356607 0.672269 0.500000
O O12 0.500000 0.669950 0.602775
O O13 0.390526 0.500000 0.594440
O O14 0.643801 0.111820 0.127806
O O15 0.707427 0.000000 0.000000
O O16 0.500000 0.746597 0.125505
O O17 0.619272 0.750284 0.000000
O O18 0.000000 0.263385 0.321301
#
# Coordination Sequence:
#
# PCOD9382357 Si02
#       7
#     4   8   4   8   4   8   8
#     4   9  16  30  53  79 104 135 177 226 276 324
#     4  11  22  34  52  76 106 146 187 223 262 316
#     4  10  18  33  57  82 106 135 176 224 272 319
#     4   8  15  29  47  67  94 129 171 216 256 298
#     4  10  19  35  57  84 112 135 165 215 282 336
#     4  10  21  37  58  83 109 138 175 223 276 328
#     4  10  20  34  53  79 109 140 180 227 274 322
#
# _framework density 16.677413000000001
#
# number of rings (size 3 to 8) (size 9 to 14) (size 15 to 20)
#    0.000    2.273    2.727    1.364    1.273    3.091 
#    0.000    0.909    0.000    2.182    0.000    1.273 
#    0.000    7.273    0.000    0.000    0.000    0.000 
#
# Total GULP energy -245164.889670 kJ/mol
# GULP energy per Si atom -5571.929311 kJ/mol
# Density = 1.663945 g / cm^3
# Si number density = 16.677413 Si / 1000 Ang^3
#
#
#
# Elastic Constant Matrix: (Units=GPa)
#
#
# Indices 1 2 3 4 5 6 
#
# 1 94.7751 46.0239 43.2744 0.0000 0.0000 0.0000
# 2 46.0239 83.2474 38.4664 0.0000 0.0000 0.0000
# 3 43.2744 38.4664 51.1148 0.0000 0.0000 0.0000
# 4 0.0000 0.0000 0.0000 19.9250 0.0000 0.0000
# 5 0.0000 0.0000 0.0000 0.0000 29.9014 0.0000
# 6 0.0000 0.0000 0.0000 0.0000 0.0000 -7.6191
#
#
#
# Elastic Compliance Matrix: (Units=1/GPa)
#
#
# Indices 1 2 3 4 5 6 
#
# 1 0.018247 -0.004522 -0.012045 0.000000 0.000000 0.000000
# 2 -0.004522 0.019537 -0.010874 0.000000 0.000000 0.000000
# 3 -0.012045 -0.010874 0.037944 0.000000 0.000000 0.000000
# 4 0.000000 0.000000 0.000000 0.050188 0.000000 0.000000
# 5 0.000000 0.000000 0.000000 0.000000 0.033443 0.000000
# 6 0.000000 0.000000 0.000000 0.000000 0.000000 -0.131249
#
#
# Mechanical properties :
#
#
# Convention : Reuss Voigt Hill
#
# Bulk Modulus (GPa) = 47.97059 53.85186 50.91122
# Shear Modulus (GPa) = 55.59117 15.19964 35.39541
#
# Velocity S-wave (km/s) = 5.77976 3.02220 4.61190
# Velocity P-wave (km/s) = 8.56545 6.67373 7.67808
#
# Compressibility (1/GPa) = 0.02084611
#
# Stress axis : x y z
#
# Youngs Moduli (GPa) = 54.80316 51.18434 26.35439
#
# Poissons Ratio (x) = 0.23148 0.31744
# Poissons Ratio (y) = 0.24784 0.28658
# Poissons Ratio (z) = 0.66010 0.55658
#
# Static dielectric constant tensor:
#      x y z
#    x 1.573560 0.000000 0.000000 
#    y 0.000000 1.545970 0.000000 
#    z 0.000000 0.000000 1.563710 
# 
# From -- ./inp_files/23523.got.cif
#   From: 2010.05.17/outbox.cif.g08.bks.cpg/sg47_12_cif.got.tgz:23523.got - 2010.06.03 20:15:42.
