data_PCOD9382948
_publ_section_title
;
Structure prediction by ZEFSAII (Michael W. Deem and Ramdas Pophale) SiO2 
 PCOD9382948
Probable space group: P M M M
;
_chemical_formula_sum "Si O2"
_cell_formula_units_Z 52
_cell_length_a 7.842479
_cell_length_b 23.689248
_cell_length_c 15.805156
_cell_angle_alpha 90.000000
_cell_angle_beta 90.000000
_cell_angle_gamma 90.000000
_cell_volume 2936.320288
_symmetry_space_group_name_H-M "P M M M"
_symmetry_group_IT_number 47
_symmetry_cell_setting 'orthorhombic'
loop_
_space_group_symop_operation_xyz
x,y,z
-x,-y,z
x,-y,-z
-x,y,-z
-x,-y,-z
x,y,-z
-x,y,z
x,-y,z
loop_
_atom_site_type_symbol
_atom_site_label
_atom_site_fract_x
_atom_site_fract_y
_atom_site_fract_z
Si Si1 0.696547 0.596461 0.679787
Si Si2 0.299513 0.814782 0.402324
Si Si3 0.205102 0.060854 0.600004
Si Si4 0.800689 0.438594 0.138398
Si Si5 0.200515 0.718122 0.273898
Si Si6 0.304808 0.433122 0.500000
Si Si7 0.792031 0.686313 0.091971
O O1 0.500000 0.576344 0.680091
O O2 0.785587 0.568425 0.760223
O O3 0.702639 0.663539 0.691627
O O4 0.775680 0.584098 0.588602
O O5 0.231314 0.810120 0.500000
O O6 0.500000 0.803683 0.407029
O O7 0.273029 0.878995 0.370448
O O8 0.224795 0.770984 0.335181
O O9 0.247572 0.059775 0.500000
O O10 0.000000 0.062347 0.607089
O O11 0.263740 0.000000 0.635635
O O12 0.727176 0.500000 0.113907
O O13 0.731567 0.378926 0.103779
O O14 0.000000 0.439649 0.114729
O O15 0.255071 0.722111 0.175178
O O16 0.000000 0.703538 0.273514
O O17 0.316227 0.500000 0.500000
O O18 0.500000 0.409170 0.500000
O O19 0.000000 0.684700 0.091168
O O20 0.735403 0.707115 0.000000
#
# Coordination Sequence:
#
# PCOD9382948 Si02
#       7
#     8   8   8   8   8   4   8
#     4  10  19  31  46  61  81 111 146 183 225 271
#     4  10  20  31  45  67  96 130 165 194 222 260
#     4   8  14  26  44  66  94 128 163 196 229 260
#     4   9  17  29  45  66  89 109 135 174 221 274
#     4  10  20  33  48  67  90 116 149 189 232 273
#     4   9  18  30  43  59  77 103 142 181 216 261
#     4   8  15  29  48  68  88 111 142 183 231 279
#
# _framework density 17.709240000000001
#
# number of rings (size 3 to 8) (size 9 to 14) (size 15 to 20)
#    0.000    2.846    0.000    3.231    1.077    2.462 
#    0.000    4.231    0.000   14.308    0.000    4.308 
#    0.000    0.615    0.000    7.077    0.000    2.308 
#
# Total GULP energy -289559.827422 kJ/mol
# GULP energy per Si atom -5568.458220 kJ/mol
# Density = 1.766893 g / cm^3
# Si number density = 17.709240 Si / 1000 Ang^3
#
#
#
# Elastic Constant Matrix: (Units=GPa)
#
#
# Indices 1 2 3 4 5 6 
#
# 1 26.3647 1.9041 2.2042 0.0000 0.0000 0.0000
# 2 1.9041 83.2597 39.7116 0.0000 0.0000 0.0000
# 3 2.2042 39.7116 112.5297 0.0000 0.0000 0.0000
# 4 0.0000 0.0000 0.0000 0.7182 0.0000 0.0000
# 5 0.0000 0.0000 0.0000 0.0000 22.6618 0.0000
# 6 0.0000 0.0000 0.0000 0.0000 0.0000 14.3483
#
#
#
# Elastic Compliance Matrix: (Units=1/GPa)
#
#
# Indices 1 2 3 4 5 6 
#
# 1 0.038018 -0.000618 -0.000526 0.000000 0.000000 0.000000
# 2 -0.000618 0.014451 -0.005088 0.000000 0.000000 0.000000
# 3 -0.000526 -0.005088 0.010692 0.000000 0.000000 0.000000
# 4 0.000000 0.000000 0.000000 1.392444 0.000000 0.000000
# 5 0.000000 0.000000 0.000000 0.000000 0.044127 0.000000
# 6 0.000000 0.000000 0.000000 0.000000 0.000000 0.069694
#
#
# Mechanical properties :
#
#
# Convention : Reuss Voigt Hill
#
# Bulk Modulus (GPa) = 19.72513 34.42154 27.07333
# Shear Modulus (GPa) = 3.12736 19.43462 11.28099
#
# Velocity S-wave (km/s) = 1.33033 3.31634 2.52665
# Velocity P-wave (km/s) = 3.67726 5.84323 4.88189
#
# Compressibility (1/GPa) = 0.05069675
#
# Stress axis : x y z
#
# Youngs Moduli (GPa) = 26.30322 69.19730 93.52495
#
# Poissons Ratio (x) = 0.04279 0.04924
# Poissons Ratio (y) = 0.01626 0.47584
# Poissons Ratio (z) = 0.01385 0.35206
#
# Static dielectric constant tensor:
#      x y z
#    x 1.660790 0.000000 0.000000 
#    y 0.000000 1.607930 0.000000 
#    z 0.000000 0.000000 1.633710 
# 
# From -- ./inp_files/21786.got.cif
#   From: 2010.05.17/outbox.cif.g08.bks.cpg/sg47_11_cif.got.tgz:21786.got - 2010.06.03 20:15:42.
