data_PCOD9382060
_publ_section_title
;
Structure prediction by ZEFSAII (Michael W. Deem and Ramdas Pophale) SiO2 
 PCOD9382060
Probable space group: P M M M
;
_chemical_formula_sum "Si O2"
_cell_formula_units_Z 56
_cell_length_a 16.522916
_cell_length_b 20.224960
_cell_length_c 7.443949
_cell_angle_alpha 90.000000
_cell_angle_beta 90.000000
_cell_angle_gamma 90.000000
_cell_volume 2487.584003
_symmetry_space_group_name_H-M "P M M M"
_symmetry_group_IT_number 47
_symmetry_cell_setting 'orthorhombic'
loop_
_space_group_symop_operation_xyz
x,y,z
-x,-y,z
x,-y,-z
-x,y,-z
-x,-y,-z
x,y,-z
-x,y,z
x,-y,z
loop_
_atom_site_type_symbol
_atom_site_label
_atom_site_fract_x
_atom_site_fract_y
_atom_site_fract_z
Si Si1 0.087811 0.148299 0.792088
Si Si2 0.095293 0.428135 0.281879
Si Si3 0.660435 0.288424 0.281034
Si Si4 0.746554 0.925882 0.711675
Si Si5 0.843128 0.286647 0.282661
Si Si6 0.595068 0.428054 0.281539
Si Si7 0.411022 0.152642 0.719640
O O1 0.169496 0.114123 0.723836
O O2 0.099747 0.227279 0.776739
O O3 0.000000 0.130267 0.711446
O O4 0.084994 0.130364 0.000000
O O5 0.101901 0.428102 0.500000
O O6 0.127106 0.500000 0.221004
O O7 0.134914 0.360226 0.219034
O O8 0.000000 0.425532 0.239072
O O9 0.658713 0.290506 0.500000
O O10 0.751577 0.270988 0.228006
O O11 0.637710 0.361612 0.217837
O O12 0.602029 0.229107 0.226691
O O13 0.730856 0.931561 0.500000
O O14 0.667301 0.888016 0.783709
O O15 0.755265 0.000000 0.785580
O O16 0.846452 0.287291 0.500000
O O17 0.600274 0.427979 0.500000
O O18 0.500000 0.424327 0.236773
O O19 0.626342 0.500000 0.221569
O O20 0.410097 0.151687 0.500000
O O21 0.500000 0.128820 0.775785
#
# Coordination Sequence:
#
# PCOD9382060 Si02
#       7
#     8   8   8   8   8   8   8
#     4  11  24  40  58  80 108 144 183 223 270 323
#     4   8  14  24  39  64  98 133 170 216 272 326
#     4   9  15  23  39  65  97 133 174 216 257 304
#     4  10  21  38  60  87 115 140 173 216 262 318
#     4  10  18  30  51  77 105 138 180 229 274 318
#     4   8  13  20  30  51  91 139 177 209 253 310
#     4   9  16  28  49  78 111 142 172 211 259 310
#
# _framework density 22.511800999999998
#
# number of rings (size 3 to 8) (size 9 to 14) (size 15 to 20)
#    0.000    2.714    1.429    2.143    0.000    4.857 
#    0.000    5.714    0.000    0.857    0.000    3.000 
#    0.000    0.000    0.000    1.571    0.000    1.429 
#
# Total GULP energy -312508.899265 kJ/mol
# GULP energy per Si atom -5580.516058 kJ/mol
# Density = 2.246056 g / cm^3
# Si number density = 22.511801 Si / 1000 Ang^3
#
#
#
# Elastic Constant Matrix: (Units=GPa)
#
#
# Indices 1 2 3 4 5 6 
#
# 1 148.5942 75.3135 2.5711 0.0000 0.0000 0.0000
# 2 75.3135 144.2617 -1.2830 0.0000 0.0000 0.0000
# 3 2.5711 -1.2830 64.6897 0.0000 0.0000 0.0000
# 4 0.0000 0.0000 0.0000 -67.3301 0.0000 0.0000
# 5 0.0000 0.0000 0.0000 0.0000 3.7881 0.0000
# 6 0.0000 0.0000 0.0000 0.0000 0.0000 10.5316
#
#
#
# Elastic Compliance Matrix: (Units=1/GPa)
#
#
# Indices 1 2 3 4 5 6 
#
# 1 0.009165 -0.004789 -0.000459 0.000000 0.000000 0.000000
# 2 -0.004789 0.009435 0.000377 0.000000 0.000000 0.000000
# 3 -0.000459 0.000377 0.015484 0.000000 0.000000 0.000000
# 4 0.000000 0.000000 0.000000 -0.014852 0.000000 0.000000
# 5 0.000000 0.000000 0.000000 0.000000 0.263987 0.000000
# 6 0.000000 0.000000 0.000000 0.000000 0.000000 0.094952
#
#
# Mechanical properties :
#
#
# Convention : Reuss Voigt Hill
#
# Bulk Modulus (GPa) = 41.07916 56.74985 48.91451
# Shear Modulus (GPa) = 12.62543 8.12753 10.37648
#
# Velocity S-wave (km/s) = 2.37077 1.90215 2.14927
# Velocity P-wave (km/s) = 5.07755 5.48524 5.28533
#
# Compressibility (1/GPa) = 0.02434324
#
# Stress axis : x y z
#
# Youngs Moduli (GPa) = 109.11360 105.98642 64.58218
#
# Poissons Ratio (x) = 0.50753 0.02966
# Poissons Ratio (y) = 0.52251 -0.02438
# Poissons Ratio (z) = 0.05011 -0.04001
#
# Static dielectric constant tensor:
#      x y z
#    x 1.814870 0.000000 0.000000 
#    y 0.000000 1.822750 0.000000 
#    z 0.000000 0.000000 1.880230 
# 
# From -- ./inp_files/7272.got.cif
#   From: 2010.05.17/outbox.cif.g08.bks.cpg/sg47_4_cif.got.tgz:7272.got - 2010.06.03 20:15:42.
