data_PCOD9382944
_publ_section_title
;
Structure prediction by ZEFSAII (Michael W. Deem and Ramdas Pophale) SiO2 
 PCOD9382944
Probable space group: P M M M
;
_chemical_formula_sum "Si O2"
_cell_formula_units_Z 52
_cell_length_a 13.488485
_cell_length_b 21.678972
_cell_length_c 10.157459
_cell_angle_alpha 90.000000
_cell_angle_beta 90.000000
_cell_angle_gamma 90.000000
_cell_volume 2970.208494
_symmetry_space_group_name_H-M "P M M M"
_symmetry_group_IT_number 47
_symmetry_cell_setting 'orthorhombic'
loop_
_space_group_symop_operation_xyz
x,y,z
-x,-y,z
x,-y,-z
-x,y,-z
-x,-y,-z
x,y,-z
-x,y,z
x,-y,z
loop_
_atom_site_type_symbol
_atom_site_label
_atom_site_fract_x
_atom_site_fract_y
_atom_site_fract_z
Si Si1 0.612749 0.500000 0.159751
Si Si2 0.884968 0.321936 0.654380
Si Si3 0.254142 0.927419 0.748210
Si Si4 0.279999 0.626265 0.154590
Si Si5 0.387526 0.074008 0.000000
Si Si6 0.383597 0.756319 0.845904
Si Si7 0.787996 0.192494 0.657640
Si Si8 0.393022 0.926829 0.500000
O O1 0.500000 0.500000 0.208705
O O2 0.669245 0.437514 0.196441
O O3 0.608649 0.500000 0.000000
O O4 0.862416 0.334771 0.500000
O O5 0.812142 0.357579 0.752302
O O6 0.863326 0.249120 0.675562
O O7 0.000000 0.335623 0.677873
O O8 0.319612 0.913006 0.875282
O O9 0.176391 0.873132 0.717866
O O10 0.329997 0.916605 0.628922
O O11 0.223329 0.000000 0.750232
O O12 0.356911 0.683509 0.163191
O O13 0.250965 0.621859 0.000000
O O14 0.500000 0.099656 0.000000
O O15 0.399431 0.000000 0.000000
O O16 0.500000 0.767010 0.819395
O O17 0.310061 0.788361 0.741428
O O18 0.363961 0.774352 0.000000
O O19 0.770093 0.188181 0.500000
O O20 0.500000 0.895632 0.500000
O O21 0.407120 0.000000 0.500000
#
# Coordination Sequence:
#
# PCOD9382944 Si02
#       8
#     4   8   8   8   4   8   8   4
#     4   9  16  28  52  85 118 152 179 201 236 283
#     4   9  19  37  58  74  95 130 169 213 264 310
#     4  10  19  31  45  62  87 121 156 198 250 298
#     4   9  17  31  53  80 108 135 172 211 243 287
#     4   9  18  30  42  58  85 123 163 194 224 277
#     4   9  18  31  46  67  98 134 167 202 240 283
#     4  10  20  33  48  70  93 119 162 208 253 307
#     4   9  16  26  40  58  83 117 155 190 230 285
#
# _framework density 17.507189
#
# number of rings (size 3 to 8) (size 9 to 14) (size 15 to 20)
#    0.000    2.692    0.769    0.923    1.077    5.538 
#    0.000    0.769    0.000    4.615    0.000    2.154 
#    0.000    1.846    0.000    0.000    0.000    0.000 
#
# Total GULP energy -289525.374183 kJ/mol
# GULP energy per Si atom -5567.795657 kJ/mol
# Density = 1.746734 g / cm^3
# Si number density = 17.507189 Si / 1000 Ang^3
#
#
#
# Elastic Constant Matrix: (Units=GPa)
#
#
# Indices 1 2 3 4 5 6 
#
# 1 62.6395 29.6499 31.5000 0.0000 0.0000 0.0000
# 2 29.6499 121.7063 33.8051 0.0000 0.0000 0.0000
# 3 31.5000 33.8051 86.6455 0.0000 0.0000 0.0000
# 4 0.0000 0.0000 0.0000 24.3381 0.0000 0.0000
# 5 0.0000 0.0000 0.0000 0.0000 18.8604 0.0000
# 6 0.0000 0.0000 0.0000 0.0000 0.0000 11.1204
#
#
#
# Elastic Compliance Matrix: (Units=1/GPa)
#
#
# Indices 1 2 3 4 5 6 
#
# 1 0.020657 -0.003305 -0.006220 0.000000 0.000000 0.000000
# 2 -0.003305 0.009744 -0.002600 0.000000 0.000000 0.000000
# 3 -0.006220 -0.002600 0.014817 0.000000 0.000000 0.000000
# 4 0.000000 0.000000 0.000000 0.041088 0.000000 0.000000
# 5 0.000000 0.000000 0.000000 0.000000 0.053021 0.000000
# 6 0.000000 0.000000 0.000000 0.000000 0.000000 0.089925
#
#
# Mechanical properties :
#
#
# Convention : Reuss Voigt Hill
#
# Bulk Modulus (GPa) = 47.69343 51.21124 49.45233
# Shear Modulus (GPa) = 19.19451 22.59952 20.89701
#
# Velocity S-wave (km/s) = 3.31475 3.59677 3.45864
# Velocity P-wave (km/s) = 6.47699 6.82378 6.65265
#
# Compressibility (1/GPa) = 0.02096725
#
# Stress axis : x y z
#
# Youngs Moduli (GPa) = 48.41052 102.62949 67.48906
#
# Poissons Ratio (x) = 0.33914 0.41981
# Poissons Ratio (y) = 0.15997 0.17549
# Poissons Ratio (z) = 0.30114 0.26686
#
# Static dielectric constant tensor:
#      x y z
#    x 1.609070 0.000000 0.000000 
#    y 0.000000 1.658920 0.000000 
#    z 0.000000 0.000000 1.629510 
# 
# From -- ./inp_files/7162.got.cif
#   From: 2010.05.17/outbox.cif.g08.bks.cpg/sg47_4_cif.got.tgz:7162.got - 2010.06.03 20:15:42.
