data_PCOD9382119
_publ_section_title
;
Structure prediction by ZEFSAII (Michael W. Deem and Ramdas Pophale) SiO2 
 PCOD9382119
Probable space group: P M M M
;
_chemical_formula_sum "Si O2"
_cell_formula_units_Z 64
_cell_length_a 7.678634
_cell_length_b 21.223894
_cell_length_c 20.637741
_cell_angle_alpha 90.000000
_cell_angle_beta 90.000000
_cell_angle_gamma 90.000000
_cell_volume 3363.343260
_symmetry_space_group_name_H-M "P M M M"
_symmetry_group_IT_number 47
_symmetry_cell_setting 'orthorhombic'
loop_
_space_group_symop_operation_xyz
x,y,z
-x,-y,z
x,-y,-z
-x,y,-z
-x,-y,-z
x,y,-z
-x,y,z
x,-y,z
loop_
_atom_site_type_symbol
_atom_site_label
_atom_site_fract_x
_atom_site_fract_y
_atom_site_fract_z
Si Si1 0.205251 0.192131 0.427378
Si Si2 0.212411 0.571548 0.574161
Si Si3 0.701489 0.932375 0.351888
Si Si4 0.291441 0.106333 0.929648
Si Si5 0.794212 0.108667 0.212981
Si Si6 0.786261 0.689944 0.343504
Si Si7 0.213188 0.744750 0.791438
Si Si8 0.206997 0.744689 0.069040
O O1 0.277894 0.185960 0.500000
O O2 0.221048 0.128530 0.386187
O O3 0.275365 0.251597 0.387527
O O4 0.000000 0.204652 0.433562
O O5 0.264091 0.586702 0.500000
O O6 0.267925 0.500000 0.588831
O O7 0.270506 0.624674 0.624245
O O8 0.000000 0.571706 0.574704
O O9 0.500000 0.932632 0.370569
O O10 0.712680 0.925571 0.274215
O O11 0.780242 0.000000 0.370460
O O12 0.500000 0.104052 0.930033
O O13 0.235438 0.081529 0.859233
O O14 0.232041 0.179494 0.929361
O O15 0.231562 0.079956 0.000000
O O16 0.733177 0.181848 0.214983
O O17 0.000000 0.108865 0.224410
O O18 0.731127 0.704502 0.270136
O O19 0.000000 0.689955 0.343128
O O20 0.274539 0.721264 0.861869
O O21 0.000000 0.745536 0.792316
O O22 0.000000 0.732792 0.068037
O O23 0.280992 0.722557 0.000000
#
# Coordination Sequence:
#
# PCOD9382119 Si02
#       8
#     8   8   8   8   8   8   8   8
#     4  10  20  34  53  74  92 115 150 190 233 280
#     4   8  13  20  31  52  86 125 155 179 218 272
#     4  11  24  39  53  69  91 119 149 186 237 291
#     4   9  16  25  40  65  95 124 152 183 225 276
#     4  10  18  31  50  69  90 117 153 194 232 274
#     4   9  14  23  40  63  90 117 149 188 227 268
#     4   8  13  21  37  59  81 107 140 182 227 265
#     4   8  13  21  33  52  80 113 149 188 228 269
#
# _framework density 19.028684999999999
#
# number of rings (size 3 to 8) (size 9 to 14) (size 15 to 20)
#    0.000    2.875    1.250    2.625    0.000    3.750 
#    0.000    1.250    0.000    0.375    0.000    2.625 
#    0.000    1.000    0.000    9.625    0.000    3.625 
#
# Total GULP energy -356634.809420 kJ/mol
# GULP energy per Si atom -5572.418897 kJ/mol
# Density = 1.898537 g / cm^3
# Si number density = 19.028685 Si / 1000 Ang^3
#
#
#
# Elastic Constant Matrix: (Units=GPa)
#
#
# Indices 1 2 3 4 5 6 
#
# 1 33.8303 -0.7926 -1.0652 0.0000 0.0000 0.0000
# 2 -0.7926 93.0144 71.7477 0.0000 0.0000 0.0000
# 3 -1.0652 71.7477 167.4206 0.0000 0.0000 0.0000
# 4 0.0000 0.0000 0.0000 358.3574 0.0000 0.0000
# 5 0.0000 0.0000 0.0000 0.0000 -0.4909 0.0000
# 6 0.0000 0.0000 0.0000 0.0000 0.0000 6.5574
#
#
#
# Elastic Compliance Matrix: (Units=1/GPa)
#
#
# Indices 1 2 3 4 5 6 
#
# 1 0.029567 0.000160 0.000120 0.000000 0.000000 0.000000
# 2 0.000160 0.016061 -0.006882 0.000000 0.000000 0.000000
# 3 0.000120 -0.006882 0.008923 0.000000 0.000000 0.000000
# 4 0.000000 0.000000 0.000000 0.002791 0.000000 0.000000
# 5 0.000000 0.000000 0.000000 0.000000 -2.037048 0.000000
# 6 0.000000 0.000000 0.000000 0.000000 0.000000 0.152500
#
#
# Mechanical properties :
#
#
# Convention : Reuss Voigt Hill
#
# Bulk Modulus (GPa) = 24.18641 48.22723 36.20682
# Shear Modulus (GPa) = -2.77744 87.84314 42.53285
#
# Velocity S-wave (km/s) = -1.20945 6.80175 4.73292
# Velocity P-wave (km/s) = 3.28447 9.33191 6.99544
#
# Compressibility (1/GPa) = 0.04134553
#
# Stress axis : x y z
#
# Youngs Moduli (GPa) = 33.82173 62.26378 112.07114
#
# Poissons Ratio (x) = -0.00994 -0.01342
# Poissons Ratio (y) = -0.00540 0.77125
# Poissons Ratio (z) = -0.00405 0.42848
#
# Static dielectric constant tensor:
#      x y z
#    x 1.693580 0.000000 0.000000 
#    y 0.000000 1.643870 0.000000 
#    z 0.000000 0.000000 1.714020 
# 
# From -- ./inp_files/30182.got.cif
#   From: 2010.05.17/outbox.cif.g08.bks.cpg/sg47_16_cif.got.tgz:30182.got - 2010.06.03 20:15:42.
