data_PCOD9382082
_publ_section_title
;
Structure prediction by ZEFSAII (Michael W. Deem and Ramdas Pophale) SiO2 
 PCOD9382082
Probable space group: P M M M
;
_chemical_formula_sum "Si O2"
_cell_formula_units_Z 52
_cell_length_a 23.619299
_cell_length_b 14.639394
_cell_length_c 8.751750
_cell_angle_alpha 90.000000
_cell_angle_beta 90.000000
_cell_angle_gamma 90.000000
_cell_volume 3026.112062
_symmetry_space_group_name_H-M "P M M M"
_symmetry_group_IT_number 47
_symmetry_cell_setting 'orthorhombic'
loop_
_space_group_symop_operation_xyz
x,y,z
-x,-y,z
x,-y,-z
-x,y,-z
-x,-y,-z
x,y,-z
-x,y,z
x,-y,z
loop_
_atom_site_type_symbol
_atom_site_label
_atom_site_fract_x
_atom_site_fract_y
_atom_site_fract_z
Si Si1 0.169524 0.288586 0.184305
Si Si2 0.715521 0.607322 0.816256
Si Si3 0.392385 0.289066 0.681460
Si Si4 0.935575 0.394568 0.684170
Si Si5 0.777297 0.898525 0.814212
Si Si6 0.355281 0.895814 0.184008
Si Si7 0.500000 0.393523 0.816633
O O1 0.223364 0.351715 0.226017
O O2 0.112109 0.329217 0.249936
O O3 0.184894 0.186126 0.237267
O O4 0.165960 0.288329 0.000000
O O5 0.712324 0.500000 0.780465
O O6 0.665355 0.662600 0.737128
O O7 0.709237 0.618210 0.000000
O O8 0.396274 0.292285 0.500000
O O9 0.390055 0.184539 0.738428
O O10 0.444619 0.343094 0.754315
O O11 0.933694 0.391869 0.500000
O O12 0.924594 0.500000 0.730746
O O13 0.000000 0.371426 0.731011
O O14 0.711236 0.884269 0.773942
O O15 0.794452 0.000000 0.762440
O O16 0.778633 0.898698 0.000000
O O17 0.371555 0.000000 0.223497
O O18 0.358956 0.886728 0.000000
O O19 0.500000 0.500000 0.770177
O O20 0.500000 0.389967 0.000000
#
# Coordination Sequence:
#
# PCOD9382082 Si02
#       7
#     8   8   8   8   8   8   4
#     4  10  18  30  52  80 106 131 172 225 266 304
#     4  10  20  34  52  76 108 142 177 219 266 318
#     4  12  24  37  56  83 115 144 174 221 273 323
#     4   9  19  35  51  68  98 141 181 216 262 323
#     4   8  14  27  50  78 106 136 170 211 259 310
#     4   9  17  34  60  83 107 144 184 218 259 317
#     4  11  25  45  66  81 100 141 193 234 266 315
#
# _framework density 17.183765999999999
#
# number of rings (size 3 to 8) (size 9 to 14) (size 15 to 20)
#    0.000    2.231    1.538    3.923    0.000    4.923 
#    0.000    1.154    0.000    3.231    0.000    3.231 
#    0.000    0.000    0.000    0.000    0.000    0.000 
#
# Total GULP energy -290185.586608 kJ/mol
# GULP energy per Si atom -5580.492050 kJ/mol
# Density = 1.714465 g / cm^3
# Si number density = 17.183766 Si / 1000 Ang^3
#
#
#
# Elastic Constant Matrix: (Units=GPa)
#
#
# Indices 1 2 3 4 5 6 
#
# 1 111.1794 85.7321 34.7519 0.0000 0.0000 0.0000
# 2 85.7321 165.3507 49.7826 0.0000 0.0000 0.0000
# 3 34.7519 49.7826 30.5840 0.0000 0.0000 0.0000
# 4 0.0000 0.0000 0.0000 10.8302 0.0000 0.0000
# 5 0.0000 0.0000 0.0000 0.0000 51.7601 0.0000
# 6 0.0000 0.0000 0.0000 0.0000 0.0000 30.3044
#
#
#
# Elastic Compliance Matrix: (Units=1/GPa)
#
#
# Indices 1 2 3 4 5 6 
#
# 1 0.016233 -0.005615 -0.009306 0.000000 0.000000 0.000000
# 2 -0.005615 0.013802 -0.016086 0.000000 0.000000 0.000000
# 3 -0.009306 -0.016086 0.069454 0.000000 0.000000 0.000000
# 4 0.000000 0.000000 0.000000 0.092334 0.000000 0.000000
# 5 0.000000 0.000000 0.000000 0.000000 0.019320 0.000000
# 6 0.000000 0.000000 0.000000 0.000000 0.000000 0.032999
#
#
# Mechanical properties :
#
#
# Convention : Reuss Voigt Hill
#
# Bulk Modulus (GPa) = 26.68345 71.96082 49.32213
# Shear Modulus (GPa) = 15.69135 27.70211 21.69673
#
# Velocity S-wave (km/s) = 3.02512 4.01946 3.55721
# Velocity P-wave (km/s) = 5.26913 7.96929 6.75549
#
# Compressibility (1/GPa) = 0.03747642
#
# Stress axis : x y z
#
# Youngs Moduli (GPa) = 61.60338 72.45291 14.39794
#
# Poissons Ratio (x) = 0.40681 0.13398
# Poissons Ratio (y) = 0.34590 0.23161
# Poissons Ratio (z) = 0.57325 1.16548
#
# Static dielectric constant tensor:
#      x y z
#    x 1.552770 0.000000 0.000000 
#    y 0.000000 1.593490 0.000000 
#    z 0.000000 0.000000 1.577730 
# 
# From -- ./inp_files/7655.got.cif
#   From: 2010.05.17/outbox.cif.g08.bks.cpg/sg47_4_cif.got.tgz:7655.got - 2010.06.03 20:15:42.
