data_PCOD9382889
_publ_section_title
;
Structure prediction by ZEFSAII (Michael W. Deem and Ramdas Pophale) SiO2 
 PCOD9382889
Probable space group: P M M M
;
_chemical_formula_sum "Si O2"
_cell_formula_units_Z 64
_cell_length_a 7.730467
_cell_length_b 27.257618
_cell_length_c 14.688505
_cell_angle_alpha 90.000000
_cell_angle_beta 90.000000
_cell_angle_gamma 90.000000
_cell_volume 3095.075353
_symmetry_space_group_name_H-M "P M M M"
_symmetry_group_IT_number 47
_symmetry_cell_setting 'orthorhombic'
loop_
_space_group_symop_operation_xyz
x,y,z
-x,-y,z
x,-y,-z
-x,y,-z
-x,-y,-z
x,y,-z
-x,y,z
x,-y,z
loop_
_atom_site_type_symbol
_atom_site_label
_atom_site_fract_x
_atom_site_fract_y
_atom_site_fract_z
Si Si1 0.790307 0.595701 0.103879
Si Si2 0.702702 0.189541 0.101524
Si Si3 0.288598 0.054869 0.605065
Si Si4 0.294467 0.852927 0.718128
Si Si5 0.196924 0.297385 0.110566
Si Si6 0.293842 0.553064 0.710012
Si Si7 0.708396 0.351054 0.394710
Si Si8 0.205634 0.757174 0.604387
O O1 0.725816 0.649875 0.134804
O O2 0.736580 0.558899 0.182212
O O3 0.000000 0.598365 0.101731
O O4 0.733804 0.585244 0.000000
O O5 0.500000 0.177846 0.094204
O O6 0.780340 0.157049 0.181673
O O7 0.713528 0.246423 0.132198
O O8 0.779422 0.185402 0.000000
O O9 0.236386 0.061885 0.500000
O O10 0.500000 0.055690 0.605699
O O11 0.224431 0.099694 0.665952
O O12 0.236213 0.000000 0.634106
O O13 0.500000 0.860922 0.728233
O O14 0.273993 0.803206 0.660304
O O15 0.000000 0.294203 0.144504
O O16 0.191109 0.299642 0.000000
O O17 0.500000 0.552698 0.694254
O O18 0.224886 0.500000 0.679284
O O19 0.224463 0.601743 0.660149
O O20 0.768739 0.353179 0.500000
O O21 0.500000 0.353197 0.395269
O O22 0.755341 0.297163 0.357436
O O23 0.273238 0.758527 0.500000
O O24 0.000000 0.762166 0.601489
#
# Coordination Sequence:
#
# PCOD9382889 Si02
#       8
#     8   8   8   8   8   8   8   8
#     4   9  19  35  53  73  98 130 166 202 244 297
#     4   9  18  30  43  65  99 134 166 202 245 290
#     4   8  14  26  46  72  99 128 168 216 256 291
#     4  10  19  30  49  75 102 135 172 209 248 293
#     4   8  15  29  47  66  89 120 160 201 239 284
#     4  10  22  37  53  76 101 125 161 208 252 296
#     4   9  19  37  58  76  98 130 164 199 244 300
#     4  10  21  35  51  75 106 133 158 196 248 303
#
# _framework density 20.678011999999999
#
# number of rings (size 3 to 8) (size 9 to 14) (size 15 to 20)
#    0.000    2.875    0.000    1.875    1.750    3.750 
#    0.000    3.750    0.000    0.750    0.000    7.000 
#    0.000    0.000    0.000    4.250    0.000    4.625 
#
# Total GULP energy -356996.334619 kJ/mol
# GULP energy per Si atom -5578.067728 kJ/mol
# Density = 2.063095 g / cm^3
# Si number density = 20.678012 Si / 1000 Ang^3
#
#
#
# Elastic Constant Matrix: (Units=GPa)
#
#
# Indices 1 2 3 4 5 6 
#
# 1 31.9706 -0.1834 -1.5698 0.0000 0.0000 0.0000
# 2 -0.1834 163.8509 78.3338 0.0000 0.0000 0.0000
# 3 -1.5698 78.3338 81.1225 0.0000 0.0000 0.0000
# 4 0.0000 0.0000 0.0000 31.0648 0.0000 0.0000
# 5 0.0000 0.0000 0.0000 0.0000 7.8055 0.0000
# 6 0.0000 0.0000 0.0000 0.0000 0.0000 187.5513
#
#
#
# Elastic Compliance Matrix: (Units=1/GPa)
#
#
# Indices 1 2 3 4 5 6 
#
# 1 0.031328 -0.000473 0.001063 0.000000 0.000000 0.000000
# 2 -0.000473 0.011344 -0.010963 0.000000 0.000000 0.000000
# 3 0.001063 -0.010963 0.022934 0.000000 0.000000 0.000000
# 4 0.000000 0.000000 0.000000 0.032191 0.000000 0.000000
# 5 0.000000 0.000000 0.000000 0.000000 0.128115 0.000000
# 6 0.000000 0.000000 0.000000 0.000000 0.000000 0.005332
#
#
# Mechanical properties :
#
#
# Convention : Reuss Voigt Hill
#
# Bulk Modulus (GPa) = 22.29173 47.78947 35.04060
# Shear Modulus (GPa) = 18.73061 58.64187 38.68624
#
# Velocity S-wave (km/s) = 3.01295 5.33114 4.33007
# Velocity P-wave (km/s) = 4.78619 7.81385 6.47935
#
# Compressibility (1/GPa) = 0.04485969
#
# Stress axis : x y z
#
# Youngs Moduli (GPa) = 31.92009 88.15438 43.60402
#
# Poissons Ratio (x) = 0.04172 -0.04636
# Poissons Ratio (y) = 0.01511 0.47803
# Poissons Ratio (z) = -0.03394 0.96643
#
# Static dielectric constant tensor:
#      x y z
#    x 1.766190 0.000000 0.000000 
#    y 0.000000 1.743690 0.000000 
#    z 0.000000 0.000000 1.775470 
# 
# From -- ./inp_files/21876.got.cif
#   From: 2010.05.17/outbox.cif.g08.bks.cpg/sg47_11_cif.got.tgz:21876.got - 2010.06.03 20:15:42.
