data_PCOD9382087
_publ_section_title
;
Structure prediction by ZEFSAII (Michael W. Deem and Ramdas Pophale) SiO2 
 PCOD9382087
Probable space group: P M M M
;
_chemical_formula_sum "Si O2"
_cell_formula_units_Z 52
_cell_length_a 20.657211
_cell_length_b 14.417115
_cell_length_c 10.395201
_cell_angle_alpha 90.000000
_cell_angle_beta 90.000000
_cell_angle_gamma 90.000000
_cell_volume 3095.871595
_symmetry_space_group_name_H-M "P M M M"
_symmetry_group_IT_number 47
_symmetry_cell_setting 'orthorhombic'
loop_
_space_group_symop_operation_xyz
x,y,z
-x,-y,z
x,-y,-z
-x,y,-z
-x,-y,-z
x,y,-z
-x,y,z
x,-y,z
loop_
_atom_site_type_symbol
_atom_site_label
_atom_site_fract_x
_atom_site_fract_y
_atom_site_fract_z
Si Si1 0.305437 0.104134 0.352579
Si Si2 0.769573 0.608908 0.853265
Si Si3 0.808624 0.238231 0.343192
Si Si4 0.577987 0.895496 0.000000
Si Si5 0.073765 0.104720 0.655779
Si Si6 0.425302 0.793290 0.737277
Si Si7 0.613294 0.606582 0.850176
O O1 0.284889 0.092916 0.500000
O O2 0.250761 0.171924 0.298334
O O3 0.373657 0.157355 0.352662
O O4 0.310234 0.000000 0.296526
O O5 0.785425 0.500000 0.840534
O O6 0.801262 0.669461 0.741112
O O7 0.691204 0.615849 0.843236
O O8 0.786588 0.638186 0.000000
O O9 0.805382 0.253674 0.500000
O O10 0.874005 0.182250 0.311311
O O11 0.594505 0.838657 0.126126
O O12 0.500000 0.901703 0.000000
O O13 0.603830 0.000000 0.000000
O O14 0.072799 0.102344 0.500000
O O15 0.000000 0.123281 0.698470
O O16 0.092265 0.000000 0.697769
O O17 0.500000 0.815045 0.707885
O O18 0.416859 0.683644 0.757762
O O19 0.596390 0.500000 0.819119
O O20 0.593997 0.622928 0.000000
#
# Coordination Sequence:
#
# PCOD9382087 Si02
#       7
#     8   8   8   4   8   8   8
#     4  10  21  35  49  67  92 124 162 200 237 282
#     4   9  18  33  52  73 100 133 165 201 249 301
#     4  10  18  30  53  80 102 127 164 208 245 281
#     4   9  18  30  43  63  89 117 149 189 239 288
#     4   8  14  26  47  77 110 139 165 196 240 293
#     4  11  20  31  47  66  91 122 155 195 243 292
#     4   9  17  31  50  70  92 119 155 199 248 301
#
# _framework density 16.796562999999999
#
# number of rings (size 3 to 8) (size 9 to 14) (size 15 to 20)
#    0.000    2.538    2.308    2.308    0.000    3.692 
#    0.000    1.538    0.000    2.769    0.000    5.385 
#    0.000    0.000    0.000    0.000    0.000    0.000 
#
# Total GULP energy -289482.360928 kJ/mol
# GULP energy per Si atom -5566.968479 kJ/mol
# Density = 1.675833 g / cm^3
# Si number density = 16.796563 Si / 1000 Ang^3
#
#
#
# Elastic Constant Matrix: (Units=GPa)
#
#
# Indices 1 2 3 4 5 6 
#
# 1 64.0259 34.1536 17.1710 0.0000 0.0000 0.0000
# 2 34.1536 99.6061 31.0294 0.0000 0.0000 0.0000
# 3 17.1710 31.0294 42.0648 0.0000 0.0000 0.0000
# 4 0.0000 0.0000 0.0000 20.0273 0.0000 0.0000
# 5 0.0000 0.0000 0.0000 0.0000 8.9857 0.0000
# 6 0.0000 0.0000 0.0000 0.0000 0.0000 26.7892
#
#
#
# Elastic Compliance Matrix: (Units=1/GPa)
#
#
# Indices 1 2 3 4 5 6 
#
# 1 0.019608 -0.005492 -0.003953 0.000000 0.000000 0.000000
# 2 -0.005492 0.014573 -0.008508 0.000000 0.000000 0.000000
# 3 -0.003953 -0.008508 0.031663 0.000000 0.000000 0.000000
# 4 0.000000 0.000000 0.000000 0.049932 0.000000 0.000000
# 5 0.000000 0.000000 0.000000 0.000000 0.111288 0.000000
# 6 0.000000 0.000000 0.000000 0.000000 0.000000 0.037328
#
#
# Mechanical properties :
#
#
# Convention : Reuss Voigt Hill
#
# Bulk Modulus (GPa) = 33.40254 41.15610 37.27932
# Shear Modulus (GPa) = 16.11458 19.38328 17.74893
#
# Velocity S-wave (km/s) = 3.10077 3.40075 3.25422
# Velocity P-wave (km/s) = 5.72271 6.32266 6.03015
#
# Compressibility (1/GPa) = 0.02993784
#
# Stress axis : x y z
#
# Youngs Moduli (GPa) = 50.99837 68.61929 31.58299
#
# Poissons Ratio (x) = 0.37686 0.12485
# Poissons Ratio (y) = 0.28008 0.26871
# Poissons Ratio (z) = 0.20160 0.58382
#
# Static dielectric constant tensor:
#      x y z
#    x 1.562200 0.000000 0.000000 
#    y 0.000000 1.596930 0.000000 
#    z 0.000000 0.000000 1.609910 
# 
# From -- ./inp_files/19154.got.cif
#   From: 2010.05.17/outbox.cif.g08.bks.cpg/sg47_10_cif.got.tgz:19154.got - 2010.06.03 20:15:42.
