data_PCOD9382075
_publ_section_title
;
Structure prediction by ZEFSAII (Michael W. Deem and Ramdas Pophale) SiO2 
 PCOD9382075
Probable space group: P M M M
;
_chemical_formula_sum "Si O2"
_cell_formula_units_Z 56
_cell_length_a 15.757264
_cell_length_b 21.395964
_cell_length_c 7.607467
_cell_angle_alpha 90.000000
_cell_angle_beta 90.000000
_cell_angle_gamma 90.000000
_cell_volume 2564.795523
_symmetry_space_group_name_H-M "P M M M"
_symmetry_group_IT_number 47
_symmetry_cell_setting 'orthorhombic'
loop_
_space_group_symop_operation_xyz
x,y,z
-x,-y,z
x,-y,-z
-x,y,-z
-x,-y,-z
x,y,-z
-x,y,z
x,-y,z
loop_
_atom_site_type_symbol
_atom_site_label
_atom_site_fract_x
_atom_site_fract_y
_atom_site_fract_z
Si Si1 0.650004 0.739255 0.287650
Si Si2 0.777476 0.567054 0.290392
Si Si3 0.838560 0.701168 0.801526
Si Si4 0.593153 0.123609 0.712309
Si Si5 0.094281 0.828205 0.215495
Si Si6 0.773624 0.931199 0.208614
Si Si7 0.408884 0.603297 0.713493
O O1 0.660232 0.740689 0.500000
O O2 0.742642 0.728224 0.207727
O O3 0.609577 0.804500 0.232158
O O4 0.596810 0.677285 0.247736
O O5 0.769888 0.563580 0.500000
O O6 0.811122 0.500000 0.226380
O O7 0.830634 0.630019 0.261230
O O8 0.680641 0.575973 0.222068
O O9 0.891739 0.757407 0.717540
O O10 0.868635 0.695794 0.000000
O O11 0.592025 0.123147 0.500000
O O12 0.500000 0.102688 0.773427
O O13 0.674667 0.084426 0.767550
O O14 0.167379 0.875311 0.278583
O O15 0.000000 0.850416 0.259903
O O16 0.099975 0.825670 0.000000
O O17 0.792646 0.000000 0.281603
O O18 0.789704 0.933297 0.000000
O O19 0.408467 0.596359 0.500000
O O20 0.500000 0.578632 0.775808
#
# Coordination Sequence:
#
# PCOD9382075 Si02
#       7
#     8   8   8   8   8   8   8
#     4   9  16  28  47  70  98 132 171 214 260 306
#     4   9  18  31  47  69  99 137 176 213 257 310
#     4  10  18  30  52  77 102 131 166 212 265 315
#     4  10  20  33  52  77 106 144 187 227 266 310
#     4   9  18  34  57  84 109 133 169 218 271 327
#     4  10  21  37  56  79 109 143 178 219 269 322
#     4   8  13  22  39  64  91 119 160 211 252 289
#
# _framework density 21.834098999999998
#
# number of rings (size 3 to 8) (size 9 to 14) (size 15 to 20)
#    0.000    2.714    1.429    1.714    0.000    3.429 
#    0.000    4.286    0.000   14.571    0.000    8.000 
#    0.000    0.000    0.000    0.000    0.000    0.000 
#
# Total GULP energy -312260.836183 kJ/mol
# GULP energy per Si atom -5576.086360 kJ/mol
# Density = 2.178440 g / cm^3
# Si number density = 21.834099 Si / 1000 Ang^3
#
#
#
# Elastic Constant Matrix: (Units=GPa)
#
#
# Indices 1 2 3 4 5 6 
#
# 1 78.5807 49.6927 -4.0514 0.0000 0.0000 0.0000
# 2 49.6927 158.7170 12.7604 0.0000 0.0000 0.0000
# 3 -4.0514 12.7604 39.7349 0.0000 0.0000 0.0000
# 4 0.0000 0.0000 0.0000 12.5770 0.0000 0.0000
# 5 0.0000 0.0000 0.0000 0.0000 12.7037 0.0000
# 6 0.0000 0.0000 0.0000 0.0000 0.0000 -2.5443
#
#
#
# Elastic Compliance Matrix: (Units=1/GPa)
#
#
# Indices 1 2 3 4 5 6 
#
# 1 0.016300 -0.005376 0.003388 0.000000 0.000000 0.000000
# 2 -0.005376 0.008240 -0.003194 0.000000 0.000000 0.000000
# 3 0.003388 -0.003194 0.026538 0.000000 0.000000 0.000000
# 4 0.000000 0.000000 0.000000 0.079510 0.000000 0.000000
# 5 0.000000 0.000000 0.000000 0.000000 0.078717 0.000000
# 6 0.000000 0.000000 0.000000 0.000000 0.000000 -0.393041
#
#
# Mechanical properties :
#
#
# Convention : Reuss Voigt Hill
#
# Bulk Modulus (GPa) = 24.56110 43.75956 34.16033
# Shear Modulus (GPa) = -31.28921 19.12269 -6.08326
#
# Velocity S-wave (km/s) = -3.78966 2.96263 -1.67098
# Velocity P-wave (km/s) = 2.80630 5.63811 3.45781
#
# Compressibility (1/GPa) = 0.04071479
#
# Stress axis : x y z
#
# Youngs Moduli (GPa) = 61.34970 121.35263 37.68163
#
# Poissons Ratio (x) = 0.65236 -0.12768
# Poissons Ratio (y) = 0.32980 0.12037
# Poissons Ratio (z) = -0.20787 0.38765
#
# Static dielectric constant tensor:
#      x y z
#    x 1.781090 0.000000 0.000000 
#    y 0.000000 1.829930 0.000000 
#    z 0.000000 0.000000 1.839690 
# 
# From -- ./inp_files/7237.got.cif
#   From: 2010.05.17/outbox.cif.g08.bks.cpg/sg47_4_cif.got.tgz:7237.got - 2010.06.03 20:15:42.
