data_PCOD9382320
_publ_section_title
;
Structure prediction by ZEFSAII (Michael W. Deem and Ramdas Pophale) SiO2 
 PCOD9382320
Probable space group: P M M M
;
_chemical_formula_sum "Si O2"
_cell_formula_units_Z 56
_cell_length_a 9.109982
_cell_length_b 20.687690
_cell_length_c 15.973473
_cell_angle_alpha 90.000000
_cell_angle_beta 90.000000
_cell_angle_gamma 90.000000
_cell_volume 3010.432339
_symmetry_space_group_name_H-M "P M M M"
_symmetry_group_IT_number 47
_symmetry_cell_setting 'orthorhombic'
loop_
_space_group_symop_operation_xyz
x,y,z
-x,-y,z
x,-y,-z
-x,y,-z
-x,-y,-z
x,y,-z
-x,y,z
x,-y,z
loop_
_atom_site_type_symbol
_atom_site_label
_atom_site_fract_x
_atom_site_fract_y
_atom_site_fract_z
Si Si1 0.673916 0.107923 0.191978
Si Si2 0.821560 0.500000 0.098029
Si Si3 0.172417 0.070841 0.361103
Si Si4 0.825782 0.422204 0.592133
Si Si5 0.838143 0.000000 0.901916
Si Si6 0.173709 0.215550 0.591606
Si Si7 0.177944 0.382505 0.221199
Si Si8 0.324619 0.748375 0.762685
O O1 0.500000 0.102644 0.184382
O O2 0.726964 0.078494 0.280090
O O3 0.753235 0.064040 0.124864
O O4 0.713889 0.183621 0.193042
O O5 0.778749 0.562398 0.154189
O O6 0.000000 0.500000 0.095630
O O7 0.772655 0.500000 0.000000
O O8 0.194859 0.137716 0.409805
O O9 0.000000 0.071945 0.337155
O O10 0.199089 0.000000 0.400182
O O11 0.766114 0.401540 0.500000
O O12 0.813063 0.500000 0.594984
O O13 0.771590 0.397473 0.682604
O O14 0.000000 0.406717 0.590654
O O15 0.000000 0.000000 0.861961
O O16 0.851352 0.000000 0.000000
O O17 0.211407 0.241576 0.500000
O O18 0.266395 0.243524 0.667575
O O19 0.000000 0.227575 0.606652
O O20 0.245262 0.313390 0.198715
O O21 0.000000 0.380365 0.222312
O O22 0.500000 0.741176 0.763348
#
# Coordination Sequence:
#
# PCOD9382320 Si02
#       8
#     8   4   8   8   4   8   8   8
#     4  10  20  35  54  75 103 140 181 216 254 317
#     4   9  18  34  58  88 116 139 173 224 276 327
#     4   9  16  27  47  73 100 134 174 223 276 314
#     4   8  13  23  43  74 108 137 172 221 268 309
#     4  11  23  37  57  85 110 129 158 211 277 334
#     4   9  18  32  49  72 104 142 186 229 267 315
#     4  10  18  32  56  83 109 143 184 224 270 327
#     4  10  22  37  53  76 108 147 184 220 267 318
#
# _framework density 18.601980000000001
#
# number of rings (size 3 to 8) (size 9 to 14) (size 15 to 20)
#    0.000    2.571    1.429    1.500    0.000    3.429 
#    0.000    3.929    0.000    3.429    0.000    5.000 
#    0.000    0.000    0.000    0.000    0.000    0.000 
#
# Total GULP energy -311991.946164 kJ/mol
# GULP energy per Si atom -5571.284753 kJ/mol
# Density = 1.855964 g / cm^3
# Si number density = 18.601980 Si / 1000 Ang^3
#
#
#
# Elastic Constant Matrix: (Units=GPa)
#
#
# Indices 1 2 3 4 5 6 
#
# 1 26.4234 41.7224 32.4205 0.0000 0.0000 0.0000
# 2 41.7224 145.2793 58.9208 0.0000 0.0000 0.0000
# 3 32.4205 58.9208 103.8813 0.0000 0.0000 0.0000
# 4 0.0000 0.0000 0.0000 -23.8772 0.0000 0.0000
# 5 0.0000 0.0000 0.0000 0.0000 28.0014 0.0000
# 6 0.0000 0.0000 0.0000 0.0000 0.0000 42.7147
#
#
#
# Elastic Compliance Matrix: (Units=1/GPa)
#
#
# Indices 1 2 3 4 5 6 
#
# 1 0.087429 -0.018237 -0.016942 0.000000 0.000000 0.000000
# 2 -0.018237 0.012744 -0.001537 0.000000 0.000000 0.000000
# 3 -0.016942 -0.001537 0.015785 0.000000 0.000000 0.000000
# 4 0.000000 0.000000 0.000000 -0.041881 0.000000 0.000000
# 5 0.000000 0.000000 0.000000 0.000000 0.035712 0.000000
# 6 0.000000 0.000000 0.000000 0.000000 0.000000 0.023411
#
#
# Mechanical properties :
#
#
# Convention : Reuss Voigt Hill
#
# Bulk Modulus (GPa) = 23.51460 60.19017 41.85239
# Shear Modulus (GPa) = 22.64413 18.86915 20.75664
#
# Velocity S-wave (km/s) = 3.49276 3.18836 3.34403
# Velocity P-wave (km/s) = 5.37905 6.78095 6.12027
#
# Compressibility (1/GPa) = 0.04252676
#
# Stress axis : x y z
#
# Youngs Moduli (GPa) = 11.43787 78.46792 63.35030
#
# Poissons Ratio (x) = 1.43106 1.07326
# Poissons Ratio (y) = 0.20860 0.09734
# Poissons Ratio (z) = 0.19378 0.12057
#
# Static dielectric constant tensor:
#      x y z
#    x 1.615430 0.000000 0.000000 
#    y 0.000000 1.671230 0.000000 
#    z 0.000000 0.000000 1.649760 
# 
# From -- ./inp_files/21661.got.cif
#   From: 2010.05.17/outbox.cif.g08.bks.cpg/sg47_11_cif.got.tgz:21661.got - 2010.06.03 20:15:42.
