data_PCOD9382251
_publ_section_title
;
Structure prediction by ZEFSAII (Michael W. Deem and Ramdas Pophale) SiO2 
 PCOD9382251
Probable space group: P M M M
;
_chemical_formula_sum "Si O2"
_cell_formula_units_Z 45
_cell_length_a 8.449950
_cell_length_b 23.781702
_cell_length_c 12.358182
_cell_angle_alpha 90.000000
_cell_angle_beta 90.000000
_cell_angle_gamma 90.000000
_cell_volume 2483.428488
_symmetry_space_group_name_H-M "P M M M"
_symmetry_group_IT_number 47
_symmetry_cell_setting 'orthorhombic'
loop_
_space_group_symop_operation_xyz
x,y,z
-x,-y,z
x,-y,-z
-x,y,-z
-x,-y,-z
x,y,-z
-x,y,z
x,-y,z
loop_
_atom_site_type_symbol
_atom_site_label
_atom_site_fract_x
_atom_site_fract_y
_atom_site_fract_z
Si Si1 0.688495 0.379402 0.724174
Si Si2 0.192007 0.829933 0.261499
Si Si3 0.192850 0.063343 0.875327
Si Si4 0.826963 0.500000 0.223026
Si Si5 0.810861 0.330476 0.500000
Si Si6 0.000000 0.500000 0.000000
Si Si7 0.308379 0.277282 0.125172
Si Si8 0.807186 0.200604 0.500000
O O1 0.500000 0.376502 0.722780
O O2 0.740525 0.442614 0.747930
O O3 0.751653 0.359879 0.608324
O O4 0.745112 0.334579 0.814977
O O5 0.246606 0.886804 0.202366
O O6 0.248911 0.775786 0.194258
O O7 0.244385 0.826277 0.386494
O O8 0.000000 0.829187 0.260355
O O9 0.000000 0.063465 0.873734
O O10 0.243285 0.000000 0.845388
O O11 0.240018 0.073963 0.000000
O O12 0.000000 0.500000 0.279004
O O13 0.865416 0.500000 0.095924
O O14 0.756561 0.265632 0.500000
O O15 0.000000 0.330363 0.500000
O O16 0.500000 0.276412 0.125200
O O17 0.255294 0.274768 0.000000
O O18 0.000000 0.199393 0.500000
#
# Coordination Sequence:
#
# PCOD9382251 Si02
#       8
#     8   8   8   4   4   1   8   4
#     4  11  23  40  61  86 115 149 190 232 281 341
#     4  10  18  32  52  76 103 141 184 225 272 330
#     4   8  14  25  44  72 105 138 177 227 277 324
#     4  10  23  42  62  88 113 151 185 228 277 331
#     4  11  21  38  60  84 115 151 184 235 290 332
#     4   8  24  44  66  86 124 152 190 228 280 348
#     4  10  22  36  52  78 111 141 174 224 278 328
#     4   9  18  31  49  76 110 139 178 228 277 320
#
# _framework density 18.120111000000001
#
# number of rings (size 3 to 8) (size 9 to 14) (size 15 to 20)
#    0.267    1.956    1.778    2.133    1.244    2.133 
#    0.000    3.111    0.000    3.200    0.000    2.489 
#    0.000    1.422    0.000    0.000    0.000    0.000 
#
# Total GULP energy -250727.330983 kJ/mol
# GULP energy per Si atom -5571.718466 kJ/mol
# Density = 1.807887 g / cm^3
# Si number density = 18.120111 Si / 1000 Ang^3
#
#
#
# Elastic Constant Matrix: (Units=GPa)
#
#
# Indices 1 2 3 4 5 6 
#
# 1 19.6993 19.7896 22.4826 0.0000 0.0000 0.0000
# 2 19.7896 181.4163 112.8444 0.0000 0.0000 0.0000
# 3 22.4826 112.8444 180.8430 0.0000 0.0000 0.0000
# 4 0.0000 0.0000 0.0000 -0.1115 0.0000 0.0000
# 5 0.0000 0.0000 0.0000 0.0000 9.8458 0.0000
# 6 0.0000 0.0000 0.0000 0.0000 0.0000 9.4924
#
#
#
# Elastic Compliance Matrix: (Units=1/GPa)
#
#
# Indices 1 2 3 4 5 6 
#
# 1 0.060222 -0.003125 -0.005537 0.000000 0.000000 0.000000
# 2 -0.003125 0.009171 -0.005334 0.000000 0.000000 0.000000
# 3 -0.005537 -0.005334 0.009546 0.000000 0.000000 0.000000
# 4 0.000000 0.000000 0.000000 -8.968227 0.000000 0.000000
# 5 0.000000 0.000000 0.000000 0.000000 0.101566 0.000000
# 6 0.000000 0.000000 0.000000 0.000000 0.000000 0.105347
#
#
# Mechanical properties :
#
#
# Convention : Reuss Voigt Hill
#
# Bulk Modulus (GPa) = 19.62818 76.91020 48.26919
# Shear Modulus (GPa) = -0.57888 18.96814 9.19463
#
# Velocity S-wave (km/s) = -0.56583 3.23894 2.25506
# Velocity P-wave (km/s) = 3.22938 7.51827 5.78590
#
# Compressibility (1/GPa) = 0.05094717
#
# Stress axis : x y z
#
# Youngs Moduli (GPa) = 16.60525 109.03926 104.75148
#
# Poissons Ratio (x) = 0.34078 0.57998
# Poissons Ratio (y) = 0.05190 0.55875
# Poissons Ratio (z) = 0.09194 0.58162
#
# Static dielectric constant tensor:
#      x y z
#    x 1.632130 0.000000 0.000000 
#    y 0.000000 1.615280 0.000000 
#    z 0.000000 0.000000 1.607040 
# 
# From -- ./inp_files/15354.got.cif
#   From: 2010.05.17/outbox.cif.g08.bks.cpg/sg47_8_cif.got.tgz:15354.got - 2010.06.03 20:15:42.
