data_PCOD9382781
_publ_section_title
;
Structure prediction by ZEFSAII (Michael W. Deem and Ramdas Pophale) SiO2 
 PCOD9382781
Probable space group: P M M M
;
_chemical_formula_sum "Si O2"
_cell_formula_units_Z 48
_cell_length_a 9.479342
_cell_length_b 7.668884
_cell_length_c 35.950671
_cell_angle_alpha 90.000000
_cell_angle_beta 90.000000
_cell_angle_gamma 90.000000
_cell_volume 2613.469051
_symmetry_space_group_name_H-M "P M M M"
_symmetry_group_IT_number 47
_symmetry_cell_setting 'orthorhombic'
loop_
_space_group_symop_operation_xyz
x,y,z
-x,-y,z
x,-y,-z
-x,y,-z
-x,-y,-z
x,y,-z
-x,y,z
x,-y,z
loop_
_atom_site_type_symbol
_atom_site_label
_atom_site_fract_x
_atom_site_fract_y
_atom_site_fract_z
Si Si1 0.329172 0.000000 0.176789
Si Si2 0.828672 0.300461 0.958111
Si Si3 0.660318 0.290248 0.316054
Si Si4 0.171321 0.000000 0.098692
Si Si5 0.841177 0.790875 0.388358
Si Si6 0.336943 0.787116 0.541544
Si Si7 0.328527 0.699779 0.234137
O O1 0.249054 0.000000 0.137897
O O2 0.289883 0.168892 0.201477
O O3 0.500000 0.000000 0.171806
O O4 0.783973 0.500000 0.951482
O O5 0.786955 0.167376 0.926135
O O6 0.000000 0.299246 0.958600
O O7 0.783864 0.248666 0.000000
O O8 0.500000 0.224690 0.321749
O O9 0.653091 0.500000 0.313816
O O10 0.756655 0.243774 0.350653
O O11 0.714526 0.234872 0.275285
O O12 0.000000 0.000000 0.103177
O O13 0.757940 0.724024 0.424525
O O14 0.000000 0.722303 0.386420
O O15 0.848451 0.000000 0.392427
O O16 0.291529 0.733328 0.500000
O O17 0.500000 0.735109 0.546810
O O18 0.335083 0.000000 0.541889
O O19 0.500000 0.696381 0.235706
O O20 0.280934 0.500000 0.228249
#
# Coordination Sequence:
#
# PCOD9382781 Si02
#       7
#     4   8   8   4   8   8   8
#     4  10  20  33  51  73  98 134 169 199 248 302
#     4   8  14  26  46  71  97 128 168 211 252 293
#     4   9  18  33  53  73  90 114 154 202 245 282
#     4  10  19  30  46  72 102 128 160 207 253 292
#     4  10  20  30  43  70 102 128 153 184 231 291
#     4   8  14  26  44  65  90 122 160 198 232 269
#     4   8  16  32  52  73  94 120 163 210 245 289
#
# _framework density 18.366392000000001
#
# number of rings (size 3 to 8) (size 9 to 14) (size 15 to 20)
#    0.000    3.167    0.000    2.750    1.167    3.333 
#    0.000    2.500    0.000    2.500    0.000    4.667 
#    0.000    0.000    0.000    0.000    0.000    0.000 
#
# Total GULP energy -267513.054531 kJ/mol
# GULP energy per Si atom -5573.188636 kJ/mol
# Density = 1.832459 g / cm^3
# Si number density = 18.366392 Si / 1000 Ang^3
#
#
#
# Elastic Constant Matrix: (Units=GPa)
#
#
# Indices 1 2 3 4 5 6 
#
# 1 55.1032 27.2501 78.0716 0.0000 0.0000 0.0000
# 2 27.2501 67.2791 71.5302 0.0000 0.0000 0.0000
# 3 78.0716 71.5302 219.2381 0.0000 0.0000 0.0000
# 4 0.0000 0.0000 0.0000 -8.9237 0.0000 0.0000
# 5 0.0000 0.0000 0.0000 0.0000 65.0951 0.0000
# 6 0.0000 0.0000 0.0000 0.0000 0.0000 8.4753
#
#
#
# Elastic Compliance Matrix: (Units=1/GPa)
#
#
# Indices 1 2 3 4 5 6 
#
# 1 0.036725 -0.001486 -0.012593 0.000000 0.000000 0.000000
# 2 -0.001486 0.022818 -0.006916 0.000000 0.000000 0.000000
# 3 -0.012593 -0.006916 0.011302 0.000000 0.000000 0.000000
# 4 0.000000 0.000000 0.000000 -0.112061 0.000000 0.000000
# 5 0.000000 0.000000 0.000000 0.000000 0.015362 0.000000
# 6 0.000000 0.000000 0.000000 0.000000 0.000000 0.117990
#
#
# Mechanical properties :
#
#
# Convention : Reuss Voigt Hill
#
# Bulk Modulus (GPa) = 34.65535 77.25826 55.95680
# Shear Modulus (GPa) = 34.78433 23.91391 29.34912
#
# Velocity S-wave (km/s) = 4.35663 3.61230 4.00181
# Velocity P-wave (km/s) = 6.64957 7.71717 7.20318
#
# Compressibility (1/GPa) = 0.02885558
#
# Stress axis : x y z
#
# Youngs Moduli (GPa) = 27.22958 43.82538 88.47977
#
# Poissons Ratio (x) = 0.06512 1.11423
# Poissons Ratio (y) = 0.04046 0.61189
# Poissons Ratio (z) = 0.34290 0.30308
#
# Static dielectric constant tensor:
#      x y z
#    x 1.620610 0.000000 0.000000 
#    y 0.000000 1.682070 0.000000 
#    z 0.000000 0.000000 1.621610 
# 
# From -- ./inp_files/34178.got.cif
#   From: 2010.05.17/outbox.cif.g08.bks.cpg/sg47_18_cif.got.tgz:34178.got - 2010.06.03 20:15:42.
