data_PCOD9382263
_publ_section_title
;
Structure prediction by ZEFSAII (Michael W. Deem and Ramdas Pophale) SiO2 
 PCOD9382263
Probable space group: P M M M
;
_chemical_formula_sum "Si O2"
_cell_formula_units_Z 64
_cell_length_a 20.294949
_cell_length_b 7.496920
_cell_length_c 19.856726
_cell_angle_alpha 90.000000
_cell_angle_beta 90.000000
_cell_angle_gamma 90.000000
_cell_volume 3021.193098
_symmetry_space_group_name_H-M "P M M M"
_symmetry_group_IT_number 47
_symmetry_cell_setting 'orthorhombic'
loop_
_space_group_symop_operation_xyz
x,y,z
-x,-y,z
x,-y,-z
-x,y,-z
-x,-y,-z
x,y,-z
-x,y,z
x,-y,z
loop_
_atom_site_type_symbol
_atom_site_label
_atom_site_fract_x
_atom_site_fract_y
_atom_site_fract_z
Si Si1 0.166774 0.202703 0.803828
Si Si2 0.687916 0.217845 0.817516
Si Si3 0.076593 0.284619 0.074654
Si Si4 0.176838 0.288267 0.576634
Si Si5 0.571516 0.217639 0.422403
Si Si6 0.692652 0.213439 0.663261
Si Si7 0.074829 0.210561 0.686212
Si Si8 0.575625 0.782453 0.077806
O O1 0.236438 0.275931 0.830204
O O2 0.118143 0.202687 0.866272
O O3 0.125907 0.287168 0.741935
O O4 0.182597 0.000000 0.781289
O O5 0.681528 0.274595 0.739586
O O6 0.631396 0.279101 0.869297
O O7 0.684538 0.000000 0.820927
O O8 0.080761 0.500000 0.079326
O O9 0.000000 0.236766 0.081308
O O10 0.099090 0.232162 0.000000
O O11 0.185427 0.217795 0.500000
O O12 0.173152 0.500000 0.571866
O O13 0.238274 0.248087 0.626040
O O14 0.110486 0.227410 0.614310
O O15 0.575849 0.271600 0.500000
O O16 0.500000 0.271218 0.395251
O O17 0.633547 0.284543 0.381968
O O18 0.573019 0.000000 0.421731
O O19 0.687314 0.000000 0.666106
O O20 0.000000 0.282596 0.688609
O O21 0.069551 0.000000 0.701536
O O22 0.500000 0.728599 0.094359
O O23 0.575996 0.000000 0.078681
O O24 0.589260 0.729618 0.000000
#
# Coordination Sequence:
#
# PCOD9382263 Si02
#       8
#     8   8   8   8   8   8   8   8
#     4  10  19  33  52  77 107 135 168 215 263 310
#     4   9  17  28  45  70 100 132 172 216 255 299
#     4   9  19  35  52  72 101 136 173 211 252 305
#     4  11  24  39  55  77 105 137 175 219 266 321
#     4   8  14  24  41  70 102 128 161 207 258 312
#     4  10  18  32  53  75 103 139 175 218 269 319
#     4  10  21  38  59  81 105 135 173 216 266 327
#     4   8  14  25  41  65 103 148 184 212 251 305
#
# _framework density 21.183685000000001
#
# number of rings (size 3 to 8) (size 9 to 14) (size 15 to 20)
#    0.000    2.625    1.250    2.250    0.000    4.500 
#    0.000    5.625    0.000    0.375    0.000    1.750 
#    0.000    0.500    0.000    6.875    0.000    6.000 
#
# Total GULP energy -356898.380776 kJ/mol
# GULP energy per Si atom -5576.537200 kJ/mol
# Density = 2.113547 g / cm^3
# Si number density = 21.183685 Si / 1000 Ang^3
#
#
#
# Elastic Constant Matrix: (Units=GPa)
#
#
# Indices 1 2 3 4 5 6 
#
# 1 165.4922 5.0599 101.8243 0.0000 0.0000 0.0000
# 2 5.0599 55.0789 1.6080 0.0000 0.0000 0.0000
# 3 101.8243 1.6080 145.0786 0.0000 0.0000 0.0000
# 4 0.0000 0.0000 0.0000 20.9716 0.0000 0.0000
# 5 0.0000 0.0000 0.0000 0.0000 45.6406 0.0000
# 6 0.0000 0.0000 0.0000 0.0000 0.0000 -138.8022
#
#
#
# Elastic Compliance Matrix: (Units=1/GPa)
#
#
# Indices 1 2 3 4 5 6 
#
# 1 0.010667 -0.000762 -0.007478 0.000000 0.000000 0.000000
# 2 -0.000762 0.018216 0.000333 0.000000 0.000000 0.000000
# 3 -0.007478 0.000333 0.012138 0.000000 0.000000 0.000000
# 4 0.000000 0.000000 0.000000 0.047684 0.000000 0.000000
# 5 0.000000 0.000000 0.000000 0.000000 0.021910 0.000000
# 6 0.000000 0.000000 0.000000 0.000000 0.000000 -0.007204
#
#
# Mechanical properties :
#
#
# Convention : Reuss Voigt Hill
#
# Bulk Modulus (GPa) = 39.67253 64.73712 52.20483
# Shear Modulus (GPa) = 39.17656 2.70583 20.94120
#
# Velocity S-wave (km/s) = 4.30510 1.13141 3.14754
# Velocity P-wave (km/s) = 6.59397 5.68621 6.15684
#
# Compressibility (1/GPa) = 0.02520636
#
# Stress axis : x y z
#
# Youngs Moduli (GPa) = 93.74552 54.89675 82.38673
#
# Poissons Ratio (x) = 0.04181 0.61612
# Poissons Ratio (y) = 0.07140 -0.02740
# Poissons Ratio (z) = 0.70106 -0.01826
#
# Static dielectric constant tensor:
#      x y z
#    x 1.764730 0.000000 0.000000 
#    y 0.000000 1.830970 0.000000 
#    z 0.000000 0.000000 1.753140 
# 
# From -- ./inp_files/28820.got.cif
#   From: 2010.05.17/outbox.cif.g08.bks.cpg/sg47_15_cif.got.tgz:28820.got - 2010.06.03 20:15:42.
