data_PCOD9382488
_publ_section_title
;
Structure prediction by ZEFSAII (Michael W. Deem and Ramdas Pophale) SiO2 
 PCOD9382488
Probable space group: P M M M
;
_chemical_formula_sum "Si O2"
_cell_formula_units_Z 60
_cell_length_a 9.042047
_cell_length_b 18.758377
_cell_length_c 24.539900
_cell_angle_alpha 90.000000
_cell_angle_beta 90.000000
_cell_angle_gamma 90.000000
_cell_volume 4162.313702
_symmetry_space_group_name_H-M "P M M M"
_symmetry_group_IT_number 47
_symmetry_cell_setting 'orthorhombic'
loop_
_space_group_symop_operation_xyz
x,y,z
-x,-y,z
x,-y,-z
-x,y,-z
-x,-y,-z
x,y,-z
-x,y,z
x,-y,z
loop_
_atom_site_type_symbol
_atom_site_label
_atom_site_fract_x
_atom_site_fract_y
_atom_site_fract_z
Si Si1 0.670629 0.086562 0.500000
Si Si2 0.822022 0.418929 0.830985
Si Si3 0.177829 0.335064 0.939335
Si Si4 0.824879 0.085737 0.612875
Si Si5 0.321365 0.847022 0.718725
Si Si6 0.824174 0.916232 0.174861
Si Si7 0.329896 0.795096 0.886828
Si Si8 0.669350 0.705778 0.773361
O O1 0.500000 0.110216 0.500000
O O2 0.754960 0.107875 0.555037
O O3 0.670029 0.000000 0.500000
O O4 0.770410 0.500000 0.824006
O O5 0.776549 0.387734 0.890331
O O6 0.763322 0.364104 0.785787
O O7 0.000000 0.418650 0.829826
O O8 0.249996 0.258150 0.928260
O O9 0.000000 0.327984 0.936197
O O10 0.216169 0.360735 0.000000
O O11 0.742107 0.123313 0.662637
O O12 0.000000 0.100301 0.614247
O O13 0.805933 0.000000 0.618329
O O14 0.500000 0.851903 0.720879
O O15 0.252829 0.892023 0.768734
O O16 0.280184 0.764023 0.729196
O O17 0.755911 0.867408 0.127261
O O18 0.000000 0.903224 0.179102
O O19 0.799636 0.000000 0.166025
O O20 0.500000 0.808330 0.901795
O O21 0.329164 0.751290 0.829640
O O22 0.500000 0.685671 0.762019
#
# Coordination Sequence:
#
# PCOD9382488 Si02
#       8
#     4   8   8   8   8   8   8   8
#     4   9  17  29  43  57  77 111 152 189 224 259
#     4   9  17  28  43  64  87 110 136 164 195 236
#     4   9  17  29  45  63  83 108 135 163 197 237
#     4  10  19  29  41  59  84 114 149 187 224 259
#     4  10  19  29  42  61  84 110 142 178 212 248
#     4  10  19  29  42  61  83 105 131 166 209 254
#     4   9  17  29  44  60  79 104 133 165 201 243
#     4   8  16  29  42  58  80 107 137 166 200 243
#
# _framework density 14.41506
#
# number of rings (size 3 to 8) (size 9 to 14) (size 15 to 20)
#    0.000    2.733    0.000    3.000    0.000    8.800 
#    0.000    1.333    0.000    0.400    0.000    6.533 
#    0.000    0.000    0.000    0.600    0.000   11.200 
#
# Total GULP energy -334217.016705 kJ/mol
# GULP energy per Si atom -5570.283612 kJ/mol
# Density = 1.438225 g / cm^3
# Si number density = 14.415060 Si / 1000 Ang^3
#
#
#
# Elastic Constant Matrix: (Units=GPa)
#
#
# Indices 1 2 3 4 5 6 
#
# 1 55.1721 46.4832 20.7207 0.0000 0.0000 0.0000
# 2 46.4832 94.0165 27.0108 0.0000 0.0000 0.0000
# 3 20.7207 27.0108 35.1783 0.0000 0.0000 0.0000
# 4 0.0000 0.0000 0.0000 13.2175 0.0000 0.0000
# 5 0.0000 0.0000 0.0000 0.0000 19.0819 0.0000
# 6 0.0000 0.0000 0.0000 0.0000 0.0000 17.7296
#
#
#
# Elastic Compliance Matrix: (Units=1/GPa)
#
#
# Indices 1 2 3 4 5 6 
#
# 1 0.033100 -0.013810 -0.008893 0.000000 0.000000 0.000000
# 2 -0.013810 0.019409 -0.006768 0.000000 0.000000 0.000000
# 3 -0.008893 -0.006768 0.038861 0.000000 0.000000 0.000000
# 4 0.000000 0.000000 0.000000 0.075657 0.000000 0.000000
# 5 0.000000 0.000000 0.000000 0.000000 0.052406 0.000000
# 6 0.000000 0.000000 0.000000 0.000000 0.000000 0.056403
#
#
# Mechanical properties :
#
#
# Convention : Reuss Voigt Hill
#
# Bulk Modulus (GPa) = 30.83743 41.42181 36.12962
# Shear Modulus (GPa) = 14.46806 16.01594 15.24200
#
# Velocity S-wave (km/s) = 3.17152 3.33687 3.25524
# Velocity P-wave (km/s) = 5.90342 6.60634 6.26475
#
# Compressibility (1/GPa) = 0.03242812
#
# Stress axis : x y z
#
# Youngs Moduli (GPa) = 30.21111 51.52248 25.73246
#
# Poissons Ratio (x) = 0.71155 0.22883
# Poissons Ratio (y) = 0.41723 0.17416
# Poissons Ratio (z) = 0.26866 0.34871
#
# Static dielectric constant tensor:
#      x y z
#    x 1.486760 0.000000 0.000000 
#    y 0.000000 1.469630 0.000000 
#    z 0.000000 0.000000 1.464790 
# 
# From -- ./inp_files/32235.got.cif
#   From: 2010.05.17/outbox.cif.g08.bks.cpg/sg47_17_cif.got.tgz:32235.got - 2010.06.03 20:15:42.
