data_PCOD9382413
_publ_section_title
;
Structure prediction by ZEFSAII (Michael W. Deem and Ramdas Pophale) SiO2 
 PCOD9382413
Probable space group: P M M M
;
_chemical_formula_sum "Si O2"
_cell_formula_units_Z 52
_cell_length_a 7.627754
_cell_length_b 14.191736
_cell_length_c 27.595233
_cell_angle_alpha 90.000000
_cell_angle_beta 90.000000
_cell_angle_gamma 90.000000
_cell_volume 2987.213528
_symmetry_space_group_name_H-M "P M M M"
_symmetry_group_IT_number 47
_symmetry_cell_setting 'orthorhombic'
loop_
_space_group_symop_operation_xyz
x,y,z
-x,-y,z
x,-y,-z
-x,y,-z
-x,-y,-z
x,y,-z
-x,y,z
x,-y,z
loop_
_atom_site_type_symbol
_atom_site_label
_atom_site_fract_x
_atom_site_fract_y
_atom_site_fract_z
Si Si1 0.790064 0.386421 0.552138
Si Si2 0.707642 0.702623 0.758107
Si Si3 0.205824 0.604054 0.144559
Si Si4 0.708654 0.103812 0.800235
Si Si5 0.788324 0.391565 0.342674
Si Si6 0.787649 0.201813 0.899777
Si Si7 0.214484 0.890785 0.000000
O O1 0.719431 0.352281 0.500000
O O2 0.767564 0.500000 0.552786
O O3 0.724158 0.354429 0.604819
O O4 0.000000 0.369542 0.551311
O O5 0.500000 0.703838 0.766676
O O6 0.781519 0.632178 0.798804
O O7 0.778103 0.807387 0.769594
O O8 0.739919 0.668451 0.703952
O O9 0.282143 0.500000 0.136291
O O10 0.278023 0.693713 0.114913
O O11 0.000000 0.599126 0.132487
O O12 0.500000 0.099583 0.791665
O O13 0.736736 0.132324 0.856155
O O14 0.781902 0.000000 0.790253
O O15 0.727985 0.500000 0.336280
O O16 0.000000 0.394432 0.345144
O O17 0.728193 0.162554 0.951349
O O18 0.000000 0.205147 0.900432
O O19 0.000000 0.890612 0.000000
O O20 0.269236 0.000000 0.000000
#
# Coordination Sequence:
#
# PCOD9382413 Si02
#       7
#     8   8   8   8   8   8   4
#     4   7  10  18  33  52  73 100 135 167 190 218
#     4  10  19  28  40  59  80 103 132 164 198 237
#     4   9  17  29  43  58  79 107 136 164 192 223
#     4   9  18  32  46  59  78 103 130 162 200 238
#     4   9  16  25  38  57  82 110 136 163 194 226
#     4   9  17  29  45  64  83 104 131 159 190 234
#     4   9  16  26  42  64  86 103 123 159 204 241
#
# _framework density 17.407526000000001
#
# number of rings (size 3 to 8) (size 9 to 14) (size 15 to 20)
#    0.000    3.154    0.000    2.769    0.000    4.000 
#    0.000    0.769    0.000    4.154    0.000    2.154 
#    0.000    5.538    0.000    7.692    0.000    0.308 
#
# Total GULP energy -289592.501571 kJ/mol
# GULP energy per Si atom -5569.086569 kJ/mol
# Density = 1.736791 g / cm^3
# Si number density = 17.407526 Si / 1000 Ang^3
#
#
#
# Elastic Constant Matrix: (Units=GPa)
#
#
# Indices 1 2 3 4 5 6 
#
# 1 33.6539 2.1455 -9.3805 0.0000 0.0000 0.0000
# 2 2.1455 109.9767 57.6920 0.0000 0.0000 0.0000
# 3 -9.3805 57.6920 137.7546 0.0000 0.0000 0.0000
# 4 0.0000 0.0000 0.0000 14.4340 0.0000 0.0000
# 5 0.0000 0.0000 0.0000 0.0000 -78.3289 0.0000
# 6 0.0000 0.0000 0.0000 0.0000 0.0000 10.3354
#
#
#
# Elastic Compliance Matrix: (Units=1/GPa)
#
#
# Indices 1 2 3 4 5 6 
#
# 1 0.030689 -0.002172 0.002999 0.000000 0.000000 0.000000
# 2 -0.002172 0.011807 -0.005093 0.000000 0.000000 0.000000
# 3 0.002999 -0.005093 0.009596 0.000000 0.000000 0.000000
# 4 0.000000 0.000000 0.000000 0.069281 0.000000 0.000000
# 5 0.000000 0.000000 0.000000 0.000000 -0.012767 0.000000
# 6 0.000000 0.000000 0.000000 0.000000 0.000000 0.096755
#
#
# Mechanical properties :
#
#
# Convention : Reuss Voigt Hill
#
# Bulk Modulus (GPa) = 22.95618 42.47769 32.71694
# Shear Modulus (GPa) = 21.89028 4.68332 13.28680
#
# Velocity S-wave (km/s) = 3.55000 1.64202 2.76575
# Velocity P-wave (km/s) = 5.47900 5.29621 5.38838
#
# Compressibility (1/GPa) = 0.04356126
#
# Stress axis : x y z
#
# Youngs Moduli (GPa) = 32.58519 84.69766 104.20650
#
# Poissons Ratio (x) = 0.18398 -0.31257
# Poissons Ratio (y) = 0.07078 0.53068
# Poissons Ratio (z) = -0.09774 0.43133
#
# Static dielectric constant tensor:
#      x y z
#    x 1.649600 0.000000 0.000000 
#    y 0.000000 1.602830 0.000000 
#    z 0.000000 0.000000 1.604030 
# 
# From -- ./inp_files/33397.got.cif
#   From: 2010.05.17/outbox.cif.g08.bks.cpg/sg47_17_cif.got.tgz:33397.got - 2010.06.03 20:15:42.
