data_PCOD9382061
_publ_section_title
;
Structure prediction by ZEFSAII (Michael W. Deem and Ramdas Pophale) SiO2 
 PCOD9382061
Probable space group: P M M M
;
_chemical_formula_sum "Si O2"
_cell_formula_units_Z 56
_cell_length_a 8.237634
_cell_length_b 16.074976
_cell_length_c 20.891241
_cell_angle_alpha 90.000000
_cell_angle_beta 90.000000
_cell_angle_gamma 90.000000
_cell_volume 2766.413304
_symmetry_space_group_name_H-M "P M M M"
_symmetry_group_IT_number 47
_symmetry_cell_setting 'orthorhombic'
loop_
_space_group_symop_operation_xyz
x,y,z
-x,-y,z
x,-y,-z
-x,y,-z
-x,-y,-z
x,y,-z
-x,y,z
x,-y,z
loop_
_atom_site_type_symbol
_atom_site_label
_atom_site_fract_x
_atom_site_fract_y
_atom_site_fract_z
Si Si1 0.309823 0.409446 0.614234
Si Si2 0.808373 0.631537 0.751096
Si Si3 0.304800 0.908635 0.670505
Si Si4 0.306254 0.227768 0.931023
Si Si5 0.192688 0.769922 0.429001
Si Si6 0.195291 0.590347 0.103516
Si Si7 0.697303 0.812637 0.791352
O O1 0.500000 0.406198 0.598741
O O2 0.245476 0.500000 0.592821
O O3 0.286656 0.403868 0.690918
O O4 0.230722 0.326058 0.587034
O O5 0.771676 0.592776 0.820253
O O6 0.765543 0.728277 0.760221
O O7 0.000000 0.621073 0.738621
O O8 0.500000 0.911465 0.670365
O O9 0.257528 0.834244 0.623327
O O10 0.254916 0.885627 0.743115
O O11 0.242774 0.000000 0.651570
O O12 0.500000 0.215538 0.931825
O O13 0.272712 0.326592 0.924631
O O14 0.245427 0.186086 0.865151
O O15 0.240164 0.199433 0.000000
O O16 0.257953 0.788968 0.500000
O O17 0.000000 0.779119 0.429499
O O18 0.247636 0.500000 0.078464
O O19 0.000000 0.596736 0.095194
O O20 0.500000 0.806968 0.791963
#
# Coordination Sequence:
#
# PCOD9382061 Si02
#       7
#     8   8   8   8   8   8   8
#     4  11  23  37  56  83 115 153 195 236 280 333
#     4  10  18  30  51  77 106 141 184 233 285 333
#     4  10  21  38  63  92 118 147 186 233 286 345
#     4   9  18  31  47  69  99 139 184 228 276 329
#     4  11  25  43  62  86 118 154 190 234 285 334
#     4   9  18  30  43  64  97 136 179 229 281 331
#     4   9  17  32  54  78 108 144 183 227 278 334
#
# _framework density 20.242819000000001
#
# number of rings (size 3 to 8) (size 9 to 14) (size 15 to 20)
#    0.000    2.143    1.429    1.714    0.000    5.143 
#    0.000    4.286    0.000    0.429    0.000    3.000 
#    0.000    0.000    0.000    8.429    0.000    8.857 
#
# Total GULP energy -312462.439636 kJ/mol
# GULP energy per Si atom -5579.686422 kJ/mol
# Density = 2.019675 g / cm^3
# Si number density = 20.242819 Si / 1000 Ang^3
#
#
#
# Elastic Constant Matrix: (Units=GPa)
#
#
# Indices 1 2 3 4 5 6 
#
# 1 8.4703 9.5826 10.3128 0.0000 0.0000 0.0000
# 2 9.5826 108.5108 52.9378 0.0000 0.0000 0.0000
# 3 10.3128 52.9378 123.9514 0.0000 0.0000 0.0000
# 4 0.0000 0.0000 0.0000 -9.9688 0.0000 0.0000
# 5 0.0000 0.0000 0.0000 0.0000 28.1806 0.0000
# 6 0.0000 0.0000 0.0000 0.0000 0.0000 -96.4747
#
#
#
# Elastic Compliance Matrix: (Units=1/GPa)
#
#
# Indices 1 2 3 4 5 6 
#
# 1 0.136984 -0.008257 -0.007871 0.000000 0.000000 0.000000
# 2 -0.008257 0.012139 -0.004497 0.000000 0.000000 0.000000
# 3 -0.007871 -0.004497 0.010643 0.000000 0.000000 0.000000
# 4 0.000000 0.000000 0.000000 -0.100313 0.000000 0.000000
# 5 0.000000 0.000000 0.000000 0.000000 0.035485 0.000000
# 6 0.000000 0.000000 0.000000 0.000000 0.000000 -0.010365
#
#
# Mechanical properties :
#
#
# Convention : Reuss Voigt Hill
#
# Bulk Modulus (GPa) = 8.43771 42.95545 25.69658
# Shear Modulus (GPa) = 30.24273 -4.44597 12.89838
#
# Velocity S-wave (km/s) = 3.86942 -1.48361 2.52699
# Velocity P-wave (km/s) = 4.91330 4.28152 4.60825
#
# Compressibility (1/GPa) = 0.11851563
#
# Stress axis : x y z
#
# Youngs Moduli (GPa) = 7.30012 82.37935 93.95613
#
# Poissons Ratio (x) = 0.68024 0.73948
# Poissons Ratio (y) = 0.06028 0.42255
# Poissons Ratio (z) = 0.05746 0.37049
#
# Static dielectric constant tensor:
#      x y z
#    x 1.696950 0.000000 0.000000 
#    y 0.000000 1.728120 0.000000 
#    z 0.000000 0.000000 1.766420 
# 
# From -- ./inp_files/7340.got.cif
#   From: 2010.05.17/outbox.cif.g08.bks.cpg/sg47_4_cif.got.tgz:7340.got - 2010.06.03 20:15:42.
