data_PCOD9382011
_publ_section_title
;
Structure prediction by ZEFSAII (Michael W. Deem and Ramdas Pophale) SiO2 
 PCOD9382011
Probable space group: P M M M
;
_chemical_formula_sum "Si O2"
_cell_formula_units_Z 52
_cell_length_a 7.868766
_cell_length_b 12.459150
_cell_length_c 29.471473
_cell_angle_alpha 90.000000
_cell_angle_beta 90.000000
_cell_angle_gamma 90.000000
_cell_volume 2889.328275
_symmetry_space_group_name_H-M "P M M M"
_symmetry_group_IT_number 47
_symmetry_cell_setting 'orthorhombic'
loop_
_space_group_symop_operation_xyz
x,y,z
-x,-y,z
x,-y,-z
-x,y,-z
-x,-y,-z
x,y,-z
-x,y,z
x,-y,z
loop_
_atom_site_type_symbol
_atom_site_label
_atom_site_fract_x
_atom_site_fract_y
_atom_site_fract_z
Si Si1 0.709153 0.733782 0.448000
Si Si2 0.207751 0.500000 0.946526
Si Si3 0.700913 0.123635 0.831177
Si Si4 0.306889 0.500000 0.445126
Si Si5 0.202823 0.733013 0.084222
Si Si6 0.208473 0.123562 0.000000
Si Si7 0.797509 0.877341 0.731798
Si Si8 0.704029 0.878332 0.365343
O O1 0.759569 0.758063 0.500000
O O2 0.500000 0.730649 0.448362
O O3 0.770984 0.614749 0.434331
O O4 0.765158 0.815752 0.409565
O O5 0.266544 0.388939 0.923033
O O6 0.000000 0.500000 0.945237
O O7 0.254378 0.500000 0.000000
O O8 0.500000 0.115912 0.836681
O O9 0.765131 0.206532 0.868657
O O10 0.738166 0.165102 0.780289
O O11 0.770806 0.000000 0.835720
O O12 0.500000 0.500000 0.426879
O O13 0.318582 0.500000 0.500000
O O14 0.000000 0.726231 0.078444
O O15 0.266152 0.810974 0.044140
O O16 0.000000 0.122076 0.000000
O O17 0.264165 0.000000 0.000000
O O18 0.745223 0.827619 0.683693
O O19 0.000000 0.880943 0.732795
O O20 0.728121 0.000000 0.730617
O O21 0.500000 0.883008 0.368520
O O22 0.772025 0.000000 0.365632
#
# Coordination Sequence:
#
# PCOD9382011 Si02
#       8
#     8   4   8   4   8   4   8   8
#     4   8  13  21  35  57  85 116 148 181 217 260
#     4   9  16  30  51  74  97 128 169 204 228 259
#     4  10  20  33  49  71  98 123 150 191 243 289
#     4   7  10  18  32  51  77 108 143 180 211 242
#     4  10  18  30  50  73  98 127 161 196 228 268
#     4   9  16  25  42  70  99 125 154 187 220 260
#     4   9  17  30  48  67  87 115 152 189 225 274
#     4   9  16  25  39  62  91 118 143 177 224 272
#
# _framework density 17.997261000000002
#
# number of rings (size 3 to 8) (size 9 to 14) (size 15 to 20)
#    0.000    3.000    0.769    2.308    0.000    3.692 
#    0.000    2.308    0.000    3.231    0.000    5.923 
#    0.000    1.846    0.000    0.000    0.000    0.000 
#
# Total GULP energy -289494.723675 kJ/mol
# GULP energy per Si atom -5567.206225 kJ/mol
# Density = 1.795630 g / cm^3
# Si number density = 17.997261 Si / 1000 Ang^3
#
#
#
# Elastic Constant Matrix: (Units=GPa)
#
#
# Indices 1 2 3 4 5 6 
#
# 1 17.5393 8.6636 -2.3625 0.0000 0.0000 0.0000
# 2 8.6636 124.2301 88.3987 0.0000 0.0000 0.0000
# 3 -2.3625 88.3987 156.9824 0.0000 0.0000 0.0000
# 4 0.0000 0.0000 0.0000 -69.5029 0.0000 0.0000
# 5 0.0000 0.0000 0.0000 0.0000 16.0894 0.0000
# 6 0.0000 0.0000 0.0000 0.0000 0.0000 5.2363
#
#
#
# Elastic Compliance Matrix: (Units=1/GPa)
#
#
# Indices 1 2 3 4 5 6 
#
# 1 0.061873 -0.008305 0.005608 0.000000 0.000000 0.000000
# 2 -0.008305 0.014546 -0.008316 0.000000 0.000000 0.000000
# 3 0.005608 -0.008316 0.011138 0.000000 0.000000 0.000000
# 4 0.000000 0.000000 0.000000 -0.014388 0.000000 0.000000
# 5 0.000000 0.000000 0.000000 0.000000 0.062153 0.000000
# 6 0.000000 0.000000 0.000000 0.000000 0.000000 0.190975
#
#
# Mechanical properties :
#
#
# Convention : Reuss Voigt Hill
#
# Bulk Modulus (GPa) = 15.26029 54.23903 34.74966
# Shear Modulus (GPa) = 13.50741 3.96801 8.73771
#
# Velocity S-wave (km/s) = 2.74255 1.48646 2.20580
# Velocity P-wave (km/s) = 4.30423 5.75751 5.08307
#
# Compressibility (1/GPa) = 0.06552955
#
# Stress axis : x y z
#
# Youngs Moduli (GPa) = 16.16215 68.74551 89.78662
#
# Poissons Ratio (x) = 0.57097 -0.50353
# Poissons Ratio (y) = 0.13423 0.74669
# Poissons Ratio (z) = -0.09064 0.57170
#
# Static dielectric constant tensor:
#      x y z
#    x 1.657460 0.000000 0.000000 
#    y 0.000000 1.654860 0.000000 
#    z 0.000000 0.000000 1.616420 
# 
# From -- ./inp_files/34340.got.cif
#   From: 2010.05.17/outbox.cif.g08.bks.cpg/sg47_18_cif.got.tgz:34340.got - 2010.06.03 20:15:42.
