data_PCOD9382721
_publ_section_title
;
Structure prediction by ZEFSAII (Michael W. Deem and Ramdas Pophale) SiO2 
 PCOD9382721
Probable space group: P M M M
;
_chemical_formula_sum "Si O2"
_cell_formula_units_Z 52
_cell_length_a 13.891348
_cell_length_b 8.961914
_cell_length_c 24.506118
_cell_angle_alpha 90.000000
_cell_angle_beta 90.000000
_cell_angle_gamma 90.000000
_cell_volume 3050.841769
_symmetry_space_group_name_H-M "P M M M"
_symmetry_group_IT_number 47
_symmetry_cell_setting 'orthorhombic'
loop_
_space_group_symop_operation_xyz
x,y,z
-x,-y,z
x,-y,-z
-x,y,-z
-x,-y,-z
x,y,-z
-x,y,z
x,-y,z
loop_
_atom_site_type_symbol
_atom_site_label
_atom_site_fract_x
_atom_site_fract_y
_atom_site_fract_z
Si Si1 0.685218 0.323342 0.120115
Si Si2 0.500000 0.827348 0.934758
Si Si3 0.613320 0.171881 0.774971
Si Si4 0.891867 0.319778 0.145371
Si Si5 0.611255 0.679647 0.562053
Si Si6 0.891475 0.821398 0.734595
Si Si7 0.287807 0.177888 0.336661
O O1 0.678389 0.500000 0.111350
O O2 0.598409 0.246156 0.087406
O O3 0.664318 0.281374 0.183063
O O4 0.796720 0.275152 0.111001
O O5 0.500000 0.000000 0.917234
O O6 0.500000 0.818725 0.000000
O O7 0.500000 0.179421 0.784707
O O8 0.636632 0.206140 0.712331
O O9 0.645485 0.000000 0.785026
O O10 0.889807 0.500000 0.148471
O O11 0.880676 0.254799 0.206440
O O12 0.000000 0.276180 0.126071
O O13 0.635932 0.725387 0.500000
O O14 0.500000 0.725439 0.572390
O O15 0.613856 0.500000 0.563892
O O16 0.679677 0.744377 0.608254
O O17 0.812895 0.773235 0.690439
O O18 0.000000 0.792467 0.715543
O O19 0.880044 0.000000 0.742380
O O20 0.284079 0.000000 0.345829
#
# Coordination Sequence:
#
# PCOD9382721 Si02
#       7
#     8   4   8   8   8   8   8
#     4  11  21  33  54  82 109 139 176 217 256 303
#     4  11  25  43  61  79 105 145 184 219 264 311
#     4  10  19  30  45  70 107 142 165 200 255 308
#     4   9  18  32  50  76 110 143 174 210 256 309
#     4   9  19  35  51  67  90 123 163 208 257 307
#     4   9  17  29  46  70 101 135 169 204 246 299
#     4  10  19  30  47  72  99 129 166 206 250 301
#
# _framework density 17.044474999999998
#
# number of rings (size 3 to 8) (size 9 to 14) (size 15 to 20)
#    0.000    2.231    2.308    1.615    0.000    3.692 
#    0.000    0.769    0.000    0.923    0.000    6.462 
#    0.000    0.000    0.000    0.000    0.000    0.000 
#
# Total GULP energy -289807.575248 kJ/mol
# GULP energy per Si atom -5573.222601 kJ/mol
# Density = 1.700568 g / cm^3
# Si number density = 17.044475 Si / 1000 Ang^3
#
#
#
# Elastic Constant Matrix: (Units=GPa)
#
#
# Indices 1 2 3 4 5 6 
#
# 1 149.6702 37.1385 42.4089 0.0000 0.0000 0.0000
# 2 37.1385 29.5435 19.7868 0.0000 0.0000 0.0000
# 3 42.4089 19.7868 47.4660 0.0000 0.0000 0.0000
# 4 0.0000 0.0000 0.0000 36.1980 0.0000 0.0000
# 5 0.0000 0.0000 0.0000 0.0000 14.9888 0.0000
# 6 0.0000 0.0000 0.0000 0.0000 0.0000 18.1236
#
#
#
# Elastic Compliance Matrix: (Units=1/GPa)
#
#
# Indices 1 2 3 4 5 6 
#
# 1 0.010639 -0.009722 -0.005453 0.000000 0.000000 0.000000
# 2 -0.009722 0.055843 -0.014593 0.000000 0.000000 0.000000
# 3 -0.005453 -0.014593 0.032023 0.000000 0.000000 0.000000
# 4 0.000000 0.000000 0.000000 0.027626 0.000000 0.000000
# 5 0.000000 0.000000 0.000000 0.000000 0.066716 0.000000
# 6 0.000000 0.000000 0.000000 0.000000 0.000000 0.055177
#
#
# Mechanical properties :
#
#
# Convention : Reuss Voigt Hill
#
# Bulk Modulus (GPa) = 25.66082 47.26087 36.46085
# Shear Modulus (GPa) = 15.59830 22.35178 18.97504
#
# Velocity S-wave (km/s) = 3.02843 3.62523 3.34018
# Velocity P-wave (km/s) = 5.22651 6.73136 6.02609
#
# Compressibility (1/GPa) = 0.03896991
#
# Stress axis : x y z
#
# Youngs Moduli (GPa) = 93.99699 17.90732 31.22796
#
# Poissons Ratio (x) = 0.17409 0.17027
# Poissons Ratio (y) = 0.91382 0.45571
# Poissons Ratio (z) = 0.51252 0.26132
#
# Static dielectric constant tensor:
#      x y z
#    x 1.625900 0.000000 0.000000 
#    y 0.000000 1.578770 0.000000 
#    z 0.000000 0.000000 1.544010 
# 
# From -- ./inp_files/25444.got.cif
#   From: 2010.05.17/outbox.cif.g08.bks.cpg/sg47_13_cif.got.tgz:25444.got - 2010.06.03 20:15:42.
