data_PCOD9382690
_publ_section_title
;
Structure prediction by ZEFSAII (Michael W. Deem and Ramdas Pophale) SiO2 
 PCOD9382690
Probable space group: P M M M
;
_chemical_formula_sum "Si O2"
_cell_formula_units_Z 52
_cell_length_a 27.121109
_cell_length_b 13.903315
_cell_length_c 9.438138
_cell_angle_alpha 90.000000
_cell_angle_beta 90.000000
_cell_angle_gamma 90.000000
_cell_volume 3558.870045
_symmetry_space_group_name_H-M "P M M M"
_symmetry_group_IT_number 47
_symmetry_cell_setting 'orthorhombic'
loop_
_space_group_symop_operation_xyz
x,y,z
-x,-y,z
x,-y,-z
-x,y,-z
-x,-y,-z
x,y,-z
-x,y,z
x,-y,z
loop_
_atom_site_type_symbol
_atom_site_label
_atom_site_fract_x
_atom_site_fract_y
_atom_site_fract_z
Si Si1 0.705138 0.216197 0.331546
Si Si2 0.206591 0.885394 0.169664
Si Si3 0.398168 0.110678 0.331687
Si Si4 0.904895 0.883099 0.162885
Si Si5 0.655712 0.611689 0.830637
Si Si6 0.000000 0.882605 0.337399
Si Si7 0.555044 0.715635 0.169153
O O1 0.711929 0.227178 0.500000
O O2 0.752742 0.171401 0.257062
O O3 0.658266 0.145144 0.309109
O O4 0.689705 0.316047 0.257715
O O5 0.150475 0.855584 0.207175
O O6 0.211455 0.000000 0.196100
O O7 0.212569 0.871294 0.000000
O O8 0.407960 0.118021 0.500000
O O9 0.431996 0.185198 0.247573
O O10 0.404506 0.000000 0.288494
O O11 0.950239 0.850648 0.258712
O O12 0.905083 0.000000 0.163708
O O13 0.912688 0.853501 0.000000
O O14 0.664068 0.500000 0.798891
O O15 0.599072 0.641587 0.797929
O O16 0.663023 0.626395 0.000000
O O17 0.000000 0.852952 0.500000
O O18 0.000000 0.000000 0.333518
O O19 0.500000 0.682492 0.207027
O O20 0.556436 0.731371 0.000000
#
# Coordination Sequence:
#
# PCOD9382690 Si02
#       7
#     8   8   8   8   8   4   8
#     4  10  19  30  45  64  86 110 137 173 214 254
#     4   9  17  28  42  61  85 114 148 182 214 250
#     4   9  18  31  44  59  82 113 144 168 196 240
#     4   8  14  24  36  50  72 106 145 180 213 248
#     4   9  18  33  51  67  83 106 135 166 205 255
#     4   9  15  21  31  49  73 103 142 185 220 247
#     4   9  18  31  46  66  88 106 130 167 207 245
#
# _framework density 14.611378999999999
#
# number of rings (size 3 to 8) (size 9 to 14) (size 15 to 20)
#    0.000    3.000    0.000    2.077    0.000    4.615 
#    0.000    4.615    0.000    0.000    0.000    4.308 
#    0.000    0.000    0.000    0.692    0.000   13.462 
#
# Total GULP energy -289628.612528 kJ/mol
# GULP energy per Si atom -5569.781010 kJ/mol
# Density = 1.457812 g / cm^3
# Si number density = 14.611379 Si / 1000 Ang^3
#
#
#
# Elastic Constant Matrix: (Units=GPa)
#
#
# Indices 1 2 3 4 5 6 
#
# 1 118.4259 29.7803 61.7903 0.0000 0.0000 0.0000
# 2 29.7803 57.4612 30.4197 0.0000 0.0000 0.0000
# 3 61.7903 30.4197 51.0221 0.0000 0.0000 0.0000
# 4 0.0000 0.0000 0.0000 16.1929 0.0000 0.0000
# 5 0.0000 0.0000 0.0000 0.0000 20.5724 0.0000
# 6 0.0000 0.0000 0.0000 0.0000 0.0000 9.6805
#
#
#
# Elastic Compliance Matrix: (Units=1/GPa)
#
#
# Indices 1 2 3 4 5 6 
#
# 1 0.023625 0.004241 -0.031140 0.000000 0.000000 0.000000
# 2 0.004241 0.026191 -0.020751 0.000000 0.000000 0.000000
# 3 -0.031140 -0.020751 0.069683 0.000000 0.000000 0.000000
# 4 0.000000 0.000000 0.000000 0.061756 0.000000 0.000000
# 5 0.000000 0.000000 0.000000 0.000000 0.048609 0.000000
# 6 0.000000 0.000000 0.000000 0.000000 0.000000 0.103300
#
#
# Mechanical properties :
#
#
# Convention : Reuss Voigt Hill
#
# Bulk Modulus (GPa) = 41.32373 52.32108 46.82241
# Shear Modulus (GPa) = 11.45396 16.28375 13.86886
#
# Velocity S-wave (km/s) = 2.80287 3.34197 3.08422
# Velocity P-wave (km/s) = 6.23041 7.12586 6.69313
#
# Compressibility (1/GPa) = 0.02419917
#
# Stress axis : x y z
#
# Youngs Moduli (GPa) = 42.32749 38.18164 14.35062
#
# Poissons Ratio (x) = -0.16193 0.44688
# Poissons Ratio (y) = -0.17952 0.29779
# Poissons Ratio (z) = 1.31808 0.79231
#
# Static dielectric constant tensor:
#      x y z
#    x 1.488040 0.000000 0.000000 
#    y 0.000000 1.448860 0.000000 
#    z 0.000000 0.000000 1.481890 
# 
# From -- ./inp_files/8029.got.cif
#   From: 2010.05.17/outbox.cif.g08.bks.cpg/sg47_5_cif.got.tgz:8029.got - 2010.06.03 20:15:42.
