data_PCOD9382129
_publ_section_title
;
Structure prediction by ZEFSAII (Michael W. Deem and Ramdas Pophale) SiO2 
 PCOD9382129
Probable space group: P M M M
;
_chemical_formula_sum "Si O2"
_cell_formula_units_Z 56
_cell_length_a 14.290005
_cell_length_b 13.265771
_cell_length_c 17.521282
_cell_angle_alpha 90.000000
_cell_angle_beta 90.000000
_cell_angle_gamma 90.000000
_cell_volume 3321.473228
_symmetry_space_group_name_H-M "P M M M"
_symmetry_group_IT_number 47
_symmetry_cell_setting 'orthorhombic'
loop_
_space_group_symop_operation_xyz
x,y,z
-x,-y,z
x,-y,-z
-x,y,-z
-x,-y,-z
x,y,-z
-x,y,z
x,-y,z
loop_
_atom_site_type_symbol
_atom_site_label
_atom_site_fract_x
_atom_site_fract_y
_atom_site_fract_z
Si Si1 0.389261 0.616790 0.748890
Si Si2 0.111625 0.616155 0.197228
Si Si3 0.761339 0.243668 0.300350
Si Si4 0.612609 0.699977 0.085821
Si Si5 0.107696 0.118514 0.591615
Si Si6 0.104459 0.796233 0.909787
Si Si7 0.284233 0.114304 0.845795
O O1 0.500000 0.638090 0.744723
O O2 0.373625 0.500000 0.732168
O O3 0.330863 0.687524 0.692088
O O4 0.359452 0.637685 0.837813
O O5 0.142119 0.500000 0.190850
O O6 0.165116 0.678664 0.261902
O O7 0.128184 0.685202 0.122636
O O8 0.000000 0.615723 0.210960
O O9 0.815257 0.187624 0.367848
O O10 0.728968 0.160156 0.238529
O O11 0.500000 0.697719 0.084087
O O12 0.650184 0.811401 0.105320
O O13 0.644802 0.669466 0.000000
O O14 0.113138 0.127713 0.500000
O O15 0.000000 0.144430 0.614328
O O16 0.121831 0.000000 0.610680
O O17 0.181144 0.873887 0.881314
O O18 0.000000 0.821699 0.882009
O O19 0.104506 0.793597 0.000000
O O20 0.316525 0.000000 0.845520
#
# Coordination Sequence:
#
# PCOD9382129 Si02
#       7
#     8   8   8   8   8   8   8
#     4   9  18  32  50  72  97 128 168 210 249 289
#     4   9  17  28  43  64  88 116 151 189 232 283
#     4  10  18  31  50  71  96 125 155 192 236 283
#     4   9  18  31  46  66  91 119 157 207 257 298
#     4   9  18  33  55  83 109 130 154 186 228 281
#     4   9  18  30  41  56  80 111 151 196 235 272
#     4  10  20  31  43  61  86 118 155 192 233 284
#
# _framework density 16.85999
#
# number of rings (size 3 to 8) (size 9 to 14) (size 15 to 20)
#    0.000    2.714    0.000    2.143    0.000    2.857 
#    0.000    4.286    0.000    8.571    0.000    7.000 
#    0.000    0.000    0.000    0.000    0.000    0.000 
#
# Total GULP energy -311883.537519 kJ/mol
# GULP energy per Si atom -5569.348884 kJ/mol
# Density = 1.682162 g / cm^3
# Si number density = 16.859990 Si / 1000 Ang^3
#
#
#
# Elastic Constant Matrix: (Units=GPa)
#
#
# Indices 1 2 3 4 5 6 
#
# 1 53.8952 25.6552 23.4409 0.0000 0.0000 0.0000
# 2 25.6552 74.4254 18.6787 0.0000 0.0000 0.0000
# 3 23.4409 18.6787 36.9388 0.0000 0.0000 0.0000
# 4 0.0000 0.0000 0.0000 5.5591 0.0000 0.0000
# 5 0.0000 0.0000 0.0000 0.0000 25.9950 0.0000
# 6 0.0000 0.0000 0.0000 0.0000 0.0000 24.8608
#
#
#
# Elastic Compliance Matrix: (Units=1/GPa)
#
#
# Indices 1 2 3 4 5 6 
#
# 1 0.027710 -0.005886 -0.014608 0.000000 0.000000 0.000000
# 2 -0.005886 0.016639 -0.004679 0.000000 0.000000 0.000000
# 3 -0.014608 -0.004679 0.038708 0.000000 0.000000 0.000000
# 4 0.000000 0.000000 0.000000 0.179885 0.000000 0.000000
# 5 0.000000 0.000000 0.000000 0.000000 0.038469 0.000000
# 6 0.000000 0.000000 0.000000 0.000000 0.000000 0.040224
#
#
# Mechanical properties :
#
#
# Convention : Reuss Voigt Hill
#
# Bulk Modulus (GPa) = 30.57017 33.42321 31.99669
# Shear Modulus (GPa) = 12.41052 17.78196 15.09624
#
# Velocity S-wave (km/s) = 2.71605 3.25111 2.99555
# Velocity P-wave (km/s) = 5.29217 5.82752 5.56628
#
# Compressibility (1/GPa) = 0.03271162
#
# Stress axis : x y z
#
# Youngs Moduli (GPa) = 36.08833 60.09828 25.83447
#
# Poissons Ratio (x) = 0.35372 0.37739
# Poissons Ratio (y) = 0.21240 0.12088
# Poissons Ratio (z) = 0.52718 0.28120
#
# Static dielectric constant tensor:
#      x y z
#    x 1.613450 0.000000 0.000000 
#    y 0.000000 1.565680 0.000000 
#    z 0.000000 0.000000 1.555500 
# 
# From -- ./inp_files/17677.got.cif
#   From: 2010.05.17/outbox.cif.g08.bks.cpg/sg47_9_cif.got.tgz:17677.got - 2010.06.03 20:15:42.
