data_PCOD9382028
_publ_section_title
;
Structure prediction by ZEFSAII (Michael W. Deem and Ramdas Pophale) SiO2 
 PCOD9382028
Probable space group: P M M M
;
_chemical_formula_sum "Si O2"
_cell_formula_units_Z 52
_cell_length_a 12.439300
_cell_length_b 28.348775
_cell_length_c 7.630924
_cell_angle_alpha 90.000000
_cell_angle_beta 90.000000
_cell_angle_gamma 90.000000
_cell_volume 2690.960774
_symmetry_space_group_name_H-M "P M M M"
_symmetry_group_IT_number 47
_symmetry_cell_setting 'orthorhombic'
loop_
_space_group_symop_operation_xyz
x,y,z
-x,-y,z
x,-y,-z
-x,y,-z
-x,-y,-z
x,y,-z
-x,y,z
x,-y,z
loop_
_atom_site_type_symbol
_atom_site_label
_atom_site_fract_x
_atom_site_fract_y
_atom_site_fract_z
Si Si1 0.000000 0.555042 0.785143
Si Si2 0.375807 0.500000 0.710310
Si Si3 0.377546 0.326035 0.792743
Si Si4 0.500000 0.945736 0.284815
Si Si5 0.625376 0.779431 0.289026
Si Si6 0.769119 0.409416 0.792081
Si Si7 0.692708 0.879564 0.293872
Si Si8 0.876353 0.948325 0.788640
O O1 0.888686 0.578911 0.724033
O O2 0.000000 0.500000 0.733954
O O3 0.000000 0.555610 0.000000
O O4 0.500000 0.500000 0.773298
O O5 0.378599 0.500000 0.500000
O O6 0.309126 0.545794 0.768572
O O7 0.500000 0.329739 0.720161
O O8 0.339867 0.272090 0.773263
O O9 0.294097 0.364044 0.718793
O O10 0.386144 0.335619 0.000000
O O11 0.500000 0.947128 0.500000
O O12 0.603170 0.915842 0.224331
O O13 0.500000 0.000000 0.226240
O O14 0.631367 0.777631 0.500000
O O15 0.500000 0.785192 0.239899
O O16 0.684829 0.826417 0.223436
O O17 0.783448 0.401908 0.000000
O O18 0.668277 0.875102 0.500000
O O19 0.805332 0.905270 0.273178
O O20 0.000000 0.944549 0.732853
O O21 0.834632 0.000000 0.729700
O O22 0.874716 0.948398 0.000000
#
# Coordination Sequence:
#
# PCOD9382028 Si02
#       8
#     4   4   8   4   8   8   8   8
#     4   9  16  30  54  80 100 128 170 208 241 286
#     4  11  23  34  47  74 110 139 166 203 250 301
#     4   9  18  31  49  74  99 126 167 211 249 291
#     4   9  16  26  43  71 105 131 155 196 245 290
#     4   9  17  31  50  72 100 133 164 198 246 301
#     4  10  19  34  55  76 101 134 171 210 248 291
#     4  10  18  30  50  75  99 128 167 204 242 292
#     4   9  19  35  51  68  95 130 164 202 251 300
#
# _framework density 19.323951999999998
#
# number of rings (size 3 to 8) (size 9 to 14) (size 15 to 20)
#    0.000    2.538    1.538    1.615    0.000    3.692 
#    0.000    3.462    1.692    1.385    0.000    0.000 
#    0.000    0.000    0.000    0.000    0.000    0.000 
#
# Total GULP energy -290024.912289 kJ/mol
# GULP energy per Si atom -5577.402159 kJ/mol
# Density = 1.927997 g / cm^3
# Si number density = 19.323952 Si / 1000 Ang^3
#
#
#
# Elastic Constant Matrix: (Units=GPa)
#
#
# Indices 1 2 3 4 5 6 
#
# 1 120.9696 94.0194 -0.0786 0.0000 0.0000 0.0000
# 2 94.0194 188.6945 -0.5183 0.0000 0.0000 0.0000
# 3 -0.0786 -0.5183 33.3180 0.0000 0.0000 0.0000
# 4 0.0000 0.0000 0.0000 20.2008 0.0000 0.0000
# 5 0.0000 0.0000 0.0000 0.0000 8.4663 0.0000
# 6 0.0000 0.0000 0.0000 0.0000 0.0000 32.5897
#
#
#
# Elastic Compliance Matrix: (Units=1/GPa)
#
#
# Indices 1 2 3 4 5 6 
#
# 1 0.013491 -0.006722 -0.000073 0.000000 0.000000 0.000000
# 2 -0.006722 0.008649 0.000119 0.000000 0.000000 0.000000
# 3 -0.000073 0.000119 0.030016 0.000000 0.000000 0.000000
# 4 0.000000 0.000000 0.000000 0.049503 0.000000 0.000000
# 5 0.000000 0.000000 0.000000 0.000000 0.118116 0.000000
# 6 0.000000 0.000000 0.000000 0.000000 0.000000 0.030685
#
#
# Mechanical properties :
#
#
# Convention : Reuss Voigt Hill
#
# Bulk Modulus (GPa) = 25.77103 58.86967 42.32035
# Shear Modulus (GPa) = 18.06705 28.88865 23.47785
#
# Velocity S-wave (km/s) = 3.06102 3.87067 3.48941
# Velocity P-wave (km/s) = 5.08512 7.10682 6.17921
#
# Compressibility (1/GPa) = 0.03880326
#
# Stress axis : x y z
#
# Youngs Moduli (GPa) = 74.12226 115.61488 33.31612
#
# Poissons Ratio (x) = 0.77721 0.00242
# Poissons Ratio (y) = 0.49828 -0.00396
# Poissons Ratio (z) = 0.00539 -0.01373
#
# Static dielectric constant tensor:
#      x y z
#    x 1.669690 0.000000 0.000000 
#    y 0.000000 1.679940 0.000000 
#    z 0.000000 0.000000 1.732600 
# 
# From -- ./inp_files/4640.got.cif
#   From: 2010.05.17/outbox.cif.g08.bks.cpg/sg47_3_cif.got.tgz:4640.got - 2010.06.03 20:15:42.
