data_PCOD9382713
_publ_section_title
;
Structure prediction by ZEFSAII (Michael W. Deem and Ramdas Pophale) SiO2 
 PCOD9382713
Probable space group: P M M M
;
_chemical_formula_sum "Si O2"
_cell_formula_units_Z 64
_cell_length_a 9.112735
_cell_length_b 23.984518
_cell_length_c 19.482238
_cell_angle_alpha 90.000000
_cell_angle_beta 90.000000
_cell_angle_gamma 90.000000
_cell_volume 4258.126711
_symmetry_space_group_name_H-M "P M M M"
_symmetry_group_IT_number 47
_symmetry_cell_setting 'orthorhombic'
loop_
_space_group_symop_operation_xyz
x,y,z
-x,-y,z
x,-y,-z
-x,y,-z
-x,-y,-z
x,y,-z
-x,y,z
x,-y,z
loop_
_atom_site_type_symbol
_atom_site_label
_atom_site_fract_x
_atom_site_fract_y
_atom_site_fract_z
Si Si1 0.174632 0.165677 0.652704
Si Si2 0.174445 0.564960 0.788515
Si Si3 0.674877 0.730744 0.578593
Si Si4 0.674543 0.746313 0.922181
Si Si5 0.325392 0.612749 0.078107
Si Si6 0.825234 0.233066 0.213890
Si Si7 0.676172 0.935319 0.579734
Si Si8 0.674911 0.337299 0.710783
O O1 0.240553 0.214975 0.605562
O O2 0.206238 0.184410 0.731027
O O3 0.246087 0.108102 0.629313
O O4 0.000000 0.163568 0.644132
O O5 0.203925 0.500000 0.775576
O O6 0.236032 0.581796 0.863296
O O7 0.253706 0.605256 0.734413
O O8 0.000000 0.574336 0.786563
O O9 0.712602 0.718029 0.500000
O O10 0.500000 0.742458 0.582111
O O11 0.703777 0.681001 0.632302
O O12 0.500000 0.754909 0.913398
O O13 0.699611 0.679436 0.916542
O O14 0.763182 0.775930 0.862000
O O15 0.714317 0.762675 0.000000
O O16 0.500000 0.603623 0.087881
O O17 0.288129 0.595899 0.000000
O O18 0.745608 0.288099 0.243574
O O19 0.000000 0.242175 0.212471
O O20 0.714756 0.923098 0.500000
O O21 0.500000 0.929828 0.585345
O O22 0.713568 0.000000 0.593199
O O23 0.500000 0.338515 0.722290
#
# Coordination Sequence:
#
# PCOD9382713 Si02
#       8
#     8   8   8   8   8   8   8   8
#     4  10  20  30  43  69 101 128 157 192 226 266
#     4  11  23  35  47  65  89 115 145 183 223 268
#     4   9  18  32  50  71  93 117 146 184 229 273
#     4   9  17  29  46  68  92 118 150 186 224 269
#     4   9  18  32  49  68  89 114 146 183 220 262
#     4  10  19  30  45  67  95 123 151 185 226 270
#     4   9  18  32  48  66  92 129 170 205 233 264
#     4  10  19  32  50  68  87 113 146 182 223 272
#
# _framework density 15.030085
#
# number of rings (size 3 to 8) (size 9 to 14) (size 15 to 20)
#    0.000    2.375    1.250    3.000    0.000    6.000 
#    0.000    3.125    0.000    0.375    0.000    2.625 
#    0.000    0.500    0.000    5.500    0.000    4.000 
#
# Total GULP energy -356933.571063 kJ/mol
# GULP energy per Si atom -5577.087048 kJ/mol
# Density = 1.499588 g / cm^3
# Si number density = 15.030085 Si / 1000 Ang^3
#
#
#
# Elastic Constant Matrix: (Units=GPa)
#
#
# Indices 1 2 3 4 5 6 
#
# 1 55.8601 54.3204 62.8342 0.0000 0.0000 0.0000
# 2 54.3204 87.4116 66.2849 0.0000 0.0000 0.0000
# 3 62.8342 66.2849 134.1838 0.0000 0.0000 0.0000
# 4 0.0000 0.0000 0.0000 23.2751 0.0000 0.0000
# 5 0.0000 0.0000 0.0000 0.0000 18.2688 0.0000
# 6 0.0000 0.0000 0.0000 0.0000 0.0000 22.6498
#
#
#
# Elastic Compliance Matrix: (Units=1/GPa)
#
#
# Indices 1 2 3 4 5 6 
#
# 1 0.060525 -0.025776 -0.015609 0.000000 0.000000 0.000000
# 2 -0.025776 0.029269 -0.002389 0.000000 0.000000 0.000000
# 3 -0.015609 -0.002389 0.015942 0.000000 0.000000 0.000000
# 4 0.000000 0.000000 0.000000 0.042964 0.000000 0.000000
# 5 0.000000 0.000000 0.000000 0.000000 0.054738 0.000000
# 6 0.000000 0.000000 0.000000 0.000000 0.000000 0.044150
#
#
# Mechanical properties :
#
#
# Convention : Reuss Voigt Hill
#
# Bulk Modulus (GPa) = 54.97815 71.59270 63.28543
# Shear Modulus (GPa) = 14.65416 19.10648 16.88032
#
# Velocity S-wave (km/s) = 3.12587 3.56928 3.35491
# Velocity P-wave (km/s) = 7.04884 8.04504 7.56336
#
# Compressibility (1/GPa) = 0.01818904
#
# Stress axis : x y z
#
# Youngs Moduli (GPa) = 16.52199 34.16537 62.72824
#
# Poissons Ratio (x) = 0.88064 0.97914
# Poissons Ratio (y) = 0.42587 0.14983
# Poissons Ratio (z) = 0.25790 0.08161
#
# Static dielectric constant tensor:
#      x y z
#    x 1.496940 0.000000 0.000000 
#    y 0.000000 1.472980 0.000000 
#    z 0.000000 0.000000 1.511170 
# 
# From -- ./inp_files/12884.got.cif
#   From: 2010.05.17/outbox.cif.g08.bks.cpg/sg47_7_cif.got.tgz:12884.got - 2010.06.03 20:15:42.
