data_PCOD9382631
_publ_section_title
;
Structure prediction by ZEFSAII (Michael W. Deem and Ramdas Pophale) SiO2 
 PCOD9382631
Probable space group: P M M M
;
_chemical_formula_sum "Si O2"
_cell_formula_units_Z 44
_cell_length_a 15.471363
_cell_length_b 9.977759
_cell_length_c 15.254963
_cell_angle_alpha 90.000000
_cell_angle_beta 90.000000
_cell_angle_gamma 90.000000
_cell_volume 2354.901490
_symmetry_space_group_name_H-M "P M M M"
_symmetry_group_IT_number 47
_symmetry_cell_setting 'orthorhombic'
loop_
_space_group_symop_operation_xyz
x,y,z
-x,-y,z
x,-y,-z
-x,y,-z
-x,-y,-z
x,y,-z
-x,y,z
x,-y,z
loop_
_atom_site_type_symbol
_atom_site_label
_atom_site_fract_x
_atom_site_fract_y
_atom_site_fract_z
Si Si1 0.598512 0.152990 0.346411
Si Si2 0.098556 0.662125 0.000000
Si Si3 0.751623 0.345349 0.871204
Si Si4 0.403013 0.153991 0.132913
Si Si5 0.247260 0.345221 0.659947
Si Si6 0.098455 0.851124 0.605257
O O1 0.500000 0.181974 0.374858
O O2 0.597997 0.154448 0.239734
O O3 0.669641 0.261349 0.373017
O O4 0.620219 0.000000 0.373422
O O5 0.158437 0.697811 0.083608
O O6 0.091997 0.500000 0.000000
O O7 0.000000 0.714112 0.000000
O O8 0.735686 0.500000 0.896549
O O9 0.672589 0.250676 0.897847
O O10 0.754713 0.342327 0.765937
O O11 0.500000 0.194908 0.106591
O O12 0.389201 0.000000 0.106112
O O13 0.249231 0.500000 0.631790
O O14 0.162680 0.265336 0.631390
O O15 0.096254 0.855422 0.500000
O O16 0.000000 0.829508 0.635970
O O17 0.127147 0.000000 0.635994
#
# Coordination Sequence:
#
# PCOD9382631 Si02
#       6
#     8   4   8   8   8   8
#     4   8  14  26  45  68  95 130 168 198 227 274
#     4   9  18  34  52  65  86 126 169 205 240 279
#     4   9  18  31  48  71  95 124 164 202 236 278
#     4   8  14  26  45  68  94 124 155 190 237 287
#     4  10  19  29  47  77 105 126 154 198 248 291
#     4   9  19  36  55  73  95 126 162 196 234 287
#
# _framework density 18.684434
#
# number of rings (size 3 to 8) (size 9 to 14) (size 15 to 20)
#    0.000    3.182    0.000    2.182    0.000    2.909 
#    0.000    7.273    0.000    4.364    0.000    3.818 
#    0.000    0.000    0.000    0.000    0.000    0.000 
#
# Total GULP energy -245194.320966 kJ/mol
# GULP energy per Si atom -5572.598204 kJ/mol
# Density = 1.864191 g / cm^3
# Si number density = 18.684434 Si / 1000 Ang^3
#
#
#
# Elastic Constant Matrix: (Units=GPa)
#
#
# Indices 1 2 3 4 5 6 
#
# 1 168.9412 114.0831 10.6451 0.0000 0.0000 0.0000
# 2 114.0831 140.6740 17.4692 0.0000 0.0000 0.0000
# 3 10.6451 17.4692 11.1168 0.0000 0.0000 0.0000
# 4 0.0000 0.0000 0.0000 0.4629 0.0000 0.0000
# 5 0.0000 0.0000 0.0000 0.0000 52.9480 0.0000
# 6 0.0000 0.0000 0.0000 0.0000 0.0000 30.9344
#
#
#
# Elastic Compliance Matrix: (Units=1/GPa)
#
#
# Indices 1 2 3 4 5 6 
#
# 1 0.013327 -0.011459 0.005246 0.000000 0.000000 0.000000
# 2 -0.011459 0.018686 -0.018390 0.000000 0.000000 0.000000
# 3 0.005246 -0.018390 0.113829 0.000000 0.000000 0.000000
# 4 0.000000 0.000000 0.000000 2.160154 0.000000 0.000000
# 5 0.000000 0.000000 0.000000 0.000000 0.018886 0.000000
# 6 0.000000 0.000000 0.000000 0.000000 0.000000 0.032326
#
#
# Mechanical properties :
#
#
# Convention : Reuss Voigt Hill
#
# Bulk Modulus (GPa) = 10.34820 67.23632 38.79226
# Shear Modulus (GPa) = 2.05033 28.77136 15.41085
#
# Velocity S-wave (km/s) = 1.04868 3.92836 2.87504
# Velocity P-wave (km/s) = 2.64891 7.52591 5.64163
#
# Compressibility (1/GPa) = 0.09663515
#
# Stress axis : x y z
#
# Youngs Moduli (GPa) = 75.03620 53.51741 8.78510
#
# Poissons Ratio (x) = 0.61327 -0.04609
# Poissons Ratio (y) = 0.85986 0.16156
# Poissons Ratio (z) = -0.39364 0.98418
#
# Static dielectric constant tensor:
#      x y z
#    x 1.637660 0.000000 0.000000 
#    y 0.000000 1.630480 0.000000 
#    z 0.000000 0.000000 1.689070 
# 
# From -- ./inp_files/20905.got.cif
#   From: 2010.05.17/outbox.cif.g08.bks.cpg/sg47_11_cif.got.tgz:20905.got - 2010.06.03 20:15:42.
