data_PCOD9382817
_publ_section_title
;
Structure prediction by ZEFSAII (Michael W. Deem and Ramdas Pophale) SiO2 
 PCOD9382817
Probable space group: P M M M
;
_chemical_formula_sum "Si O2"
_cell_formula_units_Z 40
_cell_length_a 7.359468
_cell_length_b 13.196483
_cell_length_c 19.082773
_cell_angle_alpha 90.000000
_cell_angle_beta 90.000000
_cell_angle_gamma 90.000000
_cell_volume 1853.301631
_symmetry_space_group_name_H-M "P M M M"
_symmetry_group_IT_number 47
_symmetry_cell_setting 'orthorhombic'
loop_
_space_group_symop_operation_xyz
x,y,z
-x,-y,z
x,-y,-z
-x,y,-z
-x,-y,-z
x,y,-z
-x,y,z
x,-y,z
loop_
_atom_site_type_symbol
_atom_site_label
_atom_site_fract_x
_atom_site_fract_y
_atom_site_fract_z
Si Si1 0.778504 0.000000 0.919196
Si Si2 0.213134 0.810559 0.671070
Si Si3 0.718710 0.385532 0.420074
Si Si4 0.778820 0.385925 0.919660
Si Si5 0.777311 0.000000 0.580354
Si Si6 0.222456 0.195654 0.170035
O O1 0.722552 0.900264 0.876655
O O2 0.000000 0.000000 0.920365
O O3 0.719018 0.000000 0.000000
O O4 0.228966 0.702307 0.633254
O O5 0.284717 0.899760 0.621447
O O6 0.286346 0.810976 0.749932
O O7 0.000000 0.832771 0.678617
O O8 0.779738 0.363113 0.500000
O O9 0.500000 0.387444 0.421436
O O10 0.779595 0.500000 0.401887
O O11 0.721283 0.500000 0.901298
O O12 0.718434 0.299107 0.867205
O O13 0.000000 0.385652 0.919241
O O14 0.724526 0.364704 0.000000
O O15 0.717983 0.000000 0.500000
O O16 0.000000 0.000000 0.578896
O O17 0.000000 0.196441 0.170520
#
# Coordination Sequence:
#
# PCOD9382817 Si02
#       6
#     4   8   8   8   4   8
#     4   9  15  23  37  56  84 127 168 192 220 273
#     4  10  19  30  47  71  98 126 156 194 239 285
#     4   9  19  36  54  70  92 123 157 195 239 286
#     4   8  13  21  32  46  70 107 143 172 210 260
#     4   9  17  29  44  63  90 122 152 183 224 273
#     4   9  16  24  35  56  86 115 147 189 229 263
#
# _framework density 21.583103000000001
#
# number of rings (size 3 to 8) (size 9 to 14) (size 15 to 20)
#    0.000    3.000    0.000    3.000    0.000    7.200 
#    0.000    3.500    0.000    1.800    0.000    0.000 
#    0.000    4.000    0.000   11.000    0.000    8.400 
#
# Total GULP energy -223402.058831 kJ/mol
# GULP energy per Si atom -5585.051471 kJ/mol
# Density = 2.153398 g / cm^3
# Si number density = 21.583103 Si / 1000 Ang^3
#
#
#
# Elastic Constant Matrix: (Units=GPa)
#
#
# Indices 1 2 3 4 5 6 
#
# 1 77.1548 -0.8428 5.9129 0.0000 0.0000 0.0000
# 2 -0.8428 194.5765 162.6842 0.0000 0.0000 0.0000
# 3 5.9129 162.6842 234.4398 0.0000 0.0000 0.0000
# 4 0.0000 0.0000 0.0000 -20.7304 0.0000 0.0000
# 5 0.0000 0.0000 0.0000 0.0000 -4.3168 0.0000
# 6 0.0000 0.0000 0.0000 0.0000 0.0000 1.4928
#
#
#
# Elastic Compliance Matrix: (Units=1/GPa)
#
#
# Indices 1 2 3 4 5 6 
#
# 1 0.013037 0.000789 -0.000877 0.000000 0.000000 0.000000
# 2 0.000789 0.012290 -0.008548 0.000000 0.000000 0.000000
# 3 -0.000877 -0.008548 0.010219 0.000000 0.000000 0.000000
# 4 0.000000 0.000000 0.000000 -0.048238 0.000000 0.000000
# 5 0.000000 0.000000 0.000000 0.000000 -0.231651 0.000000
# 6 0.000000 0.000000 0.000000 0.000000 0.000000 0.669902
#
#
# Mechanical properties :
#
#
# Convention : Reuss Voigt Hill
#
# Bulk Modulus (GPa) = 54.71879 93.51998 74.11939
# Shear Modulus (GPa) = 11.13782 17.85022 14.49402
#
# Velocity S-wave (km/s) = 2.27412 2.87896 2.59423
# Velocity P-wave (km/s) = 5.68359 7.38075 6.58706
#
# Compressibility (1/GPa) = 0.01827526
#
# Stress axis : x y z
#
# Youngs Moduli (GPa) = 76.70618 81.36775 97.85288
#
# Poissons Ratio (x) = -0.06423 0.08577
# Poissons Ratio (y) = -0.06055 0.83647
# Poissons Ratio (z) = 0.06724 0.69555
#
# Static dielectric constant tensor:
#      x y z
#    x 1.819170 0.000000 0.000000 
#    y 0.000000 1.740100 0.000000 
#    z 0.000000 0.000000 1.758040 
# 
# From -- ./inp_files/29363.got.cif
#   From: 2010.05.17/outbox.cif.g08.bks.cpg/sg47_15_cif.got.tgz:29363.got - 2010.06.03 20:15:42.
