data_PCOD9382378
_publ_section_title
;
Structure prediction by ZEFSAII (Michael W. Deem and Ramdas Pophale) SiO2 
 PCOD9382378
Probable space group: P M M M
;
_chemical_formula_sum "Si O2"
_cell_formula_units_Z 64
_cell_length_a 18.702176
_cell_length_b 9.128346
_cell_length_c 27.284982
_cell_angle_alpha 90.000000
_cell_angle_beta 90.000000
_cell_angle_gamma 90.000000
_cell_volume 4658.090312
_symmetry_space_group_name_H-M "P M M M"
_symmetry_group_IT_number 47
_symmetry_cell_setting 'orthorhombic'
loop_
_space_group_symop_operation_xyz
x,y,z
-x,-y,z
x,-y,-z
-x,y,-z
-x,-y,-z
x,y,-z
-x,y,z
x,-y,z
loop_
_atom_site_type_symbol
_atom_site_label
_atom_site_fract_x
_atom_site_fract_y
_atom_site_fract_z
Si Si1 0.705465 0.167535 0.796435
Si Si2 0.152573 0.823350 0.252350
Si Si3 0.086752 0.829543 0.554586
Si Si4 0.666327 0.324197 0.945339
Si Si5 0.913872 0.672273 0.346303
Si Si6 0.418545 0.323761 0.152026
Si Si7 0.915748 0.326162 0.157211
Si Si8 0.204366 0.168502 0.898261
O O1 0.763950 0.216278 0.756577
O O2 0.636025 0.262677 0.807548
O O3 0.751405 0.168724 0.846941
O O4 0.684574 0.000000 0.786476
O O5 0.122973 0.763318 0.303229
O O6 0.107906 0.750709 0.207995
O O7 0.146962 0.000000 0.249071
O O8 0.110698 0.783410 0.500000
O O9 0.109192 0.731684 0.600404
O O10 0.000000 0.825276 0.553923
O O11 0.106758 0.000000 0.561937
O O12 0.675339 0.500000 0.942044
O O13 0.612805 0.280514 0.901497
O O14 0.742463 0.248180 0.935576
O O15 0.640100 0.288946 0.000000
O O16 0.898790 0.500000 0.341188
O O17 0.000000 0.691420 0.342397
O O18 0.500000 0.273193 0.157929
O O19 0.417834 0.500000 0.153796
O O20 0.901199 0.500000 0.160614
O O21 0.867693 0.255121 0.114526
O O22 0.000000 0.304811 0.149454
O O23 0.190694 0.000000 0.911668
#
# Coordination Sequence:
#
# PCOD9382378 Si02
#       8
#     8   8   8   8   8   8   8   8
#     4   8  16  29  42  57  76 101 131 158 187 225
#     4  10  19  29  41  57  78 104 134 166 199 237
#     4   8  14  25  39  52  68  96 135 175 213 251
#     4   9  17  29  45  63  83 107 130 153 185 222
#     4  10  19  27  36  54  79 105 135 173 215 252
#     4   9  17  28  43  64  86 106 129 155 182 217
#     4  10  19  29  42  60  80 100 124 157 197 239
#     4   9  17  29  44  60  78 101 129 158 187 225
#
# _framework density 13.739537
#
# number of rings (size 3 to 8) (size 9 to 14) (size 15 to 20)
#    0.000    2.875    0.000    3.000    0.000    7.750 
#    0.000    2.500    0.000    0.375    0.000    6.125 
#    0.000    0.000    0.000    0.000    0.000    0.625 
#
# Total GULP energy -356349.858114 kJ/mol
# GULP energy per Si atom -5567.966533 kJ/mol
# Density = 1.370826 g / cm^3
# Si number density = 13.739537 Si / 1000 Ang^3
#
#
#
# Elastic Constant Matrix: (Units=GPa)
#
#
# Indices 1 2 3 4 5 6 
#
# 1 80.1596 42.3163 24.1457 0.0000 0.0000 0.0000
# 2 42.3163 49.3703 20.3848 0.0000 0.0000 0.0000
# 3 24.1457 20.3848 34.3515 0.0000 0.0000 0.0000
# 4 0.0000 0.0000 0.0000 19.2987 0.0000 0.0000
# 5 0.0000 0.0000 0.0000 0.0000 9.7418 0.0000
# 6 0.0000 0.0000 0.0000 0.0000 0.0000 16.4198
#
#
#
# Elastic Compliance Matrix: (Units=1/GPa)
#
#
# Indices 1 2 3 4 5 6 
#
# 1 0.023712 -0.017805 -0.006102 0.000000 0.000000 0.000000
# 2 -0.017805 0.040198 -0.011339 0.000000 0.000000 0.000000
# 3 -0.006102 -0.011339 0.040128 0.000000 0.000000 0.000000
# 4 0.000000 0.000000 0.000000 0.051817 0.000000 0.000000
# 5 0.000000 0.000000 0.000000 0.000000 0.102650 0.000000
# 6 0.000000 0.000000 0.000000 0.000000 0.000000 0.060902
#
#
# Mechanical properties :
#
#
# Convention : Reuss Voigt Hill
#
# Bulk Modulus (GPa) = 29.80853 37.50833 33.65843
# Shear Modulus (GPa) = 12.46628 14.22770 13.34699
#
# Velocity S-wave (km/s) = 3.01546 3.22146 3.12016
# Velocity P-wave (km/s) = 5.81950 6.41840 6.12627
#
# Compressibility (1/GPa) = 0.03354744
#
# Stress axis : x y z
#
# Youngs Moduli (GPa) = 42.17211 24.87683 24.91999
#
# Poissons Ratio (x) = 0.44293 0.15205
# Poissons Ratio (y) = 0.75088 0.28257
# Poissons Ratio (z) = 0.25732 0.28208
#
# Static dielectric constant tensor:
#      x y z
#    x 1.440780 0.000000 0.000000 
#    y 0.000000 1.463180 0.000000 
#    z 0.000000 0.000000 1.449300 
# 
# From -- ./inp_files/10255.got.cif
#   From: 2010.05.17/outbox.cif.g08.bks.cpg/sg47_6_cif.got.tgz:10255.got - 2010.06.03 20:15:42.
