data_PCOD9382450
_publ_section_title
;
Structure prediction by ZEFSAII (Michael W. Deem and Ramdas Pophale) SiO2 
 PCOD9382450
Probable space group: P M M M
;
_chemical_formula_sum "Si O2"
_cell_formula_units_Z 52
_cell_length_a 14.193825
_cell_length_b 7.767146
_cell_length_c 29.163348
_cell_angle_alpha 90.000000
_cell_angle_beta 90.000000
_cell_angle_gamma 90.000000
_cell_volume 3215.128205
_symmetry_space_group_name_H-M "P M M M"
_symmetry_group_IT_number 47
_symmetry_cell_setting 'orthorhombic'
loop_
_space_group_symop_operation_xyz
x,y,z
-x,-y,z
x,-y,-z
-x,y,-z
-x,-y,-z
x,y,-z
-x,y,z
x,-y,z
loop_
_atom_site_type_symbol
_atom_site_label
_atom_site_fract_x
_atom_site_fract_y
_atom_site_fract_z
Si Si1 0.885112 0.500000 0.947315
Si Si2 0.114718 0.802106 0.879976
Si Si3 0.892384 0.792332 0.777994
Si Si4 0.896364 0.797466 0.592623
Si Si5 0.603378 0.295589 0.644109
Si Si6 0.700163 0.209045 0.551481
Si Si7 0.798275 0.295755 0.316315
O O1 0.855506 0.330893 0.918989
O O2 0.000000 0.500000 0.947632
O O3 0.853915 0.500000 0.000000
O O4 0.141864 0.741211 0.828755
O O5 0.000000 0.804379 0.879376
O O6 0.145101 0.000000 0.887460
O O7 0.830194 0.737621 0.735212
O O8 0.000000 0.729608 0.771534
O O9 0.895679 0.000000 0.778852
O O10 0.805329 0.728543 0.565571
O O11 0.870172 0.780940 0.646337
O O12 0.000000 0.722754 0.583455
O O13 0.900822 0.000000 0.581454
O O14 0.500000 0.222757 0.654325
O O15 0.599653 0.500000 0.652944
O O16 0.629559 0.269470 0.590827
O O17 0.693762 0.226894 0.671903
O O18 0.676672 0.263081 0.500000
O O19 0.700891 0.000000 0.552860
O O20 0.798427 0.500000 0.324613
#
# Coordination Sequence:
#
# PCOD9382450 Si02
#       7
#     4   8   8   8   8   8   8
#     4   9  16  24  36  54  76 108 151 195 230 255
#     4   8  15  26  37  52  77 109 145 184 223 260
#     4   9  17  28  41  58  83 113 139 167 207 250
#     4   9  17  29  43  58  81 110 132 154 190 239
#     4   9  19  35  49  60  79 105 131 161 199 247
#     4   9  18  31  46  65  84 100 126 164 199 234
#     4  10  19  28  42  63  80 100 133 168 202 241
#
# _framework density 16.173538000000001
#
# number of rings (size 3 to 8) (size 9 to 14) (size 15 to 20)
#    0.000    3.000    0.000    1.846    1.077    4.615 
#    0.000    4.615    0.000    0.000    0.000    4.308 
#    0.000    0.000    0.000    0.000    0.000    1.538 
#
# Total GULP energy -289698.254625 kJ/mol
# GULP energy per Si atom -5571.120281 kJ/mol
# Density = 1.613673 g / cm^3
# Si number density = 16.173538 Si / 1000 Ang^3
#
#
#
# Elastic Constant Matrix: (Units=GPa)
#
#
# Indices 1 2 3 4 5 6 
#
# 1 59.3359 1.7052 13.1483 0.0000 0.0000 0.0000
# 2 1.7052 30.0305 10.1210 0.0000 0.0000 0.0000
# 3 13.1483 10.1210 93.5257 0.0000 0.0000 0.0000
# 4 0.0000 0.0000 0.0000 26.9894 0.0000 0.0000
# 5 0.0000 0.0000 0.0000 0.0000 6.9095 0.0000
# 6 0.0000 0.0000 0.0000 0.0000 0.0000 9.5995
#
#
#
# Elastic Compliance Matrix: (Units=1/GPa)
#
#
# Indices 1 2 3 4 5 6 
#
# 1 0.017396 -0.000170 -0.002427 0.000000 0.000000 0.000000
# 2 -0.000170 0.034562 -0.003716 0.000000 0.000000 0.000000
# 3 -0.002427 -0.003716 0.011436 0.000000 0.000000 0.000000
# 4 0.000000 0.000000 0.000000 0.037052 0.000000 0.000000
# 5 0.000000 0.000000 0.000000 0.000000 0.144729 0.000000
# 6 0.000000 0.000000 0.000000 0.000000 0.000000 0.104172
#
#
# Mechanical properties :
#
#
# Convention : Reuss Voigt Hill
#
# Bulk Modulus (GPa) = 19.69797 25.87124 22.78461
# Shear Modulus (GPa) = 13.19628 19.22750 16.21189
#
# Velocity S-wave (km/s) = 2.85953 3.45167 3.16946
# Velocity P-wave (km/s) = 4.80709 5.64944 5.24520
#
# Compressibility (1/GPa) = 0.05076665
#
# Stress axis : x y z
#
# Youngs Moduli (GPa) = 57.48469 28.93388 87.44583
#
# Poissons Ratio (x) = 0.00491 0.21225
# Poissons Ratio (y) = 0.00976 0.32497
# Poissons Ratio (z) = 0.13953 0.10753
#
# Static dielectric constant tensor:
#      x y z
#    x 1.550350 0.000000 0.000000 
#    y 0.000000 1.593160 0.000000 
#    z 0.000000 0.000000 1.536240 
# 
# From -- ./inp_files/13411.got.cif
#   From: 2010.05.17/outbox.cif.g08.bks.cpg/sg47_7_cif.got.tgz:13411.got - 2010.06.03 20:15:42.
