data_PCOD9382190
_publ_section_title
;
Structure prediction by ZEFSAII (Michael W. Deem and Ramdas Pophale) SiO2 
 PCOD9382190
Probable space group: P M M M
;
_chemical_formula_sum "Si O2"
_cell_formula_units_Z 56
_cell_length_a 7.871220
_cell_length_b 15.976001
_cell_length_c 20.916139
_cell_angle_alpha 90.000000
_cell_angle_beta 90.000000
_cell_angle_gamma 90.000000
_cell_volume 2630.217418
_symmetry_space_group_name_H-M "P M M M"
_symmetry_group_IT_number 47
_symmetry_cell_setting 'orthorhombic'
loop_
_space_group_symop_operation_xyz
x,y,z
-x,-y,z
x,-y,-z
-x,y,-z
-x,-y,-z
x,y,-z
-x,y,z
x,-y,z
loop_
_atom_site_type_symbol
_atom_site_label
_atom_site_fract_x
_atom_site_fract_y
_atom_site_fract_z
Si Si1 0.304082 0.409173 0.611129
Si Si2 0.803009 0.627585 0.750217
Si Si3 0.205482 0.906587 0.674018
Si Si4 0.299503 0.225029 0.931375
Si Si5 0.201377 0.773887 0.429548
Si Si6 0.206009 0.590873 0.105697
Si Si7 0.701837 0.807579 0.791235
O O1 0.500000 0.407279 0.591054
O O2 0.231178 0.500000 0.591986
O O3 0.294220 0.402977 0.688194
O O4 0.222031 0.324129 0.586047
O O5 0.746035 0.594381 0.819197
O O6 0.787438 0.727629 0.757406
O O7 0.000000 0.604724 0.741367
O O8 0.270490 0.834982 0.625514
O O9 0.264926 0.885211 0.745514
O O10 0.000000 0.903728 0.674512
O O11 0.257618 0.000000 0.654710
O O12 0.500000 0.206125 0.932745
O O13 0.277805 0.325529 0.925448
O O14 0.232833 0.188272 0.864296
O O15 0.225450 0.198508 0.000000
O O16 0.273291 0.790970 0.500000
O O17 0.000000 0.790205 0.431786
O O18 0.256521 0.500000 0.079647
O O19 0.000000 0.596539 0.102386
O O20 0.500000 0.790589 0.793798
#
# Coordination Sequence:
#
# PCOD9382190 Si02
#       7
#     8   8   8   8   8   8   8
#     4  11  23  36  53  80 114 153 195 238 284 330
#     4  10  18  31  52  76 105 143 187 234 284 332
#     4  10  21  38  62  91 119 147 181 225 280 341
#     4   9  19  34  50  71 102 142 185 227 274 329
#     4  10  22  40  61  85 115 153 192 230 276 332
#     4   9  18  30  44  67 100 137 180 231 282 331
#     4  10  19  33  56  83 111 144 183 228 279 332
#
# _framework density 21.291017
#
# number of rings (size 3 to 8) (size 9 to 14) (size 15 to 20)
#    0.000    2.143    1.429    1.714    0.000    4.857 
#    0.000    4.286    0.000    0.429    0.000    5.000 
#    0.000    0.000    0.000    0.000    0.000    0.000 
#
# Total GULP energy -312573.638285 kJ/mol
# GULP energy per Si atom -5581.672112 kJ/mol
# Density = 2.124256 g / cm^3
# Si number density = 21.291017 Si / 1000 Ang^3
#
#
#
# Elastic Constant Matrix: (Units=GPa)
#
#
# Indices 1 2 3 4 5 6 
#
# 1 27.3288 0.8801 4.3109 0.0000 0.0000 0.0000
# 2 0.8801 93.4032 50.2439 0.0000 0.0000 0.0000
# 3 4.3109 50.2439 132.0643 0.0000 0.0000 0.0000
# 4 0.0000 0.0000 0.0000 -87.5182 0.0000 0.0000
# 5 0.0000 0.0000 0.0000 0.0000 12.5631 0.0000
# 6 0.0000 0.0000 0.0000 0.0000 0.0000 55.4718
#
#
#
# Elastic Compliance Matrix: (Units=1/GPa)
#
#
# Indices 1 2 3 4 5 6 
#
# 1 0.036791 0.000376 -0.001344 0.000000 0.000000 0.000000
# 2 0.000376 0.013465 -0.005135 0.000000 0.000000 0.000000
# 3 -0.001344 -0.005135 0.009570 0.000000 0.000000 0.000000
# 4 0.000000 0.000000 0.000000 -0.011426 0.000000 0.000000
# 5 0.000000 0.000000 0.000000 0.000000 0.079598 0.000000
# 6 0.000000 0.000000 0.000000 0.000000 0.000000 0.018027
#
#
# Mechanical properties :
#
#
# Convention : Reuss Voigt Hill
#
# Bulk Modulus (GPa) = 20.99945 40.40735 30.70340
# Shear Modulus (GPa) = 28.71840 9.26076 18.98958
#
# Velocity S-wave (km/s) = 3.67665 2.08783 2.98972
# Velocity P-wave (km/s) = 5.28282 4.98316 5.13518
#
# Compressibility (1/GPa) = 0.04762029
#
# Stress axis : x y z
#
# Youngs Moduli (GPa) = 27.18031 74.26662 104.49783
#
# Poissons Ratio (x) = -0.02795 0.14046
# Poissons Ratio (y) = -0.01023 0.53660
# Poissons Ratio (z) = 0.03653 0.38136
#
# Static dielectric constant tensor:
#      x y z
#    x 1.772940 0.000000 0.000000 
#    y 0.000000 1.769110 0.000000 
#    z 0.000000 0.000000 1.809090 
# 
# From -- ./inp_files/7264.got.cif
#   From: 2010.05.17/outbox.cif.g08.bks.cpg/sg47_4_cif.got.tgz:7264.got - 2010.06.03 20:15:42.
