data_PCOD9382182
_publ_section_title
;
Structure prediction by ZEFSAII (Michael W. Deem and Ramdas Pophale) SiO2 
 PCOD9382182
Probable space group: P M M M
;
_chemical_formula_sum "Si O2"
_cell_formula_units_Z 52
_cell_length_a 7.421610
_cell_length_b 16.793490
_cell_length_c 17.987379
_cell_angle_alpha 90.000000
_cell_angle_beta 90.000000
_cell_angle_gamma 90.000000
_cell_volume 2241.852185
_symmetry_space_group_name_H-M "P M M M"
_symmetry_group_IT_number 47
_symmetry_cell_setting 'orthorhombic'
loop_
_space_group_symop_operation_xyz
x,y,z
-x,-y,z
x,-y,-z
-x,y,-z
-x,-y,-z
x,y,-z
-x,y,z
x,-y,z
loop_
_atom_site_type_symbol
_atom_site_label
_atom_site_fract_x
_atom_site_fract_y
_atom_site_fract_z
Si Si1 0.780445 0.913167 0.361483
Si Si2 0.780257 0.909617 0.189242
Si Si3 0.780297 0.249302 0.580302
Si Si4 0.787615 0.767267 0.917451
Si Si5 0.782908 0.633165 0.301199
Si Si6 0.295449 0.410742 0.134819
Si Si7 0.781632 0.500000 0.417327
O O1 0.726097 0.901279 0.275443
O O2 0.725959 0.841832 0.413943
O O3 0.000000 0.912351 0.361129
O O4 0.721207 0.000000 0.385784
O O5 0.717458 0.833723 0.140611
O O6 0.000000 0.908608 0.188655
O O7 0.728050 0.000000 0.164331
O O8 0.721962 0.283706 0.500000
O O9 0.726318 0.285068 0.660338
O O10 0.000000 0.257163 0.579996
O O11 0.775580 0.673509 0.896083
O O12 0.000000 0.783499 0.921062
O O13 0.710820 0.777917 0.000000
O O14 0.707251 0.603599 0.223668
O O15 0.732673 0.574470 0.367720
O O16 0.000000 0.632814 0.290462
O O17 0.500000 0.414758 0.108160
O O18 0.215382 0.500000 0.120203
O O19 0.710841 0.500000 0.500000
O O20 0.000000 0.500000 0.421748
#
# Coordination Sequence:
#
# PCOD9382182 Si02
#       7
#     8   8   8   8   8   8   4
#     4   8  13  21  34  56  92 137 174 201 237 291
#     4   8  14  27  49  79 114 145 172 207 255 312
#     4   9  16  24  38  65  99 133 169 210 257 306
#     4  10  21  36  57  86 114 140 174 215 261 317
#     4  10  18  31  52  75  99 129 168 216 263 313
#     4  11  24  40  57  76 102 139 183 227 273 325
#     4   9  16  26  45  75 104 127 156 203 263 318
#
# _framework density 23.195105999999999
#
# number of rings (size 3 to 8) (size 9 to 14) (size 15 to 20)
#    0.000    2.692    0.769    2.769    0.000    6.462 
#    0.000    4.615    0.000    2.769    0.000    1.077 
#    0.000    0.000    0.000    5.538    0.000    4.923 
#
# Total GULP energy -289874.712413 kJ/mol
# GULP energy per Si atom -5574.513700 kJ/mol
# Density = 2.314231 g / cm^3
# Si number density = 23.195106 Si / 1000 Ang^3
#
#
#
# Elastic Constant Matrix: (Units=GPa)
#
#
# Indices 1 2 3 4 5 6 
#
# 1 68.7835 -2.0822 -4.5968 0.0000 0.0000 0.0000
# 2 -2.0822 117.4364 15.4556 0.0000 0.0000 0.0000
# 3 -4.5968 15.4556 46.5952 0.0000 0.0000 0.0000
# 4 0.0000 0.0000 0.0000 43.4058 0.0000 0.0000
# 5 0.0000 0.0000 0.0000 0.0000 62.6207 0.0000
# 6 0.0000 0.0000 0.0000 0.0000 0.0000 -53.7008
#
#
#
# Elastic Compliance Matrix: (Units=1/GPa)
#
#
# Indices 1 2 3 4 5 6 
#
# 1 0.014635 0.000073 0.001420 0.000000 0.000000 0.000000
# 2 0.000073 0.008904 -0.002946 0.000000 0.000000 0.000000
# 3 0.001420 -0.002946 0.022579 0.000000 0.000000 0.000000
# 4 0.000000 0.000000 0.000000 0.023038 0.000000 0.000000
# 5 0.000000 0.000000 0.000000 0.000000 0.015969 0.000000
# 6 0.000000 0.000000 0.000000 0.000000 0.000000 -0.018622
#
#
# Mechanical properties :
#
#
# Convention : Reuss Voigt Hill
#
# Bulk Modulus (GPa) = 23.14248 27.81871 25.48060
# Shear Modulus (GPa) = 59.65447 25.40103 42.52775
#
# Velocity S-wave (km/s) = 5.07685 3.31282 4.28656
# Velocity P-wave (km/s) = 6.66069 5.16260 5.95891
#
# Compressibility (1/GPa) = 0.04321058
#
# Stress axis : x y z
#
# Youngs Moduli (GPa) = 68.32725 112.30520 44.28925
#
# Poissons Ratio (x) = -0.00816 -0.06288
# Poissons Ratio (y) = -0.00496 0.13049
# Poissons Ratio (z) = -0.09701 0.33090
#
# Static dielectric constant tensor:
#      x y z
#    x 1.979500 0.000000 0.000000 
#    y 0.000000 2.070710 0.000000 
#    z 0.000000 0.000000 1.824680 
# 
# From -- ./inp_files/26738.got.cif
#   From: 2010.05.17/outbox.cif.g08.bks.cpg/sg47_14_cif.got.tgz:26738.got - 2010.06.03 20:15:42.
