data_PCOD9382569
_publ_section_title
;
Structure prediction by ZEFSAII (Michael W. Deem and Ramdas Pophale) SiO2 
 PCOD9382569
Probable space group: P M M M
;
_chemical_formula_sum "Si O2"
_cell_formula_units_Z 64
_cell_length_a 24.447195
_cell_length_b 8.830514
_cell_length_c 19.481532
_cell_angle_alpha 90.000000
_cell_angle_beta 90.000000
_cell_angle_gamma 90.000000
_cell_volume 4205.698410
_symmetry_space_group_name_H-M "P M M M"
_symmetry_group_IT_number 47
_symmetry_cell_setting 'orthorhombic'
loop_
_space_group_symop_operation_xyz
x,y,z
-x,-y,z
x,-y,-z
-x,y,-z
-x,-y,-z
x,y,-z
-x,y,z
x,-y,z
loop_
_atom_site_type_symbol
_atom_site_label
_atom_site_fract_x
_atom_site_fract_y
_atom_site_fract_z
Si Si1 0.767970 0.679315 0.422501
Si Si2 0.839177 0.180724 0.797992
Si Si3 0.438655 0.815736 0.920579
Si Si4 0.329618 0.816477 0.845789
Si Si5 0.224482 0.318555 0.079578
Si Si6 0.270118 0.819404 0.710329
Si Si7 0.111204 0.180885 0.578108
Si Si8 0.937505 0.319062 0.713352
O O1 0.747891 0.709585 0.500000
O O2 0.777601 0.500000 0.415923
O O3 0.729065 0.735830 0.361978
O O4 0.826112 0.763991 0.414947
O O5 0.821907 0.252474 0.870370
O O6 0.788358 0.214172 0.746578
O O7 0.893842 0.246519 0.764981
O O8 0.842685 0.000000 0.804232
O O9 0.500000 0.765910 0.901047
O O10 0.388808 0.766730 0.872667
O O11 0.438916 0.000000 0.919442
O O12 0.428817 0.771508 0.000000
O O13 0.281861 0.748469 0.893141
O O14 0.315041 0.775966 0.767288
O O15 0.326008 0.000000 0.850426
O O16 0.225724 0.500000 0.085708
O O17 0.216393 0.278230 0.000000
O O18 0.272859 0.000000 0.699416
O O19 0.093595 0.217182 0.500000
O O20 0.076440 0.259297 0.637223
O O21 0.109328 0.000000 0.587018
O O22 0.931513 0.500000 0.714441
O O23 0.000000 0.279888 0.730747
#
# Coordination Sequence:
#
# PCOD9382569 Si02
#       8
#     8   8   8   8   8   8   8   8
#     4  10  19  29  44  65  88 117 150 184 227 277
#     4  10  20  34  52  71  91 117 149 185 227 276
#     4   8  13  22  39  64  93 126 163 199 231 263
#     4   9  17  28  44  67  95 125 159 196 229 268
#     4  10  20  32  48  71  97 123 150 185 230 276
#     4   9  17  28  43  65  90 117 148 184 229 275
#     4  10  20  33  49  68  91 120 153 188 224 265
#     4  11  23  36  51  70  92 119 150 186 227 273
#
# _framework density 15.217449
#
# number of rings (size 3 to 8) (size 9 to 14) (size 15 to 20)
#    0.000    2.375    1.250    3.375    0.000    6.250 
#    0.000    1.250    0.000    0.750    0.000    4.375 
#    0.000    0.500    0.000    6.250    0.000    1.000 
#
# Total GULP energy -356881.205409 kJ/mol
# GULP energy per Si atom -5576.268835 kJ/mol
# Density = 1.518281 g / cm^3
# Si number density = 15.217449 Si / 1000 Ang^3
#
#
#
# Elastic Constant Matrix: (Units=GPa)
#
#
# Indices 1 2 3 4 5 6 
#
# 1 105.3553 28.8944 63.9677 0.0000 0.0000 0.0000
# 2 28.8944 28.1025 39.2024 0.0000 0.0000 0.0000
# 3 63.9677 39.2024 112.2937 0.0000 0.0000 0.0000
# 4 0.0000 0.0000 0.0000 25.5560 0.0000 0.0000
# 5 0.0000 0.0000 0.0000 0.0000 25.6253 0.0000
# 6 0.0000 0.0000 0.0000 0.0000 0.0000 5.5520
#
#
#
# Elastic Compliance Matrix: (Units=1/GPa)
#
#
# Indices 1 2 3 4 5 6 
#
# 1 0.015168 -0.006905 -0.006230 0.000000 0.000000 0.000000
# 2 -0.006905 0.072507 -0.021379 0.000000 0.000000 0.000000
# 3 -0.006230 -0.021379 0.019918 0.000000 0.000000 0.000000
# 4 0.000000 0.000000 0.000000 0.039130 0.000000 0.000000
# 5 0.000000 0.000000 0.000000 0.000000 0.039024 0.000000
# 6 0.000000 0.000000 0.000000 0.000000 0.000000 0.180115
#
#
# Mechanical properties :
#
#
# Convention : Reuss Voigt Hill
#
# Bulk Modulus (GPa) = 25.93052 56.65339 41.29196
# Shear Modulus (GPa) = 11.16711 18.92581 15.04646
#
# Velocity S-wave (km/s) = 2.71188 3.53043 3.14787
# Velocity P-wave (km/s) = 5.18485 7.34361 6.35654
#
# Compressibility (1/GPa) = 0.03856459
#
# Stress axis : x y z
#
# Youngs Moduli (GPa) = 65.92873 13.79179 50.20685
#
# Poissons Ratio (x) = 0.09523 0.31278
# Poissons Ratio (y) = 0.45523 1.07338
# Poissons Ratio (z) = 0.41072 0.29486
#
# Static dielectric constant tensor:
#      x y z
#    x 1.490080 0.000000 0.000000 
#    y 0.000000 1.507000 0.000000 
#    z 0.000000 0.000000 1.512740 
# 
# From -- ./inp_files/28938.got.cif
#   From: 2010.05.17/outbox.cif.g08.bks.cpg/sg47_15_cif.got.tgz:28938.got - 2010.06.03 20:15:42.
