data_PCOD9382166
_publ_section_title
;
Structure prediction by ZEFSAII (Michael W. Deem and Ramdas Pophale) SiO2 
 PCOD9382166
Probable space group: P M M M
;
_chemical_formula_sum "Si O2"
_cell_formula_units_Z 44
_cell_length_a 15.212412
_cell_length_b 7.574624
_cell_length_c 19.070904
_cell_angle_alpha 90.000000
_cell_angle_beta 90.000000
_cell_angle_gamma 90.000000
_cell_volume 2197.507867
_symmetry_space_group_name_H-M "P M M M"
_symmetry_group_IT_number 47
_symmetry_cell_setting 'orthorhombic'
loop_
_space_group_symop_operation_xyz
x,y,z
-x,-y,z
x,-y,-z
-x,y,-z
-x,-y,-z
x,y,-z
-x,y,z
x,-y,z
loop_
_atom_site_type_symbol
_atom_site_label
_atom_site_fract_x
_atom_site_fract_y
_atom_site_fract_z
Si Si1 0.096769 0.713274 0.917705
Si Si2 0.278691 0.804593 0.846119
Si Si3 0.101257 0.715280 0.579040
Si Si4 0.394782 0.500000 0.084301
Si Si5 0.399872 0.715230 0.578493
Si Si6 0.251056 0.714396 0.684571
O O1 0.100006 0.500000 0.912265
O O2 0.182013 0.784941 0.879732
O O3 0.000000 0.769635 0.891320
O O4 0.101294 0.757849 0.000000
O O5 0.345125 0.665369 0.880473
O O6 0.263926 0.775738 0.763498
O O7 0.312838 0.000000 0.859289
O O8 0.129426 0.768907 0.500000
O O9 0.102977 0.500000 0.578976
O O10 0.164677 0.772937 0.641640
O O11 0.000000 0.769039 0.588798
O O12 0.500000 0.500000 0.097209
O O13 0.380835 0.500000 0.000000
O O14 0.373512 0.769750 0.500000
O O15 0.500000 0.770934 0.590833
O O16 0.399172 0.500000 0.578675
O O17 0.333037 0.773114 0.637372
O O18 0.249302 0.500000 0.686529
#
# Coordination Sequence:
#
# PCOD9382166 Si02
#       6
#     8   8   8   4   8   8
#     4   9  18  36  64  94 124 160 200 244 298 362
#     4  12  25  41  63  96 133 167 206 255 313 375
#     4   8  14  25  45  76 113 158 215 268 306 349
#     4  11  26  50  75  95 120 157 205 259 315 380
#     4   8  14  25  45  75 105 137 186 245 300 354
#     4  10  18  31  51  79 114 159 201 246 305 364
#
# _framework density 20.022682
#
# number of rings (size 3 to 8) (size 9 to 14) (size 15 to 20)
#    0.000    2.455    1.818    2.727    0.000    5.818 
#    0.000    3.636    0.000    2.182    0.000    2.545 
#    0.000    0.000    0.000    0.000    0.000    0.000 
#
# Total GULP energy -245664.787907 kJ/mol
# GULP energy per Si atom -5583.290634 kJ/mol
# Density = 1.997711 g / cm^3
# Si number density = 20.022682 Si / 1000 Ang^3
#
#
#
# Elastic Constant Matrix: (Units=GPa)
#
#
# Indices 1 2 3 4 5 6 
#
# 1 141.6267 46.6926 101.6508 0.0000 0.0000 0.0000
# 2 46.6926 92.7435 44.0090 0.0000 0.0000 0.0000
# 3 101.6508 44.0090 145.6566 0.0000 0.0000 0.0000
# 4 0.0000 0.0000 0.0000 -102.0893 0.0000 0.0000
# 5 0.0000 0.0000 0.0000 0.0000 53.7866 0.0000
# 6 0.0000 0.0000 0.0000 0.0000 0.0000 -15.5998
#
#
#
# Elastic Compliance Matrix: (Units=1/GPa)
#
#
# Indices 1 2 3 4 5 6 
#
# 1 0.014821 -0.002981 -0.009442 0.000000 0.000000 0.000000
# 2 -0.002981 0.013187 -0.001904 0.000000 0.000000 0.000000
# 3 -0.009442 -0.001904 0.014030 0.000000 0.000000 0.000000
# 4 0.000000 0.000000 0.000000 -0.009795 0.000000 0.000000
# 5 0.000000 0.000000 0.000000 0.000000 0.018592 0.000000
# 6 0.000000 0.000000 0.000000 0.000000 0.000000 -0.064104
#
#
# Mechanical properties :
#
#
# Convention : Reuss Voigt Hill
#
# Bulk Modulus (GPa) = 74.72040 84.97019 79.84529
# Shear Modulus (GPa) = 251.93001 -0.26886 125.83057
#
# Velocity S-wave (km/s) = 11.22922 -0.36684 7.93602
# Velocity P-wave (km/s) = 14.33618 6.50766 11.13274
#
# Compressibility (1/GPa) = 0.01338323
#
# Stress axis : x y z
#
# Youngs Moduli (GPa) = 67.47254 75.83413 71.27376
#
# Poissons Ratio (x) = 0.22606 0.67300
# Poissons Ratio (y) = 0.20114 0.13569
# Poissons Ratio (z) = 0.63711 0.14438
#
# Static dielectric constant tensor:
#      x y z
#    x 1.689140 0.000000 0.000000 
#    y 0.000000 1.750810 0.000000 
#    z 0.000000 0.000000 1.652500 
# 
# From -- ./inp_files/27878.got.cif
#   From: 2010.05.17/outbox.cif.g08.bks.cpg/sg47_14_cif.got.tgz:27878.got - 2010.06.03 20:15:42.
