data_PCOD9382538
_publ_section_title
;
Structure prediction by ZEFSAII (Michael W. Deem and Ramdas Pophale) SiO2 
 PCOD9382538
Probable space group: P M M M
;
_chemical_formula_sum "Si O2"
_cell_formula_units_Z 64
_cell_length_a 7.394599
_cell_length_b 18.679722
_cell_length_c 20.781916
_cell_angle_alpha 90.000000
_cell_angle_beta 90.000000
_cell_angle_gamma 90.000000
_cell_volume 2870.586390
_symmetry_space_group_name_H-M "P M M M"
_symmetry_group_IT_number 47
_symmetry_cell_setting 'orthorhombic'
loop_
_space_group_symop_operation_xyz
x,y,z
-x,-y,z
x,-y,-z
-x,y,-z
-x,-y,-z
x,y,-z
-x,y,z
x,-y,z
loop_
_atom_site_type_symbol
_atom_site_label
_atom_site_fract_x
_atom_site_fract_y
_atom_site_fract_z
Si Si1 0.293234 0.576337 0.621218
Si Si2 0.720421 0.922496 0.286767
Si Si3 0.718213 0.218655 0.210156
Si Si4 0.721393 0.117716 0.572508
Si Si5 0.291477 0.578000 0.903179
Si Si6 0.789024 0.618210 0.240232
Si Si7 0.279162 0.736481 0.930266
Si Si8 0.296197 0.722334 0.423798
O O1 0.500000 0.577453 0.595963
O O2 0.213029 0.500000 0.602237
O O3 0.297753 0.582706 0.697909
O O4 0.204689 0.650499 0.600232
O O5 0.500000 0.919906 0.286124
O O6 0.781735 0.851612 0.248540
O O7 0.774066 0.921141 0.362102
O O8 0.774274 0.000000 0.259184
O O9 0.500000 0.216254 0.210183
O O10 0.767691 0.295355 0.241223
O O11 0.778520 0.224328 0.135339
O O12 0.778192 0.095250 0.500000
O O13 0.500000 0.117396 0.570165
O O14 0.782904 0.199384 0.584928
O O15 0.500000 0.576338 0.924317
O O16 0.212088 0.500000 0.919320
O O17 0.288143 0.588590 0.826240
O O18 0.215222 0.653604 0.927311
O O19 0.000000 0.601082 0.241174
O O20 0.500000 0.734747 0.927877
O O21 0.227531 0.766867 0.000000
O O22 0.312833 0.714644 0.500000
O O23 0.500000 0.725599 0.394487
#
# Coordination Sequence:
#
# PCOD9382538 Si02
#       8
#     8   8   8   8   8   8   8   8
#     4  10  19  29  43  63  87 116 150 190 235 278
#     4   9  16  25  41  67  95 121 148 178 216 265
#     4   9  17  31  50  68  89 118 150 185 224 268
#     4   8  13  21  34  55  87 123 150 175 214 263
#     4   9  17  29  45  65  90 119 149 183 226 272
#     4  11  21  31  45  64  87 117 154 191 226 267
#     4   8  14  25  43  67  90 115 152 192 225 261
#     4   8  14  25  41  61  84 111 146 187 228 269
#
# _framework density 22.295095
#
# number of rings (size 3 to 8) (size 9 to 14) (size 15 to 20)
#    0.000    3.000    0.000    3.750    0.000    4.750 
#    0.000    3.750    0.000    7.125    0.000    7.000 
#    0.000    0.000    0.000    9.000    0.000    9.000 
#
# Total GULP energy -356930.252926 kJ/mol
# GULP energy per Si atom -5577.035202 kJ/mol
# Density = 2.224435 g / cm^3
# Si number density = 22.295095 Si / 1000 Ang^3
#
#
#
# Elastic Constant Matrix: (Units=GPa)
#
#
# Indices 1 2 3 4 5 6 
#
# 1 85.3740 1.9119 -0.3669 0.0000 0.0000 0.0000
# 2 1.9119 134.9514 71.7918 0.0000 0.0000 0.0000
# 3 -0.3669 71.7918 68.8465 0.0000 0.0000 0.0000
# 4 0.0000 0.0000 0.0000 -88.6602 0.0000 0.0000
# 5 0.0000 0.0000 0.0000 0.0000 -21.8106 0.0000
# 6 0.0000 0.0000 0.0000 0.0000 0.0000 -210.6094
#
#
#
# Elastic Compliance Matrix: (Units=1/GPa)
#
#
# Indices 1 2 3 4 5 6 
#
# 1 0.011725 -0.000448 0.000529 0.000000 0.000000 0.000000
# 2 -0.000448 0.016659 -0.017374 0.000000 0.000000 0.000000
# 3 0.000529 -0.017374 0.032646 0.000000 0.000000 0.000000
# 4 0.000000 0.000000 0.000000 -0.011279 0.000000 0.000000
# 5 0.000000 0.000000 0.000000 0.000000 -0.045849 0.000000
# 6 0.000000 0.000000 0.000000 0.000000 0.000000 -0.004748
#
#
# Mechanical properties :
#
#
# Convention : Reuss Voigt Hill
#
# Bulk Modulus (GPa) = 37.81454 48.42728 43.12091
# Shear Modulus (GPa) = 117.49619 -49.82704 33.83458
#
# Velocity S-wave (km/s) = 7.26738 -4.73259 3.89984
# Velocity P-wave (km/s) = 9.34974 2.84517 6.29772
#
# Compressibility (1/GPa) = 0.02644485
#
# Stress axis : x y z
#
# Youngs Moduli (GPa) = 85.28447 60.02647 30.63198
#
# Poissons Ratio (x) = 0.02688 -0.01622
# Poissons Ratio (y) = 0.03819 0.53221
# Poissons Ratio (z) = -0.04515 1.04293
#
# Static dielectric constant tensor:
#      x y z
#    x 1.859180 0.000000 0.000000 
#    y 0.000000 1.843400 0.000000 
#    z 0.000000 0.000000 1.815310 
# 
# From -- ./inp_files/12748.got.cif
#   From: 2010.05.17/outbox.cif.g08.bks.cpg/sg47_7_cif.got.tgz:12748.got - 2010.06.03 20:15:42.
