data_PCOD9382735
_publ_section_title
;
Structure prediction by ZEFSAII (Michael W. Deem and Ramdas Pophale) SiO2 
 PCOD9382735
Probable space group: P M M M
;
_chemical_formula_sum "Si O2"
_cell_formula_units_Z 56
_cell_length_a 19.970362
_cell_length_b 7.479179
_cell_length_c 18.714723
_cell_angle_alpha 90.000000
_cell_angle_beta 90.000000
_cell_angle_gamma 90.000000
_cell_volume 2795.266812
_symmetry_space_group_name_H-M "P M M M"
_symmetry_group_IT_number 47
_symmetry_cell_setting 'orthorhombic'
loop_
_space_group_symop_operation_xyz
x,y,z
-x,-y,z
x,-y,-z
-x,y,-z
-x,-y,-z
x,y,-z
-x,y,z
x,-y,z
loop_
_atom_site_type_symbol
_atom_site_label
_atom_site_fract_x
_atom_site_fract_y
_atom_site_fract_z
Si Si1 0.073818 0.282342 0.658181
Si Si2 0.074374 0.281400 0.175245
Si Si3 0.287068 0.210988 0.719344
Si Si4 0.793000 0.284377 0.419802
Si Si5 0.784335 0.295300 0.861597
Si Si6 0.573567 0.209479 0.775138
Si Si7 0.356169 0.716925 0.079696
O O1 0.074983 0.500000 0.657733
O O2 0.080660 0.229070 0.741240
O O3 0.135524 0.220159 0.610707
O O4 0.000000 0.226992 0.633043
O O5 0.075840 0.500000 0.173874
O O6 0.141007 0.217333 0.134744
O O7 0.000000 0.227134 0.150319
O O8 0.261525 0.236880 0.639613
O O9 0.237230 0.295025 0.777880
O O10 0.361753 0.283207 0.733574
O O11 0.286900 0.000000 0.735742
O O12 0.780079 0.220095 0.500000
O O13 0.795909 0.500000 0.422118
O O14 0.789450 0.500000 0.886747
O O15 0.719211 0.218125 0.901121
O O16 0.500000 0.287547 0.762466
O O17 0.593906 0.223627 0.858312
O O18 0.570058 0.000000 0.756669
O O19 0.354872 0.500000 0.082472
O O20 0.374818 0.771791 0.000000
#
# Coordination Sequence:
#
# PCOD9382735 Si02
#       7
#     8   8   8   8   8   8   8
#     4   8  13  22  38  62  89 114 147 191 228 258
#     4   8  12  19  37  63  84 108 150 198 231 255
#     4  10  19  31  48  68  90 114 145 187 228 268
#     4  10  19  30  46  67  91 121 155 188 223 267
#     4   9  15  27  47  64  86 121 156 189 223 262
#     4   9  19  35  53  72  92 117 150 184 219 262
#     4   9  18  30  45  70 101 128 151 177 216 267
#
# _framework density 20.033867000000001
#
# number of rings (size 3 to 8) (size 9 to 14) (size 15 to 20)
#    0.000    3.000    1.429    1.286    0.000    2.000 
#    0.000    2.857    0.000    2.571    0.000    7.000 
#    0.000    0.000    0.000    7.143    0.000    7.429 
#
# Total GULP energy -312195.186711 kJ/mol
# GULP energy per Si atom -5574.914048 kJ/mol
# Density = 1.998827 g / cm^3
# Si number density = 20.033867 Si / 1000 Ang^3
#
#
#
# Elastic Constant Matrix: (Units=GPa)
#
#
# Indices 1 2 3 4 5 6 
#
# 1 148.2988 -1.0353 16.2631 0.0000 0.0000 0.0000
# 2 -1.0353 59.5481 -7.6004 0.0000 0.0000 0.0000
# 3 16.2631 -7.6004 33.5798 0.0000 0.0000 0.0000
# 4 0.0000 0.0000 0.0000 15.1251 0.0000 0.0000
# 5 0.0000 0.0000 0.0000 0.0000 12.0350 0.0000
# 6 0.0000 0.0000 0.0000 0.0000 0.0000 13.3734
#
#
#
# Elastic Compliance Matrix: (Units=1/GPa)
#
#
# Indices 1 2 3 4 5 6 
#
# 1 0.007128 -0.000326 -0.003526 0.000000 0.000000 0.000000
# 2 -0.000326 0.017308 0.004075 0.000000 0.000000 0.000000
# 3 -0.003526 0.004075 0.032410 0.000000 0.000000 0.000000
# 4 0.000000 0.000000 0.000000 0.066115 0.000000 0.000000
# 5 0.000000 0.000000 0.000000 0.000000 0.083091 0.000000
# 6 0.000000 0.000000 0.000000 0.000000 0.000000 0.074775
#
#
# Mechanical properties :
#
#
# Convention : Reuss Voigt Hill
#
# Bulk Modulus (GPa) = 17.45447 28.52014 22.98731
# Shear Modulus (GPa) = 16.69578 23.69332 20.19455
#
# Velocity S-wave (km/s) = 2.88996 3.44272 3.17838
# Velocity P-wave (km/s) = 4.45727 5.48361 4.99686
#
# Compressibility (1/GPa) = 0.05729191
#
# Stress axis : x y z
#
# Youngs Moduli (GPa) = 140.30134 57.77799 30.85487
#
# Poissons Ratio (x) = 0.01884 0.10879
# Poissons Ratio (y) = 0.04575 -0.12574
# Poissons Ratio (z) = 0.49467 -0.23546
#
# Static dielectric constant tensor:
#      x y z
#    x 1.743690 0.000000 0.000000 
#    y 0.000000 1.794960 0.000000 
#    z 0.000000 0.000000 1.671580 
# 
# From -- ./inp_files/9809.got.cif
#   From: 2010.05.17/outbox.cif.g08.bks.cpg/sg47_5_cif.got.tgz:9809.got - 2010.06.03 20:15:42.
