data_PCOD9382168
_publ_section_title
;
Structure prediction by ZEFSAII (Michael W. Deem and Ramdas Pophale) SiO2 
 PCOD9382168
Probable space group: P M M M
;
_chemical_formula_sum "Si O2"
_cell_formula_units_Z 56
_cell_length_a 19.298859
_cell_length_b 7.906865
_cell_length_c 19.803154
_cell_angle_alpha 90.000000
_cell_angle_beta 90.000000
_cell_angle_gamma 90.000000
_cell_volume 3021.832041
_symmetry_space_group_name_H-M "P M M M"
_symmetry_group_IT_number 47
_symmetry_cell_setting 'orthorhombic'
loop_
_space_group_symop_operation_xyz
x,y,z
-x,-y,z
x,-y,-z
-x,y,-z
-x,-y,-z
x,y,-z
-x,y,z
x,-y,z
loop_
_atom_site_type_symbol
_atom_site_label
_atom_site_fract_x
_atom_site_fract_y
_atom_site_fract_z
Si Si1 0.688965 0.702194 0.424945
Si Si2 0.714679 0.799414 0.924656
Si Si3 0.576739 0.698392 0.150801
Si Si4 0.149849 0.203350 0.425470
Si Si5 0.209627 0.793296 0.205953
Si Si6 0.349012 0.200307 0.281457
Si Si7 0.078304 0.207344 0.711237
O O1 0.667551 0.762770 0.500000
O O2 0.687373 0.500000 0.425213
O O3 0.768927 0.757882 0.415290
O O4 0.645740 0.762741 0.360562
O O5 0.638269 0.777519 0.893037
O O6 0.768036 0.732564 0.868249
O O7 0.727265 0.000000 0.929112
O O8 0.719493 0.727288 0.000000
O O9 0.500000 0.768310 0.137995
O O10 0.576439 0.500000 0.135129
O O11 0.596824 0.719737 0.229566
O O12 0.130115 0.268236 0.500000
O O13 0.104764 0.264061 0.362582
O O14 0.143155 0.000000 0.426553
O O15 0.272537 0.743300 0.255847
O O16 0.136107 0.737592 0.234929
O O17 0.209003 0.000000 0.205442
O O18 0.353002 0.000000 0.270952
O O19 0.000000 0.262018 0.724691
O O20 0.078618 0.000000 0.710984
#
# Coordination Sequence:
#
# PCOD9382168 Si02
#       7
#     8   8   8   8   8   8   8
#     4  10  19  29  44  68  96 126 162 206 254 295
#     4   9  18  32  51  73  97 129 166 202 238 280
#     4  10  21  35  51  75 106 133 155 186 233 288
#     4   9  16  26  40  60  88 121 160 205 251 298
#     4   8  14  26  43  65  91 118 154 200 246 286
#     4  10  18  31  52  72  94 127 166 205 240 280
#     4   9  15  23  39  64  92 122 159 206 256 297
#
# _framework density 18.531804999999999
#
# number of rings (size 3 to 8) (size 9 to 14) (size 15 to 20)
#    0.000    2.714    1.429    2.143    0.000    2.857 
#    0.000    2.857    0.000    1.286    0.000    8.000 
#    0.000    0.000    0.000    3.714    0.000    4.857 
#
# Total GULP energy -312147.057137 kJ/mol
# GULP energy per Si atom -5574.054592 kJ/mol
# Density = 1.848963 g / cm^3
# Si number density = 18.531805 Si / 1000 Ang^3
#
#
#
# Elastic Constant Matrix: (Units=GPa)
#
#
# Indices 1 2 3 4 5 6 
#
# 1 55.2901 2.8358 41.8564 0.0000 0.0000 0.0000
# 2 2.8358 16.0316 2.7081 0.0000 0.0000 0.0000
# 3 41.8564 2.7081 143.2368 0.0000 0.0000 0.0000
# 4 0.0000 0.0000 0.0000 10.6298 0.0000 0.0000
# 5 0.0000 0.0000 0.0000 0.0000 13.9554 0.0000
# 6 0.0000 0.0000 0.0000 0.0000 0.0000 38.3453
#
#
#
# Elastic Compliance Matrix: (Units=1/GPa)
#
#
# Indices 1 2 3 4 5 6 
#
# 1 0.023366 -0.002989 -0.006771 0.000000 0.000000 0.000000
# 2 -0.002989 0.062959 -0.000317 0.000000 0.000000 0.000000
# 3 -0.006771 -0.000317 0.008966 0.000000 0.000000 0.000000
# 4 0.000000 0.000000 0.000000 0.094075 0.000000 0.000000
# 5 0.000000 0.000000 0.000000 0.000000 0.071657 0.000000
# 6 0.000000 0.000000 0.000000 0.000000 0.000000 0.026079
#
#
# Mechanical properties :
#
#
# Convention : Reuss Voigt Hill
#
# Bulk Modulus (GPa) = 13.30915 34.37322 23.84118
# Shear Modulus (GPa) = 15.04655 23.72999 19.38827
#
# Velocity S-wave (km/s) = 2.85253 3.58229 3.23804
# Velocity P-wave (km/s) = 4.24813 5.97486 5.18390
#
# Compressibility (1/GPa) = 0.07513628
#
# Stress axis : x y z
#
# Youngs Moduli (GPa) = 42.79730 15.88331 111.53018
#
# Poissons Ratio (x) = 0.04748 0.75522
# Poissons Ratio (y) = 0.12793 0.03533
# Poissons Ratio (z) = 0.28980 0.00503
#
# Static dielectric constant tensor:
#      x y z
#    x 1.617820 0.000000 0.000000 
#    y 0.000000 1.667260 0.000000 
#    z 0.000000 0.000000 1.662730 
# 
# From -- ./inp_files/9874.got.cif
#   From: 2010.05.17/outbox.cif.g08.bks.cpg/sg47_5_cif.got.tgz:9874.got - 2010.06.03 20:15:42.
