data_PCOD9382043
_publ_section_title
;
Structure prediction by ZEFSAII (Michael W. Deem and Ramdas Pophale) SiO2 
 PCOD9382043
Probable space group: P M M M
;
_chemical_formula_sum "Si O2"
_cell_formula_units_Z 40
_cell_length_a 21.074012
_cell_length_b 12.167569
_cell_length_c 8.888246
_cell_angle_alpha 90.000000
_cell_angle_beta 90.000000
_cell_angle_gamma 90.000000
_cell_volume 2279.119552
_symmetry_space_group_name_H-M "P M M M"
_symmetry_group_IT_number 47
_symmetry_cell_setting 'orthorhombic'
loop_
_space_group_symop_operation_xyz
x,y,z
-x,-y,z
x,-y,-z
-x,y,-z
-x,-y,-z
x,y,-z
-x,y,z
x,-y,z
loop_
_atom_site_type_symbol
_atom_site_label
_atom_site_fract_x
_atom_site_fract_y
_atom_site_fract_z
Si Si1 0.572143 0.872951 0.818967
Si Si2 0.901367 0.000000 0.175788
Si Si3 0.069649 0.232829 0.681103
Si Si4 0.770560 0.000000 0.329111
Si Si5 0.307717 0.225266 0.324111
Si Si6 0.807977 0.626755 0.683839
O O1 0.500000 0.845788 0.772351
O O2 0.625750 0.792439 0.757578
O O3 0.584710 0.000000 0.770679
O O4 0.574050 0.872382 0.000000
O O5 0.926244 0.888783 0.251218
O O6 0.826247 0.000000 0.209233
O O7 0.915456 0.000000 0.000000
O O8 0.073800 0.224397 0.500000
O O9 0.129900 0.304706 0.732172
O O10 0.000000 0.280481 0.717911
O O11 0.728839 0.891226 0.314308
O O12 0.798276 0.000000 0.500000
O O13 0.319761 0.247812 0.500000
O O14 0.257239 0.314852 0.266250
O O15 0.807599 0.630404 0.500000
O O16 0.811560 0.500000 0.729447
#
# Coordination Sequence:
#
# PCOD9382043 Si02
#       6
#     8   4   8   4   8   8
#     4   9  18  31  47  72 107 139 165 199 245 299
#     4  12  23  33  50  76 107 137 168 208 253 308
#     4  10  20  35  55  76 102 136 169 207 258 311
#     4  10  18  31  50  75 104 133 168 209 256 306
#     4  10  18  30  51  75 102 132 164 208 254 299
#     4   9  18  33  53  77 102 129 169 219 261 297
#
# _framework density 17.550636000000001
#
# number of rings (size 3 to 8) (size 9 to 14) (size 15 to 20)
#    0.000    2.200    3.000    1.800    0.000    3.200 
#    0.000    3.000    0.000    3.000    0.000    5.600 
#    0.000    0.000    0.000    0.000    0.000    0.000 
#
# Total GULP energy -223053.465794 kJ/mol
# GULP energy per Si atom -5576.336645 kJ/mol
# Density = 1.751069 g / cm^3
# Si number density = 17.550636 Si / 1000 Ang^3
#
#
#
# Elastic Constant Matrix: (Units=GPa)
#
#
# Indices 1 2 3 4 5 6 
#
# 1 166.2653 70.2217 34.2122 0.0000 0.0000 0.0000
# 2 70.2217 110.7817 15.8419 0.0000 0.0000 0.0000
# 3 34.2122 15.8419 12.2536 0.0000 0.0000 0.0000
# 4 0.0000 0.0000 0.0000 6.4068 0.0000 0.0000
# 5 0.0000 0.0000 0.0000 0.0000 -9.0850 0.0000
# 6 0.0000 0.0000 0.0000 0.0000 0.0000 -16.6962
#
#
#
# Elastic Compliance Matrix: (Units=1/GPa)
#
#
# Indices 1 2 3 4 5 6 
#
# 1 0.015807 -0.004550 -0.038251 0.000000 0.000000 0.000000
# 2 -0.004550 0.012384 -0.003307 0.000000 0.000000 0.000000
# 3 -0.038251 -0.003307 0.192684 0.000000 0.000000 0.000000
# 4 0.000000 0.000000 0.000000 0.156084 0.000000 0.000000
# 5 0.000000 0.000000 0.000000 0.000000 -0.110072 0.000000
# 6 0.000000 0.000000 0.000000 0.000000 0.000000 -0.059894
#
#
# Mechanical properties :
#
#
# Convention : Reuss Voigt Hill
#
# Bulk Modulus (GPa) = 7.77258 58.87247 33.32252
# Shear Modulus (GPa) = 14.61580 7.39344 11.00462
#
# Velocity S-wave (km/s) = 2.88892 2.05470 2.50676
# Velocity P-wave (km/s) = 3.94539 6.26468 5.23509
#
# Compressibility (1/GPa) = 0.12865745
#
# Stress axis : x y z
#
# Youngs Moduli (GPa) = 63.26328 80.75180 5.18985
#
# Poissons Ratio (x) = 0.36739 0.19852
# Poissons Ratio (y) = 0.28782 0.01717
# Poissons Ratio (z) = 2.41991 0.26708
#
# Static dielectric constant tensor:
#      x y z
#    x 1.620950 0.000000 0.000000 
#    y 0.000000 1.577790 0.000000 
#    z 0.000000 0.000000 1.596330 
# 
# From -- ./inp_files/10694.got.cif
#   From: 2010.05.17/outbox.cif.g08.bks.cpg/sg47_6_cif.got.tgz:10694.got - 2010.06.03 20:15:42.
