data_PCOD9382464
_publ_section_title
;
Structure prediction by ZEFSAII (Michael W. Deem and Ramdas Pophale) SiO2 
 PCOD9382464
Probable space group: P M M M
;
_chemical_formula_sum "Si O2"
_cell_formula_units_Z 48
_cell_length_a 15.146798
_cell_length_b 9.584272
_cell_length_c 16.338090
_cell_angle_alpha 90.000000
_cell_angle_beta 90.000000
_cell_angle_gamma 90.000000
_cell_volume 2371.817386
_symmetry_space_group_name_H-M "P M M M"
_symmetry_group_IT_number 47
_symmetry_cell_setting 'orthorhombic'
loop_
_space_group_symop_operation_xyz
x,y,z
-x,-y,z
x,-y,-z
-x,y,-z
-x,-y,-z
x,y,-z
-x,y,z
x,-y,z
loop_
_atom_site_type_symbol
_atom_site_label
_atom_site_fract_x
_atom_site_fract_y
_atom_site_fract_z
Si Si1 0.147421 0.157740 0.260763
Si Si2 0.146004 0.660792 0.590274
Si Si3 0.361572 0.661685 0.407672
Si Si4 0.393502 0.660643 0.092412
Si Si5 0.105970 0.837657 0.913378
Si Si6 0.642451 0.841784 0.253269
O O1 0.112579 0.245667 0.336139
O O2 0.131901 0.227068 0.172467
O O3 0.252715 0.147978 0.268331
O O4 0.110883 0.000000 0.260472
O O5 0.119436 0.710026 0.500000
O O6 0.119532 0.500000 0.599638
O O7 0.253813 0.662820 0.592446
O O8 0.388354 0.705698 0.500000
O O9 0.387989 0.500000 0.396159
O O10 0.392546 0.755741 0.331797
O O11 0.500000 0.658441 0.090853
O O12 0.363874 0.500000 0.106518
O O13 0.368734 0.759959 0.167752
O O14 0.364653 0.703400 0.000000
O O15 0.000000 0.840956 0.914836
O O16 0.136889 0.000000 0.911615
O O17 0.136527 0.775648 0.000000
O O18 0.607699 0.000000 0.248266
#
# Coordination Sequence:
#
# PCOD9382464 Si02
#       6
#     8   8   8   8   8   8
#     4   9  17  27  42  68  95 116 144 184 225 262
#     4   8  14  25  41  61  86 117 150 181 216 261
#     4   8  14  26  44  64  88 121 157 187 215 255
#     4   9  19  36  54  68  85 116 157 192 219 257
#     4   8  14  26  44  63  84 115 153 187 219 259
#     4  10  19  28  43  71 101 122 141 178 233 279
#
# _framework density 20.237646000000002
#
# number of rings (size 3 to 8) (size 9 to 14) (size 15 to 20)
#    0.000    3.333    0.000    2.500    0.000    2.667 
#    0.000    5.833    0.000    2.000    0.000    8.167 
#    0.000    0.000    0.000    0.000    0.000    0.000 
#
# Total GULP energy -267345.444315 kJ/mol
# GULP energy per Si atom -5569.696757 kJ/mol
# Density = 2.019158 g / cm^3
# Si number density = 20.237646 Si / 1000 Ang^3
#
#
#
# Elastic Constant Matrix: (Units=GPa)
#
#
# Indices 1 2 3 4 5 6 
#
# 1 31.0886 1.0510 2.4367 0.0000 0.0000 0.0000
# 2 1.0510 93.9913 112.3486 0.0000 0.0000 0.0000
# 3 2.4367 112.3486 247.3415 0.0000 0.0000 0.0000
# 4 0.0000 0.0000 0.0000 26.5048 0.0000 0.0000
# 5 0.0000 0.0000 0.0000 0.0000 42.6044 0.0000
# 6 0.0000 0.0000 0.0000 0.0000 0.0000 -12.1917
#
#
#
# Elastic Compliance Matrix: (Units=1/GPa)
#
#
# Indices 1 2 3 4 5 6 
#
# 1 0.032191 0.000042 -0.000336 0.000000 0.000000 0.000000
# 2 0.000042 0.023278 -0.010574 0.000000 0.000000 0.000000
# 3 -0.000336 -0.010574 0.008849 0.000000 0.000000 0.000000
# 4 0.000000 0.000000 0.000000 0.037729 0.000000 0.000000
# 5 0.000000 0.000000 0.000000 0.000000 0.023472 0.000000
# 6 0.000000 0.000000 0.000000 0.000000 0.000000 -0.082023
#
#
# Mechanical properties :
#
#
# Convention : Reuss Voigt Hill
#
# Bulk Modulus (GPa) = 23.48419 67.12156 45.30287
# Shear Modulus (GPa) = 62.95242 28.48921 45.72081
#
# Velocity S-wave (km/s) = 5.58338 3.75605 4.75826
# Velocity P-wave (km/s) = 7.29348 7.21451 7.25411
#
# Compressibility (1/GPa) = 0.04258184
#
# Stress axis : x y z
#
# Youngs Moduli (GPa) = 31.06454 42.95971 113.00546
#
# Poissons Ratio (x) = -0.00180 0.03798
# Poissons Ratio (y) = -0.00130 1.19488
# Poissons Ratio (z) = 0.01044 0.45424
#
# Static dielectric constant tensor:
#      x y z
#    x 1.759680 0.000000 0.000000 
#    y 0.000000 1.705290 0.000000 
#    z 0.000000 0.000000 1.746570 
# 
# From -- ./inp_files/6376.got.cif
#   From: 2010.05.17/outbox.cif.g08.bks.cpg/sg47_4_cif.got.tgz:6376.got - 2010.06.03 20:15:42.
