data_PCOD9382626
_publ_section_title
;
Structure prediction by ZEFSAII (Michael W. Deem and Ramdas Pophale) SiO2 
 PCOD9382626
Probable space group: P M M M
;
_chemical_formula_sum "Si O2"
_cell_formula_units_Z 64
_cell_length_a 29.244257
_cell_length_b 14.317425
_cell_length_c 8.758313
_cell_angle_alpha 90.000000
_cell_angle_beta 90.000000
_cell_angle_gamma 90.000000
_cell_volume 3667.127166
_symmetry_space_group_name_H-M "P M M M"
_symmetry_group_IT_number 47
_symmetry_cell_setting 'orthorhombic'
loop_
_space_group_symop_operation_xyz
x,y,z
-x,-y,z
x,-y,-z
-x,y,-z
-x,-y,-z
x,y,-z
-x,y,z
x,-y,z
loop_
_atom_site_type_symbol
_atom_site_label
_atom_site_fract_x
_atom_site_fract_y
_atom_site_fract_z
Si Si1 0.221783 0.787333 0.817335
Si Si2 0.946867 0.805326 0.814842
Si Si3 0.308633 0.893209 0.684257
Si Si4 0.637530 0.711407 0.317455
Si Si5 0.552638 0.392308 0.815982
Si Si6 0.275459 0.393776 0.815633
Si Si7 0.139017 0.895372 0.682110
Si Si8 0.944538 0.599831 0.179491
O O1 0.261636 0.855524 0.756112
O O2 0.237224 0.682570 0.772266
O O3 0.174007 0.820928 0.750669
O O4 0.220220 0.791883 0.000000
O O5 0.911457 0.877574 0.746513
O O6 0.931688 0.701340 0.759220
O O7 0.000000 0.820664 0.773435
O O8 0.944717 0.805959 0.000000
O O9 0.303809 0.891007 0.500000
O O10 0.347162 0.816743 0.726044
O O11 0.318139 0.000000 0.729639
O O12 0.637527 0.705417 0.500000
O O13 0.589218 0.677553 0.254028
O O14 0.676954 0.643620 0.252089
O O15 0.500000 0.372907 0.772432
O O16 0.563087 0.500000 0.771327
O O17 0.555326 0.388287 0.000000
O O18 0.266038 0.500000 0.768024
O O19 0.279196 0.392242 0.000000
O O20 0.138689 0.888405 0.500000
O O21 0.154497 0.000000 0.724578
O O22 0.929085 0.500000 0.246663
O O23 0.000000 0.599877 0.183648
O O24 0.931780 0.599174 0.000000
#
# Coordination Sequence:
#
# PCOD9382626 Si02
#       8
#     8   8   8   8   8   8   8   8
#     4  10  20  34  54  78  99 122 159 203 239 275
#     4   9  18  33  54  79 102 124 156 198 237 273
#     4   9  18  33  51  71  99 132 161 194 243 299
#     4  10  19  29  46  74 102 129 166 209 248 288
#     4   9  18  32  48  66  93 132 172 207 249 301
#     4   9  18  33  52  74 103 136 163 190 234 294
#     4  11  24  39  53  69  94 130 164 194 238 294
#     4   7  10  20  42  71  98 120 143 175 217 263
#
# _framework density 17.452354
#
# number of rings (size 3 to 8) (size 9 to 14) (size 15 to 20)
#    0.000    2.750    0.000    3.375    0.000    6.500 
#    0.000    2.500    0.000    4.500    0.000    4.375 
#    0.000    0.000    0.000    0.000    0.000    0.000 
#
# Total GULP energy -356655.242462 kJ/mol
# GULP energy per Si atom -5572.738163 kJ/mol
# Density = 1.741263 g / cm^3
# Si number density = 17.452354 Si / 1000 Ang^3
#
#
#
# Elastic Constant Matrix: (Units=GPa)
#
#
# Indices 1 2 3 4 5 6 
#
# 1 95.9947 62.9231 27.0849 0.0000 0.0000 0.0000
# 2 62.9231 131.1130 32.4035 0.0000 0.0000 0.0000
# 3 27.0849 32.4035 14.4458 0.0000 0.0000 0.0000
# 4 0.0000 0.0000 0.0000 19.1538 0.0000 0.0000
# 5 0.0000 0.0000 0.0000 0.0000 -300.1096 0.0000
# 6 0.0000 0.0000 0.0000 0.0000 0.0000 21.7996
#
#
#
# Elastic Compliance Matrix: (Units=1/GPa)
#
#
# Indices 1 2 3 4 5 6 
#
# 1 0.022157 -0.000822 -0.039699 0.000000 0.000000 0.000000
# 2 -0.000822 0.017146 -0.036918 0.000000 0.000000 0.000000
# 3 -0.039699 -0.036918 0.226467 0.000000 0.000000 0.000000
# 4 0.000000 0.000000 0.000000 0.052209 0.000000 0.000000
# 5 0.000000 0.000000 0.000000 0.000000 -0.003332 0.000000
# 6 0.000000 0.000000 0.000000 0.000000 0.000000 0.045872
#
#
# Mechanical properties :
#
#
# Convention : Reuss Voigt Hill
#
# Bulk Modulus (GPa) = 9.01772 54.04184 31.52978
# Shear Modulus (GPa) = 9.05204 -43.88844 -17.41820
#
# Velocity S-wave (km/s) = 2.27991 -5.02018 -3.16261
# Velocity P-wave (km/s) = 3.47979 1.60322 2.18387
#
# Compressibility (1/GPa) = 0.11089276
#
# Stress axis : x y z
#
# Youngs Moduli (GPa) = 45.13177 58.32419 4.41565
#
# Poissons Ratio (x) = 0.04796 0.17530
# Poissons Ratio (y) = 0.03712 0.16301
# Poissons Ratio (z) = 1.79168 2.15318
#
# Static dielectric constant tensor:
#      x y z
#    x 1.569480 0.000000 0.000000 
#    y 0.000000 1.633750 0.000000 
#    z 0.000000 0.000000 1.587470 
# 
# From -- ./inp_files/12786.got.cif
#   From: 2010.05.17/outbox.cif.g08.bks.cpg/sg47_7_cif.got.tgz:12786.got - 2010.06.03 20:15:42.
