data_PCOD9382140
_publ_section_title
;
Structure prediction by ZEFSAII (Michael W. Deem and Ramdas Pophale) SiO2 
 PCOD9382140
Probable space group: P M M M
;
_chemical_formula_sum "Si O2"
_cell_formula_units_Z 64
_cell_length_a 21.367889
_cell_length_b 7.573783
_cell_length_c 20.488634
_cell_angle_alpha 90.000000
_cell_angle_beta 90.000000
_cell_angle_gamma 90.000000
_cell_volume 3315.793541
_symmetry_space_group_name_H-M "P M M M"
_symmetry_group_IT_number 47
_symmetry_cell_setting 'orthorhombic'
loop_
_space_group_symop_operation_xyz
x,y,z
-x,-y,z
x,-y,-z
-x,y,-z
-x,-y,-z
x,y,-z
-x,y,z
x,-y,z
loop_
_atom_site_type_symbol
_atom_site_label
_atom_site_fract_x
_atom_site_fract_y
_atom_site_fract_z
Si Si1 0.185388 0.792719 0.293600
Si Si2 0.118894 0.287196 0.071902
Si Si3 0.616689 0.215106 0.571963
Si Si4 0.264872 0.715127 0.071943
Si Si5 0.431577 0.212973 0.710467
Si Si6 0.763044 0.784479 0.427826
Si Si7 0.307007 0.708635 0.210157
Si Si8 0.931641 0.209317 0.788088
O O1 0.198658 0.718294 0.365635
O O2 0.249715 0.781412 0.252877
O O3 0.127411 0.717064 0.252396
O O4 0.172515 0.000000 0.302765
O O5 0.117554 0.500000 0.071391
O O6 0.191811 0.234523 0.079686
O O7 0.081309 0.229140 0.134943
O O8 0.097398 0.226805 0.000000
O O9 0.594862 0.273222 0.500000
O O10 0.580936 0.275678 0.636309
O O11 0.689847 0.264131 0.579124
O O12 0.614046 0.000000 0.571684
O O13 0.266608 0.500000 0.070857
O O14 0.301840 0.776010 0.135804
O O15 0.286026 0.774805 0.000000
O O16 0.500000 0.274048 0.732959
O O17 0.373268 0.260363 0.755787
O O18 0.432494 0.000000 0.708135
O O19 0.784342 0.728851 0.500000
O O20 0.764027 0.000000 0.426814
O O21 0.296216 0.500000 0.207961
O O22 0.000000 0.283806 0.771724
O O23 0.933665 0.000000 0.775510
#
# Coordination Sequence:
#
# PCOD9382140 Si02
#       8
#     8   8   8   8   8   8   8   8
#     4  10  18  31  51  70  94 127 162 199 236 285
#     4   9  17  31  50  70  94 126 164 200 233 277
#     4   8  13  23  42  69  96 121 158 201 231 265
#     4   8  15  29  49  72  95 118 150 196 242 279
#     4  10  20  33  49  70  99 133 164 194 233 282
#     4   8  13  23  44  71  92 115 154 202 241 272
#     4  11  20  31  52  76  97 122 156 200 243 284
#     4  10  21  33  45  67 100 134 162 195 243 291
#
# _framework density 19.301563999999999
#
# number of rings (size 3 to 8) (size 9 to 14) (size 15 to 20)
#    0.000    2.750    2.500    1.875    0.000    1.250 
#    0.000    2.500    0.000    3.750    0.000    6.125 
#    0.000    0.000    0.000    2.250    0.000    2.500 
#
# Total GULP energy -356883.450598 kJ/mol
# GULP energy per Si atom -5576.303916 kJ/mol
# Density = 1.925763 g / cm^3
# Si number density = 19.301564 Si / 1000 Ang^3
#
#
#
# Elastic Constant Matrix: (Units=GPa)
#
#
# Indices 1 2 3 4 5 6 
#
# 1 102.7875 -5.1610 70.0116 0.0000 0.0000 0.0000
# 2 -5.1610 40.8172 -1.8844 0.0000 0.0000 0.0000
# 3 70.0116 -1.8844 148.2658 0.0000 0.0000 0.0000
# 4 0.0000 0.0000 0.0000 18.8025 0.0000 0.0000
# 5 0.0000 0.0000 0.0000 0.0000 10.3258 0.0000
# 6 0.0000 0.0000 0.0000 0.0000 0.0000 -6.2924
#
#
#
# Elastic Compliance Matrix: (Units=1/GPa)
#
#
# Indices 1 2 3 4 5 6 
#
# 1 0.014434 0.001511 -0.006797 0.000000 0.000000 0.000000
# 2 0.001511 0.024672 -0.000400 0.000000 0.000000 0.000000
# 3 -0.006797 -0.000400 0.009949 0.000000 0.000000 0.000000
# 4 0.000000 0.000000 0.000000 0.053185 0.000000 0.000000
# 5 0.000000 0.000000 0.000000 0.000000 0.096845 0.000000
# 6 0.000000 0.000000 0.000000 0.000000 0.000000 -0.158921
#
#
# Mechanical properties :
#
#
# Convention : Reuss Voigt Hill
#
# Bulk Modulus (GPa) = 26.53626 46.42256 36.47941
# Shear Modulus (GPa) = 78.00843 19.82745 48.91794
#
# Velocity S-wave (km/s) = 6.36422 3.20854 5.03975
# Velocity P-wave (km/s) = 8.23302 6.15059 7.26678
#
# Compressibility (1/GPa) = 0.03768429
#
# Stress axis : x y z
#
# Youngs Moduli (GPa) = 69.28057 40.53166 100.51317
#
# Poissons Ratio (x) = -0.06125 0.68315
# Poissons Ratio (y) = -0.10470 0.04021
# Poissons Ratio (z) = 0.47087 0.01621
#
# Static dielectric constant tensor:
#      x y z
#    x 1.666920 0.000000 0.000000 
#    y 0.000000 1.746320 0.000000 
#    z 0.000000 0.000000 1.699700 
# 
# From -- ./inp_files/30150.got.cif
#   From: 2010.05.17/outbox.cif.g08.bks.cpg/sg47_16_cif.got.tgz:30150.got - 2010.06.03 20:15:42.
