data_PCOD9382050
_publ_section_title
;
Structure prediction by ZEFSAII (Michael W. Deem and Ramdas Pophale) SiO2 
 PCOD9382050
Probable space group: P M M M
;
_chemical_formula_sum "Si O2"
_cell_formula_units_Z 64
_cell_length_a 20.784556
_cell_length_b 8.002911
_cell_length_c 20.747127
_cell_angle_alpha 90.000000
_cell_angle_beta 90.000000
_cell_angle_gamma 90.000000
_cell_volume 3451.013865
_symmetry_space_group_name_H-M "P M M M"
_symmetry_group_IT_number 47
_symmetry_cell_setting 'orthorhombic'
loop_
_space_group_symop_operation_xyz
x,y,z
-x,-y,z
x,-y,-z
-x,y,-z
-x,-y,-z
x,y,-z
-x,y,z
x,-y,z
loop_
_atom_site_type_symbol
_atom_site_label
_atom_site_fract_x
_atom_site_fract_y
_atom_site_fract_z
Si Si1 0.391499 0.203389 0.245976
Si Si2 0.073990 0.296013 0.573024
Si Si3 0.184760 0.700891 0.668303
Si Si4 0.430243 0.797827 0.387320
Si Si5 0.430447 0.797865 0.895694
Si Si6 0.709125 0.700291 0.569915
Si Si7 0.749483 0.802410 0.790340
Si Si8 0.712930 0.302128 0.069706
O O1 0.422414 0.257398 0.312759
O O2 0.427109 0.247571 0.180083
O O3 0.318389 0.266518 0.237711
O O4 0.390576 0.000000 0.247755
O O5 0.093256 0.246110 0.500000
O O6 0.074867 0.500000 0.573324
O O7 0.122526 0.238994 0.628668
O O8 0.000000 0.244581 0.583426
O O9 0.184259 0.500000 0.664914
O O10 0.246921 0.765234 0.628098
O O11 0.194135 0.744395 0.743076
O O12 0.500000 0.741756 0.412236
O O13 0.365780 0.739987 0.421797
O O14 0.429942 0.000000 0.388979
O O15 0.500000 0.742521 0.921735
O O16 0.363661 0.733615 0.924335
O O17 0.428211 0.000000 0.900835
O O18 0.731518 0.762406 0.500000
O O19 0.715867 0.500000 0.570077
O O20 0.748073 0.762861 0.866208
O O21 0.746245 0.000000 0.784623
O O22 0.721534 0.500000 0.069691
O O23 0.734493 0.234026 0.000000
#
# Coordination Sequence:
#
# PCOD9382050 Si02
#       8
#     8   8   8   8   8   8   8   8
#     4   8  14  27  45  63  83 108 143 191 242 287
#     4   8  14  26  47  77 111 145 179 210 240 281
#     4  10  18  30  51  76 101 129 165 207 245 283
#     4  10  19  31  47  63  81 109 150 200 249 296
#     4   9  17  29  46  67  90 119 156 195 239 299
#     4  10  21  34  46  63  90 122 154 194 246 297
#     4  10  19  32  52  73  94 122 159 201 244 293
#     4  10  21  35  49  67  95 127 157 197 250 301
#
# _framework density 18.545276000000001
#
# number of rings (size 3 to 8) (size 9 to 14) (size 15 to 20)
#    0.000    2.625    1.250    2.625    0.000    5.250 
#    0.000    2.500    0.000    3.000    0.000    0.875 
#    0.000    0.500    0.000    5.750    0.000    1.625 
#
# Total GULP energy -356791.294106 kJ/mol
# GULP energy per Si atom -5574.863970 kJ/mol
# Density = 1.850307 g / cm^3
# Si number density = 18.545276 Si / 1000 Ang^3
#
#
#
# Elastic Constant Matrix: (Units=GPa)
#
#
# Indices 1 2 3 4 5 6 
#
# 1 83.9525 7.6129 59.0434 0.0000 0.0000 0.0000
# 2 7.6129 15.0885 8.0835 0.0000 0.0000 0.0000
# 3 59.0434 8.0835 129.6876 0.0000 0.0000 0.0000
# 4 0.0000 0.0000 0.0000 -9.5819 0.0000 0.0000
# 5 0.0000 0.0000 0.0000 0.0000 74.9024 0.0000
# 6 0.0000 0.0000 0.0000 0.0000 0.0000 3.2466
#
#
#
# Elastic Compliance Matrix: (Units=1/GPa)
#
#
# Indices 1 2 3 4 5 6 
#
# 1 0.017854 -0.004814 -0.007828 0.000000 0.000000 0.000000
# 2 -0.004814 0.069863 -0.002163 0.000000 0.000000 0.000000
# 3 -0.007828 -0.002163 0.011410 0.000000 0.000000 0.000000
# 4 0.000000 0.000000 0.000000 -0.104364 0.000000 0.000000
# 5 0.000000 0.000000 0.000000 0.000000 0.013351 0.000000
# 6 0.000000 0.000000 0.000000 0.000000 0.000000 0.308012
#
#
# Mechanical properties :
#
#
# Convention : Reuss Voigt Hill
#
# Bulk Modulus (GPa) = 14.38518 42.02313 28.20415
# Shear Modulus (GPa) = 13.55353 23.97935 18.76644
#
# Velocity S-wave (km/s) = 2.70633 3.59976 3.18453
# Velocity P-wave (km/s) = 4.18799 6.32350 5.36311
#
# Compressibility (1/GPa) = 0.06951600
#
# Stress axis : x y z
#
# Youngs Moduli (GPa) = 56.01115 14.31369 87.64530
#
# Poissons Ratio (x) = 0.06891 0.68610
# Poissons Ratio (y) = 0.26964 0.18957
# Poissons Ratio (z) = 0.43847 0.03096
#
# Static dielectric constant tensor:
#      x y z
#    x 1.639490 0.000000 0.000000 
#    y 0.000000 1.664710 0.000000 
#    z 0.000000 0.000000 1.690140 
# 
# From -- ./inp_files/31500.got.cif
#   From: 2010.05.17/outbox.cif.g08.bks.cpg/sg47_16_cif.got.tgz:31500.got - 2010.06.03 20:15:42.
