data_PCOD9382680
_publ_section_title
;
Structure prediction by ZEFSAII (Michael W. Deem and Ramdas Pophale) SiO2 
 PCOD9382680
Probable space group: P M M M
;
_chemical_formula_sum "Si O2"
_cell_formula_units_Z 64
_cell_length_a 8.242218
_cell_length_b 14.864484
_cell_length_c 32.284080
_cell_angle_alpha 90.000000
_cell_angle_beta 90.000000
_cell_angle_gamma 90.000000
_cell_volume 3955.326598
_symmetry_space_group_name_H-M "P M M M"
_symmetry_group_IT_number 47
_symmetry_cell_setting 'orthorhombic'
loop_
_space_group_symop_operation_xyz
x,y,z
-x,-y,z
x,-y,-z
-x,y,-z
-x,-y,-z
x,y,-z
-x,y,z
x,-y,z
loop_
_atom_site_type_symbol
_atom_site_label
_atom_site_fract_x
_atom_site_fract_y
_atom_site_fract_z
Si Si1 0.695590 0.399459 0.256239
Si Si2 0.697797 0.600097 0.159952
Si Si3 0.695030 0.106287 0.455191
Si Si4 0.195419 0.787817 0.286522
Si Si5 0.804258 0.102818 0.046942
Si Si6 0.195095 0.896311 0.366445
Si Si7 0.196113 0.896519 0.205439
Si Si8 0.693848 0.213280 0.125171
O O1 0.500000 0.398251 0.256901
O O2 0.748685 0.500000 0.268921
O O3 0.745418 0.386359 0.208075
O O4 0.757685 0.316135 0.282578
O O5 0.500000 0.599569 0.159278
O O6 0.751348 0.500000 0.147011
O O7 0.754264 0.684963 0.133378
O O8 0.750511 0.143410 0.500000
O O9 0.500000 0.111841 0.454339
O O10 0.760004 0.141723 0.411659
O O11 0.738661 0.000000 0.455288
O O12 0.254849 0.836808 0.328104
O O13 0.254216 0.840660 0.245478
O O14 0.000000 0.793650 0.286466
O O15 0.746824 0.170346 0.082009
O O16 0.000000 0.102433 0.047096
O O17 0.751204 0.000000 0.056233
O O18 0.751118 0.124805 0.000000
O O19 0.000000 0.899859 0.364120
O O20 0.254916 0.000000 0.363019
O O21 0.247582 0.848121 0.163282
O O22 0.000000 0.897499 0.206629
O O23 0.251925 0.000000 0.206855
O O24 0.500000 0.215207 0.126427
#
# Coordination Sequence:
#
# PCOD9382680 Si02
#       8
#     8   8   8   8   8   8   8   8
#     4   9  17  31  49  65  85 116 151 186 226 269
#     4   8  15  29  47  66  90 118 145 177 221 268
#     4   8  14  25  40  58  81 110 147 191 233 268
#     4  10  19  30  44  63  89 120 154 190 221 255
#     4   9  19  36  54  69  90 123 154 177 213 268
#     4   9  17  28  41  59  86 121 157 188 222 265
#     4  10  20  32  44  60  89 128 158 178 210 260
#     4  11  20  30  49  74  94 113 146 190 227 257
#
# _framework density 16.180712
#
# number of rings (size 3 to 8) (size 9 to 14) (size 15 to 20)
#    0.000    2.750    1.250    2.625    0.000    4.750 
#    0.000    1.875    0.000    4.125    0.000    2.625 
#    0.000    0.500    0.000    5.500    0.000    4.250 
#
# Total GULP energy -356583.008679 kJ/mol
# GULP energy per Si atom -5571.609511 kJ/mol
# Density = 1.614388 g / cm^3
# Si number density = 16.180712 Si / 1000 Ang^3
#
#
#
# Elastic Constant Matrix: (Units=GPa)
#
#
# Indices 1 2 3 4 5 6 
#
# 1 5.4904 11.7554 13.0006 0.0000 0.0000 0.0000
# 2 11.7554 125.9320 82.7626 0.0000 0.0000 0.0000
# 3 13.0006 82.7626 134.3618 0.0000 0.0000 0.0000
# 4 0.0000 0.0000 0.0000 8.4941 0.0000 0.0000
# 5 0.0000 0.0000 0.0000 0.0000 12.0795 0.0000
# 6 0.0000 0.0000 0.0000 0.0000 0.0000 17.9507
#
#
#
# Elastic Compliance Matrix: (Units=1/GPa)
#
#
# Indices 1 2 3 4 5 6 
#
# 1 0.247208 -0.012360 -0.016306 0.000000 0.000000 0.000000
# 2 -0.012360 0.013960 -0.007403 0.000000 0.000000 0.000000
# 3 -0.016306 -0.007403 0.013580 0.000000 0.000000 0.000000
# 4 0.000000 0.000000 0.000000 0.117728 0.000000 0.000000
# 5 0.000000 0.000000 0.000000 0.000000 0.082785 0.000000
# 6 0.000000 0.000000 0.000000 0.000000 0.000000 0.055708
#
#
# Mechanical properties :
#
#
# Convention : Reuss Voigt Hill
#
# Bulk Modulus (GPa) = 4.93557 53.42459 29.18008
# Shear Modulus (GPa) = 7.45553 18.25593 12.85573
#
# Velocity S-wave (km/s) = 2.14888 3.36259 2.82176
# Velocity P-wave (km/s) = 3.03542 6.94011 5.35626
#
# Compressibility (1/GPa) = 0.20261066
#
# Stress axis : x y z
#
# Youngs Moduli (GPa) = 4.04517 71.63499 73.63651
#
# Poissons Ratio (x) = 0.88539 1.20073
# Poissons Ratio (y) = 0.05000 0.54512
# Poissons Ratio (z) = 0.06596 0.53030
#
# Static dielectric constant tensor:
#      x y z
#    x 1.571570 0.000000 0.000000 
#    y 0.000000 1.543450 0.000000 
#    z 0.000000 0.000000 1.546960 
# 
# From -- ./inp_files/8327.got.cif
#   From: 2010.05.17/outbox.cif.g08.bks.cpg/sg47_5_cif.got.tgz:8327.got - 2010.06.03 20:15:42.
