data_PCOD9382117
_publ_section_title
;
Structure prediction by ZEFSAII (Michael W. Deem and Ramdas Pophale) SiO2 
 PCOD9382117
Probable space group: P M M M
;
_chemical_formula_sum "Si O2"
_cell_formula_units_Z 40
_cell_length_a 20.848449
_cell_length_b 12.169753
_cell_length_c 7.310016
_cell_angle_alpha 90.000000
_cell_angle_beta 90.000000
_cell_angle_gamma 90.000000
_cell_volume 1854.700730
_symmetry_space_group_name_H-M "P M M M"
_symmetry_group_IT_number 47
_symmetry_cell_setting 'orthorhombic'
loop_
_space_group_symop_operation_xyz
x,y,z
-x,-y,z
x,-y,-z
-x,y,-z
-x,-y,-z
x,y,-z
-x,y,z
x,-y,z
loop_
_atom_site_type_symbol
_atom_site_label
_atom_site_fract_x
_atom_site_fract_y
_atom_site_fract_z
Si Si1 0.500000 0.374372 0.722835
Si Si2 0.373883 0.242914 0.276201
Si Si3 0.000000 0.871368 0.724381
Si Si4 0.787949 0.000000 0.781208
Si Si5 0.133954 0.220756 0.711543
Si Si6 0.639097 0.000000 0.707746
Si Si7 0.246116 0.626982 0.276443
O O1 0.500000 0.500000 0.782728
O O2 0.500000 0.374486 0.500000
O O3 0.564485 0.312570 0.779166
O O4 0.372057 0.239884 0.500000
O O5 0.379402 0.117411 0.211168
O O6 0.307757 0.301376 0.219304
O O7 0.064257 0.809714 0.787420
O O8 0.000000 0.872963 0.500000
O O9 0.000000 0.000000 0.779236
O O10 0.825480 0.891798 0.719936
O O11 0.716362 0.000000 0.705469
O O12 0.784433 0.000000 0.000000
O O13 0.122989 0.250245 0.500000
O O14 0.180619 0.314730 0.787463
O O15 0.613840 0.000000 0.500000
O O16 0.245848 0.629285 0.500000
O O17 0.251495 0.500000 0.221834
#
# Coordination Sequence:
#
# PCOD9382117 Si02
#       7
#     4   8   4   4   8   4   8
#     4   9  16  25  37  63 105 137 154 190 243 286
#     4   9  16  25  42  66  96 131 161 190 236 291
#     4   9  16  26  47  73  95 124 161 194 235 293
#     4  12  22  31  48  75 102 125 158 206 253 291
#     4  10  18  32  51  71  98 130 161 195 240 292
#     4  10  18  31  49  71  96 129 163 198 245 293
#     4   9  16  26  44  69  94 125 165 200 231 278
#
# _framework density 21.566824
#
# number of rings (size 3 to 8) (size 9 to 14) (size 15 to 20)
#    0.000    2.400    3.000    1.500    0.000    2.800 
#    0.000    3.500    0.000    3.600    0.000    1.400 
#    0.000    2.400    0.000    0.000    0.000    0.000 
#
# Total GULP energy -223441.183326 kJ/mol
# GULP energy per Si atom -5586.029583 kJ/mol
# Density = 2.151774 g / cm^3
# Si number density = 21.566824 Si / 1000 Ang^3
#
#
#
# Elastic Constant Matrix: (Units=GPa)
#
#
# Indices 1 2 3 4 5 6 
#
# 1 166.4352 109.4502 7.1485 0.0000 0.0000 0.0000
# 2 109.4502 215.1830 2.5163 0.0000 0.0000 0.0000
# 3 7.1485 2.5163 92.5264 0.0000 0.0000 0.0000
# 4 0.0000 0.0000 0.0000 -28.2536 0.0000 0.0000
# 5 0.0000 0.0000 0.0000 0.0000 -63.1468 0.0000
# 6 0.0000 0.0000 0.0000 0.0000 0.0000 18.1672
#
#
#
# Elastic Compliance Matrix: (Units=1/GPa)
#
#
# Indices 1 2 3 4 5 6 
#
# 1 0.009059 -0.004601 -0.000575 0.000000 0.000000 0.000000
# 2 -0.004601 0.006985 0.000165 0.000000 0.000000 0.000000
# 3 -0.000575 0.000165 0.010848 0.000000 0.000000 0.000000
# 4 0.000000 0.000000 0.000000 -0.035394 0.000000 0.000000
# 5 0.000000 0.000000 0.000000 0.000000 -0.015836 0.000000
# 6 0.000000 0.000000 0.000000 0.000000 0.000000 0.055044
#
#
# Mechanical properties :
#
#
# Convention : Reuss Voigt Hill
#
# Bulk Modulus (GPa) = 59.27154 79.15273 69.21214
# Shear Modulus (GPa) = 107.87511 9.02202 58.44857
#
# Velocity S-wave (km/s) = 7.08008 2.04753 5.21152
# Velocity P-wave (km/s) = 9.71490 6.50927 8.26891
#
# Compressibility (1/GPa) = 0.01687150
#
# Stress axis : x y z
#
# Youngs Moduli (GPa) = 110.39235 143.15522 92.18600
#
# Poissons Ratio (x) = 0.65863 0.05298
# Poissons Ratio (y) = 0.50790 -0.01526
# Poissons Ratio (z) = 0.06345 -0.02369
#
# Static dielectric constant tensor:
#      x y z
#    x 1.737730 0.000000 0.000000 
#    y 0.000000 1.739050 0.000000 
#    z 0.000000 0.000000 1.795730 
# 
# From -- ./inp_files/10747.got.cif
#   From: 2010.05.17/outbox.cif.g08.bks.cpg/sg47_6_cif.got.tgz:10747.got - 2010.06.03 20:15:42.
