data_PCOD9382337
_publ_section_title
;
Structure prediction by ZEFSAII (Michael W. Deem and Ramdas Pophale) SiO2 
 PCOD9382337
Probable space group: P M M M
;
_chemical_formula_sum "Si O2"
_cell_formula_units_Z 56
_cell_length_a 21.228710
_cell_length_b 14.879327
_cell_length_c 9.179760
_cell_angle_alpha 90.000000
_cell_angle_beta 90.000000
_cell_angle_gamma 90.000000
_cell_volume 2899.600858
_symmetry_space_group_name_H-M "P M M M"
_symmetry_group_IT_number 47
_symmetry_cell_setting 'orthorhombic'
loop_
_space_group_symop_operation_xyz
x,y,z
-x,-y,z
x,-y,-z
-x,y,-z
-x,-y,-z
x,y,-z
-x,y,z
x,-y,z
loop_
_atom_site_type_symbol
_atom_site_label
_atom_site_fract_x
_atom_site_fract_y
_atom_site_fract_z
Si Si1 0.810888 0.761334 0.172524
Si Si2 0.926116 0.688399 0.674787
Si Si3 0.287246 0.896415 0.326579
Si Si4 0.751204 0.606996 0.337116
Si Si5 0.389554 0.660285 0.342460
Si Si6 0.567586 0.500000 0.169412
Si Si7 0.924404 0.500000 0.833068
Si Si8 0.569975 0.862422 0.671756
O O1 0.878753 0.760047 0.252515
O O2 0.760813 0.831520 0.241769
O O3 0.786003 0.661273 0.212181
O O4 0.816083 0.774081 0.000000
O O5 0.919726 0.687307 0.500000
O O6 0.909825 0.590036 0.742255
O O7 0.000000 0.705461 0.708512
O O8 0.288055 0.872317 0.500000
O O9 0.360915 0.893240 0.273716
O O10 0.266729 0.000000 0.314076
O O11 0.780711 0.614278 0.500000
O O12 0.741736 0.500000 0.310866
O O13 0.685602 0.661168 0.349162
O O14 0.410938 0.624386 0.500000
O O15 0.401028 0.590564 0.217468
O O16 0.422728 0.754716 0.319315
O O17 0.500000 0.500000 0.243329
O O18 0.562474 0.500000 0.000000
O O19 0.000000 0.500000 0.845686
O O20 0.899123 0.500000 0.000000
O O21 0.568927 0.887318 0.500000
O O22 0.500000 0.888202 0.730636
#
# Coordination Sequence:
#
# PCOD9382337 Si02
#       8
#     8   8   8   8   8   4   4   8
#     4  12  25  39  60  88 123 161 197 247 301 357
#     4  10  21  38  61  88 121 163 208 249 290 343
#     4  10  21  40  65  89 117 153 196 249 304 363
#     4  10  20  36  57  80 111 153 201 250 295 346
#     4  10  18  33  54  73 100 141 190 241 286 340
#     4  11  23  33  42  65 104 145 186 234 288 349
#     4   9  17  31  52  83 126 169 208 248 290 339
#     4   9  17  31  55  86 114 141 182 240 300 355
#
# _framework density 19.313002999999998
#
# number of rings (size 3 to 8) (size 9 to 14) (size 15 to 20)
#    0.000    1.857    2.143    2.571    1.000    4.286 
#    0.000    1.429    0.000    0.857    0.000    4.000 
#    0.000    0.000    0.000    0.000    0.000    0.000 
#
# Total GULP energy -311946.194784 kJ/mol
# GULP energy per Si atom -5570.467764 kJ/mol
# Density = 1.926905 g / cm^3
# Si number density = 19.313003 Si / 1000 Ang^3
#
#
#
# Elastic Constant Matrix: (Units=GPa)
#
#
# Indices 1 2 3 4 5 6 
#
# 1 141.1098 47.8472 46.4560 0.0000 0.0000 0.0000
# 2 47.8472 86.0705 41.0651 0.0000 0.0000 0.0000
# 3 46.4560 41.0651 101.5449 0.0000 0.0000 0.0000
# 4 0.0000 0.0000 0.0000 64.9624 0.0000 0.0000
# 5 0.0000 0.0000 0.0000 0.0000 18.2377 0.0000
# 6 0.0000 0.0000 0.0000 0.0000 0.0000 -3.4781
#
#
#
# Elastic Compliance Matrix: (Units=1/GPa)
#
#
# Indices 1 2 3 4 5 6 
#
# 1 0.009285 -0.003884 -0.002677 0.000000 0.000000 0.000000
# 2 -0.003884 0.016021 -0.004702 0.000000 0.000000 0.000000
# 3 -0.002677 -0.004702 0.012974 0.000000 0.000000 0.000000
# 4 0.000000 0.000000 0.000000 0.015394 0.000000 0.000000
# 5 0.000000 0.000000 0.000000 0.000000 0.054831 0.000000
# 6 0.000000 0.000000 0.000000 0.000000 0.000000 -0.287517
#
#
# Mechanical properties :
#
#
# Convention : Reuss Voigt Hill
#
# Bulk Modulus (GPa) = 63.47758 66.60690 65.04224
# Shear Modulus (GPa) = -33.06134 28.83487 -2.11323
#
# Velocity S-wave (km/s) = -4.14196 3.86817 -1.04718
# Velocity P-wave (km/s) = 3.17249 7.38331 5.68234
#
# Compressibility (1/GPa) = 0.01575359
#
# Stress axis : x y z
#
# Youngs Moduli (GPa) = 107.69907 62.41769 77.07712
#
# Poissons Ratio (x) = 0.24246 0.20633
# Poissons Ratio (y) = 0.41835 0.36241
# Poissons Ratio (z) = 0.28831 0.29348
#
# Static dielectric constant tensor:
#      x y z
#    x 1.767550 0.000000 0.000000 
#    y 0.000000 1.669160 0.000000 
#    z 0.000000 0.000000 1.658390 
# 
# From -- ./inp_files/11319.got.cif
#   From: 2010.05.17/outbox.cif.g08.bks.cpg/sg47_6_cif.got.tgz:11319.got - 2010.06.03 20:15:42.
