data_PCOD9382502
_publ_section_title
;
Structure prediction by ZEFSAII (Michael W. Deem and Ramdas Pophale) SiO2 
 PCOD9382502
Probable space group: P M M M
;
_chemical_formula_sum "Si O2"
_cell_formula_units_Z 56
_cell_length_a 19.378603
_cell_length_b 7.475666
_cell_length_c 19.790931
_cell_angle_alpha 90.000000
_cell_angle_beta 90.000000
_cell_angle_gamma 90.000000
_cell_volume 2867.071871
_symmetry_space_group_name_H-M "P M M M"
_symmetry_group_IT_number 47
_symmetry_cell_setting 'orthorhombic'
loop_
_space_group_symop_operation_xyz
x,y,z
-x,-y,z
x,-y,-z
-x,y,-z
-x,-y,-z
x,y,-z
-x,y,z
x,-y,z
loop_
_atom_site_type_symbol
_atom_site_label
_atom_site_fract_x
_atom_site_fract_y
_atom_site_fract_z
Si Si1 0.346241 0.284018 0.424310
Si Si2 0.290838 0.781101 0.790409
Si Si3 0.151627 0.787280 0.718904
Si Si4 0.923566 0.781532 0.149266
Si Si5 0.188025 0.713906 0.574390
Si Si6 0.215948 0.781937 0.924113
Si Si7 0.423195 0.210519 0.287553
O O1 0.367450 0.228234 0.500000
O O2 0.345399 0.500000 0.423367
O O3 0.266959 0.221448 0.413888
O O4 0.395063 0.225460 0.363914
O O5 0.227114 0.721248 0.742950
O O6 0.270113 0.727876 0.866275
O O7 0.363123 0.715794 0.760885
O O8 0.291604 0.000000 0.788520
O O9 0.096717 0.724025 0.774434
O O10 0.142641 0.753540 0.639873
O O11 0.153385 0.000000 0.726953
O O12 0.860229 0.726926 0.101479
O O13 0.000000 0.720829 0.130369
O O14 0.924413 0.000000 0.147848
O O15 0.165510 0.778453 0.500000
O O16 0.192103 0.500000 0.570709
O O17 0.215979 0.000000 0.924502
O O18 0.230048 0.721166 0.000000
O O19 0.500000 0.287042 0.281073
O O20 0.427787 0.000000 0.272132
#
# Coordination Sequence:
#
# PCOD9382502 Si02
#       7
#     8   8   8   8   8   8   8
#     4   9  18  31  44  59  82 110 137 171 218 261
#     4   8  14  25  38  55  80 106 138 175 205 238
#     4   9  15  25  43  61  79 109 143 171 205 246
#     4   8  14  23  36  59  89 114 137 168 203 241
#     4   9  17  28  42  61  83 105 134 177 220 249
#     4   8  13  21  36  58  84 116 144 164 197 245
#     4  10  19  29  42  59  81 112 145 176 210 246
#
# _framework density 19.532122999999999
#
# number of rings (size 3 to 8) (size 9 to 14) (size 15 to 20)
#    0.000    3.286    1.429    2.571    0.000    1.429 
#    0.000    4.286    0.000    1.286    0.000    6.000 
#    0.000   14.286    0.000    6.429    0.000    7.143 
#
# Total GULP energy -312074.002186 kJ/mol
# GULP energy per Si atom -5572.750039 kJ/mol
# Density = 1.948767 g / cm^3
# Si number density = 19.532123 Si / 1000 Ang^3
#
#
#
# Elastic Constant Matrix: (Units=GPa)
#
#
# Indices 1 2 3 4 5 6 
#
# 1 65.0278 1.5094 44.3493 0.0000 0.0000 0.0000
# 2 1.5094 52.1112 -5.7755 0.0000 0.0000 0.0000
# 3 44.3493 -5.7755 147.0288 0.0000 0.0000 0.0000
# 4 0.0000 0.0000 0.0000 39.9809 0.0000 0.0000
# 5 0.0000 0.0000 0.0000 0.0000 16.4235 0.0000
# 6 0.0000 0.0000 0.0000 0.0000 0.0000 -0.6893
#
#
#
# Elastic Compliance Matrix: (Units=1/GPa)
#
#
# Indices 1 2 3 4 5 6 
#
# 1 0.019438 -0.001218 -0.005911 0.000000 0.000000 0.000000
# 2 -0.001218 0.019350 0.001128 0.000000 0.000000 0.000000
# 3 -0.005911 0.001128 0.008629 0.000000 0.000000 0.000000
# 4 0.000000 0.000000 0.000000 0.025012 0.000000 0.000000
# 5 0.000000 0.000000 0.000000 0.000000 0.060888 0.000000
# 6 0.000000 0.000000 0.000000 0.000000 0.000000 -1.450668
#
#
# Mechanical properties :
#
#
# Convention : Reuss Voigt Hill
#
# Bulk Modulus (GPa) = 28.23812 38.25936 33.24874
# Shear Modulus (GPa) = -3.86535 26.08199 11.10832
#
# Velocity S-wave (km/s) = -1.40829 3.65819 2.38737
# Velocity P-wave (km/s) = 3.44155 6.12157 4.96578
#
# Compressibility (1/GPa) = 0.03541313
#
# Stress axis : x y z
#
# Youngs Moduli (GPa) = 51.44666 51.67967 115.89314
#
# Poissons Ratio (x) = 0.06295 0.68504
# Poissons Ratio (y) = 0.06267 -0.13067
# Poissons Ratio (z) = 0.30410 -0.05827
#
# Static dielectric constant tensor:
#      x y z
#    x 1.670990 0.000000 0.000000 
#    y 0.000000 1.726230 0.000000 
#    z 0.000000 0.000000 1.699920 
# 
# From -- ./inp_files/11491.got.cif
#   From: 2010.05.17/outbox.cif.g08.bks.cpg/sg47_6_cif.got.tgz:11491.got - 2010.06.03 20:15:42.
