data_PCOD9382428
_publ_section_title
;
Structure prediction by ZEFSAII (Michael W. Deem and Ramdas Pophale) SiO2 
 PCOD9382428
Probable space group: P M M M
;
_chemical_formula_sum "Si O2"
_cell_formula_units_Z 60
_cell_length_a 20.695905
_cell_length_b 7.299744
_cell_length_c 17.105699
_cell_angle_alpha 90.000000
_cell_angle_beta 90.000000
_cell_angle_gamma 90.000000
_cell_volume 2584.240198
_symmetry_space_group_name_H-M "P M M M"
_symmetry_group_IT_number 47
_symmetry_cell_setting 'orthorhombic'
loop_
_space_group_symop_operation_xyz
x,y,z
-x,-y,z
x,-y,-z
-x,y,-z
-x,-y,-z
x,y,-z
-x,y,z
x,-y,z
loop_
_atom_site_type_symbol
_atom_site_label
_atom_site_fract_x
_atom_site_fract_y
_atom_site_fract_z
Si Si1 0.697091 0.777259 0.184592
Si Si2 0.181047 0.223458 0.087822
Si Si3 0.573854 0.223019 0.090132
Si Si4 0.710870 0.776840 0.359703
Si Si5 0.927934 0.778977 0.206156
Si Si6 0.189441 0.245298 0.500000
Si Si7 0.569337 0.778069 0.591757
Si Si8 0.926925 0.713508 0.388026
O O1 0.749360 0.723389 0.120287
O O2 0.626841 0.717345 0.153690
O O3 0.723167 0.721801 0.270112
O O4 0.694563 0.000000 0.188217
O O5 0.126169 0.285914 0.147237
O O6 0.179879 0.000000 0.087873
O O7 0.169790 0.284149 0.000000
O O8 0.500000 0.279543 0.106546
O O9 0.574417 0.000000 0.090814
O O10 0.589781 0.275874 0.000000
O O11 0.757267 0.715937 0.429918
O O12 0.636731 0.718050 0.372904
O O13 0.714128 0.000000 0.365406
O O14 0.916468 0.725244 0.295592
O O15 0.000000 0.718544 0.184253
O O16 0.927295 0.000000 0.205087
O O17 0.133284 0.205438 0.433309
O O18 0.570390 0.732521 0.500000
O O19 0.500000 0.716211 0.624685
O O20 0.569568 0.000000 0.597257
O O21 0.926109 0.500000 0.411279
O O22 0.000000 0.783250 0.403795
#
# Coordination Sequence:
#
# PCOD9382428 Si02
#       8
#     8   8   8   8   8   4   8   8
#     4   9  16  24  34  51  81 121 161 200 244 294
#     4   9  16  26  42  66  97 132 165 195 233 285
#     4   8  13  21  33  49  71 106 158 213 252 285
#     4  10  19  28  40  64  97 130 166 212 262 299
#     4   9  18  33  53  78 104 127 157 200 247 292
#     4  12  21  31  49  68  89 118 159 203 244 297
#     4   8  13  23  37  52  79 123 168 203 241 294
#     4  10  22  40  59  76  97 128 164 204 252 304
#
# _framework density 23.217655000000001
#
# number of rings (size 3 to 8) (size 9 to 14) (size 15 to 20)
#    0.000    2.800    0.667    2.600    0.000    5.067 
#    0.000    4.000    0.000    3.600    0.000    1.867 
#    0.000    4.267    0.000    0.533    0.000    2.400 
#
# Total GULP energy -334050.847255 kJ/mol
# GULP energy per Si atom -5567.514121 kJ/mol
# Density = 2.316481 g / cm^3
# Si number density = 23.217655 Si / 1000 Ang^3
#
#
#
# Elastic Constant Matrix: (Units=GPa)
#
#
# Indices 1 2 3 4 5 6 
#
# 1 175.3626 3.7452 103.4344 0.0000 0.0000 0.0000
# 2 3.7452 93.5259 1.8200 0.0000 0.0000 0.0000
# 3 103.4344 1.8200 162.7030 0.0000 0.0000 0.0000
# 4 0.0000 0.0000 0.0000 1.9412 0.0000 0.0000
# 5 0.0000 0.0000 0.0000 0.0000 46.8474 0.0000
# 6 0.0000 0.0000 0.0000 0.0000 0.0000 -16.0791
#
#
#
# Elastic Compliance Matrix: (Units=1/GPa)
#
#
# Indices 1 2 3 4 5 6 
#
# 1 0.009129 -0.000253 -0.005801 0.000000 0.000000 0.000000
# 2 -0.000253 0.010702 0.000041 0.000000 0.000000 0.000000
# 3 -0.005801 0.000041 0.009834 0.000000 0.000000 0.000000
# 4 0.000000 0.000000 0.000000 0.515150 0.000000 0.000000
# 5 0.000000 0.000000 0.000000 0.000000 0.021346 0.000000
# 6 0.000000 0.000000 0.000000 0.000000 0.000000 -0.062192
#
#
# Mechanical properties :
#
#
# Convention : Reuss Voigt Hill
#
# Bulk Modulus (GPa) = 56.69241 72.17675 64.43458
# Shear Modulus (GPa) = 9.58088 28.04802 18.81445
#
# Velocity S-wave (km/s) = 2.03359 3.47947 2.84975
# Velocity P-wave (km/s) = 5.47584 6.87726 6.21617
#
# Compressibility (1/GPa) = 0.01763904
#
# Stress axis : x y z
#
# Youngs Moduli (GPa) = 109.53507 93.44441 101.69244
#
# Poissons Ratio (x) = 0.02361 0.58992
# Poissons Ratio (y) = 0.02768 -0.00416
# Poissons Ratio (z) = 0.63542 -0.00383
#
# Static dielectric constant tensor:
#      x y z
#    x 1.844570 0.000000 0.000000 
#    y 0.000000 1.965130 0.000000 
#    z 0.000000 0.000000 1.840680 
# 
# From -- ./inp_files/25341.got.cif
#   From: 2010.05.17/outbox.cif.g08.bks.cpg/sg47_13_cif.got.tgz:25341.got - 2010.06.03 20:15:42.
