data_PCOD9382946
_publ_section_title
;
Structure prediction by ZEFSAII (Michael W. Deem and Ramdas Pophale) SiO2 
 PCOD9382946
Probable space group: P M M M
;
_chemical_formula_sum "Si O2"
_cell_formula_units_Z 52
_cell_length_a 31.171825
_cell_length_b 12.775309
_cell_length_c 9.073636
_cell_angle_alpha 90.000000
_cell_angle_beta 90.000000
_cell_angle_gamma 90.000000
_cell_volume 3613.391310
_symmetry_space_group_name_H-M "P M M M"
_symmetry_group_IT_number 47
_symmetry_cell_setting 'orthorhombic'
loop_
_space_group_symop_operation_xyz
x,y,z
-x,-y,z
x,-y,-z
-x,y,-z
-x,-y,-z
x,y,-z
-x,y,z
x,-y,z
loop_
_atom_site_type_symbol
_atom_site_label
_atom_site_fract_x
_atom_site_fract_y
_atom_site_fract_z
Si Si1 0.185949 0.626237 0.173232
Si Si2 0.051372 0.500000 0.173940
Si Si3 0.900245 0.306645 0.675431
Si Si4 0.273805 0.627320 0.669037
Si Si5 0.453760 0.376336 0.178993
Si Si6 0.050468 0.123440 0.826118
Si Si7 0.360375 0.627666 0.827672
O O1 0.181776 0.500000 0.191074
O O2 0.147720 0.678809 0.263315
O O3 0.232513 0.657408 0.235100
O O4 0.182341 0.649248 0.000000
O O5 0.071561 0.398314 0.250003
O O6 0.000000 0.500000 0.187981
O O7 0.062312 0.500000 0.000000
O O8 0.901050 0.317175 0.500000
O O9 0.920429 0.197559 0.728026
O O10 0.268957 0.660485 0.500000
O O11 0.274818 0.500000 0.670743
O O12 0.319029 0.662779 0.737000
O O13 0.500000 0.331774 0.228194
O O14 0.454452 0.500000 0.215954
O O15 0.407248 0.335030 0.227761
O O16 0.452958 0.370768 0.000000
O O17 0.000000 0.144150 0.797611
O O18 0.057896 0.000000 0.801878
O O19 0.057960 0.145277 0.000000
O O20 0.361451 0.500000 0.822287
O O21 0.355342 0.655290 0.000000
#
# Coordination Sequence:
#
# PCOD9382946 Si02
#       7
#     8   4   8   8   8   8   8
#     4  10  19  31  46  60  79 108 140 168 200 247
#     4  11  23  37  51  67  91 123 153 175 200 245
#     4  12  23  33  49  72  97 118 140 175 217 255
#     4   9  16  24  34  48  68  91 118 154 195 236
#     4   7   9  13  22  36  52  70  97 138 183 224
#     4   9  19  37  58  75  92 118 150 178 204 241
#     4   8  12  18  28  41  56  77 109 144 182 231
#
# _framework density 14.390912999999999
#
# number of rings (size 3 to 8) (size 9 to 14) (size 15 to 20)
#    0.000    2.692    0.769    4.846    0.000    5.538 
#    0.000    0.769    0.000    0.462    0.000    3.231 
#    0.000    0.000    0.000    0.000    0.000    0.000 
#
# Total GULP energy -289563.161989 kJ/mol
# GULP energy per Si atom -5568.522346 kJ/mol
# Density = 1.435816 g / cm^3
# Si number density = 14.390913 Si / 1000 Ang^3
#
#
#
# Elastic Constant Matrix: (Units=GPa)
#
#
# Indices 1 2 3 4 5 6 
#
# 1 134.0505 30.3935 70.7431 0.0000 0.0000 0.0000
# 2 30.3935 20.3662 26.3600 0.0000 0.0000 0.0000
# 3 70.7431 26.3600 90.5548 0.0000 0.0000 0.0000
# 4 0.0000 0.0000 0.0000 9.1414 0.0000 0.0000
# 5 0.0000 0.0000 0.0000 0.0000 -11.9024 0.0000
# 6 0.0000 0.0000 0.0000 0.0000 0.0000 -0.1570
#
#
#
# Elastic Compliance Matrix: (Units=1/GPa)
#
#
# Indices 1 2 3 4 5 6 
#
# 1 0.014042 -0.010842 -0.007814 0.000000 0.000000 0.000000
# 2 -0.010842 0.087155 -0.016900 0.000000 0.000000 0.000000
# 3 -0.007814 -0.016900 0.022067 0.000000 0.000000 0.000000
# 4 0.000000 0.000000 0.000000 0.109392 0.000000 0.000000
# 5 0.000000 0.000000 0.000000 0.000000 -0.084016 0.000000
# 6 0.000000 0.000000 0.000000 0.000000 0.000000 -6.370242
#
#
# Mechanical properties :
#
#
# Convention : Reuss Voigt Hill
#
# Bulk Modulus (GPa) = 19.17487 55.55164 37.36325
# Shear Modulus (GPa) = -0.81525 7.24806 3.21641
#
# Velocity S-wave (km/s) = -0.75348 2.24666 1.49662
# Velocity P-wave (km/s) = 3.54912 6.73912 5.38572
#
# Compressibility (1/GPa) = 0.05215160
#
# Stress axis : x y z
#
# Youngs Moduli (GPa) = 71.21738 11.47381 45.31709
#
# Poissons Ratio (x) = 0.12440 0.35409
# Poissons Ratio (y) = 0.77213 0.76588
# Poissons Ratio (z) = 0.55646 0.19391
#
# Static dielectric constant tensor:
#      x y z
#    x 1.510080 0.000000 0.000000 
#    y 0.000000 1.441300 0.000000 
#    z 0.000000 0.000000 1.476440 
# 
# From -- ./inp_files/14141.got.cif
#   From: 2010.05.17/outbox.cif.g08.bks.cpg/sg47_8_cif.got.tgz:14141.got - 2010.06.03 20:15:42.
