data_PCOD9382036
_publ_section_title
;
Structure prediction by ZEFSAII (Michael W. Deem and Ramdas Pophale) SiO2 
 PCOD9382036
Probable space group: P M M M
;
_chemical_formula_sum "Si O2"
_cell_formula_units_Z 52
_cell_length_a 7.823938
_cell_length_b 12.571256
_cell_length_c 26.075145
_cell_angle_alpha 90.000000
_cell_angle_beta 90.000000
_cell_angle_gamma 90.000000
_cell_volume 2564.665932
_symmetry_space_group_name_H-M "P M M M"
_symmetry_group_IT_number 47
_symmetry_cell_setting 'orthorhombic'
loop_
_space_group_symop_operation_xyz
x,y,z
-x,-y,z
x,-y,-z
-x,y,-z
-x,-y,-z
x,y,-z
-x,y,z
x,-y,z
loop_
_atom_site_type_symbol
_atom_site_label
_atom_site_fract_x
_atom_site_fract_y
_atom_site_fract_z
Si Si1 0.698428 0.715886 0.832800
Si Si2 0.789815 0.262669 0.653764
Si Si3 0.198054 0.765993 0.942003
Si Si4 0.208286 0.877576 0.442646
Si Si5 0.691477 0.000000 0.938516
Si Si6 0.797952 0.121291 0.249536
Si Si7 0.802128 0.500000 0.663397
Si Si8 0.709373 0.500000 0.219617
O O1 0.500000 0.723428 0.820209
O O2 0.716791 0.710047 0.893969
O O3 0.777643 0.817985 0.804540
O O4 0.765882 0.606931 0.808802
O O5 0.737092 0.196194 0.603931
O O6 0.732108 0.199645 0.705142
O O7 0.728369 0.384516 0.648968
O O8 0.000000 0.266480 0.655801
O O9 0.000000 0.736605 0.943370
O O10 0.214362 0.890742 0.927732
O O11 0.268600 0.751186 0.000000
O O12 0.262501 0.844818 0.500000
O O13 0.000000 0.876882 0.442414
O O14 0.260804 0.000000 0.434464
O O15 0.500000 0.000000 0.915941
O O16 0.675068 0.000000 0.000000
O O17 0.000000 0.111874 0.259237
O O18 0.728139 0.000000 0.249812
O O19 0.789206 0.500000 0.724626
O O20 0.000000 0.500000 0.646225
O O21 0.500000 0.500000 0.222694
#
# Coordination Sequence:
#
# PCOD9382036 Si02
#       8
#     8   8   8   8   4   8   4   4
#     4  11  23  38  57  78 104 136 174 219 267 320
#     4   9  16  27  44  69  99 134 178 219 259 313
#     4  10  21  37  56  79 107 139 175 214 259 316
#     4   8  13  22  38  62  97 141 180 213 257 315
#     4   9  17  31  53  79 107 141 177 211 252 303
#     4  10  20  33  51  76 106 138 171 213 266 320
#     4  10  18  30  51  73  97 134 176 218 268 319
#     4  10  22  40  57  76 101 136 180 221 264 317
#
# _framework density 20.275545999999999
#
# number of rings (size 3 to 8) (size 9 to 14) (size 15 to 20)
#    0.000    2.385    1.538    2.077    1.077    4.615 
#    0.000    0.769    0.000    4.615    0.000    0.000 
#    0.000    3.077    0.000    8.462    0.000    7.692 
#
# Total GULP energy -289901.117505 kJ/mol
# GULP energy per Si atom -5575.021490 kJ/mol
# Density = 2.022940 g / cm^3
# Si number density = 20.275546 Si / 1000 Ang^3
#
#
#
# Elastic Constant Matrix: (Units=GPa)
#
#
# Indices 1 2 3 4 5 6 
#
# 1 22.5396 4.9249 -5.7101 0.0000 0.0000 0.0000
# 2 4.9249 123.5203 63.1770 0.0000 0.0000 0.0000
# 3 -5.7101 63.1770 127.5719 0.0000 0.0000 0.0000
# 4 0.0000 0.0000 0.0000 52.5127 0.0000 0.0000
# 5 0.0000 0.0000 0.0000 0.0000 -20.6073 0.0000
# 6 0.0000 0.0000 0.0000 0.0000 0.0000 10.9935
#
#
#
# Elastic Compliance Matrix: (Units=1/GPa)
#
#
# Indices 1 2 3 4 5 6 
#
# 1 0.046227 -0.003886 0.003993 0.000000 0.000000 0.000000
# 2 -0.003886 0.011169 -0.005705 0.000000 0.000000 0.000000
# 3 0.003993 -0.005705 0.010843 0.000000 0.000000 0.000000
# 4 0.000000 0.000000 0.000000 0.019043 0.000000 0.000000
# 5 0.000000 0.000000 0.000000 0.000000 -0.048526 0.000000
# 6 0.000000 0.000000 0.000000 0.000000 0.000000 0.090963
#
#
# Mechanical properties :
#
#
# Convention : Reuss Voigt Hill
#
# Bulk Modulus (GPa) = 17.53030 44.26836 30.89933
# Shear Modulus (GPa) = 31.26431 22.66245 26.96338
#
# Velocity S-wave (km/s) = 3.93105 3.34686 3.65066
# Velocity P-wave (km/s) = 5.41009 6.06763 5.74827
#
# Compressibility (1/GPa) = 0.05704410
#
# Stress axis : x y z
#
# Youngs Moduli (GPa) = 21.63234 89.53623 92.22798
#
# Poissons Ratio (x) = 0.34790 -0.36830
# Poissons Ratio (y) = 0.08405 0.52615
# Poissons Ratio (z) = -0.08639 0.51080
#
# Static dielectric constant tensor:
#      x y z
#    x 1.756330 0.000000 0.000000 
#    y 0.000000 1.725880 0.000000 
#    z 0.000000 0.000000 1.704690 
# 
# From -- ./inp_files/33331.got.cif
#   From: 2010.05.17/outbox.cif.g08.bks.cpg/sg47_17_cif.got.tgz:33331.got - 2010.06.03 20:15:42.
