data_PCOD9382328
_publ_section_title
;
Structure prediction by ZEFSAII (Michael W. Deem and Ramdas Pophale) SiO2 
 PCOD9382328
Probable space group: P M M M
;
_chemical_formula_sum "Si O2"
_cell_formula_units_Z 64
_cell_length_a 15.983649
_cell_length_b 24.533628
_cell_length_c 8.404653
_cell_angle_alpha 90.000000
_cell_angle_beta 90.000000
_cell_angle_gamma 90.000000
_cell_volume 3295.774562
_symmetry_space_group_name_H-M "P M M M"
_symmetry_group_IT_number 47
_symmetry_cell_setting 'orthorhombic'
loop_
_space_group_symop_operation_xyz
x,y,z
-x,-y,z
x,-y,-z
-x,y,-z
-x,-y,-z
x,y,-z
-x,y,z
x,-y,z
loop_
_atom_site_type_symbol
_atom_site_label
_atom_site_fract_x
_atom_site_fract_y
_atom_site_fract_z
Si Si1 0.147738 0.753042 0.310371
Si Si2 0.750563 0.062082 0.689951
Si Si3 0.406602 0.365536 0.806020
Si Si4 0.093375 0.632468 0.692297
Si Si5 0.092436 0.131015 0.189471
Si Si6 0.662340 0.752152 0.192674
Si Si7 0.593130 0.869529 0.192006
Si Si8 0.249685 0.562483 0.807711
O O1 0.137060 0.757712 0.500000
O O2 0.110011 0.695090 0.258260
O O3 0.106759 0.805695 0.231306
O O4 0.245666 0.752851 0.267101
O O5 0.747978 0.060961 0.500000
O O6 0.831844 0.096172 0.740488
O O7 0.667102 0.092007 0.749208
O O8 0.754868 0.000000 0.750419
O O9 0.500000 0.380330 0.752289
O O10 0.384454 0.303395 0.761613
O O11 0.332207 0.405044 0.751583
O O12 0.406870 0.367256 0.000000
O O13 0.096484 0.631382 0.500000
O O14 0.166904 0.594494 0.755821
O O15 0.000000 0.615712 0.742597
O O16 0.000000 0.114276 0.247299
O O17 0.095010 0.124979 0.000000
O O18 0.614133 0.807175 0.238215
O O19 0.670940 0.752087 0.000000
O O20 0.500000 0.884745 0.247654
O O21 0.593329 0.871129 0.000000
O O22 0.249162 0.500000 0.752455
O O23 0.251951 0.562290 0.000000
#
# Coordination Sequence:
#
# PCOD9382328 Si02
#       8
#     8   8   8   8   8   8   8   8
#     4  11  21  35  59  88 119 151 185 231 288 347
#     4  11  25  43  62  86 118 157 200 246 292 338
#     4   9  17  31  54  83 115 150 186 228 281 340
#     4  10  22  39  58  81 111 149 190 231 281 344
#     4  11  24  41  63  91 120 152 191 236 289 350
#     4  10  18  32  57  86 117 151 188 231 284 344
#     4  10  21  37  60  90 121 154 195 243 292 345
#     4  10  21  36  55  82 113 145 189 243 290 333
#
# _framework density 19.418804000000002
#
# number of rings (size 3 to 8) (size 9 to 14) (size 15 to 20)
#    0.000    1.750    2.500    1.875    0.000    6.250 
#    0.000    5.000    0.000    2.250    0.000    0.875 
#    0.000    0.000    0.000    0.000    0.000    0.000 
#
# Total GULP energy -357542.894383 kJ/mol
# GULP energy per Si atom -5586.607725 kJ/mol
# Density = 1.937461 g / cm^3
# Si number density = 19.418804 Si / 1000 Ang^3
#
#
#
# Elastic Constant Matrix: (Units=GPa)
#
#
# Indices 1 2 3 4 5 6 
#
# 1 199.8952 90.7034 19.8957 0.0000 0.0000 0.0000
# 2 90.7034 156.3772 18.7154 0.0000 0.0000 0.0000
# 3 19.8957 18.7154 11.0157 0.0000 0.0000 0.0000
# 4 0.0000 0.0000 0.0000 24.1499 0.0000 0.0000
# 5 0.0000 0.0000 0.0000 0.0000 -46.4158 0.0000
# 6 0.0000 0.0000 0.0000 0.0000 0.0000 2.8666
#
#
#
# Elastic Compliance Matrix: (Units=1/GPa)
#
#
# Indices 1 2 3 4 5 6 
#
# 1 0.007248 -0.003310 -0.007466 0.000000 0.000000 0.000000
# 2 -0.003310 0.009539 -0.010227 0.000000 0.000000 0.000000
# 3 -0.007466 -0.010227 0.121640 0.000000 0.000000 0.000000
# 4 0.000000 0.000000 0.000000 0.041408 0.000000 0.000000
# 5 0.000000 0.000000 0.000000 0.000000 -0.021544 0.000000
# 6 0.000000 0.000000 0.000000 0.000000 0.000000 0.348851
#
#
# Mechanical properties :
#
#
# Convention : Reuss Voigt Hill
#
# Bulk Modulus (GPa) = 10.37142 69.54634 39.95888
# Shear Modulus (GPa) = 8.60157 11.98503 10.29330
#
# Velocity S-wave (km/s) = 2.10692 2.48702 2.30482
# Velocity P-wave (km/s) = 3.35728 6.64370 5.26356
#
# Compressibility (1/GPa) = 0.09641878
#
# Stress axis : x y z
#
# Youngs Moduli (GPa) = 137.97200 104.83328 8.22099
#
# Poissons Ratio (x) = 0.34704 0.06138
# Poissons Ratio (y) = 0.45674 0.08408
# Poissons Ratio (z) = 1.03012 1.07217
#
# Static dielectric constant tensor:
#      x y z
#    x 1.671290 0.000000 0.000000 
#    y 0.000000 1.662610 0.000000 
#    z 0.000000 0.000000 1.672730 
# 
# From -- ./inp_files/7794.got.cif
#   From: 2010.05.17/outbox.cif.g08.bks.cpg/sg47_4_cif.got.tgz:7794.got - 2010.06.03 20:15:42.
