data_PCOD9382305
_publ_section_title
;
Structure prediction by ZEFSAII (Michael W. Deem and Ramdas Pophale) SiO2 
 PCOD9382305
Probable space group: P M M M
;
_chemical_formula_sum "Si O2"
_cell_formula_units_Z 52
_cell_length_a 20.639430
_cell_length_b 8.550780
_cell_length_c 15.577310
_cell_angle_alpha 90.000000
_cell_angle_beta 90.000000
_cell_angle_gamma 90.000000
_cell_volume 2749.133910
_symmetry_space_group_name_H-M "P M M M"
_symmetry_group_IT_number 47
_symmetry_cell_setting 'orthorhombic'
loop_
_space_group_symop_operation_xyz
x,y,z
-x,-y,z
x,-y,-z
-x,y,-z
-x,-y,-z
x,y,-z
-x,y,z
x,-y,z
loop_
_atom_site_type_symbol
_atom_site_label
_atom_site_fract_x
_atom_site_fract_y
_atom_site_fract_z
Si Si1 0.705898 0.814881 0.905515
Si Si2 0.224587 0.319065 0.597137
Si Si3 0.374713 0.330118 0.652991
Si Si4 0.811938 0.310423 0.777738
Si Si5 0.575211 0.321383 0.150909
Si Si6 0.430846 0.000000 0.600753
Si Si7 0.926000 0.690563 0.902354
O O1 0.747583 0.736529 0.830262
O O2 0.629622 0.779046 0.896260
O O3 0.715852 0.000000 0.900072
O O4 0.727629 0.758709 0.000000
O O5 0.221196 0.251642 0.500000
O O6 0.203141 0.500000 0.589665
O O7 0.298662 0.326116 0.630794
O O8 0.188071 0.248609 0.679775
O O9 0.398425 0.500000 0.617616
O O10 0.398252 0.328820 0.751411
O O11 0.398534 0.164418 0.619988
O O12 0.812625 0.500000 0.773753
O O13 0.873103 0.256304 0.833891
O O14 0.500000 0.268961 0.148128
O O15 0.576938 0.500000 0.117731
O O16 0.500000 0.000000 0.646973
O O17 0.438031 0.000000 0.500000
O O18 0.925047 0.500000 0.901966
O O19 0.000000 0.738070 0.883362
O O20 0.910178 0.739742 0.000000
#
# Coordination Sequence:
#
# PCOD9382305 Si02
#       7
#     8   8   8   8   8   4   8
#     4  11  24  38  52  76 109 140 172 219 276 328
#     4   9  17  30  51  77 103 133 171 216 268 322
#     4  10  20  37  55  74 102 135 175 226 281 332
#     4  10  18  32  55  79 103 138 180 219 260 312
#     4  10  21  37  57  78  99 131 178 226 272 326
#     4  11  24  36  50  76 101 131 178 223 279 349
#     4   8  14  25  45  77 111 139 172 216 262 307
#
# _framework density 18.915047000000001
#
# number of rings (size 3 to 8) (size 9 to 14) (size 15 to 20)
#    0.000    2.231    1.538    2.308    1.077    4.308 
#    0.000    2.308    0.000    0.923    0.000    5.385 
#    0.000    0.000    0.000    1.385    0.000    1.692 
#
# Total GULP energy -289511.942178 kJ/mol
# GULP energy per Si atom -5567.537350 kJ/mol
# Density = 1.887200 g / cm^3
# Si number density = 18.915047 Si / 1000 Ang^3
#
#
#
# Elastic Constant Matrix: (Units=GPa)
#
#
# Indices 1 2 3 4 5 6 
#
# 1 98.3452 9.9701 59.7374 0.0000 0.0000 0.0000
# 2 9.9701 56.4256 18.5467 0.0000 0.0000 0.0000
# 3 59.7374 18.5467 137.7130 0.0000 0.0000 0.0000
# 4 0.0000 0.0000 0.0000 17.0334 0.0000 0.0000
# 5 0.0000 0.0000 0.0000 0.0000 26.8515 0.0000
# 6 0.0000 0.0000 0.0000 0.0000 0.0000 2.3700
#
#
#
# Elastic Compliance Matrix: (Units=1/GPa)
#
#
# Indices 1 2 3 4 5 6 
#
# 1 0.013819 -0.000493 -0.005928 0.000000 0.000000 0.000000
# 2 -0.000493 0.018561 -0.002286 0.000000 0.000000 0.000000
# 3 -0.005928 -0.002286 0.010141 0.000000 0.000000 0.000000
# 4 0.000000 0.000000 0.000000 0.058708 0.000000 0.000000
# 5 0.000000 0.000000 0.000000 0.000000 0.037242 0.000000
# 6 0.000000 0.000000 0.000000 0.000000 0.000000 0.421938
#
#
# Mechanical properties :
#
#
# Convention : Reuss Voigt Hill
#
# Bulk Modulus (GPa) = 39.83000 52.11027 45.97013
# Shear Modulus (GPa) = 8.52964 22.86630 15.69797
#
# Velocity S-wave (km/s) = 2.12585 3.48069 2.88396
# Velocity P-wave (km/s) = 5.20852 6.61536 5.95364
#
# Compressibility (1/GPa) = 0.02510670
#
# Stress axis : x y z
#
# Youngs Moduli (GPa) = 72.36350 53.87668 98.61154
#
# Poissons Ratio (x) = 0.02657 0.58457
# Poissons Ratio (y) = 0.03569 0.22540
# Poissons Ratio (z) = 0.42898 0.12315
#
# Static dielectric constant tensor:
#      x y z
#    x 1.689060 0.000000 0.000000 
#    y 0.000000 1.615600 0.000000 
#    z 0.000000 0.000000 1.706330 
# 
# From -- ./inp_files/25032.got.cif
#   From: 2010.05.17/outbox.cif.g08.bks.cpg/sg47_13_cif.got.tgz:25032.got - 2010.06.03 20:15:42.
