data_PCOD9382185
_publ_section_title
;
Structure prediction by ZEFSAII (Michael W. Deem and Ramdas Pophale) SiO2 
 PCOD9382185
Probable space group: P M M M
;
_chemical_formula_sum "Si O2"
_cell_formula_units_Z 48
_cell_length_a 10.377615
_cell_length_b 8.783731
_cell_length_c 30.346134
_cell_angle_alpha 90.000000
_cell_angle_beta 90.000000
_cell_angle_gamma 90.000000
_cell_volume 2766.176918
_symmetry_space_group_name_H-M "P M M M"
_symmetry_group_IT_number 47
_symmetry_cell_setting 'orthorhombic'
loop_
_space_group_symop_operation_xyz
x,y,z
-x,-y,z
x,-y,-z
-x,y,-z
-x,-y,-z
x,y,-z
-x,y,z
x,-y,z
loop_
_atom_site_type_symbol
_atom_site_label
_atom_site_fract_x
_atom_site_fract_y
_atom_site_fract_z
Si Si1 0.650380 0.318227 0.306637
Si Si2 0.350688 0.817513 0.210628
Si Si3 0.749843 0.184184 0.394405
Si Si4 0.500000 0.814633 0.550377
Si Si5 0.150793 0.681565 0.141020
Si Si6 0.000000 0.185607 0.550718
Si Si7 0.156066 0.822573 0.951515
O O1 0.500000 0.279687 0.316482
O O2 0.661558 0.500000 0.304226
O O3 0.679939 0.246678 0.259177
O O4 0.736321 0.253054 0.345952
O O5 0.500000 0.772715 0.200467
O O6 0.247923 0.755058 0.175837
O O7 0.345518 0.000000 0.211404
O O8 0.625984 0.231841 0.422911
O O9 0.874833 0.231460 0.421800
O O10 0.749592 0.000000 0.390846
O O11 0.500000 0.761278 0.500000
O O12 0.500000 0.000000 0.549070
O O13 0.154473 0.500000 0.145183
O O14 0.192833 0.729618 0.091668
O O15 0.000000 0.730008 0.147150
O O16 0.000000 0.238203 0.500000
O O17 0.000000 0.000000 0.549044
O O18 0.000000 0.818085 0.952705
O O19 0.192988 0.000000 0.946423
O O20 0.200996 0.769297 0.000000
#
# Coordination Sequence:
#
# PCOD9382185 Si02
#       7
#     8   8   8   4   8   4   8
#     4  10  20  35  55  77 102 131 167 212 261 309
#     4  10  21  37  58  80 102 134 178 222 266 317
#     4  10  18  31  52  76 102 131 167 207 248 298
#     4   9  16  26  47  77 101 125 163 209 248 287
#     4  10  20  33  51  79 113 144 176 216 265 319
#     4   9  18  32  51  77 107 135 165 205 250 295
#     4   8  14  26  46  72 103 141 183 224 265 308
#
# _framework density 17.35247
#
# number of rings (size 3 to 8) (size 9 to 14) (size 15 to 20)
#    0.000    2.500    0.833    2.500    0.000    5.000 
#    1.500    2.083    0.000    3.500    0.000    3.500 
#    0.000    0.000    0.000    0.000    0.000    0.000 
#
# Total GULP energy -267620.200775 kJ/mol
# GULP energy per Si atom -5575.420849 kJ/mol
# Density = 1.731297 g / cm^3
# Si number density = 17.352470 Si / 1000 Ang^3
#
#
#
# Elastic Constant Matrix: (Units=GPa)
#
#
# Indices 1 2 3 4 5 6 
#
# 1 108.9140 33.1856 90.6658 0.0000 0.0000 0.0000
# 2 33.1856 35.8098 49.8594 0.0000 0.0000 0.0000
# 3 90.6658 49.8594 179.8955 0.0000 0.0000 0.0000
# 4 0.0000 0.0000 0.0000 -40.2054 0.0000 0.0000
# 5 0.0000 0.0000 0.0000 0.0000 28.1043 0.0000
# 6 0.0000 0.0000 0.0000 0.0000 0.0000 16.0765
#
#
#
# Elastic Compliance Matrix: (Units=1/GPa)
#
#
# Indices 1 2 3 4 5 6 
#
# 1 0.016593 -0.006079 -0.006678 0.000000 0.000000 0.000000
# 2 -0.006079 0.047701 -0.010157 0.000000 0.000000 0.000000
# 3 -0.006678 -0.010157 0.011739 0.000000 0.000000 0.000000
# 4 0.000000 0.000000 0.000000 -0.024872 0.000000 0.000000
# 5 0.000000 0.000000 0.000000 0.000000 0.035582 0.000000
# 6 0.000000 0.000000 0.000000 0.000000 0.000000 0.062202
#
#
# Mechanical properties :
#
#
# Convention : Reuss Voigt Hill
#
# Bulk Modulus (GPa) = 33.10661 74.67119 53.88890
# Shear Modulus (GPa) = 24.40926 10.85566 17.63246
#
# Velocity S-wave (km/s) = 3.75463 2.50391 3.19115
# Velocity P-wave (km/s) = 6.15765 7.17529 6.68586
#
# Compressibility (1/GPa) = 0.03020545
#
# Stress axis : x y z
#
# Youngs Moduli (GPa) = 60.26738 20.96408 85.18399
#
# Poissons Ratio (x) = 0.12744 0.56883
# Poissons Ratio (y) = 0.36638 0.86519
# Poissons Ratio (z) = 0.40245 0.21293
#
# Static dielectric constant tensor:
#      x y z
#    x 1.582020 0.000000 0.000000 
#    y 0.000000 1.580860 0.000000 
#    z 0.000000 0.000000 1.578770 
# 
# From -- ./inp_files/34059.got.cif
#   From: 2010.05.17/outbox.cif.g08.bks.cpg/sg47_18_cif.got.tgz:34059.got - 2010.06.03 20:15:42.
