data_PCOD9382635
_publ_section_title
;
Structure prediction by ZEFSAII (Michael W. Deem and Ramdas Pophale) SiO2 
 PCOD9382635
Probable space group: P M M M
;
_chemical_formula_sum "Si O2"
_cell_formula_units_Z 64
_cell_length_a 14.476258
_cell_length_b 7.734464
_cell_length_c 27.380428
_cell_angle_alpha 90.000000
_cell_angle_beta 90.000000
_cell_angle_gamma 90.000000
_cell_volume 3065.679640
_symmetry_space_group_name_H-M "P M M M"
_symmetry_group_IT_number 47
_symmetry_cell_setting 'orthorhombic'
loop_
_space_group_symop_operation_xyz
x,y,z
-x,-y,z
x,-y,-z
-x,y,-z
-x,-y,-z
x,y,-z
-x,y,z
x,-y,z
loop_
_atom_site_type_symbol
_atom_site_label
_atom_site_fract_x
_atom_site_fract_y
_atom_site_fract_z
Si Si1 0.784752 0.292710 0.350963
Si Si2 0.106200 0.707360 0.743773
Si Si3 0.604659 0.791744 0.301676
Si Si4 0.106935 0.288918 0.554764
Si Si5 0.893602 0.791805 0.850532
Si Si6 0.395512 0.300499 0.912378
Si Si7 0.203665 0.201268 0.052576
Si Si8 0.611996 0.197125 0.196071
O O1 0.796108 0.500000 0.351291
O O2 0.837955 0.225003 0.302801
O O3 0.677484 0.254593 0.342819
O O4 0.829235 0.227128 0.401080
O O5 0.102699 0.500000 0.739749
O O6 0.146351 0.746808 0.797357
O O7 0.000000 0.772266 0.742600
O O8 0.500000 0.731075 0.310505
O O9 0.639810 0.726534 0.248460
O O10 0.601707 0.000000 0.296939
O O11 0.133218 0.232595 0.500000
O O12 0.109267 0.500000 0.554594
O O13 0.000000 0.240455 0.563427
O O14 0.841214 0.723673 0.898281
O O15 0.000000 0.731014 0.851517
O O16 0.893706 0.000000 0.852638
O O17 0.500000 0.230366 0.918054
O O18 0.396538 0.500000 0.927417
O O19 0.313897 0.209157 0.940863
O O20 0.370612 0.290593 0.854738
O O21 0.176052 0.000000 0.051247
O O22 0.178045 0.279098 0.000000
O O23 0.500000 0.189103 0.200201
O O24 0.646862 0.000000 0.190713
#
# Coordination Sequence:
#
# PCOD9382635 Si02
#       8
#     8   8   8   8   8   8   8   8
#     4  10  19  29  48  79 107 134 172 216 256 295
#     4   9  18  32  49  73 107 138 159 189 243 308
#     4   9  19  34  49  68  99 139 177 211 252 302
#     4   8  14  27  49  76 106 140 177 216 257 303
#     4   9  19  36  56  76  98 126 162 204 247 294
#     4  10  21  35  52  75 102 130 160 200 250 300
#     4  10  22  38  55  75  97 126 166 208 249 297
#     4   8  15  30  50  69  91 124 165 203 241 291
#
# _framework density 20.876287000000001
#
# number of rings (size 3 to 8) (size 9 to 14) (size 15 to 20)
#    0.000    2.875    0.000    1.875    1.750    4.750 
#    0.000    3.750    0.000    1.875    0.000    6.125 
#    0.000    0.000    0.000    0.000    0.000    0.000 
#
# Total GULP energy -357095.893465 kJ/mol
# GULP energy per Si atom -5579.623335 kJ/mol
# Density = 2.082877 g / cm^3
# Si number density = 20.876287 Si / 1000 Ang^3
#
#
#
# Elastic Constant Matrix: (Units=GPa)
#
#
# Indices 1 2 3 4 5 6 
#
# 1 84.7850 -2.4501 80.3900 0.0000 0.0000 0.0000
# 2 -2.4501 32.2494 4.9585 0.0000 0.0000 0.0000
# 3 80.3900 4.9585 168.6640 0.0000 0.0000 0.0000
# 4 0.0000 0.0000 0.0000 14.9558 0.0000 0.0000
# 5 0.0000 0.0000 0.0000 0.0000 22.9356 0.0000
# 6 0.0000 0.0000 0.0000 0.0000 0.0000 10.1152
#
#
#
# Elastic Compliance Matrix: (Units=1/GPa)
#
#
# Indices 1 2 3 4 5 6 
#
# 1 0.021859 0.003277 -0.010515 0.000000 0.000000 0.000000
# 2 0.003277 0.031641 -0.002492 0.000000 0.000000 0.000000
# 3 -0.010515 -0.002492 0.011014 0.000000 0.000000 0.000000
# 4 0.000000 0.000000 0.000000 0.066864 0.000000 0.000000
# 5 0.000000 0.000000 0.000000 0.000000 0.043600 0.000000
# 6 0.000000 0.000000 0.000000 0.000000 0.000000 0.098862
#
#
# Mechanical properties :
#
#
# Convention : Reuss Voigt Hill
#
# Bulk Modulus (GPa) = 22.19566 50.16616 36.18091
# Shear Modulus (GPa) = 16.21705 23.12131 19.66918
#
# Velocity S-wave (km/s) = 2.79017 3.33158 3.07282
# Velocity P-wave (km/s) = 4.58641 6.23551 5.47342
#
# Compressibility (1/GPa) = 0.04505386
#
# Stress axis : x y z
#
# Youngs Moduli (GPa) = 45.74717 31.60506 90.79343
#
# Poissons Ratio (x) = -0.10358 0.95470
# Poissons Ratio (y) = -0.14993 0.22629
# Poissons Ratio (z) = 0.48104 0.07877
#
# Static dielectric constant tensor:
#      x y z
#    x 1.767060 0.000000 0.000000 
#    y 0.000000 1.778660 0.000000 
#    z 0.000000 0.000000 1.767540 
# 
# From -- ./inp_files/32806.got.cif
#   From: 2010.05.17/outbox.cif.g08.bks.cpg/sg47_17_cif.got.tgz:32806.got - 2010.06.03 20:15:42.
