data_PCOD9382951
_publ_section_title
;
Structure prediction by ZEFSAII (Michael W. Deem and Ramdas Pophale) SiO2 
 PCOD9382951
Probable space group: P M M M
;
_chemical_formula_sum "Si O2"
_cell_formula_units_Z 52
_cell_length_a 8.367691
_cell_length_b 28.024817
_cell_length_c 17.542278
_cell_angle_alpha 90.000000
_cell_angle_beta 90.000000
_cell_angle_gamma 90.000000
_cell_volume 4113.716975
_symmetry_space_group_name_H-M "P M M M"
_symmetry_group_IT_number 47
_symmetry_cell_setting 'orthorhombic'
loop_
_space_group_symop_operation_xyz
x,y,z
-x,-y,z
x,-y,-z
-x,y,-z
-x,-y,-z
x,y,-z
-x,y,z
x,-y,z
loop_
_atom_site_type_symbol
_atom_site_label
_atom_site_fract_x
_atom_site_fract_y
_atom_site_fract_z
Si Si1 0.321310 0.388789 0.592856
Si Si2 0.690743 0.944352 0.000000
Si Si3 0.000000 0.555418 0.592754
Si Si4 0.808437 0.000000 0.412438
Si Si5 0.308769 0.092187 0.320444
Si Si6 0.190839 0.055405 0.837761
Si Si7 0.816126 0.288669 0.407528
Si Si8 0.306888 0.185357 0.588678
O O1 0.321105 0.390304 0.500000
O O2 0.500000 0.404340 0.617090
O O3 0.289623 0.333850 0.616085
O O4 0.165340 0.418989 0.617358
O O5 0.753692 0.925009 0.080272
O O6 0.500000 0.942787 0.000000
O O7 0.744160 0.000000 0.000000
O O8 0.000000 0.500000 0.614654
O O9 0.000000 0.557804 0.500000
O O10 0.750160 0.046949 0.368867
O O11 0.752141 0.000000 0.500000
O O12 0.000000 0.000000 0.411735
O O13 0.500000 0.092310 0.321872
O O14 0.252373 0.084821 0.234089
O O15 0.252276 0.141033 0.360164
O O16 0.000000 0.054198 0.836024
O O17 0.249076 0.000000 0.830153
O O18 0.810855 0.288246 0.500000
O O19 0.757004 0.236501 0.383895
O O20 0.000000 0.296568 0.385211
O O21 0.258073 0.178212 0.500000
O O22 0.500000 0.187023 0.589653
#
# Coordination Sequence:
#
# PCOD9382951 Si02
#       8
#     8   4   4   4   8   8   8   8
#     4   9  15  23  35  48  64  87 113 142 179 221
#     4   9  17  29  47  67  83  97 119 143 168 206
#     4   9  16  24  32  46  68  88 112 143 175 220
#     4  11  23  35  45  56  73  98 127 155 185 227
#     4  11  21  32  46  60  77  99 125 153 185 225
#     4  10  19  31  46  63  83 101 119 143 176 217
#     4   9  15  24  38  53  67  85 113 149 186 223
#     4   9  18  30  41  55  73  93 121 157 193 226
#
# _framework density 12.640636000000001
#
# number of rings (size 3 to 8) (size 9 to 14) (size 15 to 20)
#    0.000    2.385    1.538    2.308    0.000    6.154 
#    0.000    3.077    0.000    0.000    0.000    0.000 
#    0.000    0.000    0.000    0.000    0.000    0.000 
#
# Total GULP energy -289688.210169 kJ/mol
# GULP energy per Si atom -5570.927119 kJ/mol
# Density = 1.261187 g / cm^3
# Si number density = 12.640636 Si / 1000 Ang^3
#
#
#
# Elastic Constant Matrix: (Units=GPa)
#
#
# Indices 1 2 3 4 5 6 
#
# 1 63.2673 37.7471 20.9661 0.0000 0.0000 0.0000
# 2 37.7471 81.6073 25.2331 0.0000 0.0000 0.0000
# 3 20.9661 25.2331 59.8240 0.0000 0.0000 0.0000
# 4 0.0000 0.0000 0.0000 0.8183 0.0000 0.0000
# 5 0.0000 0.0000 0.0000 0.0000 14.5079 0.0000
# 6 0.0000 0.0000 0.0000 0.0000 0.0000 17.0544
#
#
#
# Elastic Compliance Matrix: (Units=1/GPa)
#
#
# Indices 1 2 3 4 5 6 
#
# 1 0.022652 -0.009226 -0.004047 0.000000 0.000000 0.000000
# 2 -0.009226 0.017849 -0.004295 0.000000 0.000000 0.000000
# 3 -0.004047 -0.004295 0.019946 0.000000 0.000000 0.000000
# 4 0.000000 0.000000 0.000000 1.222030 0.000000 0.000000
# 5 0.000000 0.000000 0.000000 0.000000 0.068928 0.000000
# 6 0.000000 0.000000 0.000000 0.000000 0.000000 0.058636
#
#
# Mechanical properties :
#
#
# Convention : Reuss Voigt Hill
#
# Bulk Modulus (GPa) = 39.51025 41.39904 40.45464
# Shear Modulus (GPa) = 3.43970 14.52628 8.98299
#
# Velocity S-wave (km/s) = 1.65138 3.39362 2.66868
# Velocity P-wave (km/s) = 5.91274 6.94100 6.44740
#
# Compressibility (1/GPa) = 0.02530989
#
# Stress axis : x y z
#
# Youngs Moduli (GPa) = 44.14686 56.02436 50.13587
#
# Poissons Ratio (x) = 0.51688 0.20291
# Poissons Ratio (y) = 0.40730 0.21535
# Poissons Ratio (z) = 0.17867 0.24064
#
# Static dielectric constant tensor:
#      x y z
#    x 1.439250 0.000000 0.000000 
#    y 0.000000 1.413030 0.000000 
#    z 0.000000 0.000000 1.387730 
# 
# From -- ./inp_files/22033.got.cif
#   From: 2010.05.17/outbox.cif.g08.bks.cpg/sg47_12_cif.got.tgz:22033.got - 2010.06.03 20:15:42.
