data_PCOD9382133
_publ_section_title
;
Structure prediction by ZEFSAII (Michael W. Deem and Ramdas Pophale) SiO2 
 PCOD9382133
Probable space group: P M M M
;
_chemical_formula_sum "Si O2"
_cell_formula_units_Z 52
_cell_length_a 24.103083
_cell_length_b 7.449456
_cell_length_c 14.711731
_cell_angle_alpha 90.000000
_cell_angle_beta 90.000000
_cell_angle_gamma 90.000000
_cell_volume 2641.562745
_symmetry_space_group_name_H-M "P M M M"
_symmetry_group_IT_number 47
_symmetry_cell_setting 'orthorhombic'
loop_
_space_group_symop_operation_xyz
x,y,z
-x,-y,z
x,-y,-z
-x,y,-z
-x,-y,-z
x,y,-z
-x,y,z
x,-y,z
loop_
_atom_site_type_symbol
_atom_site_label
_atom_site_fract_x
_atom_site_fract_y
_atom_site_fract_z
Si Si1 0.562495 0.781238 0.895293
Si Si2 0.110668 0.211525 0.205206
Si Si3 0.669541 0.780019 0.213445
Si Si4 0.220993 0.780716 0.104817
Si Si5 0.000000 0.779944 0.894180
Si Si6 0.718470 0.212524 0.600750
Si Si7 0.152063 0.286037 0.398388
O O1 0.500000 0.724562 0.870626
O O2 0.611599 0.721055 0.829654
O O3 0.562749 0.000000 0.894369
O O4 0.573188 0.728234 0.000000
O O5 0.167406 0.283350 0.160780
O O6 0.055181 0.282488 0.158166
O O7 0.114471 0.230526 0.313777
O O8 0.110990 0.000000 0.185266
O O9 0.721581 0.725104 0.151232
O O10 0.682773 0.717404 0.315453
O O11 0.669227 0.000000 0.214182
O O12 0.221005 0.000000 0.106840
O O13 0.217633 0.726414 0.000000
O O14 0.000000 0.000000 0.892567
O O15 0.000000 0.727621 0.000000
O O16 0.708534 0.288594 0.500000
O O17 0.784104 0.232313 0.620748
O O18 0.707781 0.000000 0.596224
O O19 0.137780 0.218076 0.500000
O O20 0.150694 0.500000 0.401717
#
# Coordination Sequence:
#
# PCOD9382133 Si02
#       7
#     8   8   8   8   4   8   8
#     4   8  13  20  30  48  80 120 153 180 214 259
#     4  10  18  31  50  72  95 121 151 185 225 268
#     4   9  14  21  35  58  84 112 147 184 222 262
#     4   9  15  22  37  63  89 111 141 182 222 260
#     4   9  18  32  52  77 100 122 153 191 224 263
#     4   9  16  27  44  66  90 115 147 186 228 276
#     4  10  20  33  49  69  93 121 152 188 231 276
#
# _framework density 19.685316
#
# number of rings (size 3 to 8) (size 9 to 14) (size 15 to 20)
#    0.000    2.846    1.538    1.846    0.000    4.615 
#    0.000    0.769    0.000    5.077    0.000    3.231 
#    0.000    0.615    0.000    5.538    0.000    5.538 
#
# Total GULP energy -290134.838126 kJ/mol
# GULP energy per Si atom -5579.516118 kJ/mol
# Density = 1.964051 g / cm^3
# Si number density = 19.685316 Si / 1000 Ang^3
#
#
#
# Elastic Constant Matrix: (Units=GPa)
#
#
# Indices 1 2 3 4 5 6 
#
# 1 159.5026 4.8062 117.1028 0.0000 0.0000 0.0000
# 2 4.8062 57.5386 -2.1220 0.0000 0.0000 0.0000
# 3 117.1028 -2.1220 179.3315 0.0000 0.0000 0.0000
# 4 0.0000 0.0000 0.0000 -32.3472 0.0000 0.0000
# 5 0.0000 0.0000 0.0000 0.0000 37.3237 0.0000
# 6 0.0000 0.0000 0.0000 0.0000 0.0000 -65.5764
#
#
#
# Elastic Compliance Matrix: (Units=1/GPa)
#
#
# Indices 1 2 3 4 5 6 
#
# 1 0.012141 -0.001307 -0.007943 0.000000 0.000000 0.000000
# 2 -0.001307 0.017528 0.001061 0.000000 0.000000 0.000000
# 3 -0.007943 0.001061 0.010776 0.000000 0.000000 0.000000
# 4 0.000000 0.000000 0.000000 -0.030915 0.000000 0.000000
# 5 0.000000 0.000000 0.000000 0.000000 0.026793 0.000000
# 6 0.000000 0.000000 0.000000 0.000000 0.000000 -0.015249
#
#
# Mechanical properties :
#
#
# Convention : Reuss Voigt Hill
#
# Bulk Modulus (GPa) = 41.55326 70.66074 56.10700
# Shear Modulus (GPa) = 109.95418 6.31906 58.13662
#
# Velocity S-wave (km/s) = 7.48179 1.79360 5.44032
# Velocity P-wave (km/s) = 9.78728 6.34527 8.24783
#
# Compressibility (1/GPa) = 0.02406550
#
# Stress axis : x y z
#
# Youngs Moduli (GPa) = 82.36830 57.05179 92.80123
#
# Poissons Ratio (x) = 0.07457 0.73714
# Poissons Ratio (y) = 0.10766 -0.09845
# Poissons Ratio (z) = 0.65427 -0.06053
#
# Static dielectric constant tensor:
#      x y z
#    x 1.655800 0.000000 0.000000 
#    y 0.000000 1.757980 0.000000 
#    z 0.000000 0.000000 1.691380 
# 
# From -- ./inp_files/7657.got.cif
#   From: 2010.05.17/outbox.cif.g08.bks.cpg/sg47_4_cif.got.tgz:7657.got - 2010.06.03 20:15:42.
