data_PCOD9382406
_publ_section_title
;
Structure prediction by ZEFSAII (Michael W. Deem and Ramdas Pophale) SiO2 
 PCOD9382406
Probable space group: P M M M
;
_chemical_formula_sum "Si O2"
_cell_formula_units_Z 52
_cell_length_a 12.969497
_cell_length_b 9.325991
_cell_length_c 27.408807
_cell_angle_alpha 90.000000
_cell_angle_beta 90.000000
_cell_angle_gamma 90.000000
_cell_volume 3315.188734
_symmetry_space_group_name_H-M "P M M M"
_symmetry_group_IT_number 47
_symmetry_cell_setting 'orthorhombic'
loop_
_space_group_symop_operation_xyz
x,y,z
-x,-y,z
x,-y,-z
-x,y,-z
-x,-y,-z
x,y,-z
-x,y,z
x,-y,z
loop_
_atom_site_type_symbol
_atom_site_label
_atom_site_fract_x
_atom_site_fract_y
_atom_site_fract_z
Si Si1 0.374566 0.666783 0.445670
Si Si2 0.311415 0.669473 0.256192
Si Si3 0.818098 0.832277 0.887277
Si Si4 0.618254 0.671978 0.853402
Si Si5 0.376608 0.161431 0.351576
Si Si6 0.119316 0.836590 0.774119
Si Si7 0.000000 0.332078 0.941585
O O1 0.342458 0.715276 0.500000
O O2 0.500000 0.670743 0.445244
O O3 0.345699 0.500000 0.439730
O O4 0.336886 0.759407 0.400156
O O5 0.319988 0.500000 0.263133
O O6 0.365694 0.705228 0.204342
O O7 0.355820 0.750952 0.302552
O O8 0.194374 0.722086 0.249760
O O9 0.706087 0.757357 0.882782
O O10 0.864530 0.827020 0.832433
O O11 0.898500 0.747051 0.920840
O O12 0.810111 0.000000 0.901183
O O13 0.500000 0.705502 0.866921
O O14 0.634007 0.500000 0.858841
O O15 0.500000 0.153540 0.356863
O O16 0.335842 0.000000 0.347677
O O17 0.000000 0.814323 0.762694
O O18 0.148709 0.000000 0.760139
O O19 0.000000 0.500000 0.926680
O O20 0.000000 0.325287 0.000000
#
# Coordination Sequence:
#
# PCOD9382406 Si02
#       7
#     8   8   8   8   8   8   4
#     4   8  14  25  40  56  75 104 143 185 229 275
#     4  10  19  29  43  65  91 122 159 194 228 270
#     4  10  19  33  53  77 102 129 162 199 242 286
#     4   9  18  32  49  71 100 134 169 201 235 281
#     4  10  19  28  39  57  84 118 152 188 230 273
#     4   9  17  31  48  67  94 123 151 185 228 277
#     4  11  23  37  55  79 105 131 161 199 244 291
#
# _framework density 15.685381
#
# number of rings (size 3 to 8) (size 9 to 14) (size 15 to 20)
#    0.000    2.538    0.769    2.538    0.000    4.308 
#    0.000    1.538    0.000    0.462    0.000    3.231 
#    0.000    0.615    0.000    6.462    0.000    3.077 
#
# Total GULP energy -289732.788806 kJ/mol
# GULP energy per Si atom -5571.784400 kJ/mol
# Density = 1.564968 g / cm^3
# Si number density = 15.685381 Si / 1000 Ang^3
#
#
#
# Elastic Constant Matrix: (Units=GPa)
#
#
# Indices 1 2 3 4 5 6 
#
# 1 79.6538 48.4596 31.0446 0.0000 0.0000 0.0000
# 2 48.4596 97.8924 53.0084 0.0000 0.0000 0.0000
# 3 31.0446 53.0084 63.1022 0.0000 0.0000 0.0000
# 4 0.0000 0.0000 0.0000 21.4106 0.0000 0.0000
# 5 0.0000 0.0000 0.0000 0.0000 13.1571 0.0000
# 6 0.0000 0.0000 0.0000 0.0000 0.0000 24.8902
#
#
#
# Elastic Compliance Matrix: (Units=1/GPa)
#
#
# Indices 1 2 3 4 5 6 
#
# 1 0.018184 -0.007626 -0.002539 0.000000 0.000000 0.000000
# 2 -0.007626 0.021938 -0.014677 0.000000 0.000000 0.000000
# 3 -0.002539 -0.014677 0.029426 0.000000 0.000000 0.000000
# 4 0.000000 0.000000 0.000000 0.046706 0.000000 0.000000
# 5 0.000000 0.000000 0.000000 0.000000 0.076005 0.000000
# 6 0.000000 0.000000 0.000000 0.000000 0.000000 0.040176
#
#
# Mechanical properties :
#
#
# Convention : Reuss Voigt Hill
#
# Bulk Modulus (GPa) = 50.34683 56.18596 53.26639
# Shear Modulus (GPa) = 17.31655 19.10062 18.20858
#
# Velocity S-wave (km/s) = 3.32624 3.49339 3.41084
# Velocity P-wave (km/s) = 6.84978 7.22288 7.03880
#
# Compressibility (1/GPa) = 0.01986222
#
# Stress axis : x y z
#
# Youngs Moduli (GPa) = 54.99396 45.58281 33.98368
#
# Poissons Ratio (x) = 0.34763 0.08630
# Poissons Ratio (y) = 0.41941 0.49878
# Poissons Ratio (z) = 0.13965 0.66902
#
# Static dielectric constant tensor:
#      x y z
#    x 1.513490 0.000000 0.000000 
#    y 0.000000 1.536420 0.000000 
#    z 0.000000 0.000000 1.513080 
# 
# From -- ./inp_files/33255.got.cif
#   From: 2010.05.17/outbox.cif.g08.bks.cpg/sg47_17_cif.got.tgz:33255.got - 2010.06.03 20:15:42.
