data_PCOD9382638
_publ_section_title
;
Structure prediction by ZEFSAII (Michael W. Deem and Ramdas Pophale) SiO2 
 PCOD9382638
Probable space group: P M M M
;
_chemical_formula_sum "Si O2"
_cell_formula_units_Z 52
_cell_length_a 8.981090
_cell_length_b 25.610191
_cell_length_c 18.558843
_cell_angle_alpha 90.000000
_cell_angle_beta 90.000000
_cell_angle_gamma 90.000000
_cell_volume 4268.671788
_symmetry_space_group_name_H-M "P M M M"
_symmetry_group_IT_number 47
_symmetry_cell_setting 'orthorhombic'
loop_
_space_group_symop_operation_xyz
x,y,z
-x,-y,z
x,-y,-z
-x,y,-z
-x,-y,-z
x,y,-z
-x,y,z
x,-y,z
loop_
_atom_site_type_symbol
_atom_site_label
_atom_site_fract_x
_atom_site_fract_y
_atom_site_fract_z
Si Si1 0.326593 0.330192 0.912322
Si Si2 0.319023 0.443703 0.084905
Si Si3 0.176228 0.937569 0.727916
Si Si4 0.176034 0.777639 0.913668
Si Si5 0.825657 0.062558 0.000000
Si Si6 0.322496 0.881991 0.863248
Si Si7 0.673617 0.936691 0.579895
O O1 0.500000 0.323215 0.891788
O O2 0.270832 0.387133 0.886037
O O3 0.231850 0.279829 0.891661
O O4 0.323983 0.332575 0.000000
O O5 0.500000 0.442658 0.087875
O O6 0.270223 0.500000 0.115872
O O7 0.279643 0.444612 0.000000
O O8 0.263834 0.907139 0.789566
O O9 0.230204 0.920613 0.648484
O O10 0.000000 0.929534 0.736226
O O11 0.204871 0.000000 0.735043
O O12 0.264387 0.823100 0.873556
O O13 0.000000 0.783218 0.902084
O O14 0.203790 0.783307 0.000000
O O15 0.747866 0.085594 0.070582
O O16 0.000000 0.077865 0.000000
O O17 0.816758 0.000000 0.000000
O O18 0.500000 0.883877 0.866886
O O19 0.722335 0.918893 0.500000
O O20 0.500000 0.922298 0.589707
O O21 0.678800 0.000000 0.578610
#
# Coordination Sequence:
#
# PCOD9382638 Si02
#       7
#     8   8   8   8   4   8   8
#     4   8  13  21  34  50  66  83 109 142 172 209
#     4   7   9  14  26  45  66  85 104 130 166 205
#     4  10  20  32  45  61  81 101 119 143 178 220
#     4  10  19  30  42  52  67  89 115 149 188 225
#     4  11  23  37  49  59  73  91 112 143 186 231
#     4  12  23  33  46  59  72  92 121 154 185 221
#     4   8  14  26  44  64  84 103 121 141 166 201
#
# _framework density 12.181775999999999
#
# number of rings (size 3 to 8) (size 9 to 14) (size 15 to 20)
#    0.000    2.692    0.769    4.846    0.000    4.308 
#    0.000    1.538    0.000    0.462    0.000    3.231 
#    0.000    0.000    0.000    0.000    0.000    0.000 
#
# Total GULP energy -289492.225695 kJ/mol
# GULP energy per Si atom -5567.158186 kJ/mol
# Density = 1.215405 g / cm^3
# Si number density = 12.181776 Si / 1000 Ang^3
#
#
#
# Elastic Constant Matrix: (Units=GPa)
#
#
# Indices 1 2 3 4 5 6 
#
# 1 67.6217 46.6923 37.5220 0.0000 0.0000 0.0000
# 2 46.6923 83.3992 33.3515 0.0000 0.0000 0.0000
# 3 37.5220 33.3515 59.8330 0.0000 0.0000 0.0000
# 4 0.0000 0.0000 0.0000 -0.3767 0.0000 0.0000
# 5 0.0000 0.0000 0.0000 0.0000 11.5128 0.0000
# 6 0.0000 0.0000 0.0000 0.0000 0.0000 5.3548
#
#
#
# Elastic Compliance Matrix: (Units=1/GPa)
#
#
# Indices 1 2 3 4 5 6 
#
# 1 0.029552 -0.011754 -0.011981 0.000000 0.000000 0.000000
# 2 -0.011754 0.020105 -0.003836 0.000000 0.000000 0.000000
# 3 -0.011981 -0.003836 0.026364 0.000000 0.000000 0.000000
# 4 0.000000 0.000000 0.000000 -2.654480 0.000000 0.000000
# 5 0.000000 0.000000 0.000000 0.000000 0.086860 0.000000
# 6 0.000000 0.000000 0.000000 0.000000 0.000000 0.186749
#
#
# Mechanical properties :
#
#
# Convention : Reuss Voigt Hill
#
# Bulk Modulus (GPa) = 47.89075 49.55395 48.72235
# Shear Modulus (GPa) = -2.22941 9.51738 3.64398
#
# Velocity S-wave (km/s) = -1.35429 2.79817 1.73143
# Velocity P-wave (km/s) = 6.07892 7.15589 6.63928
#
# Compressibility (1/GPa) = 0.02088086
#
# Stress axis : x y z
#
# Youngs Moduli (GPa) = 33.83842 49.73851 37.92991
#
# Poissons Ratio (x) = 0.58464 0.45443
# Poissons Ratio (y) = 0.39774 0.14548
# Poissons Ratio (z) = 0.40541 0.19078
#
# Static dielectric constant tensor:
#      x y z
#    x 1.403120 0.000000 0.000000 
#    y 0.000000 1.419400 0.000000 
#    z 0.000000 0.000000 1.374900 
# 
# From -- ./inp_files/10106.got.cif
#   From: 2010.05.17/outbox.cif.g08.bks.cpg/sg47_6_cif.got.tgz:10106.got - 2010.06.03 20:15:42.
