data_PCOD9382096
_publ_section_title
;
Structure prediction by ZEFSAII (Michael W. Deem and Ramdas Pophale) SiO2 
 PCOD9382096
Probable space group: P M M M
;
_chemical_formula_sum "Si O2"
_cell_formula_units_Z 64
_cell_length_a 20.557436
_cell_length_b 21.037953
_cell_length_c 7.786544
_cell_angle_alpha 90.000000
_cell_angle_beta 90.000000
_cell_angle_gamma 90.000000
_cell_volume 3367.574168
_symmetry_space_group_name_H-M "P M M M"
_symmetry_group_IT_number 47
_symmetry_cell_setting 'orthorhombic'
loop_
_space_group_symop_operation_xyz
x,y,z
-x,-y,z
x,-y,-z
-x,y,-z
-x,-y,-z
x,y,-z
-x,y,z
x,-y,z
loop_
_atom_site_type_symbol
_atom_site_label
_atom_site_fract_x
_atom_site_fract_y
_atom_site_fract_z
Si Si1 0.896098 0.431293 0.701932
Si Si2 0.751650 0.601638 0.793362
Si Si3 0.929819 0.289973 0.797789
Si Si4 0.329632 0.181534 0.800979
Si Si5 0.572959 0.707619 0.291936
Si Si6 0.210849 0.744603 0.210053
Si Si7 0.392167 0.568357 0.701555
Si Si8 0.572463 0.928343 0.294793
O O1 0.911340 0.428222 0.500000
O O2 0.918999 0.500000 0.768712
O O3 0.818165 0.428616 0.726557
O O4 0.921931 0.366435 0.783576
O O5 0.757285 0.676275 0.748174
O O6 0.685800 0.573386 0.718991
O O7 0.750106 0.595348 0.000000
O O8 0.863601 0.258888 0.726862
O O9 0.000000 0.272145 0.722323
O O10 0.931096 0.274777 0.000000
O O11 0.374547 0.243914 0.779884
O O12 0.259234 0.200705 0.725434
O O13 0.371409 0.122287 0.737772
O O14 0.318437 0.169558 0.000000
O O15 0.579921 0.707493 0.500000
O O16 0.500000 0.729308 0.251382
O O17 0.581932 0.635236 0.228057
O O18 0.208713 0.746894 0.000000
O O19 0.409865 0.567845 0.500000
O O20 0.413109 0.500000 0.775248
O O21 0.567642 0.932200 0.500000
O O22 0.500000 0.908926 0.230995
O O23 0.585900 0.000000 0.230160
#
# Coordination Sequence:
#
# PCOD9382096 Si02
#       8
#     8   8   8   8   8   8   8   8
#     4  10  20  31  43  62  89 118 150 192 245 304
#     4  10  18  31  48  65  87 116 152 196 247 302
#     4   9  18  33  51  68  89 121 160 199 241 295
#     4  11  20  32  52  77 104 131 163 205 246 287
#     4  10  21  35  49  66  91 125 165 206 249 300
#     4   8  16  30  47  69  95 120 151 195 243 285
#     4  10  20  32  46  64  86 114 154 206 261 309
#     4   9  19  36  55  76 107 144 175 202 236 283
#
# _framework density 19.004777000000001
#
# number of rings (size 3 to 8) (size 9 to 14) (size 15 to 20)
#    0.000    2.375    1.250    3.000    0.000    5.750 
#    0.000    3.750    0.000    0.000    0.000    1.750 
#    0.000    0.500    0.000    6.250    0.000    1.000 
#
# Total GULP energy -357001.409722 kJ/mol
# GULP energy per Si atom -5578.147027 kJ/mol
# Density = 1.896152 g / cm^3
# Si number density = 19.004777 Si / 1000 Ang^3
#
#
#
# Elastic Constant Matrix: (Units=GPa)
#
#
# Indices 1 2 3 4 5 6 
#
# 1 124.2899 59.2078 -1.9131 0.0000 0.0000 0.0000
# 2 59.2078 97.4674 6.2796 0.0000 0.0000 0.0000
# 3 -1.9131 6.2796 27.1737 0.0000 0.0000 0.0000
# 4 0.0000 0.0000 0.0000 19.4125 0.0000 0.0000
# 5 0.0000 0.0000 0.0000 0.0000 16.6850 0.0000
# 6 0.0000 0.0000 0.0000 0.0000 0.0000 184.5094
#
#
#
# Elastic Compliance Matrix: (Units=1/GPa)
#
#
# Indices 1 2 3 4 5 6 
#
# 1 0.011481 -0.007133 0.002457 0.000000 0.000000 0.000000
# 2 -0.007133 0.014846 -0.003933 0.000000 0.000000 0.000000
# 3 0.002457 -0.003933 0.037882 0.000000 0.000000 0.000000
# 4 0.000000 0.000000 0.000000 0.051513 0.000000 0.000000
# 5 0.000000 0.000000 0.000000 0.000000 0.059934 0.000000
# 6 0.000000 0.000000 0.000000 0.000000 0.000000 0.005420
#
#
# Mechanical properties :
#
#
# Convention : Reuss Voigt Hill
#
# Bulk Modulus (GPa) = 21.28051 41.78662 31.53356
# Shear Modulus (GPa) = 23.36900 56.47848 39.92374
#
# Velocity S-wave (km/s) = 3.51042 5.45734 4.58834
# Velocity P-wave (km/s) = 5.25857 7.85781 6.68572
#
# Compressibility (1/GPa) = 0.04699136
#
# Stress axis : x y z
#
# Youngs Moduli (GPa) = 87.09785 67.35773 26.39770
#
# Poissons Ratio (x) = 0.48045 -0.06485
# Poissons Ratio (y) = 0.62125 0.10382
# Poissons Ratio (z) = -0.21397 0.26492
#
# Static dielectric constant tensor:
#      x y z
#    x 1.705150 0.000000 0.000000 
#    y 0.000000 1.662430 0.000000 
#    z 0.000000 0.000000 1.696140 
# 
# From -- ./inp_files/11885.got.cif
#   From: 2010.05.17/outbox.cif.g08.bks.cpg/sg47_6_cif.got.tgz:11885.got - 2010.06.03 20:15:42.
