data_PCOD9382752
_publ_section_title
;
Structure prediction by ZEFSAII (Michael W. Deem and Ramdas Pophale) SiO2 
 PCOD9382752
Probable space group: P M M M
;
_chemical_formula_sum "Si O2"
_cell_formula_units_Z 64
_cell_length_a 21.102430
_cell_length_b 8.082247
_cell_length_c 20.576544
_cell_angle_alpha 90.000000
_cell_angle_beta 90.000000
_cell_angle_gamma 90.000000
_cell_volume 3509.433523
_symmetry_space_group_name_H-M "P M M M"
_symmetry_group_IT_number 47
_symmetry_cell_setting 'orthorhombic'
loop_
_space_group_symop_operation_xyz
x,y,z
-x,-y,z
x,-y,-z
-x,y,-z
-x,-y,-z
x,y,-z
-x,y,z
x,-y,z
loop_
_atom_site_type_symbol
_atom_site_label
_atom_site_fract_x
_atom_site_fract_y
_atom_site_fract_z
Si Si1 0.427562 0.699456 0.426763
Si Si2 0.257306 0.696350 0.205604
Si Si3 0.110416 0.700895 0.211048
Si Si4 0.097608 0.306647 0.929501
Si Si5 0.805926 0.202735 0.425218
Si Si6 0.759087 0.805491 0.929837
Si Si7 0.312387 0.196817 0.660790
Si Si8 0.931452 0.198770 0.351767
O O1 0.409209 0.755731 0.500000
O O2 0.500000 0.754424 0.414746
O O3 0.427942 0.500000 0.427671
O O4 0.377724 0.754633 0.373204
O O5 0.254291 0.500000 0.201552
O O6 0.184343 0.756365 0.215960
O O7 0.278013 0.762981 0.135347
O O8 0.300410 0.744208 0.266098
O O9 0.109442 0.500000 0.209499
O O10 0.080969 0.760224 0.142127
O O11 0.076815 0.759346 0.275999
O O12 0.079604 0.500000 0.930442
O O13 0.174341 0.292542 0.928299
O O14 0.077638 0.234653 0.000000
O O15 0.801633 0.254018 0.500000
O O16 0.745858 0.260722 0.383506
O O17 0.870823 0.260622 0.391533
O O18 0.805824 0.000000 0.424283
O O19 0.775137 0.000000 0.928106
O O20 0.728534 0.770415 0.000000
O O21 0.308276 0.000000 0.661352
O O22 0.000000 0.260794 0.374644
O O23 0.931219 0.000000 0.358129
#
# Coordination Sequence:
#
# PCOD9382752 Si02
#       8
#     8   8   8   8   8   8   8   8
#     4   9  19  36  55  75 104 142 177 207 243 292
#     4  10  19  30  46  68  96 131 168 203 245 298
#     4   9  17  29  46  66  89 118 152 195 243 291
#     4   8  14  25  41  62  87 116 151 189 233 288
#     4   9  18  32  49  71  96 120 151 196 250 300
#     4   9  16  25  39  63  95 128 161 199 245 292
#     4  11  20  31  51  77 105 133 163 208 255 294
#     4  10  20  33  49  67  88 119 158 200 247 301
#
# _framework density 18.236561999999999
#
# number of rings (size 3 to 8) (size 9 to 14) (size 15 to 20)
#    0.000    2.625    1.250    2.625    0.000    4.250 
#    0.000    1.875    0.000    1.500    0.000    3.500 
#    0.000    0.500    0.000    5.250    0.000    2.375 
#
# Total GULP energy -356758.847060 kJ/mol
# GULP energy per Si atom -5574.356985 kJ/mol
# Density = 1.819505 g / cm^3
# Si number density = 18.236562 Si / 1000 Ang^3
#
#
#
# Elastic Constant Matrix: (Units=GPa)
#
#
# Indices 1 2 3 4 5 6 
#
# 1 70.1087 13.0911 59.0802 0.0000 0.0000 0.0000
# 2 13.0911 21.7072 13.4105 0.0000 0.0000 0.0000
# 3 59.0802 13.4105 156.8774 0.0000 0.0000 0.0000
# 4 0.0000 0.0000 0.0000 17.6028 0.0000 0.0000
# 5 0.0000 0.0000 0.0000 0.0000 53.6002 0.0000
# 6 0.0000 0.0000 0.0000 0.0000 0.0000 18.6044
#
#
#
# Elastic Compliance Matrix: (Units=1/GPa)
#
#
# Indices 1 2 3 4 5 6 
#
# 1 0.022364 -0.008746 -0.007675 0.000000 0.000000 0.000000
# 2 -0.008746 0.052056 -0.001156 0.000000 0.000000 0.000000
# 3 -0.007675 -0.001156 0.009364 0.000000 0.000000 0.000000
# 4 0.000000 0.000000 0.000000 0.056809 0.000000 0.000000
# 5 0.000000 0.000000 0.000000 0.000000 0.018657 0.000000
# 6 0.000000 0.000000 0.000000 0.000000 0.000000 0.053751
#
#
# Mechanical properties :
#
#
# Convention : Reuss Voigt Hill
#
# Bulk Modulus (GPa) = 20.56333 46.65077 33.60705
# Shear Modulus (GPa) = 18.91332 28.83560 23.87446
#
# Velocity S-wave (km/s) = 3.22391 3.98074 3.62215
# Velocity P-wave (km/s) = 5.01583 6.83848 5.99681
#
# Compressibility (1/GPa) = 0.04863026
#
# Stress axis : x y z
#
# Youngs Moduli (GPa) = 44.71466 19.20997 106.79717
#
# Poissons Ratio (x) = 0.16801 0.81963
# Poissons Ratio (y) = 0.39107 0.12349
# Poissons Ratio (z) = 0.34317 0.02221
#
# Static dielectric constant tensor:
#      x y z
#    x 1.617200 0.000000 0.000000 
#    y 0.000000 1.651860 0.000000 
#    z 0.000000 0.000000 1.669780 
# 
# From -- ./inp_files/11814.got.cif
#   From: 2010.05.17/outbox.cif.g08.bks.cpg/sg47_6_cif.got.tgz:11814.got - 2010.06.03 20:15:42.
