data_PCOD9382840
_publ_section_title
;
Structure prediction by ZEFSAII (Michael W. Deem and Ramdas Pophale) SiO2 
 PCOD9382840
Probable space group: P M M M
;
_chemical_formula_sum "Si O2"
_cell_formula_units_Z 60
_cell_length_a 20.501170
_cell_length_b 18.268779
_cell_length_c 7.367977
_cell_angle_alpha 90.000000
_cell_angle_beta 90.000000
_cell_angle_gamma 90.000000
_cell_volume 2759.538328
_symmetry_space_group_name_H-M "P M M M"
_symmetry_group_IT_number 47
_symmetry_cell_setting 'orthorhombic'
loop_
_space_group_symop_operation_xyz
x,y,z
-x,-y,z
x,-y,-z
-x,y,-z
-x,-y,-z
x,y,-z
-x,y,z
x,-y,z
loop_
_atom_site_type_symbol
_atom_site_label
_atom_site_fract_x
_atom_site_fract_y
_atom_site_fract_z
Si Si1 0.927939 0.585737 0.779271
Si Si2 0.669404 0.082997 0.717250
Si Si3 0.797669 0.661446 0.789622
Si Si4 0.201105 0.167487 0.279846
Si Si5 0.346320 0.356688 0.222449
Si Si6 0.574550 0.500000 0.221135
Si Si7 0.425945 0.785354 0.216204
Si Si8 0.071882 0.084926 0.279216
O O1 0.921058 0.500000 0.733008
O O2 0.865171 0.630184 0.712553
O O3 0.000000 0.610889 0.718011
O O4 0.928977 0.590154 0.000000
O O5 0.675447 0.078381 0.500000
O O6 0.735914 0.121775 0.782940
O O7 0.609656 0.137491 0.753705
O O8 0.661691 0.000000 0.785448
O O9 0.796229 0.749000 0.780430
O O10 0.728112 0.636518 0.713007
O O11 0.797464 0.638039 0.000000
O O12 0.201797 0.167096 0.500000
O O13 0.133678 0.130948 0.218299
O O14 0.388431 0.426570 0.276874
O O15 0.380541 0.281259 0.283461
O O16 0.344600 0.354627 0.000000
O O17 0.500000 0.500000 0.281319
O O18 0.574246 0.500000 0.000000
O O19 0.500000 0.783127 0.286990
O O20 0.430062 0.775133 0.000000
O O21 0.072337 0.086107 0.500000
O O22 0.000000 0.111000 0.221439
O O23 0.078800 0.000000 0.226147
#
# Coordination Sequence:
#
# PCOD9382840 Si02
#       8
#     8   8   8   8   8   4   8   8
#     4   8  15  28  46  70 100 132 166 204 244 286
#     4  10  21  36  53  73  98 130 170 212 251 296
#     4  10  19  30  48  72  98 127 162 200 240 287
#     4  10  19  32  50  72  98 128 162 200 245 293
#     4   9  17  29  46  72 103 130 159 198 243 291
#     4   9  16  26  44  72 102 128 156 197 247 291
#     4  10  20  35  54  75 102 133 162 199 252 307
#     4   8  14  26  46  71  95 120 155 199 242 282
#
# _framework density 21.742768000000002
#
# number of rings (size 3 to 8) (size 9 to 14) (size 15 to 20)
#    0.000    2.733    1.333    1.600    0.933    4.533 
#    0.000    1.333    0.000    1.600    0.000    3.267 
#    0.000    3.200    0.000    0.000    0.000    0.000 
#
# Total GULP energy -335069.033034 kJ/mol
# GULP energy per Si atom -5584.483884 kJ/mol
# Density = 2.169328 g / cm^3
# Si number density = 21.742768 Si / 1000 Ang^3
#
#
#
# Elastic Constant Matrix: (Units=GPa)
#
#
# Indices 1 2 3 4 5 6 
#
# 1 241.9255 107.8427 8.0839 0.0000 0.0000 0.0000
# 2 107.8427 131.7273 -4.7861 0.0000 0.0000 0.0000
# 3 8.0839 -4.7861 78.5475 0.0000 0.0000 0.0000
# 4 0.0000 0.0000 0.0000 12.9172 0.0000 0.0000
# 5 0.0000 0.0000 0.0000 0.0000 -0.8134 0.0000
# 6 0.0000 0.0000 0.0000 0.0000 0.0000 38.8889
#
#
#
# Elastic Compliance Matrix: (Units=1/GPa)
#
#
# Indices 1 2 3 4 5 6 
#
# 1 0.006588 -0.005430 -0.001009 0.000000 0.000000 0.000000
# 2 -0.005430 0.012084 0.001295 0.000000 0.000000 0.000000
# 3 -0.001009 0.001295 0.012914 0.000000 0.000000 0.000000
# 4 0.000000 0.000000 0.000000 0.077416 0.000000 0.000000
# 5 0.000000 0.000000 0.000000 0.000000 -1.229335 0.000000
# 6 0.000000 0.000000 0.000000 0.000000 0.000000 0.025714
#
#
# Mechanical properties :
#
#
# Convention : Reuss Voigt Hill
#
# Bulk Modulus (GPa) = 46.95222 74.94236 60.94729
# Shear Modulus (GPa) = -4.64153 32.93584 14.14716
#
# Velocity S-wave (km/s) = -1.46266 3.89626 2.55357
# Velocity P-wave (km/s) = 4.33460 7.40160 6.06516
#
# Compressibility (1/GPa) = 0.02129825
#
# Stress axis : x y z
#
# Youngs Moduli (GPa) = 151.79853 82.75520 77.43596
#
# Poissons Ratio (x) = 0.44935 0.07812
# Poissons Ratio (y) = 0.82425 -0.10029
# Poissons Ratio (z) = 0.15314 -0.10718
#
# Static dielectric constant tensor:
#      x y z
#    x 1.780780 0.000000 0.000000 
#    y 0.000000 1.735250 0.000000 
#    z 0.000000 0.000000 1.887230 
# 
# From -- ./inp_files/18770.got.cif
#   From: 2010.05.17/outbox.cif.g08.bks.cpg/sg47_10_cif.got.tgz:18770.got - 2010.06.03 20:15:42.
