data_PCOD9382366
_publ_section_title
;
Structure prediction by ZEFSAII (Michael W. Deem and Ramdas Pophale) SiO2 
 PCOD9382366
Probable space group: P M M M
;
_chemical_formula_sum "Si O2"
_cell_formula_units_Z 52
_cell_length_a 15.199217
_cell_length_b 20.102842
_cell_length_c 9.504181
_cell_angle_alpha 90.000000
_cell_angle_beta 90.000000
_cell_angle_gamma 90.000000
_cell_volume 2903.978344
_symmetry_space_group_name_H-M "P M M M"
_symmetry_group_IT_number 47
_symmetry_cell_setting 'orthorhombic'
loop_
_space_group_symop_operation_xyz
x,y,z
-x,-y,z
x,-y,-z
-x,y,-z
-x,-y,-z
x,y,-z
-x,y,z
x,-y,z
loop_
_atom_site_type_symbol
_atom_site_label
_atom_site_fract_x
_atom_site_fract_y
_atom_site_fract_z
Si Si1 0.895591 0.921068 0.662107
Si Si2 0.500000 0.422263 0.649040
Si Si3 0.787727 0.815237 0.829293
Si Si4 0.100537 0.704770 0.334120
Si Si5 0.400138 0.219587 0.834552
Si Si6 0.852022 0.421569 0.836213
Si Si7 0.349417 0.374260 0.156858
O O1 0.874846 0.901224 0.500000
O O2 0.840836 0.878348 0.772102
O O3 0.000000 0.910352 0.681924
O O4 0.879523 0.000000 0.675152
O O5 0.500000 0.500000 0.632811
O O6 0.500000 0.386391 0.500000
O O7 0.587185 0.405229 0.731123
O O8 0.834749 0.751797 0.755703
O O9 0.685166 0.820499 0.782478
O O10 0.791310 0.808474 0.000000
O O11 0.124160 0.703930 0.500000
O O12 0.103153 0.630758 0.268036
O O13 0.000000 0.730055 0.322614
O O14 0.500000 0.214228 0.774996
O O15 0.364830 0.295421 0.828295
O O16 0.408150 0.203542 0.000000
O O17 0.863025 0.500000 0.803121
O O18 0.749281 0.400486 0.829108
O O19 0.879797 0.411959 0.000000
O O20 0.379640 0.392456 0.000000
#
# Coordination Sequence:
#
# PCOD9382366 Si02
#       7
#     8   4   8   8   8   8   8
#     4   9  19  37  60  87 122 160 190 217 261 325
#     4  11  23  33  43  69 105 133 166 221 284 339
#     4  11  21  35  59  88 116 145 184 234 277 317
#     4  11  24  39  55  77 108 147 187 226 276 342
#     4   9  17  32  55  80 106 138 178 224 273 325
#     4  10  21  37  56  77 101 132 178 237 293 340
#     4  10  18  34  56  73  94 132 179 223 276 341
#
# _framework density 17.906471
#
# number of rings (size 3 to 8) (size 9 to 14) (size 15 to 20)
#    0.000    1.923    2.308    2.538    0.000    6.154 
#    0.000    2.308    0.000    0.462    0.000    3.231 
#    0.000    0.000    0.000    0.000    0.000    0.000 
#
# Total GULP energy -289836.451883 kJ/mol
# GULP energy per Si atom -5573.777921 kJ/mol
# Density = 1.786572 g / cm^3
# Si number density = 17.906471 Si / 1000 Ang^3
#
#
#
# Elastic Constant Matrix: (Units=GPa)
#
#
# Indices 1 2 3 4 5 6 
#
# 1 101.2317 36.0798 50.5924 0.0000 0.0000 0.0000
# 2 36.0798 61.1319 37.8087 0.0000 0.0000 0.0000
# 3 50.5924 37.8087 88.4337 0.0000 0.0000 0.0000
# 4 0.0000 0.0000 0.0000 27.4203 0.0000 0.0000
# 5 0.0000 0.0000 0.0000 0.0000 44.5223 0.0000
# 6 0.0000 0.0000 0.0000 0.0000 0.0000 25.5725
#
#
#
# Elastic Compliance Matrix: (Units=1/GPa)
#
#
# Indices 1 2 3 4 5 6 
#
# 1 0.014783 -0.004750 -0.006426 0.000000 0.000000 0.000000
# 2 -0.004750 0.023765 -0.007443 0.000000 0.000000 0.000000
# 3 -0.006426 -0.007443 0.018166 0.000000 0.000000 0.000000
# 4 0.000000 0.000000 0.000000 0.036469 0.000000 0.000000
# 5 0.000000 0.000000 0.000000 0.000000 0.022461 0.000000
# 6 0.000000 0.000000 0.000000 0.000000 0.000000 0.039104
#
#
# Mechanical properties :
#
#
# Convention : Reuss Voigt Hill
#
# Bulk Modulus (GPa) = 51.34654 55.52880 53.43767
# Shear Modulus (GPa) = 25.19151 27.92411 26.55781
#
# Velocity S-wave (km/s) = 3.75485 3.95326 3.85533
# Velocity P-wave (km/s) = 6.89461 7.20524 7.05164
#
# Compressibility (1/GPa) = 0.01947551
#
# Stress axis : x y z
#
# Youngs Moduli (GPa) = 67.64487 42.07896 55.04659
#
# Poissons Ratio (x) = 0.19989 0.35375
# Poissons Ratio (y) = 0.32134 0.40970
# Poissons Ratio (z) = 0.43471 0.31318
#
# Static dielectric constant tensor:
#      x y z
#    x 1.609190 0.000000 0.000000 
#    y 0.000000 1.631990 0.000000 
#    z 0.000000 0.000000 1.688480 
# 
# From -- ./inp_files/7020.got.cif
#   From: 2010.05.17/outbox.cif.g08.bks.cpg/sg47_4_cif.got.tgz:7020.got - 2010.06.03 20:15:42.
