data_PCOD9382966
_publ_section_title
;
Structure prediction by ZEFSAII (Michael W. Deem and Ramdas Pophale) SiO2 
 PCOD9382966
Probable space group: P M M M
;
_chemical_formula_sum "Si O2"
_cell_formula_units_Z 52
_cell_length_a 27.425444
_cell_length_b 12.606037
_cell_length_c 8.625844
_cell_angle_alpha 90.000000
_cell_angle_beta 90.000000
_cell_angle_gamma 90.000000
_cell_volume 2982.179938
_symmetry_space_group_name_H-M "P M M M"
_symmetry_group_IT_number 47
_symmetry_cell_setting 'orthorhombic'
loop_
_space_group_symop_operation_xyz
x,y,z
-x,-y,z
x,-y,-z
-x,y,-z
-x,-y,-z
x,y,-z
-x,y,z
x,-y,z
loop_
_atom_site_type_symbol
_atom_site_label
_atom_site_fract_x
_atom_site_fract_y
_atom_site_fract_z
Si Si1 0.944073 0.379413 0.311067
Si Si2 0.665057 0.619324 0.685517
Si Si3 0.368784 0.833770 0.185385
Si Si4 0.713750 0.000000 0.813311
Si Si5 0.857572 0.228681 0.687314
Si Si6 0.443849 0.000000 0.685791
Si Si7 0.823471 0.000000 0.687390
Si Si8 0.774081 0.378500 0.815158
O O1 0.943589 0.378841 0.500000
O O2 0.930619 0.500000 0.263539
O O3 0.905690 0.291420 0.257642
O O4 0.000000 0.359463 0.263317
O O5 0.664883 0.625704 0.500000
O O6 0.649555 0.500000 0.731184
O O7 0.633971 0.714463 0.755160
O O8 0.720216 0.633740 0.746026
O O9 0.319391 0.898256 0.231415
O O10 0.414044 0.898880 0.252557
O O11 0.370870 0.836777 0.000000
O O12 0.767274 0.000000 0.741663
O O13 0.718605 0.000000 0.000000
O O14 0.858784 0.228112 0.500000
O O15 0.811302 0.296415 0.741720
O O16 0.850167 0.107676 0.740019
O O17 0.500000 0.000000 0.736770
O O18 0.442471 0.000000 0.500000
O O19 0.823345 0.000000 0.500000
O O20 0.789941 0.500000 0.783128
O O21 0.771753 0.363832 0.000000
#
# Coordination Sequence:
#
# PCOD9382966 Si02
#       8
#     8   8   8   4   8   4   4   8
#     4   8  14  26  46  69  87 107 144 195 246 294
#     4  10  20  33  50  74 105 140 175 208 247 301
#     4  10  20  34  54  79 106 137 174 216 261 305
#     4   9  19  33  48  69  96 129 168 204 240 285
#     4  10  19  31  46  65  92 124 158 195 238 291
#     4  10  21  37  58  83 109 138 175 220 266 307
#     4  10  21  31  41  64  96 128 160 194 230 273
#     4  10  20  32  47  70  99 128 161 203 247 291
#
# _framework density 17.436909
#
# number of rings (size 3 to 8) (size 9 to 14) (size 15 to 20)
#    0.000    2.385    0.000    3.923    0.000    8.000 
#    0.000    0.385    0.000    3.231    0.000    5.385 
#    0.000    1.846    0.000    0.000    0.000    0.000 
#
# Total GULP energy -290146.447996 kJ/mol
# GULP energy per Si atom -5579.739385 kJ/mol
# Density = 1.739722 g / cm^3
# Si number density = 17.436909 Si / 1000 Ang^3
#
#
#
# Elastic Constant Matrix: (Units=GPa)
#
#
# Indices 1 2 3 4 5 6 
#
# 1 110.9564 95.7586 21.3427 0.0000 0.0000 0.0000
# 2 95.7586 173.4650 39.8973 0.0000 0.0000 0.0000
# 3 21.3427 39.8973 16.6197 0.0000 0.0000 0.0000
# 4 0.0000 0.0000 0.0000 22.3567 0.0000 0.0000
# 5 0.0000 0.0000 0.0000 0.0000 -36.8905 0.0000
# 6 0.0000 0.0000 0.0000 0.0000 0.0000 13.2807
#
#
#
# Elastic Compliance Matrix: (Units=1/GPa)
#
#
# Indices 1 2 3 4 5 6 
#
# 1 0.017232 -0.009876 0.001579 0.000000 0.000000 0.000000
# 2 -0.009876 0.018532 -0.031806 0.000000 0.000000 0.000000
# 3 0.001579 -0.031806 0.134495 0.000000 0.000000 0.000000
# 4 0.000000 0.000000 0.000000 0.044729 0.000000 0.000000
# 5 0.000000 0.000000 0.000000 0.000000 -0.027107 0.000000
# 6 0.000000 0.000000 0.000000 0.000000 0.000000 0.075297
#
#
# Mechanical properties :
#
#
# Convention : Reuss Voigt Hill
#
# Bulk Modulus (GPa) = 11.10450 68.33759 39.72105
# Shear Modulus (GPa) = 13.39043 9.35221 11.37132
#
# Velocity S-wave (km/s) = 2.77417 2.31843 2.55648
# Velocity P-wave (km/s) = 4.07966 6.81493 5.61635
#
# Compressibility (1/GPa) = 0.09005357
#
# Stress axis : x y z
#
# Youngs Moduli (GPa) = 58.03194 53.96078 7.43524
#
# Poissons Ratio (x) = 0.53290 -0.01174
# Poissons Ratio (y) = 0.57311 0.23648
# Poissons Ratio (z) = -0.09163 1.71626
#
# Static dielectric constant tensor:
#      x y z
#    x 1.564230 0.000000 0.000000 
#    y 0.000000 1.610880 0.000000 
#    z 0.000000 0.000000 1.584510 
# 
# From -- ./inp_files/13297.got.cif
#   From: 2010.05.17/outbox.cif.g08.bks.cpg/sg47_7_cif.got.tgz:13297.got - 2010.06.03 20:15:42.
