data_PCOD9382564
_publ_section_title
;
Structure prediction by ZEFSAII (Michael W. Deem and Ramdas Pophale) SiO2 
 PCOD9382564
Probable space group: P M M M
;
_chemical_formula_sum "Si O2"
_cell_formula_units_Z 56
_cell_length_a 14.305373
_cell_length_b 7.607161
_cell_length_c 30.376883
_cell_angle_alpha 90.000000
_cell_angle_beta 90.000000
_cell_angle_gamma 90.000000
_cell_volume 3305.711910
_symmetry_space_group_name_H-M "P M M M"
_symmetry_group_IT_number 47
_symmetry_cell_setting 'orthorhombic'
loop_
_space_group_symop_operation_xyz
x,y,z
-x,-y,z
x,-y,-z
-x,y,-z
-x,-y,-z
x,y,-z
-x,y,z
x,-y,z
loop_
_atom_site_type_symbol
_atom_site_label
_atom_site_fract_x
_atom_site_fract_y
_atom_site_fract_z
Si Si1 0.896624 0.293970 0.274924
Si Si2 0.893030 0.288054 0.450745
Si Si3 0.206632 0.207111 0.638420
Si Si4 0.603491 0.790625 0.321176
Si Si5 0.706859 0.712842 0.232085
Si Si6 0.390980 0.284888 0.856521
Si Si7 0.387834 0.288634 0.952668
O O1 0.902056 0.500000 0.263709
O O2 0.865729 0.283285 0.325998
O O3 0.809133 0.220829 0.247107
O O4 0.000000 0.217017 0.268565
O O5 0.865839 0.228983 0.500000
O O6 0.894639 0.500000 0.451285
O O7 0.826813 0.234135 0.411071
O O8 0.000000 0.228568 0.442551
O O9 0.310045 0.278516 0.649643
O O10 0.208119 0.000000 0.647514
O O11 0.500000 0.717489 0.329249
O O12 0.634967 0.761646 0.270808
O O13 0.598655 0.000000 0.328646
O O14 0.710362 0.500000 0.231143
O O15 0.669933 0.773843 0.184887
O O16 0.500000 0.233909 0.851073
O O17 0.390197 0.500000 0.856903
O O18 0.355697 0.224971 0.904735
O O19 0.500000 0.260777 0.952407
O O20 0.373920 0.500000 0.953128
O O21 0.352284 0.220361 0.000000
#
# Coordination Sequence:
#
# PCOD9382564 Si02
#       7
#     8   8   8   8   8   8   8
#     4   9  17  28  40  54  76 105 130 152 185 230
#     4   9  18  32  48  65  86 110 130 150 185 231
#     4  10  19  29  44  65  83 101 129 161 188 216
#     4   9  18  31  43  56  79 108 132 155 186 224
#     4   9  16  25  38  56  75  96 127 163 192 220
#     4   8  12  17  27  45  68  91 116 151 190 221
#     4   7   9  13  21  35  59  90 116 138 176 229
#
# _framework density 16.940375
#
# number of rings (size 3 to 8) (size 9 to 14) (size 15 to 20)
#    0.000    3.286    0.000    3.000    0.000    4.000 
#    0.000    0.714    0.000    0.429    0.000    3.000 
#    0.000    1.143    0.000   13.286    0.000    4.571 
#
# Total GULP energy -311785.201629 kJ/mol
# GULP energy per Si atom -5567.592886 kJ/mol
# Density = 1.690182 g / cm^3
# Si number density = 16.940375 Si / 1000 Ang^3
#
#
#
# Elastic Constant Matrix: (Units=GPa)
#
#
# Indices 1 2 3 4 5 6 
#
# 1 100.6629 2.1443 62.9283 0.0000 0.0000 0.0000
# 2 2.1443 33.2779 -6.4632 0.0000 0.0000 0.0000
# 3 62.9283 -6.4632 146.3440 0.0000 0.0000 0.0000
# 4 0.0000 0.0000 0.0000 -41.4288 0.0000 0.0000
# 5 0.0000 0.0000 0.0000 0.0000 18.3066 0.0000
# 6 0.0000 0.0000 0.0000 0.0000 0.0000 7.9707
#
#
#
# Elastic Compliance Matrix: (Units=1/GPa)
#
#
# Indices 1 2 3 4 5 6 
#
# 1 0.013723 -0.002048 -0.005992 0.000000 0.000000 0.000000
# 2 -0.002048 0.030616 0.002233 0.000000 0.000000 0.000000
# 3 -0.005992 0.002233 0.009508 0.000000 0.000000 0.000000
# 4 0.000000 0.000000 0.000000 -0.024138 0.000000 0.000000
# 5 0.000000 0.000000 0.000000 0.000000 0.054625 0.000000
# 6 0.000000 0.000000 0.000000 0.000000 0.000000 0.125460
#
#
# Mechanical properties :
#
#
# Convention : Reuss Voigt Hill
#
# Bulk Modulus (GPa) = 23.67776 44.16705 33.92241
# Shear Modulus (GPa) = 21.23272 11.74805 16.49038
#
# Velocity S-wave (km/s) = 3.54415 2.63628 3.12338
# Velocity P-wave (km/s) = 5.54576 5.94940 5.75112
#
# Compressibility (1/GPa) = 0.04223372
#
# Stress axis : x y z
#
# Youngs Moduli (GPa) = 72.86877 32.66307 105.17252
#
# Poissons Ratio (x) = 0.06689 0.63014
# Poissons Ratio (y) = 0.14923 -0.23482
# Poissons Ratio (z) = 0.43659 -0.07293
#
# Static dielectric constant tensor:
#      x y z
#    x 1.579280 0.000000 0.000000 
#    y 0.000000 1.642090 0.000000 
#    z 0.000000 0.000000 1.588210 
# 
# From -- ./inp_files/22081.got.cif
#   From: 2010.05.17/outbox.cif.g08.bks.cpg/sg47_12_cif.got.tgz:22081.got - 2010.06.03 20:15:42.
