data_PCOD9382496
_publ_section_title
;
Structure prediction by ZEFSAII (Michael W. Deem and Ramdas Pophale) SiO2 
 PCOD9382496
Probable space group: P M M M
;
_chemical_formula_sum "Si O2"
_cell_formula_units_Z 52
_cell_length_a 27.345074
_cell_length_b 8.684226
_cell_length_c 14.259188
_cell_angle_alpha 90.000000
_cell_angle_beta 90.000000
_cell_angle_gamma 90.000000
_cell_volume 3386.140819
_symmetry_space_group_name_H-M "P M M M"
_symmetry_group_IT_number 47
_symmetry_cell_setting 'orthorhombic'
loop_
_space_group_symop_operation_xyz
x,y,z
-x,-y,z
x,-y,-z
-x,y,-z
-x,-y,-z
x,y,-z
-x,y,z
x,-y,z
loop_
_atom_site_type_symbol
_atom_site_label
_atom_site_fract_x
_atom_site_fract_y
_atom_site_fract_z
Si Si1 0.396539 0.183955 0.108945
Si Si2 0.697560 0.314048 0.790152
Si Si3 0.500000 0.322344 0.113699
Si Si4 0.944586 0.185600 0.391651
Si Si5 0.851649 0.685805 0.289264
Si Si6 0.752691 0.312464 0.605760
Si Si7 0.203037 0.687476 0.105426
O O1 0.352473 0.246207 0.171502
O O2 0.449477 0.242792 0.142627
O O3 0.396509 0.000000 0.109369
O O4 0.389684 0.235654 0.000000
O O5 0.694393 0.500000 0.791358
O O6 0.713882 0.265506 0.685410
O O7 0.742976 0.269655 0.857601
O O8 0.500000 0.500000 0.142244
O O9 0.500000 0.315298 0.000000
O O10 0.935647 0.232944 0.500000
O O11 0.902525 0.250220 0.325844
O O12 0.000000 0.233708 0.366612
O O13 0.943271 0.000000 0.389266
O O14 0.853528 0.500000 0.290220
O O15 0.806641 0.732262 0.357366
O O16 0.835581 0.735836 0.184823
O O17 0.743655 0.258539 0.500000
O O18 0.752206 0.500000 0.604895
O O19 0.202174 0.500000 0.104275
O O20 0.194095 0.742395 0.000000
#
# Coordination Sequence:
#
# PCOD9382496 Si02
#       7
#     8   8   4   8   8   8   8
#     4  10  19  29  41  60  89 118 140 171 215 250
#     4   9  16  26  43  64  83 111 148 174 197 241
#     4   9  17  29  45  63  82 109 146 179 205 246
#     4   9  18  31  44  59  82 110 135 163 208 261
#     4   9  16  26  44  67  85 106 139 175 208 243
#     4   8  14  25  41  63  90 113 134 168 212 249
#     4   8  14  25  41  62  88 114 139 170 207 244
#
# _framework density 15.356714
#
# number of rings (size 3 to 8) (size 9 to 14) (size 15 to 20)
#    0.000    3.154    0.000    3.923    0.000    3.692 
#    0.000    3.846    0.000    3.231    0.000    3.769 
#    0.000    4.308    0.000    0.000    0.000    0.000 
#
# Total GULP energy -289578.641930 kJ/mol
# GULP energy per Si atom -5568.820037 kJ/mol
# Density = 1.532176 g / cm^3
# Si number density = 15.356714 Si / 1000 Ang^3
#
#
#
# Elastic Constant Matrix: (Units=GPa)
#
#
# Indices 1 2 3 4 5 6 
#
# 1 154.0311 31.0213 87.5948 0.0000 0.0000 0.0000
# 2 31.0213 14.7443 22.5267 0.0000 0.0000 0.0000
# 3 87.5948 22.5267 127.8163 0.0000 0.0000 0.0000
# 4 0.0000 0.0000 0.0000 13.3078 0.0000 0.0000
# 5 0.0000 0.0000 0.0000 0.0000 23.6490 0.0000
# 6 0.0000 0.0000 0.0000 0.0000 0.0000 99.3612
#
#
#
# Elastic Compliance Matrix: (Units=1/GPa)
#
#
# Indices 1 2 3 4 5 6 
#
# 1 0.013994 -0.020240 -0.006023 0.000000 0.000000 0.000000
# 2 -0.020240 0.122089 -0.007647 0.000000 0.000000 0.000000
# 3 -0.006023 -0.007647 0.013299 0.000000 0.000000 0.000000
# 4 0.000000 0.000000 0.000000 0.075144 0.000000 0.000000
# 5 0.000000 0.000000 0.000000 0.000000 0.042285 0.000000
# 6 0.000000 0.000000 0.000000 0.000000 0.000000 0.010064
#
#
# Mechanical properties :
#
#
# Convention : Reuss Voigt Hill
#
# Bulk Modulus (GPa) = 12.26051 64.31968 38.29010
# Shear Modulus (GPa) = 13.44519 37.62687 25.53603
#
# Velocity S-wave (km/s) = 2.96214 4.95531 4.08224
# Velocity P-wave (km/s) = 4.43849 8.64377 6.87077
#
# Compressibility (1/GPa) = 0.08156268
#
# Stress axis : x y z
#
# Youngs Moduli (GPa) = 71.46161 8.19077 75.19368
#
# Poissons Ratio (x) = 0.16578 0.45288
# Poissons Ratio (y) = 1.44636 0.57497
# Poissons Ratio (z) = 0.43041 0.06263
#
# Static dielectric constant tensor:
#      x y z
#    x 1.490960 0.000000 0.000000 
#    y 0.000000 1.518060 0.000000 
#    z 0.000000 0.000000 1.516620 
# 
# From -- ./inp_files/13401.got.cif
#   From: 2010.05.17/outbox.cif.g08.bks.cpg/sg47_7_cif.got.tgz:13401.got - 2010.06.03 20:15:42.
