data_PCOD9382931
_publ_section_title
;
Structure prediction by ZEFSAII (Michael W. Deem and Ramdas Pophale) SiO2 
 PCOD9382931
Probable space group: P M M M
;
_chemical_formula_sum "Si O2"
_cell_formula_units_Z 48
_cell_length_a 24.537242
_cell_length_b 18.998876
_cell_length_c 7.990897
_cell_angle_alpha 90.000000
_cell_angle_beta 90.000000
_cell_angle_gamma 90.000000
_cell_volume 3725.196508
_symmetry_space_group_name_H-M "P M M M"
_symmetry_group_IT_number 47
_symmetry_cell_setting 'orthorhombic'
loop_
_space_group_symop_operation_xyz
x,y,z
-x,-y,z
x,-y,-z
-x,y,-z
-x,-y,-z
x,y,-z
-x,y,z
x,-y,z
loop_
_atom_site_type_symbol
_atom_site_label
_atom_site_fract_x
_atom_site_fract_y
_atom_site_fract_z
Si Si1 0.629665 0.861771 0.298713
Si Si2 0.864529 0.914370 0.186451
Si Si3 0.562524 0.000000 0.799346
Si Si4 0.436001 0.424027 0.201449
Si Si5 0.062850 0.085907 0.500000
Si Si6 0.562559 0.271610 0.299460
Si Si7 0.255634 0.917341 0.297429
O O1 0.633060 0.856195 0.500000
O O2 0.599522 0.792032 0.234052
O O3 0.691300 0.875099 0.238882
O O4 0.593918 0.930476 0.259579
O O5 0.904467 0.891147 0.334541
O O6 0.802063 0.893886 0.223321
O O7 0.864746 0.000000 0.190382
O O8 0.881037 0.892345 0.000000
O O9 0.500000 0.000000 0.738693
O O10 0.562036 0.000000 0.000000
O O11 0.500000 0.423862 0.251191
O O12 0.413106 0.500000 0.258243
O O13 0.414235 0.349309 0.262635
O O14 0.434061 0.423375 0.000000
O O15 0.000000 0.108130 0.500000
O O16 0.063227 0.000000 0.500000
O O17 0.559448 0.264481 0.500000
O O18 0.500000 0.266872 0.234341
O O19 0.251597 0.913552 0.500000
O O20 0.263967 0.000000 0.255443
#
# Coordination Sequence:
#
# PCOD9382931 Si02
#       7
#     8   8   4   8   4   8   8
#     4  10  19  31  44  55  67  92 122 152 189 232
#     4   9  16  25  38  54  71  94 118 147 185 220
#     4  11  23  33  39  51  71  91 117 156 195 232
#     4   8  14  25  40  55  70  90 112 132 165 219
#     4   9  16  26  38  54  76  96 114 144 179 222
#     4   9  17  27  39  56  74  90 112 145 186 230
#     4   9  15  26  41  53  67  87 120 157 188 219
#
# _framework density 12.885225999999999
#
# number of rings (size 3 to 8) (size 9 to 14) (size 15 to 20)
#    0.000    2.833    1.667    1.250    0.000    3.333 
#    0.000    5.000    0.000    0.000    0.000    0.000 
#    0.000    0.000    0.000    0.000    0.000    0.000 
#
# Total GULP energy -267250.000502 kJ/mol
# GULP energy per Si atom -5567.708344 kJ/mol
# Density = 1.285590 g / cm^3
# Si number density = 12.885226 Si / 1000 Ang^3
#
#
#
# Elastic Constant Matrix: (Units=GPa)
#
#
# Indices 1 2 3 4 5 6 
#
# 1 90.6648 33.6876 35.2875 0.0000 0.0000 0.0000
# 2 33.6876 78.8542 13.4985 0.0000 0.0000 0.0000
# 3 35.2875 13.4985 38.9151 0.0000 0.0000 0.0000
# 4 0.0000 0.0000 0.0000 18.3681 0.0000 0.0000
# 5 0.0000 0.0000 0.0000 0.0000 3.9629 0.0000
# 6 0.0000 0.0000 0.0000 0.0000 0.0000 0.5236
#
#
#
# Elastic Compliance Matrix: (Units=1/GPa)
#
#
# Indices 1 2 3 4 5 6 
#
# 1 0.019060 -0.005511 -0.015372 0.000000 0.000000 0.000000
# 2 -0.005511 0.015076 -0.000232 0.000000 0.000000 0.000000
# 3 -0.015372 -0.000232 0.039716 0.000000 0.000000 0.000000
# 4 0.000000 0.000000 0.000000 0.054442 0.000000 0.000000
# 5 0.000000 0.000000 0.000000 0.000000 0.252343 0.000000
# 6 0.000000 0.000000 0.000000 0.000000 0.000000 1.910007
#
#
# Mechanical properties :
#
#
# Convention : Reuss Voigt Hill
#
# Bulk Modulus (GPa) = 31.62304 41.48681 36.55493
# Shear Modulus (GPa) = 2.13364 12.96828 7.55096
#
# Velocity S-wave (km/s) = 1.28821 3.17589 2.42340
# Velocity P-wave (km/s) = 5.17764 6.76132 6.02177
#
# Compressibility (1/GPa) = 0.03162251
#
# Stress axis : x y z
#
# Youngs Moduli (GPa) = 52.46513 66.33127 25.17863
#
# Poissons Ratio (x) = 0.36558 0.38704
# Poissons Ratio (y) = 0.28916 0.00583
# Poissons Ratio (z) = 0.80648 0.01537
#
# Static dielectric constant tensor:
#      x y z
#    x 1.414220 0.000000 0.000000 
#    y 0.000000 1.417810 0.000000 
#    z 0.000000 0.000000 1.458020 
# 
# From -- ./inp_files/11404.got.cif
#   From: 2010.05.17/outbox.cif.g08.bks.cpg/sg47_6_cif.got.tgz:11404.got - 2010.06.03 20:15:42.
