data_PCOD9382195
_publ_section_title
;
Structure prediction by ZEFSAII (Michael W. Deem and Ramdas Pophale) SiO2 
 PCOD9382195
Probable space group: P M M M
;
_chemical_formula_sum "Si O2"
_cell_formula_units_Z 44
_cell_length_a 10.070354
_cell_length_b 7.932082
_cell_length_c 27.427958
_cell_angle_alpha 90.000000
_cell_angle_beta 90.000000
_cell_angle_gamma 90.000000
_cell_volume 2190.914393
_symmetry_space_group_name_H-M "P M M M"
_symmetry_group_IT_number 47
_symmetry_cell_setting 'orthorhombic'
loop_
_space_group_symop_operation_xyz
x,y,z
-x,-y,z
x,-y,-z
-x,y,-z
-x,-y,-z
x,y,-z
-x,y,z
x,-y,z
loop_
_atom_site_type_symbol
_atom_site_label
_atom_site_fract_x
_atom_site_fract_y
_atom_site_fract_z
Si Si1 0.155763 0.293232 0.500000
Si Si2 0.000000 0.206396 0.943884
Si Si3 0.150400 0.699956 0.780292
Si Si4 0.748979 0.796591 0.881705
Si Si5 0.151795 0.802385 0.329087
Si Si6 0.500000 0.793330 0.944122
Si Si7 0.346898 0.699828 0.587691
O O1 0.151280 0.500000 0.500000
O O2 0.243888 0.236527 0.453607
O O3 0.000000 0.238898 0.500000
O O4 0.125253 0.262031 0.912687
O O5 0.000000 0.000000 0.945158
O O6 0.000000 0.262097 0.000000
O O7 0.148604 0.500000 0.773197
O O8 0.242525 0.741380 0.825871
O O9 0.182368 0.779252 0.728110
O O10 0.000000 0.757019 0.793404
O O11 0.624965 0.738389 0.912860
O O12 0.749405 0.000000 0.881338
O O13 0.267482 0.724876 0.361945
O O14 0.000000 0.734338 0.337450
O O15 0.147897 0.000000 0.340326
O O16 0.500000 0.000000 0.945688
O O17 0.500000 0.736521 0.000000
O O18 0.500000 0.766511 0.586875
O O19 0.358600 0.500000 0.578974
#
# Coordination Sequence:
#
# PCOD9382195 Si02
#       7
#     4   4   8   8   8   4   8
#     4   9  17  31  56  87 118 155 196 234 272 321
#     4   9  16  26  47  77 103 131 171 216 259 312
#     4  10  20  35  56  80 106 137 177 226 278 329
#     4  10  18  31  52  77 105 136 174 218 265 318
#     4  10  21  37  58  82 109 143 187 235 282 332
#     4   9  18  32  51  77 107 137 171 214 263 316
#     4  10  20  35  56  85 120 155 191 231 277 327
#
# _framework density 20.082939
#
# number of rings (size 3 to 8) (size 9 to 14) (size 15 to 20)
#    0.000    2.273    0.909    2.455    0.000    6.182 
#    1.636    0.909    0.000    6.000    0.000    0.000 
#    0.000    0.000    0.000    0.000    0.000    0.000 
#
# Total GULP energy -245421.881134 kJ/mol
# GULP energy per Si atom -5577.770026 kJ/mol
# Density = 2.003723 g / cm^3
# Si number density = 20.082939 Si / 1000 Ang^3
#
#
#
# Elastic Constant Matrix: (Units=GPa)
#
#
# Indices 1 2 3 4 5 6 
#
# 1 183.2301 9.7578 88.1682 0.0000 0.0000 0.0000
# 2 9.7578 19.5925 -3.5502 0.0000 0.0000 0.0000
# 3 88.1682 -3.5502 131.1718 0.0000 0.0000 0.0000
# 4 0.0000 0.0000 0.0000 16.8409 0.0000 0.0000
# 5 0.0000 0.0000 0.0000 0.0000 31.4863 0.0000
# 6 0.0000 0.0000 0.0000 0.0000 0.0000 46.0308
#
#
#
# Elastic Compliance Matrix: (Units=1/GPa)
#
#
# Indices 1 2 3 4 5 6 
#
# 1 0.008591 -0.005351 -0.005919 0.000000 0.000000 0.000000
# 2 -0.005351 0.054625 0.005075 0.000000 0.000000 0.000000
# 3 -0.005919 0.005075 0.011740 0.000000 0.000000 0.000000
# 4 0.000000 0.000000 0.000000 0.059379 0.000000 0.000000
# 5 0.000000 0.000000 0.000000 0.000000 0.031760 0.000000
# 6 0.000000 0.000000 0.000000 0.000000 0.000000 0.021725
#
#
# Mechanical properties :
#
#
# Convention : Reuss Voigt Hill
#
# Bulk Modulus (GPa) = 15.98342 58.08288 37.03315
# Shear Modulus (GPa) = 22.61789 34.84619 28.73204
#
# Velocity S-wave (km/s) = 3.35957 4.16999 3.78652
# Velocity P-wave (km/s) = 4.79843 7.22284 6.13165
#
# Compressibility (1/GPa) = 0.06256485
#
# Stress axis : x y z
#
# Youngs Moduli (GPa) = 116.40275 18.30675 85.18160
#
# Poissons Ratio (x) = 0.09796 0.50421
# Poissons Ratio (y) = 0.62289 -0.43232
# Poissons Ratio (z) = 0.68902 -0.09291
#
# Static dielectric constant tensor:
#      x y z
#    x 1.757790 0.000000 0.000000 
#    y 0.000000 1.737960 0.000000 
#    z 0.000000 0.000000 1.688000 
# 
# From -- ./inp_files/13706.got.cif
#   From: 2010.05.17/outbox.cif.g08.bks.cpg/sg47_7_cif.got.tgz:13706.got - 2010.06.03 20:15:42.
