data_PCOD9382196
_publ_section_title
;
Structure prediction by ZEFSAII (Michael W. Deem and Ramdas Pophale) SiO2 
 PCOD9382196
Probable space group: P M M M
;
_chemical_formula_sum "Si O2"
_cell_formula_units_Z 48
_cell_length_a 8.578533
_cell_length_b 29.725282
_cell_length_c 10.180659
_cell_angle_alpha 90.000000
_cell_angle_beta 90.000000
_cell_angle_gamma 90.000000
_cell_volume 2596.061047
_symmetry_space_group_name_H-M "P M M M"
_symmetry_group_IT_number 47
_symmetry_cell_setting 'orthorhombic'
loop_
_space_group_symop_operation_xyz
x,y,z
-x,-y,z
x,-y,-z
-x,y,-z
-x,-y,-z
x,y,-z
-x,y,z
x,-y,z
loop_
_atom_site_type_symbol
_atom_site_label
_atom_site_fract_x
_atom_site_fract_y
_atom_site_fract_z
Si Si1 0.186523 0.874472 0.652476
Si Si2 0.686302 0.799366 0.151395
Si Si3 0.814440 0.700492 0.847458
Si Si4 0.309786 0.448417 0.500000
Si Si5 0.688523 0.390608 0.749652
Si Si6 0.690011 0.448502 0.000000
Si Si7 0.312305 0.052923 0.148345
O O1 0.241947 0.874016 0.500000
O O2 0.245352 0.832673 0.740004
O O3 0.241151 0.917883 0.735269
O O4 0.000000 0.873550 0.649495
O O5 0.500000 0.803531 0.152447
O O6 0.735136 0.748180 0.181619
O O7 0.739213 0.809101 0.000000
O O8 0.756548 0.659190 0.760312
O O9 0.000000 0.705564 0.837251
O O10 0.775296 0.689501 0.000000
O O11 0.255188 0.500000 0.500000
O O12 0.500000 0.450374 0.500000
O O13 0.262401 0.419615 0.374790
O O14 0.500000 0.387048 0.750241
O O15 0.738103 0.420142 0.874203
O O16 0.744522 0.500000 0.000000
O O17 0.500000 0.450145 0.000000
O O18 0.500000 0.057615 0.152835
O O19 0.275651 0.000000 0.161666
O O20 0.263078 0.067271 0.000000
#
# Coordination Sequence:
#
# PCOD9382196 Si02
#       7
#     8   8   8   4   8   4   8
#     4  11  24  39  55  82 121 158 192 232 282 339
#     4  10  21  38  62  87 109 139 185 236 283 334
#     4  10  20  35  56  81 109 139 175 221 275 330
#     4   9  18  32  51  77 107 137 173 219 266 313
#     4  10  18  31  52  77 105 136 175 219 264 318
#     4   9  16  26  47  77 103 131 171 219 264 309
#     4   9  19  37  61  88 117 152 198 247 289 332
#
# _framework density 18.489549
#
# number of rings (size 3 to 8) (size 9 to 14) (size 15 to 20)
#    0.000    2.167    0.833    3.000    0.000    8.000 
#    1.500    2.917    0.000    3.000    0.000    0.000 
#    0.000    0.000    0.000    0.000    0.000    0.000 
#
# Total GULP energy -267879.024258 kJ/mol
# GULP energy per Si atom -5580.813005 kJ/mol
# Density = 1.844747 g / cm^3
# Si number density = 18.489549 Si / 1000 Ang^3
#
#
#
# Elastic Constant Matrix: (Units=GPa)
#
#
# Indices 1 2 3 4 5 6 
#
# 1 27.5955 32.8809 36.0973 0.0000 0.0000 0.0000
# 2 32.8809 137.4488 100.1353 0.0000 0.0000 0.0000
# 3 36.0973 100.1353 176.9494 0.0000 0.0000 0.0000
# 4 0.0000 0.0000 0.0000 28.8703 0.0000 0.0000
# 5 0.0000 0.0000 0.0000 0.0000 16.3763 0.0000
# 6 0.0000 0.0000 0.0000 0.0000 0.0000 95.7149
#
#
#
# Elastic Compliance Matrix: (Units=1/GPa)
#
#
# Indices 1 2 3 4 5 6 
#
# 1 0.054609 -0.008419 -0.006376 0.000000 0.000000 0.000000
# 2 -0.008419 0.013677 -0.006022 0.000000 0.000000 0.000000
# 3 -0.006376 -0.006022 0.010360 0.000000 0.000000 0.000000
# 4 0.000000 0.000000 0.000000 0.034638 0.000000 0.000000
# 5 0.000000 0.000000 0.000000 0.000000 0.061064 0.000000
# 6 0.000000 0.000000 0.000000 0.000000 0.000000 0.010448
#
#
# Mechanical properties :
#
#
# Convention : Reuss Voigt Hill
#
# Bulk Modulus (GPa) = 27.01815 75.58009 51.29912
# Shear Modulus (GPa) = 20.94092 39.71765 30.32929
#
# Velocity S-wave (km/s) = 3.36904 4.63980 4.05451
# Velocity P-wave (km/s) = 5.45695 8.34683 7.05152
#
# Compressibility (1/GPa) = 0.03701216
#
# Stress axis : x y z
#
# Youngs Moduli (GPa) = 18.31186 73.11671 96.52475
#
# Poissons Ratio (x) = 0.61554 0.61545
# Poissons Ratio (y) = 0.15416 0.58130
# Poissons Ratio (z) = 0.11676 0.44033
#
# Static dielectric constant tensor:
#      x y z
#    x 1.630060 0.000000 0.000000 
#    y 0.000000 1.618370 0.000000 
#    z 0.000000 0.000000 1.610740 
# 
# From -- ./inp_files/2566.got.cif
#   From: 2010.05.17/outbox.cif.g08.bks.cpg/sg47_2_cif.got.tgz:2566.got - 2010.06.03 20:15:42.
