data_PCOD9382669
_publ_section_title
;
Structure prediction by ZEFSAII (Michael W. Deem and Ramdas Pophale) SiO2 
 PCOD9382669
Probable space group: P M M M
;
_chemical_formula_sum "Si O2"
_cell_formula_units_Z 56
_cell_length_a 17.414039
_cell_length_b 8.078126
_cell_length_c 20.494309
_cell_angle_alpha 90.000000
_cell_angle_beta 90.000000
_cell_angle_gamma 90.000000
_cell_volume 2882.991856
_symmetry_space_group_name_H-M "P M M M"
_symmetry_group_IT_number 47
_symmetry_cell_setting 'orthorhombic'
loop_
_space_group_symop_operation_xyz
x,y,z
-x,-y,z
x,-y,-z
-x,y,-z
-x,-y,-z
x,y,-z
-x,y,z
x,-y,z
loop_
_atom_site_type_symbol
_atom_site_label
_atom_site_fract_x
_atom_site_fract_y
_atom_site_fract_z
Si Si1 0.000000 0.315121 0.810239
Si Si2 0.172331 0.803333 0.186728
Si Si3 0.298892 0.300359 0.716238
Si Si4 0.714308 0.199382 0.073565
Si Si5 0.695713 0.691005 0.571918
Si Si6 0.863941 0.192997 0.571910
Si Si7 0.000000 0.197642 0.330928
Si Si8 0.587544 0.299915 0.831318
O O1 0.083004 0.236271 0.825198
O O2 0.000000 0.307584 0.732166
O O3 0.000000 0.500000 0.836442
O O4 0.215049 0.742101 0.253046
O O5 0.222850 0.738083 0.125848
O O6 0.179286 0.000000 0.189533
O O7 0.301466 0.500000 0.712285
O O8 0.320948 0.235766 0.643863
O O9 0.360812 0.242907 0.769947
O O10 0.632172 0.244548 0.104015
O O11 0.720741 0.000000 0.072021
O O12 0.724494 0.261562 0.000000
O O13 0.673603 0.763274 0.500000
O O14 0.669407 0.500000 0.571501
O O15 0.788279 0.698030 0.573356
O O16 0.899700 0.207577 0.500000
O O17 0.925469 0.230480 0.626188
O O18 0.839844 0.000000 0.579424
O O19 0.000000 0.000000 0.313337
O O20 0.500000 0.241879 0.828215
O O21 0.587302 0.500000 0.829714
#
# Coordination Sequence:
#
# PCOD9382669 Si02
#       8
#     4   8   8   8   8   8   4   8
#     4  12  24  35  48  68  96 127 163 206 247 288
#     4  10  20  35  54  74  97 127 165 205 245 291
#     4   9  17  31  50  70  97 132 167 206 250 294
#     4   9  19  36  57  80 105 132 161 196 240 288
#     4   9  17  28  42  61  85 116 157 203 248 291
#     4   9  17  28  41  58  82 112 147 191 244 299
#     4  10  19  30  44  61  83 114 153 197 245 294
#     4   9  18  32  51  77 107 138 169 198 234 285
#
# _framework density 19.424264999999998
#
# number of rings (size 3 to 8) (size 9 to 14) (size 15 to 20)
#    0.000    2.571    0.000    2.143    0.000    5.714 
#    0.000    1.786    0.000    4.714    0.000    3.000 
#    0.000    0.000    0.000   10.714    0.000   11.143 
#
# Total GULP energy -311931.507280 kJ/mol
# GULP energy per Si atom -5570.205487 kJ/mol
# Density = 1.938005 g / cm^3
# Si number density = 19.424265 Si / 1000 Ang^3
#
#
#
# Elastic Constant Matrix: (Units=GPa)
#
#
# Indices 1 2 3 4 5 6 
#
# 1 85.0883 1.6823 33.5543 0.0000 0.0000 0.0000
# 2 1.6823 11.4212 8.2180 0.0000 0.0000 0.0000
# 3 33.5543 8.2180 133.5037 0.0000 0.0000 0.0000
# 4 0.0000 0.0000 0.0000 18.4350 0.0000 0.0000
# 5 0.0000 0.0000 0.0000 0.0000 15.3875 0.0000
# 6 0.0000 0.0000 0.0000 0.0000 0.0000 11.8404
#
#
#
# Elastic Compliance Matrix: (Units=1/GPa)
#
#
# Indices 1 2 3 4 5 6 
#
# 1 0.013048 0.000458 -0.003308 0.000000 0.000000 0.000000
# 2 0.000458 0.091631 -0.005756 0.000000 0.000000 0.000000
# 3 -0.003308 -0.005756 0.008676 0.000000 0.000000 0.000000
# 4 0.000000 0.000000 0.000000 0.054245 0.000000 0.000000
# 5 0.000000 0.000000 0.000000 0.000000 0.064988 0.000000
# 6 0.000000 0.000000 0.000000 0.000000 0.000000 0.084457
#
#
# Mechanical properties :
#
#
# Convention : Reuss Voigt Hill
#
# Bulk Modulus (GPa) = 10.40104 35.21360 22.80732
# Shear Modulus (GPa) = 13.64993 21.56980 17.60987
#
# Velocity S-wave (km/s) = 2.65377 3.33597 3.01423
# Velocity P-wave (km/s) = 3.84139 5.74511 4.88685
#
# Compressibility (1/GPa) = 0.09614423
#
# Stress axis : x y z
#
# Youngs Moduli (GPa) = 76.64144 10.91338 115.26003
#
# Poissons Ratio (x) = -0.00500 0.38123
# Poissons Ratio (y) = -0.03510 0.66339
# Poissons Ratio (z) = 0.25350 0.06281
#
# Static dielectric constant tensor:
#      x y z
#    x 1.671360 0.000000 0.000000 
#    y 0.000000 1.694330 0.000000 
#    z 0.000000 0.000000 1.729090 
# 
# From -- ./inp_files/30991.got.cif
#   From: 2010.05.17/outbox.cif.g08.bks.cpg/sg47_16_cif.got.tgz:30991.got - 2010.06.03 20:15:42.
