data_PCOD9382313
_publ_section_title
;
Structure prediction by ZEFSAII (Michael W. Deem and Ramdas Pophale) SiO2 
 PCOD9382313
Probable space group: P M M M
;
_chemical_formula_sum "Si O2"
_cell_formula_units_Z 52
_cell_length_a 7.706466
_cell_length_b 20.110569
_cell_length_c 15.631523
_cell_angle_alpha 90.000000
_cell_angle_beta 90.000000
_cell_angle_gamma 90.000000
_cell_volume 2422.595573
_symmetry_space_group_name_H-M "P M M M"
_symmetry_group_IT_number 47
_symmetry_cell_setting 'orthorhombic'
loop_
_space_group_symop_operation_xyz
x,y,z
-x,-y,z
x,-y,-z
-x,y,-z
-x,-y,-z
x,y,-z
-x,y,z
x,-y,z
loop_
_atom_site_type_symbol
_atom_site_label
_atom_site_fract_x
_atom_site_fract_y
_atom_site_fract_z
Si Si1 0.289333 0.273524 0.090698
Si Si2 0.500000 0.926133 0.600184
Si Si3 0.288178 0.000000 0.901323
Si Si4 0.793681 0.500000 0.900211
Si Si5 0.793016 0.674942 0.404786
Si Si6 0.801896 0.824040 0.643951
Si Si7 0.705537 0.623340 0.224026
Si Si8 0.289901 0.140969 0.829900
O O1 0.500000 0.280038 0.091605
O O2 0.221980 0.313248 0.172272
O O3 0.253969 0.195620 0.098185
O O4 0.226559 0.301066 0.000000
O O5 0.500000 0.935573 0.500000
O O6 0.669865 0.882286 0.618693
O O7 0.500000 0.000000 0.642581
O O8 0.233345 0.067416 0.854825
O O9 0.500000 0.000000 0.901766
O O10 0.232638 0.000000 0.000000
O O11 0.744063 0.437563 0.839913
O O12 0.000000 0.500000 0.907737
O O13 0.725209 0.500000 0.000000
O O14 0.727753 0.655460 0.500000
O O15 0.735071 0.750845 0.383664
O O16 0.759813 0.627197 0.323387
O O17 0.000000 0.679075 0.410105
O O18 0.798186 0.830539 0.745822
O O19 0.000000 0.832609 0.612404
O O20 0.500000 0.628802 0.228682
O O21 0.500000 0.139889 0.815759
#
# Coordination Sequence:
#
# PCOD9382313 Si02
#       8
#     8   4   4   4   8   8   8   8
#     4   9  17  30  52  84 121 161 209 264 318 372
#     4  11  26  44  64  90 122 163 214 273 339 408
#     4   9  18  30  51  83 117 161 213 262 317 384
#     4  11  25  45  68  95 136 185 221 258 314 379
#     4  10  22  41  65  94 129 170 217 271 330 391
#     4  11  23  40  64  93 127 167 215 272 334 397
#     4  11  22  38  64  98 130 168 214 268 320 383
#     4  10  18  32  55  83 120 163 211 261 316 379
#
# _framework density 21.464580999999999
#
# number of rings (size 3 to 8) (size 9 to 14) (size 15 to 20)
#    0.000    1.769    2.308    2.077    2.154    4.615 
#    0.000    1.154    0.000    5.538    0.000    0.000 
#    0.000    0.000    0.000    0.000    0.000    0.000 
#
# Total GULP energy -290043.070928 kJ/mol
# GULP energy per Si atom -5577.751364 kJ/mol
# Density = 2.141573 g / cm^3
# Si number density = 21.464581 Si / 1000 Ang^3
#
#
#
# Elastic Constant Matrix: (Units=GPa)
#
#
# Indices 1 2 3 4 5 6 
#
# 1 59.3234 10.9168 13.2323 0.0000 0.0000 0.0000
# 2 10.9168 108.2184 58.1902 0.0000 0.0000 0.0000
# 3 13.2323 58.1902 183.3108 0.0000 0.0000 0.0000
# 4 0.0000 0.0000 0.0000 8.6784 0.0000 0.0000
# 5 0.0000 0.0000 0.0000 0.0000 14.9767 0.0000
# 6 0.0000 0.0000 0.0000 0.0000 0.0000 16.3067
#
#
#
# Elastic Compliance Matrix: (Units=1/GPa)
#
#
# Indices 1 2 3 4 5 6 
#
# 1 0.017281 -0.001293 -0.000837 0.000000 0.000000 0.000000
# 2 -0.001293 0.011239 -0.003474 0.000000 0.000000 0.000000
# 3 -0.000837 -0.003474 0.006619 0.000000 0.000000 0.000000
# 4 0.000000 0.000000 0.000000 0.115228 0.000000 0.000000
# 5 0.000000 0.000000 0.000000 0.000000 0.066770 0.000000
# 6 0.000000 0.000000 0.000000 0.000000 0.000000 0.061325
#
#
# Mechanical properties :
#
#
# Convention : Reuss Voigt Hill
#
# Bulk Modulus (GPa) = 41.78860 57.28122 49.53491
# Shear Modulus (GPa) = 16.79833 25.89324 21.34579
#
# Velocity S-wave (km/s) = 2.80055 3.47699 3.15694
# Velocity P-wave (km/s) = 5.47433 6.54703 6.03456
#
# Compressibility (1/GPa) = 0.02392997
#
# Stress axis : x y z
#
# Youngs Moduli (GPa) = 57.86563 88.97360 151.09027
#
# Poissons Ratio (x) = 0.11507 0.12645
# Poissons Ratio (y) = 0.07484 0.52496
# Poissons Ratio (z) = 0.04843 0.30913
#
# Static dielectric constant tensor:
#      x y z
#    x 1.804540 0.000000 0.000000 
#    y 0.000000 1.802080 0.000000 
#    z 0.000000 0.000000 1.854930 
# 
# From -- ./inp_files/21510.got.cif
#   From: 2010.05.17/outbox.cif.g08.bks.cpg/sg47_11_cif.got.tgz:21510.got - 2010.06.03 20:15:42.
