data_PCOD9382769
_publ_section_title
;
Structure prediction by ZEFSAII (Michael W. Deem and Ramdas Pophale) SiO2 
 PCOD9382769
Probable space group: P M M M
;
_chemical_formula_sum "Si O2"
_cell_formula_units_Z 64
_cell_length_a 20.832316
_cell_length_b 20.386917
_cell_length_c 8.731350
_cell_angle_alpha 90.000000
_cell_angle_beta 90.000000
_cell_angle_gamma 90.000000
_cell_volume 3708.262821
_symmetry_space_group_name_H-M "P M M M"
_symmetry_group_IT_number 47
_symmetry_cell_setting 'orthorhombic'
loop_
_space_group_symop_operation_xyz
x,y,z
-x,-y,z
x,-y,-z
-x,y,-z
-x,-y,-z
x,y,-z
-x,y,z
x,-y,z
loop_
_atom_site_type_symbol
_atom_site_label
_atom_site_fract_x
_atom_site_fract_y
_atom_site_fract_z
Si Si1 0.254909 0.704452 0.816202
Si Si2 0.750380 0.571825 0.317105
Si Si3 0.574328 0.924822 0.315385
Si Si4 0.809348 0.076316 0.316498
Si Si5 0.889823 0.292191 0.317183
Si Si6 0.928492 0.155151 0.817628
Si Si7 0.689492 0.843944 0.182953
Si Si8 0.105179 0.428031 0.816481
O O1 0.282440 0.636102 0.751838
O O2 0.183950 0.712016 0.742902
O O3 0.296590 0.768145 0.776380
O O4 0.247775 0.700826 0.000000
O O5 0.759108 0.579444 0.500000
O O6 0.720462 0.500000 0.289565
O O7 0.820428 0.570210 0.237503
O O8 0.578449 0.921984 0.500000
O O9 0.500000 0.913234 0.272841
O O10 0.623544 0.873671 0.244883
O O11 0.590971 0.000000 0.270283
O O12 0.807774 0.080631 0.500000
O O13 0.873159 0.111313 0.255501
O O14 0.747847 0.113615 0.250316
O O15 0.808146 0.000000 0.272000
O O16 0.890241 0.291217 0.500000
O O17 0.923533 0.228264 0.249924
O O18 0.919309 0.360959 0.258319
O O19 0.000000 0.128952 0.787584
O O20 0.918563 0.158642 0.000000
O O21 0.690827 0.848776 0.000000
O O22 0.078036 0.500000 0.773355
O O23 0.101542 0.422373 0.000000
#
# Coordination Sequence:
#
# PCOD9382769 Si02
#       8
#     8   8   8   8   8   8   8   8
#     4  10  19  30  46  70 102 137 173 212 256 306
#     4   9  16  25  39  63  95 130 169 211 255 303
#     4   9  19  36  56  78 107 144 183 221 262 310
#     4  11  24  40  59  82 106 134 169 211 261 316
#     4  11  20  31  51  74  99 131 167 211 260 310
#     4  11  24  41  59  77  99 130 169 214 265 321
#     4  11  22  34  53  81 112 144 178 218 259 305
#     4   9  16  26  43  67  96 130 165 203 250 304
#
# _framework density 17.258755000000001
#
# number of rings (size 3 to 8) (size 9 to 14) (size 15 to 20)
#    0.000    1.875    1.250    5.625    0.000    7.250 
#    0.000    1.875    0.000    0.375    0.000    2.625 
#    0.000    0.500    0.000    5.500    0.000    4.000 
#
# Total GULP energy -357208.105918 kJ/mol
# GULP energy per Si atom -5581.376655 kJ/mol
# Density = 1.721947 g / cm^3
# Si number density = 17.258755 Si / 1000 Ang^3
#
#
#
# Elastic Constant Matrix: (Units=GPa)
#
#
# Indices 1 2 3 4 5 6 
#
# 1 69.7360 61.2244 28.6367 0.0000 0.0000 0.0000
# 2 61.2244 156.4948 43.0252 0.0000 0.0000 0.0000
# 3 28.6367 43.0252 47.4015 0.0000 0.0000 0.0000
# 4 0.0000 0.0000 0.0000 32.3131 0.0000 0.0000
# 5 0.0000 0.0000 0.0000 0.0000 20.5295 0.0000
# 6 0.0000 0.0000 0.0000 0.0000 0.0000 47.7944
#
#
#
# Elastic Compliance Matrix: (Units=1/GPa)
#
#
# Indices 1 2 3 4 5 6 
#
# 1 0.023885 -0.007165 -0.007926 0.000000 0.000000 0.000000
# 2 -0.007165 0.010664 -0.005351 0.000000 0.000000 0.000000
# 3 -0.007926 -0.005351 0.030742 0.000000 0.000000 0.000000
# 4 0.000000 0.000000 0.000000 0.030947 0.000000 0.000000
# 5 0.000000 0.000000 0.000000 0.000000 0.048710 0.000000
# 6 0.000000 0.000000 0.000000 0.000000 0.000000 0.020923
#
#
# Mechanical properties :
#
#
# Convention : Reuss Voigt Hill
#
# Bulk Modulus (GPa) = 40.97244 59.93386 50.45315
# Shear Modulus (GPa) = 23.26743 29.51045 26.38894
#
# Velocity S-wave (km/s) = 3.67570 4.13956 3.91451
# Velocity P-wave (km/s) = 6.46576 7.59276 7.05181
#
# Compressibility (1/GPa) = 0.02440665
#
# Stress axis : x y z
#
# Youngs Moduli (GPa) = 41.86650 93.76979 32.52913
#
# Poissons Ratio (x) = 0.67190 0.25783
# Poissons Ratio (y) = 0.29999 0.17406
# Poissons Ratio (z) = 0.33184 0.50176
#
# Static dielectric constant tensor:
#      x y z
#    x 1.569560 0.000000 0.000000 
#    y 0.000000 1.630410 0.000000 
#    z 0.000000 0.000000 1.576280 
# 
# From -- ./inp_files/10071.got.cif
#   From: 2010.05.17/outbox.cif.g08.bks.cpg/sg47_6_cif.got.tgz:10071.got - 2010.06.03 20:15:42.
