data_PCOD9382719
_publ_section_title
;
Structure prediction by ZEFSAII (Michael W. Deem and Ramdas Pophale) SiO2 
 PCOD9382719
Probable space group: P M M M
;
_chemical_formula_sum "Si O2"
_cell_formula_units_Z 46
_cell_length_a 9.094698
_cell_length_b 25.613427
_cell_length_c 11.900183
_cell_angle_alpha 90.000000
_cell_angle_beta 90.000000
_cell_angle_gamma 90.000000
_cell_volume 2772.104591
_symmetry_space_group_name_H-M "P M M M"
_symmetry_group_IT_number 47
_symmetry_cell_setting 'orthorhombic'
loop_
_space_group_symop_operation_xyz
x,y,z
-x,-y,z
x,-y,-z
-x,y,-z
-x,-y,-z
x,y,-z
-x,y,z
x,-y,z
loop_
_atom_site_type_symbol
_atom_site_label
_atom_site_fract_x
_atom_site_fract_y
_atom_site_fract_z
Si Si1 0.669513 0.394001 0.363290
Si Si2 0.325193 0.111295 0.500000
Si Si3 0.666097 0.000000 0.239268
Si Si4 0.170025 0.500000 0.362949
Si Si5 0.274241 0.000000 0.500000
Si Si6 0.825481 0.286317 0.634792
Si Si7 0.826175 0.900622 0.133384
Si Si8 0.325513 0.182705 0.279620
O O1 0.670007 0.394969 0.500000
O O2 0.500000 0.392001 0.327172
O O3 0.747981 0.447313 0.326214
O O4 0.756702 0.341854 0.330811
O O5 0.500000 0.094384 0.500000
O O6 0.219948 0.060509 0.500000
O O7 0.303446 0.146526 0.390326
O O8 0.750162 0.050931 0.195968
O O9 0.500000 0.000000 0.195214
O O10 0.658714 0.000000 0.374459
O O11 0.172151 0.500000 0.500000
O O12 0.000000 0.500000 0.328605
O O13 0.801336 0.280402 0.500000
O O14 0.746447 0.238428 0.695643
O O15 0.000000 0.285643 0.654160
O O16 0.751555 0.848107 0.178898
O O17 0.000000 0.900202 0.157641
O O18 0.806341 0.906522 0.000000
O O19 0.500000 0.187525 0.261983
#
# Coordination Sequence:
#
# PCOD9382719 Si02
#       8
#     8   4   4   4   2   8   8   8
#     4   9  16  25  38  57  84 122 167 211 250 294
#     4  10  19  32  52  77 106 130 156 200 254 301
#     4  12  23  38  62  85 106 133 167 203 247 305
#     4   9  15  23  35  53  81 119 164 211 254 297
#     4  12  21  36  57  86 113 132 155 202 259 300
#     4  10  19  30  45  68  98 131 165 205 253 305
#     4  11  25  43  58  75 103 135 167 208 257 303
#     4  11  21  35  56  78 100 130 168 210 253 304
#
# _framework density 16.593890999999999
#
# number of rings (size 3 to 8) (size 9 to 14) (size 15 to 20)
#    0.000    1.652    2.609    3.652    0.000    6.261 
#    0.000    1.739    0.000    0.000    0.000    0.000 
#    0.000    0.000    0.000    0.783    0.000   14.522 
#
# Total GULP energy -256561.828329 kJ/mol
# GULP energy per Si atom -5577.431051 kJ/mol
# Density = 1.655612 g / cm^3
# Si number density = 16.593891 Si / 1000 Ang^3
#
#
#
# Elastic Constant Matrix: (Units=GPa)
#
#
# Indices 1 2 3 4 5 6 
#
# 1 127.5405 85.6843 42.2795 0.0000 0.0000 0.0000
# 2 85.6843 172.7474 32.9105 0.0000 0.0000 0.0000
# 3 42.2795 32.9105 46.2515 0.0000 0.0000 0.0000
# 4 0.0000 0.0000 0.0000 3.2384 0.0000 0.0000
# 5 0.0000 0.0000 0.0000 0.0000 11.7610 0.0000
# 6 0.0000 0.0000 0.0000 0.0000 0.0000 33.1347
#
#
#
# Elastic Compliance Matrix: (Units=1/GPa)
#
#
# Indices 1 2 3 4 5 6 
#
# 1 0.014665 -0.005460 -0.009520 0.000000 0.000000 0.000000
# 2 -0.005460 0.008730 -0.001220 0.000000 0.000000 0.000000
# 3 -0.009520 -0.001220 0.031192 0.000000 0.000000 0.000000
# 4 0.000000 0.000000 0.000000 0.308794 0.000000 0.000000
# 5 0.000000 0.000000 0.000000 0.000000 0.085027 0.000000
# 6 0.000000 0.000000 0.000000 0.000000 0.000000 0.030180
#
#
# Mechanical properties :
#
#
# Convention : Reuss Voigt Hill
#
# Bulk Modulus (GPa) = 45.07575 74.25422 59.66499
# Shear Modulus (GPa) = 9.64536 22.00448 15.82492
#
# Velocity S-wave (km/s) = 2.41355 3.64546 3.09149
# Velocity P-wave (km/s) = 5.91523 7.90976 6.98406
#
# Compressibility (1/GPa) = 0.02218488
#
# Stress axis : x y z
#
# Youngs Moduli (GPa) = 68.19016 114.55291 32.05958
#
# Poissons Ratio (x) = 0.62548 0.30522
# Poissons Ratio (y) = 0.37233 0.03912
# Poissons Ratio (z) = 0.64919 0.13979
#
# Static dielectric constant tensor:
#      x y z
#    x 1.558230 0.000000 0.000000 
#    y 0.000000 1.555450 0.000000 
#    z 0.000000 0.000000 1.524820 
# 
# From -- ./inp_files/15349.got.cif
#   From: 2010.05.17/outbox.cif.g08.bks.cpg/sg47_8_cif.got.tgz:15349.got - 2010.06.03 20:15:42.
