data_PCOD9382747
_publ_section_title
;
Structure prediction by ZEFSAII (Michael W. Deem and Ramdas Pophale) SiO2 
 PCOD9382747
Probable space group: P M M M
;
_chemical_formula_sum "Si O2"
_cell_formula_units_Z 44
_cell_length_a 34.146759
_cell_length_b 7.793404
_cell_length_c 7.296361
_cell_angle_alpha 90.000000
_cell_angle_beta 90.000000
_cell_angle_gamma 90.000000
_cell_volume 1941.703855
_symmetry_space_group_name_H-M "P M M M"
_symmetry_group_IT_number 47
_symmetry_cell_setting 'orthorhombic'
loop_
_space_group_symop_operation_xyz
x,y,z
-x,-y,z
x,-y,-z
-x,y,-z
-x,-y,-z
x,y,-z
-x,y,z
x,-y,z
loop_
_atom_site_type_symbol
_atom_site_label
_atom_site_fract_x
_atom_site_fract_y
_atom_site_fract_z
Si Si1 0.691222 0.500000 0.717818
Si Si2 0.167636 0.796218 0.721527
Si Si3 0.083875 0.793767 0.711636
Si Si4 0.599017 0.500000 0.218913
Si Si5 0.253488 0.801263 0.276215
Si Si6 0.544453 0.804534 0.223135
Si Si7 0.000000 0.296596 0.291385
O O1 0.697461 0.500000 0.500000
O O2 0.645031 0.500000 0.747041
O O3 0.712993 0.671322 0.785847
O O4 0.166051 0.779292 0.500000
O O5 0.125513 0.729219 0.788612
O O6 0.210306 0.732953 0.779929
O O7 0.169001 0.000000 0.761901
O O8 0.081866 0.731381 0.500000
O O9 0.041609 0.753177 0.794112
O O10 0.087012 0.000000 0.708701
O O11 0.576375 0.668613 0.286869
O O12 0.594167 0.500000 0.000000
O O13 0.253225 0.805040 0.500000
O O14 0.258655 0.000000 0.218894
O O15 0.500000 0.756900 0.276413
O O16 0.552032 0.000000 0.281294
O O17 0.544868 0.805228 0.000000
O O18 0.000000 0.500000 0.303156
O O19 0.000000 0.220996 0.500000
#
# Coordination Sequence:
#
# PCOD9382747 Si02
#       7
#     4   8   8   4   8   8   4
#     4  10  20  31  43  63  86 113 148 176 210 261
#     4   7  10  18  32  46  57  74 107 151 195 233
#     4   8  12  18  27  35  45  67  99 134 176 226
#     4  10  19  30  46  68  94 120 145 177 215 251
#     4   8  14  26  41  55  74  99 130 172 214 249
#     4   8  14  26  46  71  94 116 147 184 215 244
#     4   9  15  19  19  27  49  71  93 127 175 228
#
# _framework density 22.660509999999999
#
# number of rings (size 3 to 8) (size 9 to 14) (size 15 to 20)
#    0.000    3.727    0.000    3.273    0.000    2.909 
#    1.636    0.000    0.000    1.091    0.000    1.273 
#    0.000    0.000    0.000    0.000    0.000    0.000 
#
# Total GULP energy -245264.310620 kJ/mol
# GULP energy per Si atom -5574.188878 kJ/mol
# Density = 2.260893 g / cm^3
# Si number density = 22.660510 Si / 1000 Ang^3
#
#
#
# Elastic Constant Matrix: (Units=GPa)
#
#
# Indices 1 2 3 4 5 6 
#
# 1 270.7663 113.5936 5.1349 0.0000 0.0000 0.0000
# 2 113.5936 100.8885 4.6975 0.0000 0.0000 0.0000
# 3 5.1349 4.6975 90.9937 0.0000 0.0000 0.0000
# 4 0.0000 0.0000 0.0000 -39.4199 0.0000 0.0000
# 5 0.0000 0.0000 0.0000 0.0000 5.4948 0.0000
# 6 0.0000 0.0000 0.0000 0.0000 0.0000 2.5756
#
#
#
# Elastic Compliance Matrix: (Units=1/GPa)
#
#
# Indices 1 2 3 4 5 6 
#
# 1 0.007000 -0.007882 0.000012 0.000000 0.000000 0.000000
# 2 -0.007882 0.018810 -0.000526 0.000000 0.000000 0.000000
# 3 0.000012 -0.000526 0.011016 0.000000 0.000000 0.000000
# 4 0.000000 0.000000 0.000000 -0.025368 0.000000 0.000000
# 5 0.000000 0.000000 0.000000 0.000000 0.181990 0.000000
# 6 0.000000 0.000000 0.000000 0.000000 0.000000 0.388253
#
#
# Mechanical properties :
#
#
# Convention : Reuss Voigt Hill
#
# Bulk Modulus (GPa) = 49.91420 78.83338 64.37379
# Shear Modulus (GPa) = 8.26212 16.34495 12.30353
#
# Velocity S-wave (km/s) = 1.91153 2.68861 2.33266
# Velocity P-wave (km/s) = 5.19102 6.67102 5.97701
#
# Compressibility (1/GPa) = 0.02003438
#
# Stress axis : x y z
#
# Youngs Moduli (GPa) = 142.86733 53.16181 90.77479
#
# Poissons Ratio (x) = 0.41900 -0.00108
# Poissons Ratio (y) = 1.12601 0.04778
# Poissons Ratio (z) = -0.00170 0.02798
#
# Static dielectric constant tensor:
#      x y z
#    x 1.855340 0.000000 0.000000 
#    y 0.000000 1.807430 0.000000 
#    z 0.000000 0.000000 2.153350 
# 
# From -- ./inp_files/13725.got.cif
#   From: 2010.05.17/outbox.cif.g08.bks.cpg/sg47_7_cif.got.tgz:13725.got - 2010.06.03 20:15:42.
