data_PCOD9382447
_publ_section_title
;
Structure prediction by ZEFSAII (Michael W. Deem and Ramdas Pophale) SiO2 
 PCOD9382447
Probable space group: P M M M
;
_chemical_formula_sum "Si O2"
_cell_formula_units_Z 64
_cell_length_a 30.794483
_cell_length_b 13.724807
_cell_length_c 8.204959
_cell_angle_alpha 90.000000
_cell_angle_beta 90.000000
_cell_angle_gamma 90.000000
_cell_volume 3467.812267
_symmetry_space_group_name_H-M "P M M M"
_symmetry_group_IT_number 47
_symmetry_cell_setting 'orthorhombic'
loop_
_space_group_symop_operation_xyz
x,y,z
-x,-y,z
x,-y,-z
-x,y,-z
-x,-y,-z
x,y,-z
-x,y,z
x,-y,z
loop_
_atom_site_type_symbol
_atom_site_label
_atom_site_fract_x
_atom_site_fract_y
_atom_site_fract_z
Si Si1 0.947880 0.894018 0.313441
Si Si2 0.180405 0.108557 0.801078
Si Si3 0.048285 0.316740 0.810743
Si Si4 0.231861 0.391669 0.694634
Si Si5 0.140614 0.687043 0.801543
Si Si6 0.271754 0.805448 0.808405
Si Si7 0.361557 0.110371 0.692810
Si Si8 0.453137 0.113910 0.195749
O O1 0.932309 0.877750 0.500000
O O2 0.942972 0.799743 0.201705
O O3 0.000000 0.901682 0.325321
O O4 0.932063 0.000000 0.253683
O O5 0.150878 0.200449 0.749922
O O6 0.229783 0.133384 0.747950
O O7 0.168408 0.000000 0.745533
O O8 0.179757 0.108686 0.000000
O O9 0.094113 0.353852 0.741701
O O10 0.000000 0.336218 0.738695
O O11 0.045946 0.345500 0.000000
O O12 0.235966 0.383351 0.500000
O O13 0.244848 0.500000 0.745647
O O14 0.181761 0.373315 0.741951
O O15 0.259375 0.306189 0.775781
O O16 0.140044 0.685783 0.000000
O O17 0.317573 0.834355 0.734655
O O18 0.274447 0.823529 0.000000
O O19 0.364491 0.103129 0.500000
O O20 0.407062 0.156407 0.750682
O O21 0.358212 0.000000 0.762996
O O22 0.500000 0.154660 0.251885
O O23 0.452351 0.000000 0.248902
O O24 0.453582 0.114633 0.000000
#
# Coordination Sequence:
#
# PCOD9382447 Si02
#       8
#     8   8   8   8   8   8   8   8
#     4   8  14  24  36  51  75 109 146 178 207 242
#     4   8  14  25  41  61  86 117 151 184 217 257
#     4   9  17  28  42  62  88 115 143 178 218 257
#     4  10  21  37  56  75  94 115 141 182 237 291
#     4   9  18  31  48  70  92 118 152 184 217 266
#     4  10  19  31  49  71  95 125 160 195 234 286
#     4  10  19  28  41  66 102 141 176 211 250 289
#     4   8  14  25  40  58  85 128 182 230 263 291
#
# _framework density 18.455439999999999
#
# number of rings (size 3 to 8) (size 9 to 14) (size 15 to 20)
#    0.000    3.000    0.000    3.000    0.000    3.750 
#    0.000    3.750    0.000    3.750    0.000    2.625 
#    0.000    0.500    0.000    5.250    0.000    2.500 
#
# Total GULP energy -356347.901615 kJ/mol
# GULP energy per Si atom -5567.935963 kJ/mol
# Density = 1.841343 g / cm^3
# Si number density = 18.455440 Si / 1000 Ang^3
#
#
#
# Elastic Constant Matrix: (Units=GPa)
#
#
# Indices 1 2 3 4 5 6 
#
# 1 162.0261 8.4853 12.0688 0.0000 0.0000 0.0000
# 2 8.4853 24.1721 -6.3153 0.0000 0.0000 0.0000
# 3 12.0688 -6.3153 13.1404 0.0000 0.0000 0.0000
# 4 0.0000 0.0000 0.0000 14.6025 0.0000 0.0000
# 5 0.0000 0.0000 0.0000 0.0000 -0.4827 0.0000
# 6 0.0000 0.0000 0.0000 0.0000 0.0000 -24.7288
#
#
#
# Elastic Compliance Matrix: (Units=1/GPa)
#
#
# Indices 1 2 3 4 5 6 
#
# 1 0.007078 -0.004784 -0.008800 0.000000 0.000000 0.000000
# 2 -0.004784 0.050544 0.028685 0.000000 0.000000 0.000000
# 3 -0.008800 0.028685 0.097969 0.000000 0.000000 0.000000
# 4 0.000000 0.000000 0.000000 0.068482 0.000000 0.000000
# 5 0.000000 0.000000 0.000000 0.000000 -2.071847 0.000000
# 6 0.000000 0.000000 0.000000 0.000000 0.000000 -0.040439
#
#
# Mechanical properties :
#
#
# Convention : Reuss Voigt Hill
#
# Bulk Modulus (GPa) = 5.38230 25.31293 15.34762
# Shear Modulus (GPa) = -2.69326 10.21819 3.76246
#
# Velocity S-wave (km/s) = -1.20934 2.35557 1.42937
# Velocity P-wave (km/s) = 0.98626 4.59823 3.32539
#
# Compressibility (1/GPa) = 0.18579406
#
# Stress axis : x y z
#
# Youngs Moduli (GPa) = 141.28633 19.78489 10.20728
#
# Poissons Ratio (x) = 0.09464 0.08982
# Poissons Ratio (y) = 0.67586 -0.29280
# Poissons Ratio (z) = 1.24327 -0.56753
#
# Static dielectric constant tensor:
#      x y z
#    x 1.685880 0.000000 0.000000 
#    y 0.000000 1.814700 0.000000 
#    z 0.000000 0.000000 1.649540 
# 
# From -- ./inp_files/14259.got.cif
#   From: 2010.05.17/outbox.cif.g08.bks.cpg/sg47_8_cif.got.tgz:14259.got - 2010.06.03 20:15:42.
