data_PCOD9382957
_publ_section_title
;
Structure prediction by ZEFSAII (Michael W. Deem and Ramdas Pophale) SiO2 
 PCOD9382957
Probable space group: P M M M
;
_chemical_formula_sum "Si O2"
_cell_formula_units_Z 36
_cell_length_a 26.021219
_cell_length_b 7.408086
_cell_length_c 8.271655
_cell_angle_alpha 90.000000
_cell_angle_beta 90.000000
_cell_angle_gamma 90.000000
_cell_volume 1594.505661
_symmetry_space_group_name_H-M "P M M M"
_symmetry_group_IT_number 47
_symmetry_cell_setting 'orthorhombic'
loop_
_space_group_symop_operation_xyz
x,y,z
-x,-y,z
x,-y,-z
-x,y,-z
-x,-y,-z
x,y,-z
-x,y,z
x,-y,z
loop_
_atom_site_type_symbol
_atom_site_label
_atom_site_fract_x
_atom_site_fract_y
_atom_site_fract_z
Si Si1 0.881220 0.779559 0.323356
Si Si2 0.940639 0.220260 0.000000
Si Si3 0.334347 0.716540 0.315642
Si Si4 0.222852 0.784914 0.178834
Si Si5 0.555335 0.715415 0.696154
O O1 0.900001 0.720611 0.500000
O O2 0.821789 0.722239 0.298517
O O3 0.883063 0.000000 0.323930
O O4 0.912467 0.721455 0.164854
O O5 0.000000 0.274057 0.000000
O O6 0.938718 0.000000 0.000000
O O7 0.329086 0.783159 0.500000
O O8 0.339187 0.500000 0.322693
O O9 0.281609 0.753511 0.225789
O O10 0.389074 0.783562 0.245797
O O11 0.216655 0.000000 0.172223
O O12 0.212925 0.712030 0.000000
O O13 0.556549 0.736576 0.500000
O O14 0.500000 0.788358 0.752733
O O15 0.553990 0.500000 0.727710
#
# Coordination Sequence:
#
# PCOD9382957 Si02
#       5
#     8   4   8   8   8
#     4   9  16  27  43  62  87 121 158 194 234 279
#     4   9  16  26  40  62  93 123 154 193 232 276
#     4   9  17  28  44  69  95 115 145 193 241 286
#     4  10  19  31  46  63  88 124 163 197 231 279
#     4   7  10  19  37  60  85 112 141 178 229 284
#
# _framework density 22.577529999999999
#
# number of rings (size 3 to 8) (size 9 to 14) (size 15 to 20)
#    0.000    3.222    1.111    2.667    0.000    2.222 
#    0.000    2.222    0.000    1.333    0.000    7.778 
#    0.000    1.778    0.000    4.667    0.000    4.444 
#
# Total GULP energy -200673.894567 kJ/mol
# GULP energy per Si atom -5574.274849 kJ/mol
# Density = 2.252614 g / cm^3
# Si number density = 22.577530 Si / 1000 Ang^3
#
#
#
# Elastic Constant Matrix: (Units=GPa)
#
#
# Indices 1 2 3 4 5 6 
#
# 1 177.8086 0.6649 80.6417 0.0000 0.0000 0.0000
# 2 0.6649 70.8080 4.9857 0.0000 0.0000 0.0000
# 3 80.6417 4.9857 129.9372 0.0000 0.0000 0.0000
# 4 0.0000 0.0000 0.0000 -0.8182 0.0000 0.0000
# 5 0.0000 0.0000 0.0000 0.0000 37.2019 0.0000
# 6 0.0000 0.0000 0.0000 0.0000 0.0000 8.9505
#
#
#
# Elastic Compliance Matrix: (Units=1/GPa)
#
#
# Indices 1 2 3 4 5 6 
#
# 1 0.007832 0.000269 -0.004871 0.000000 0.000000 0.000000
# 2 0.000269 0.014170 -0.000711 0.000000 0.000000 0.000000
# 3 -0.004871 -0.000711 0.010746 0.000000 0.000000 0.000000
# 4 0.000000 0.000000 0.000000 -1.222218 0.000000 0.000000
# 5 0.000000 0.000000 0.000000 0.000000 0.026880 0.000000
# 6 0.000000 0.000000 0.000000 0.000000 0.000000 0.111725
#
#
# Mechanical properties :
#
#
# Convention : Reuss Voigt Hill
#
# Bulk Modulus (GPa) = 45.20065 61.23758 53.21912
# Shear Modulus (GPa) = -4.84091 28.55096 11.85502
#
# Velocity S-wave (km/s) = -1.46587 3.55994 2.29395
# Velocity P-wave (km/s) = 4.14712 6.63926 5.53527
#
# Compressibility (1/GPa) = 0.02212358
#
# Stress axis : x y z
#
# Youngs Moduli (GPa) = 127.67702 70.57054 93.05375
#
# Poissons Ratio (x) = -0.01901 0.45328
# Poissons Ratio (y) = -0.03440 0.06615
# Poissons Ratio (z) = 0.62194 0.05017
#
# Static dielectric constant tensor:
#      x y z
#    x 1.857270 0.000000 0.000000 
#    y 0.000000 1.904470 0.000000 
#    z 0.000000 0.000000 1.822030 
# 
# From -- ./inp_files/3944.got.cif
#   From: 2010.05.17/outbox.cif.g08.bks.cpg/sg47_2_cif.got.tgz:3944.got - 2010.06.03 20:15:42.
