data_PCOD9382947
_publ_section_title
;
Structure prediction by ZEFSAII (Michael W. Deem and Ramdas Pophale) SiO2 
 PCOD9382947
Probable space group: P M M M
;
_chemical_formula_sum "Si O2"
_cell_formula_units_Z 44
_cell_length_a 12.744153
_cell_length_b 25.334874
_cell_length_c 9.118089
_cell_angle_alpha 90.000000
_cell_angle_beta 90.000000
_cell_angle_gamma 90.000000
_cell_volume 2943.971168
_symmetry_space_group_name_H-M "P M M M"
_symmetry_group_IT_number 47
_symmetry_cell_setting 'orthorhombic'
loop_
_space_group_symop_operation_xyz
x,y,z
-x,-y,z
x,-y,-z
-x,y,-z
-x,-y,-z
x,y,-z
-x,y,z
x,-y,z
loop_
_atom_site_type_symbol
_atom_site_label
_atom_site_fract_x
_atom_site_fract_y
_atom_site_fract_z
Si Si1 0.000000 0.063265 0.327264
Si Si2 0.376055 0.937784 0.327594
Si Si3 0.127704 0.664178 0.168173
Si Si4 0.193307 0.122320 0.174741
Si Si5 0.127506 0.558627 0.328640
Si Si6 0.873330 0.771890 0.327810
O O1 0.101772 0.087601 0.249819
O O2 0.000000 0.077603 0.500000
O O3 0.000000 0.000000 0.315906
O O4 0.352718 0.927864 0.500000
O O5 0.500000 0.928766 0.305100
O O6 0.302737 0.902456 0.227139
O O7 0.355605 0.000000 0.300832
O O8 0.164187 0.608590 0.235584
O O9 0.157426 0.714689 0.265067
O O10 0.000000 0.662847 0.169302
O O11 0.161004 0.670465 0.000000
O O12 0.178671 0.181214 0.236681
O O13 0.182532 0.121443 0.000000
O O14 0.155191 0.565044 0.500000
O O15 0.161556 0.500000 0.279521
O O16 0.000000 0.558701 0.322467
O O17 0.849063 0.776286 0.500000
O O18 0.000000 0.777040 0.311877
#
# Coordination Sequence:
#
# PCOD9382947 Si02
#       6
#     4   8   8   8   8   8
#     4  11  23  37  51  67  91 123 154 181 216 269
#     4   9  19  37  58  75  92 118 151 183 217 266
#     4   9  16  24  35  52  75 101 134 178 224 263
#     4  12  23  33  49  72  97 119 145 186 231 271
#     4   8  13  21  32  46  66  95 134 176 215 257
#     4  10  19  31  46  60  81 115 152 183 217 267
#
# _framework density 14.945798
#
# number of rings (size 3 to 8) (size 9 to 14) (size 15 to 20)
#    0.000    2.273    0.909    4.636    0.000    6.909 
#    0.000    2.727    0.000    0.000    0.000    0.000 
#    0.000    0.000    0.000    0.000    0.000    0.909 
#
# Total GULP energy -245360.467437 kJ/mol
# GULP energy per Si atom -5576.374260 kJ/mol
# Density = 1.491178 g / cm^3
# Si number density = 14.945798 Si / 1000 Ang^3
#
#
#
# Elastic Constant Matrix: (Units=GPa)
#
#
# Indices 1 2 3 4 5 6 
#
# 1 25.7003 31.9862 35.0741 0.0000 0.0000 0.0000
# 2 31.9862 118.1982 81.0672 0.0000 0.0000 0.0000
# 3 35.0741 81.0672 126.0922 0.0000 0.0000 0.0000
# 4 0.0000 0.0000 0.0000 -24.5518 0.0000 0.0000
# 5 0.0000 0.0000 0.0000 0.0000 12.0229 0.0000
# 6 0.0000 0.0000 0.0000 0.0000 0.0000 -13.1614
#
#
#
# Elastic Compliance Matrix: (Units=1/GPa)
#
#
# Indices 1 2 3 4 5 6 
#
# 1 0.068510 -0.009784 -0.012767 0.000000 0.000000 0.000000
# 2 -0.009784 0.016531 -0.007906 0.000000 0.000000 0.000000
# 3 -0.012767 -0.007906 0.016565 0.000000 0.000000 0.000000
# 4 0.000000 0.000000 0.000000 -0.040730 0.000000 0.000000
# 5 0.000000 0.000000 0.000000 0.000000 0.083174 0.000000
# 6 0.000000 0.000000 0.000000 0.000000 0.000000 -0.075979
#
#
# Mechanical properties :
#
#
# Convention : Reuss Voigt Hill
#
# Bulk Modulus (GPa) = 24.57489 62.91617 43.74553
# Shear Modulus (GPa) = 35.07599 2.98616 19.03107
#
# Velocity S-wave (km/s) = 4.84972 1.41504 3.57226
# Velocity P-wave (km/s) = 6.91650 6.69757 6.80792
#
# Compressibility (1/GPa) = 0.04069193
#
# Stress axis : x y z
#
# Youngs Moduli (GPa) = 14.59649 60.49367 60.36761
#
# Poissons Ratio (x) = 0.59184 0.77070
# Poissons Ratio (y) = 0.14280 0.47730
# Poissons Ratio (z) = 0.18635 0.47829
#
# Static dielectric constant tensor:
#      x y z
#    x 1.465980 0.000000 0.000000 
#    y 0.000000 1.503940 0.000000 
#    z 0.000000 0.000000 1.496780 
# 
# From -- ./inp_files/4292.got.cif
#   From: 2010.05.17/outbox.cif.g08.bks.cpg/sg47_3_cif.got.tgz:4292.got - 2010.06.03 20:15:42.
