data_PCOD9382380
_publ_section_title
;
Structure prediction by ZEFSAII (Michael W. Deem and Ramdas Pophale) SiO2 
 PCOD9382380
Probable space group: P M M M
;
_chemical_formula_sum "Si O2"
_cell_formula_units_Z 52
_cell_length_a 14.137509
_cell_length_b 8.588367
_cell_length_c 27.511558
_cell_angle_alpha 90.000000
_cell_angle_beta 90.000000
_cell_angle_gamma 90.000000
_cell_volume 3340.401534
_symmetry_space_group_name_H-M "P M M M"
_symmetry_group_IT_number 47
_symmetry_cell_setting 'orthorhombic'
loop_
_space_group_symop_operation_xyz
x,y,z
-x,-y,z
x,-y,-z
-x,y,-z
-x,-y,-z
x,y,-z
-x,y,z
x,-y,z
loop_
_atom_site_type_symbol
_atom_site_label
_atom_site_fract_x
_atom_site_fract_y
_atom_site_fract_z
Si Si1 0.606311 0.310332 0.148633
Si Si2 0.105764 0.689571 0.197898
Si Si3 0.705285 0.311990 0.751126
Si Si4 0.390594 0.814364 0.655162
Si Si5 0.386697 0.685925 0.552892
Si Si6 0.109305 0.813772 0.000000
Si Si7 0.203992 0.688157 0.902744
O O1 0.500000 0.256267 0.138129
O O2 0.605676 0.500000 0.147998
O O3 0.639404 0.265327 0.203026
O O4 0.689156 0.262399 0.111539
O O5 0.104831 0.500000 0.198885
O O6 0.188494 0.738674 0.234625
O O7 0.139202 0.732604 0.143557
O O8 0.000000 0.745050 0.208311
O O9 0.703816 0.500000 0.749238
O O10 0.667642 0.247975 0.700670
O O11 0.500000 0.757830 0.659507
O O12 0.351643 0.760471 0.602764
O O13 0.391948 0.000000 0.656228
O O14 0.349953 0.740398 0.500000
O O15 0.500000 0.714921 0.552287
O O16 0.373525 0.500000 0.555357
O O17 0.162900 0.755468 0.047952
O O18 0.000000 0.757766 0.000000
O O19 0.108148 0.000000 0.000000
O O20 0.203270 0.500000 0.905858
#
# Coordination Sequence:
#
# PCOD9382380 Si02
#       7
#     8   8   8   8   8   4   8
#     4   8  14  26  45  68  90 110 137 173 207 239
#     4   8  14  26  45  68  89 106 131 171 213 248
#     4   9  16  26  43  64  84 110 141 171 205 246
#     4  10  19  27  36  55  85 117 145 175 209 242
#     4   8  14  25  40  56  75 104 143 181 213 247
#     4  11  23  35  46  63  88 112 133 167 216 259
#     4   9  17  30  50  71  86 107 140 172 203 244
#
# _framework density 15.566991
#
# number of rings (size 3 to 8) (size 9 to 14) (size 15 to 20)
#    0.000    3.154    0.000    3.923    0.000    3.077 
#    0.000    5.000    0.000    5.077    0.000    0.000 
#    0.000    0.615    0.000    7.077    0.000    2.308 
#
# Total GULP energy -289519.937594 kJ/mol
# GULP energy per Si atom -5567.691108 kJ/mol
# Density = 1.553156 g / cm^3
# Si number density = 15.566991 Si / 1000 Ang^3
#
#
#
# Elastic Constant Matrix: (Units=GPa)
#
#
# Indices 1 2 3 4 5 6 
#
# 1 117.9537 16.7182 75.7406 0.0000 0.0000 0.0000
# 2 16.7182 8.1553 28.7764 0.0000 0.0000 0.0000
# 3 75.7406 28.7764 157.9968 0.0000 0.0000 0.0000
# 4 0.0000 0.0000 0.0000 -24.9484 0.0000 0.0000
# 5 0.0000 0.0000 0.0000 0.0000 16.6714 0.0000
# 6 0.0000 0.0000 0.0000 0.0000 0.0000 10.4254
#
#
#
# Elastic Compliance Matrix: (Units=1/GPa)
#
#
# Indices 1 2 3 4 5 6 
#
# 1 0.012704 -0.012745 -0.003769 0.000000 0.000000 0.000000
# 2 -0.012745 0.355940 -0.058719 0.000000 0.000000 0.000000
# 3 -0.003769 -0.058719 0.018831 0.000000 0.000000 0.000000
# 4 0.000000 0.000000 0.000000 -0.040083 0.000000 0.000000
# 5 0.000000 0.000000 0.000000 0.000000 0.059983 0.000000
# 6 0.000000 0.000000 0.000000 0.000000 0.000000 0.095920
#
#
# Mechanical properties :
#
#
# Convention : Reuss Voigt Hill
#
# Bulk Modulus (GPa) = 4.21922 58.50847 31.36385
# Shear Modulus (GPa) = 6.82348 11.28771 9.05560
#
# Velocity S-wave (km/s) = 2.09590 2.69570 2.41450
# Velocity P-wave (km/s) = 2.92803 6.88154 5.28814
#
# Compressibility (1/GPa) = 0.23701040
#
# Stress axis : x y z
#
# Youngs Moduli (GPa) = 78.71250 2.80946 53.10484
#
# Poissons Ratio (x) = 0.03581 0.20016
# Poissons Ratio (y) = 1.00316 3.11825
# Poissons Ratio (z) = 0.29667 0.16497
#
# Static dielectric constant tensor:
#      x y z
#    x 1.526170 0.000000 0.000000 
#    y 0.000000 1.523160 0.000000 
#    z 0.000000 0.000000 1.509530 
# 
# From -- ./inp_files/33786.got.cif
#   From: 2010.05.17/outbox.cif.g08.bks.cpg/sg47_17_cif.got.tgz:33786.got - 2010.06.03 20:15:42.
