data_PCOD9382675
_publ_section_title
;
Structure prediction by ZEFSAII (Michael W. Deem and Ramdas Pophale) SiO2 
 PCOD9382675
Probable space group: P M M M
;
_chemical_formula_sum "Si O2"
_cell_formula_units_Z 48
_cell_length_a 25.273587
_cell_length_b 7.921285
_cell_length_c 14.187227
_cell_angle_alpha 90.000000
_cell_angle_beta 90.000000
_cell_angle_gamma 90.000000
_cell_volume 2840.272710
_symmetry_space_group_name_H-M "P M M M"
_symmetry_group_IT_number 47
_symmetry_cell_setting 'orthorhombic'
loop_
_space_group_symop_operation_xyz
x,y,z
-x,-y,z
x,-y,-z
-x,y,-z
-x,-y,-z
x,y,-z
-x,y,z
x,-y,z
loop_
_atom_site_type_symbol
_atom_site_label
_atom_site_fract_x
_atom_site_fract_y
_atom_site_fract_z
Si Si1 0.664251 0.203766 0.394052
Si Si2 0.943065 0.799768 0.885811
Si Si3 0.722112 0.700538 0.790480
Si Si4 0.171561 0.202789 0.892361
Si Si5 0.384075 0.295427 0.106663
Si Si6 0.558389 0.202188 0.707561
O O1 0.674391 0.264063 0.500000
O O2 0.707481 0.251078 0.316090
O O3 0.607356 0.266985 0.355093
O O4 0.661830 0.000000 0.396179
O O5 0.885617 0.731541 0.856248
O O6 0.000000 0.727487 0.854206
O O7 0.944200 0.000000 0.863091
O O8 0.942164 0.788161 0.000000
O O9 0.721289 0.500000 0.797564
O O10 0.778446 0.759271 0.828010
O O11 0.673393 0.764637 0.855551
O O12 0.166596 0.000000 0.897882
O O13 0.180697 0.264670 0.000000
O O14 0.383837 0.500000 0.106651
O O15 0.426246 0.238035 0.184197
O O16 0.393726 0.238171 0.000000
O O17 0.500000 0.269144 0.684989
O O18 0.557081 0.000000 0.694916
#
# Coordination Sequence:
#
# PCOD9382675 Si02
#       6
#     8   8   8   8   8   8
#     4   9  18  33  51  67  83 105 133 168 212 259
#     4   7  10  18  33  54  81 113 148 182 211 238
#     4  10  19  30  44  62  86 113 142 177 214 254
#     4   9  16  25  40  63  89 118 151 183 212 243
#     4   9  18  31  44  58  80 113 147 173 200 237
#     4   9  18  31  46  66  88 106 129 164 206 252
#
# _framework density 16.899785999999999
#
# number of rings (size 3 to 8) (size 9 to 14) (size 15 to 20)
#    0.000    3.167    0.000    2.500    0.000    3.333 
#    0.000    3.333    0.000    0.500    0.000    7.000 
#    0.000    0.667    0.000    7.667    0.000    2.500 
#
# Total GULP energy -267259.592076 kJ/mol
# GULP energy per Si atom -5567.908168 kJ/mol
# Density = 1.686132 g / cm^3
# Si number density = 16.899786 Si / 1000 Ang^3
#
#
#
# Elastic Constant Matrix: (Units=GPa)
#
#
# Indices 1 2 3 4 5 6 
#
# 1 148.0415 7.1977 47.0995 0.0000 0.0000 0.0000
# 2 7.1977 15.0016 2.0351 0.0000 0.0000 0.0000
# 3 47.0995 2.0351 75.0484 0.0000 0.0000 0.0000
# 4 0.0000 0.0000 0.0000 1.9876 0.0000 0.0000
# 5 0.0000 0.0000 0.0000 0.0000 11.7584 0.0000
# 6 0.0000 0.0000 0.0000 0.0000 0.0000 -0.3028
#
#
#
# Elastic Compliance Matrix: (Units=1/GPa)
#
#
# Indices 1 2 3 4 5 6 
#
# 1 0.008611 -0.003411 -0.005311 0.000000 0.000000 0.000000
# 2 -0.003411 0.068257 0.000290 0.000000 0.000000 0.000000
# 3 -0.005311 0.000290 0.016650 0.000000 0.000000 0.000000
# 4 0.000000 0.000000 0.000000 0.503131 0.000000 0.000000
# 5 0.000000 0.000000 0.000000 0.000000 0.085046 0.000000
# 6 0.000000 0.000000 0.000000 0.000000 0.000000 -3.302961
#
#
# Mechanical properties :
#
#
# Convention : Reuss Voigt Hill
#
# Bulk Modulus (GPa) = 13.04587 38.97291 26.00939
# Shear Modulus (GPa) = -1.93885 14.80590 6.43353
#
# Velocity S-wave (km/s) = -1.07227 2.96311 1.95324
# Velocity P-wave (km/s) = 2.49064 5.90067 4.52887
#
# Compressibility (1/GPa) = 0.07665259
#
# Stress axis : x y z
#
# Youngs Moduli (GPa) = 116.13714 14.65053 60.05916
#
# Poissons Ratio (x) = 0.04997 0.31900
# Poissons Ratio (y) = 0.39612 -0.01739
# Poissons Ratio (z) = 0.61685 -0.00424
#
# Static dielectric constant tensor:
#      x y z
#    x 1.620380 0.000000 0.000000 
#    y 0.000000 1.605140 0.000000 
#    z 0.000000 0.000000 1.550840 
# 
# From -- ./inp_files/4336.got.cif
#   From: 2010.05.17/outbox.cif.g08.bks.cpg/sg47_3_cif.got.tgz:4336.got - 2010.06.03 20:15:42.
