data_PCOD9382782
_publ_section_title
;
Structure prediction by ZEFSAII (Michael W. Deem and Ramdas Pophale) SiO2 
 PCOD9382782
Probable space group: P M M M
;
_chemical_formula_sum "Si O2"
_cell_formula_units_Z 44
_cell_length_a 32.713670
_cell_length_b 8.015680
_cell_length_c 9.233945
_cell_angle_alpha 90.000000
_cell_angle_beta 90.000000
_cell_angle_gamma 90.000000
_cell_volume 2421.346392
_symmetry_space_group_name_H-M "P M M M"
_symmetry_group_IT_number 47
_symmetry_cell_setting 'orthorhombic'
loop_
_space_group_symop_operation_xyz
x,y,z
-x,-y,z
x,-y,-z
-x,y,-z
-x,-y,-z
x,y,-z
-x,y,z
x,-y,z
loop_
_atom_site_type_symbol
_atom_site_label
_atom_site_fract_x
_atom_site_fract_y
_atom_site_fract_z
Si Si1 0.160294 0.299304 0.835248
Si Si2 0.000000 0.301547 0.162461
Si Si3 0.397061 0.000000 0.676038
Si Si4 0.080163 0.801396 0.337402
Si Si5 0.690816 0.000000 0.824360
Si Si6 0.547022 0.688513 0.675987
Si Si7 0.251453 0.692211 0.176197
O O1 0.160613 0.500000 0.842692
O O2 0.122391 0.247100 0.738757
O O3 0.205539 0.253978 0.779489
O O4 0.155222 0.235103 0.000000
O O5 0.040887 0.252195 0.246245
O O6 0.000000 0.500000 0.152181
O O7 0.000000 0.230088 0.000000
O O8 0.422643 0.164673 0.720261
O O9 0.393575 0.000000 0.500000
O O10 0.353000 0.000000 0.749125
O O11 0.078083 0.731235 0.500000
O O12 0.078963 0.000000 0.345882
O O13 0.716026 0.166985 0.782390
O O14 0.686943 0.000000 0.000000
O O15 0.546925 0.688532 0.500000
O O16 0.500000 0.720665 0.720766
O O17 0.558366 0.500000 0.722177
O O18 0.259634 0.500000 0.223522
O O19 0.250390 0.687927 0.000000
#
# Coordination Sequence:
#
# PCOD9382782 Si02
#       7
#     8   4   4   8   4   8   8
#     4   9  18  34  57  82 102 125 167 217 257 297
#     4  11  24  41  60  80 102 133 176 217 248 290
#     4  10  19  30  46  72 102 130 163 213 262 303
#     4  11  24  38  53  79 112 141 167 200 248 308
#     4  10  20  33  51  73 100 139 177 206 256 315
#     4   8  14  26  46  71  97 128 169 214 258 305
#     4   8  16  32  53  76 100 128 171 221 256 297
#
# _framework density 18.171707999999999
#
# number of rings (size 3 to 8) (size 9 to 14) (size 15 to 20)
#    0.000    2.636    0.000    3.545    1.273    7.636 
#    0.000    0.909    0.000    2.182    0.000    1.273 
#    0.000    0.000    0.000    0.000    0.000    0.000 
#
# Total GULP energy -245316.836132 kJ/mol
# GULP energy per Si atom -5575.382639 kJ/mol
# Density = 1.813035 g / cm^3
# Si number density = 18.171708 Si / 1000 Ang^3
#
#
#
# Elastic Constant Matrix: (Units=GPa)
#
#
# Indices 1 2 3 4 5 6 
#
# 1 187.9032 101.8978 58.9665 0.0000 0.0000 0.0000
# 2 101.8978 105.0391 33.6030 0.0000 0.0000 0.0000
# 3 58.9665 33.6030 58.0438 0.0000 0.0000 0.0000
# 4 0.0000 0.0000 0.0000 16.2029 0.0000 0.0000
# 5 0.0000 0.0000 0.0000 0.0000 36.0790 0.0000
# 6 0.0000 0.0000 0.0000 0.0000 0.0000 24.1218
#
#
#
# Elastic Compliance Matrix: (Units=1/GPa)
#
#
# Indices 1 2 3 4 5 6 
#
# 1 0.013450 -0.010649 -0.007499 0.000000 0.000000 0.000000
# 2 -0.010649 0.020115 -0.000827 0.000000 0.000000 0.000000
# 3 -0.007499 -0.000827 0.025325 0.000000 0.000000 0.000000
# 4 0.000000 0.000000 0.000000 0.061717 0.000000 0.000000
# 5 0.000000 0.000000 0.000000 0.000000 0.027717 0.000000
# 6 0.000000 0.000000 0.000000 0.000000 0.000000 0.041456
#
#
# Mechanical properties :
#
#
# Convention : Reuss Voigt Hill
#
# Bulk Modulus (GPa) = 47.75364 82.21340 64.98352
# Shear Modulus (GPa) = 21.30290 25.71534 23.50912
#
# Velocity S-wave (km/s) = 3.42762 3.76590 3.60074
# Velocity P-wave (km/s) = 6.48081 8.01562 7.28873
#
# Compressibility (1/GPa) = 0.02094081
#
# Stress axis : x y z
#
# Youngs Moduli (GPa) = 74.35118 49.71420 39.48621
#
# Poissons Ratio (x) = 0.52938 0.29610
# Poissons Ratio (y) = 0.79173 0.03266
# Poissons Ratio (z) = 0.55755 0.04113
#
# Static dielectric constant tensor:
#      x y z
#    x 1.463060 0.000000 0.000000 
#    y 0.000000 1.637840 0.000000 
#    z 0.000000 0.000000 1.638540 
# 
# From -- ./inp_files/13719.got.cif
#   From: 2010.05.17/outbox.cif.g08.bks.cpg/sg47_7_cif.got.tgz:13719.got - 2010.06.03 20:15:42.
