data_PCOD9382077
_publ_section_title
;
Structure prediction by ZEFSAII (Michael W. Deem and Ramdas Pophale) SiO2 
 PCOD9382077
Probable space group: P M M M
;
_chemical_formula_sum "Si O2"
_cell_formula_units_Z 52
_cell_length_a 14.857871
_cell_length_b 21.439717
_cell_length_c 7.470824
_cell_angle_alpha 90.000000
_cell_angle_beta 90.000000
_cell_angle_gamma 90.000000
_cell_volume 2379.820148
_symmetry_space_group_name_H-M "P M M M"
_symmetry_group_IT_number 47
_symmetry_cell_setting 'orthorhombic'
loop_
_space_group_symop_operation_xyz
x,y,z
-x,-y,z
x,-y,-z
-x,y,-z
-x,-y,-z
x,y,-z
-x,y,z
x,-y,z
loop_
_atom_site_type_symbol
_atom_site_label
_atom_site_fract_x
_atom_site_fract_y
_atom_site_fract_z
Si Si1 0.601983 0.670716 0.289224
Si Si2 0.105060 0.500000 0.780440
Si Si3 0.287005 0.067589 0.218805
Si Si4 0.100624 0.882277 0.781573
Si Si5 0.210730 0.378001 0.210768
Si Si6 0.602317 0.187104 0.784730
Si Si7 0.896463 0.259978 0.217390
O O1 0.595436 0.662335 0.500000
O O2 0.500000 0.663274 0.214167
O O3 0.681593 0.625565 0.227039
O O4 0.631907 0.742395 0.255557
O O5 0.159597 0.561199 0.719100
O O6 0.000000 0.500000 0.727052
O O7 0.105347 0.500000 0.000000
O O8 0.183133 0.075028 0.272946
O O9 0.339421 0.129065 0.280872
O O10 0.323008 0.000000 0.275041
O O11 0.289748 0.068568 0.000000
O O12 0.120728 0.810944 0.724450
O O13 0.000000 0.899268 0.722784
O O14 0.099095 0.882446 0.000000
O O15 0.168381 0.314018 0.285368
O O16 0.190472 0.377256 0.000000
O O17 0.500000 0.181609 0.719072
O O18 0.601605 0.182929 0.000000
O O19 0.000000 0.275402 0.260764
O O20 0.889656 0.257861 0.000000
#
# Coordination Sequence:
#
# PCOD9382077 Si02
#       7
#     8   4   8   8   8   8   8
#     4  10  21  36  53  73  97 126 163 209 258 300
#     4   9  18  32  52  83 118 144 167 197 236 285
#     4   9  16  24  36  59  91 123 154 190 234 286
#     4   8  13  20  30  49  81 118 152 186 226 271
#     4  10  18  30  52  78 104 135 167 199 237 284
#     4   9  17  30  49  71  93 119 154 197 245 297
#     4   8  13  22  40  67  95 123 157 196 237 281
#
# _framework density 21.850390999999998
#
# number of rings (size 3 to 8) (size 9 to 14) (size 15 to 20)
#    0.000    3.000    0.000    2.769    0.000    5.846 
#    0.000    3.846    0.000    5.077    0.000    2.154 
#    0.000    0.000    0.000    5.538    0.000    4.923 
#
# Total GULP energy -290123.345930 kJ/mol
# GULP energy per Si atom -5579.295114 kJ/mol
# Density = 2.180066 g / cm^3
# Si number density = 21.850391 Si / 1000 Ang^3
#
#
#
# Elastic Constant Matrix: (Units=GPa)
#
#
# Indices 1 2 3 4 5 6 
#
# 1 112.0700 81.9234 -5.9730 0.0000 0.0000 0.0000
# 2 81.9234 85.5839 -2.3504 0.0000 0.0000 0.0000
# 3 -5.9730 -2.3504 57.7889 0.0000 0.0000 0.0000
# 4 0.0000 0.0000 0.0000 109.9778 0.0000 0.0000
# 5 0.0000 0.0000 0.0000 0.0000 -42.1744 0.0000
# 6 0.0000 0.0000 0.0000 0.0000 0.0000 -10.0203
#
#
#
# Elastic Compliance Matrix: (Units=1/GPa)
#
#
# Indices 1 2 3 4 5 6 
#
# 1 0.029931 -0.028598 0.001930 0.000000 0.000000 0.000000
# 2 -0.028598 0.039021 -0.001369 0.000000 0.000000 0.000000
# 3 0.001930 -0.001369 0.017448 0.000000 0.000000 0.000000
# 4 0.000000 0.000000 0.000000 0.009093 0.000000 0.000000
# 5 0.000000 0.000000 0.000000 0.000000 -0.023711 0.000000
# 6 0.000000 0.000000 0.000000 0.000000 0.000000 -0.099797
#
#
# Mechanical properties :
#
#
# Convention : Reuss Voigt Hill
#
# Bulk Modulus (GPa) = 32.97215 44.73810 38.85512
# Shear Modulus (GPa) = 131.00492 23.67945 77.34219
#
# Velocity S-wave (km/s) = 7.75149 3.29554 5.95593
# Velocity P-wave (km/s) = 9.75893 5.91608 8.06960
#
# Compressibility (1/GPa) = 0.03032863
#
# Stress axis : x y z
#
# Youngs Moduli (GPa) = 33.41032 25.62694 57.31238
#
# Poissons Ratio (x) = 0.73287 -0.11064
# Poissons Ratio (y) = 0.95546 0.07845
# Poissons Ratio (z) = -0.06450 0.03508
#
# Static dielectric constant tensor:
#      x y z
#    x 1.818060 0.000000 0.000000 
#    y 0.000000 1.785140 0.000000 
#    z 0.000000 0.000000 1.852690 
# 
# From -- ./inp_files/6990.got.cif
#   From: 2010.05.17/outbox.cif.g08.bks.cpg/sg47_4_cif.got.tgz:6990.got - 2010.06.03 20:15:42.
