data_PCOD9382755
_publ_section_title
;
Structure prediction by ZEFSAII (Michael W. Deem and Ramdas Pophale) SiO2 
 PCOD9382755
Probable space group: P M M M
;
_chemical_formula_sum "Si O2"
_cell_formula_units_Z 48
_cell_length_a 21.121012
_cell_length_b 14.746659
_cell_length_c 7.391494
_cell_angle_alpha 90.000000
_cell_angle_beta 90.000000
_cell_angle_gamma 90.000000
_cell_volume 2302.186961
_symmetry_space_group_name_H-M "P M M M"
_symmetry_group_IT_number 47
_symmetry_cell_setting 'orthorhombic'
loop_
_space_group_symop_operation_xyz
x,y,z
-x,-y,z
x,-y,-z
-x,y,-z
-x,-y,-z
x,y,-z
-x,y,z
x,-y,z
loop_
_atom_site_type_symbol
_atom_site_label
_atom_site_fract_x
_atom_site_fract_y
_atom_site_fract_z
Si Si1 0.680183 0.398524 0.781634
Si Si2 0.620723 0.783194 0.210809
Si Si3 0.126537 0.208346 0.721375
Si Si4 0.170823 0.600532 0.714232
Si Si5 0.253384 0.895925 0.718762
Si Si6 0.500000 0.104802 0.222008
Si Si7 0.000000 0.104729 0.279081
O O1 0.663606 0.500000 0.718485
O O2 0.637614 0.315864 0.712387
O O3 0.753975 0.382179 0.736173
O O4 0.676615 0.398624 0.000000
O O5 0.684599 0.841872 0.222555
O O6 0.562228 0.840937 0.284051
O O7 0.605619 0.768474 0.000000
O O8 0.126613 0.209121 0.500000
O O9 0.133453 0.312221 0.783899
O O10 0.189289 0.153911 0.777692
O O11 0.063111 0.157369 0.778353
O O12 0.158503 0.596402 0.500000
O O13 0.157455 0.500000 0.789460
O O14 0.253211 0.895764 0.500000
O O15 0.255091 0.000000 0.779338
O O16 0.500000 0.000000 0.279971
O O17 0.500000 0.102448 0.000000
O O18 0.000000 0.104099 0.500000
O O19 0.000000 0.000000 0.221502
#
# Coordination Sequence:
#
# PCOD9382755 Si02
#       7
#     8   8   8   8   8   4   4
#     4   9  17  29  46  70  96 119 149 191 234 274
#     4  10  19  32  50  70  92 122 158 191 229 277
#     4   9  16  27  42  64  93 122 155 191 228 273
#     4   9  16  27  45  68  93 121 151 186 234 283
#     4  10  19  30  46  69  95 120 152 198 240 271
#     4   9  18  32  48  66  92 125 157 189 228 277
#     4   9  16  26  41  61  90 129 161 185 226 282
#
# _framework density 20.849741000000002
#
# number of rings (size 3 to 8) (size 9 to 14) (size 15 to 20)
#    0.000    2.667    1.667    1.000    0.000    3.000 
#    0.000    1.250    0.000    6.500    0.000    2.333 
#    0.000   10.667    0.000    0.000    0.000    0.000 
#
# Total GULP energy -267973.368894 kJ/mol
# GULP energy per Si atom -5582.778519 kJ/mol
# Density = 2.080229 g / cm^3
# Si number density = 20.849741 Si / 1000 Ang^3
#
#
#
# Elastic Constant Matrix: (Units=GPa)
#
#
# Indices 1 2 3 4 5 6 
#
# 1 159.2166 114.9260 -5.7331 0.0000 0.0000 0.0000
# 2 114.9260 240.4988 3.8860 0.0000 0.0000 0.0000
# 3 -5.7331 3.8860 71.3385 0.0000 0.0000 0.0000
# 4 0.0000 0.0000 0.0000 3.9140 0.0000 0.0000
# 5 0.0000 0.0000 0.0000 0.0000 -532.8390 0.0000
# 6 0.0000 0.0000 0.0000 0.0000 0.0000 34.1765
#
#
#
# Elastic Compliance Matrix: (Units=1/GPa)
#
#
# Indices 1 2 3 4 5 6 
#
# 1 0.009663 -0.004634 0.001029 0.000000 0.000000 0.000000
# 2 -0.004634 0.006384 -0.000720 0.000000 0.000000 0.000000
# 3 0.001029 -0.000720 0.014140 0.000000 0.000000 0.000000
# 4 0.000000 0.000000 0.000000 0.255492 0.000000 0.000000
# 5 0.000000 0.000000 0.000000 0.000000 -0.001877 0.000000
# 6 0.000000 0.000000 0.000000 0.000000 0.000000 0.029260
#
#
# Mechanical properties :
#
#
# Convention : Reuss Voigt Hill
#
# Bulk Modulus (GPa) = 46.43412 77.46796 61.95104
# Shear Modulus (GPa) = 15.20262 -75.08470 -29.94104
#
# Velocity S-wave (km/s) = 2.70321 -6.00753 -3.79362
# Velocity P-wave (km/s) = 5.66236 3.29918 3.25405
#
# Compressibility (1/GPa) = 0.02153589
#
# Stress axis : x y z
#
# Youngs Moduli (GPa) = 103.48921 156.63757 70.72335
#
# Poissons Ratio (x) = 0.72588 -0.07277
# Poissons Ratio (y) = 0.47959 0.05093
# Poissons Ratio (z) = -0.10649 0.11281
#
# Static dielectric constant tensor:
#      x y z
#    x 1.681360 0.000000 0.000000 
#    y 0.000000 1.756870 0.000000 
#    z 0.000000 0.000000 1.889320 
# 
# From -- ./inp_files/9141.got.cif
#   From: 2010.05.17/outbox.cif.g08.bks.cpg/sg47_5_cif.got.tgz:9141.got - 2010.06.03 20:15:42.
