data_PCOD9382940
_publ_section_title
;
Structure prediction by ZEFSAII (Michael W. Deem and Ramdas Pophale) SiO2 
 PCOD9382940
Probable space group: P M M M
;
_chemical_formula_sum "Si O2"
_cell_formula_units_Z 48
_cell_length_a 22.472327
_cell_length_b 8.957083
_cell_length_c 18.933924
_cell_angle_alpha 90.000000
_cell_angle_beta 90.000000
_cell_angle_gamma 90.000000
_cell_volume 3811.143258
_symmetry_space_group_name_H-M "P M M M"
_symmetry_group_IT_number 47
_symmetry_cell_setting 'orthorhombic'
loop_
_space_group_symop_operation_xyz
x,y,z
-x,-y,z
x,-y,-z
-x,y,-z
-x,-y,-z
x,y,-z
-x,y,z
x,-y,z
loop_
_atom_site_type_symbol
_atom_site_label
_atom_site_fract_x
_atom_site_fract_y
_atom_site_fract_z
Si Si1 0.000000 0.172711 0.413891
Si Si2 0.571312 0.174821 0.500000
Si Si3 0.428772 0.179839 0.768468
Si Si4 0.634507 0.321780 0.634442
Si Si5 0.877881 0.671776 0.414144
Si Si6 0.428820 0.179761 0.075875
Si Si7 0.754023 0.176957 0.415359
O O1 0.939627 0.253987 0.390488
O O2 0.000000 0.176244 0.500000
O O3 0.000000 0.000000 0.392810
O O4 0.500000 0.183095 0.500000
O O5 0.597452 0.253056 0.569197
O O6 0.588980 0.000000 0.500000
O O7 0.500000 0.206711 0.762381
O O8 0.394150 0.260988 0.706351
O O9 0.408054 0.230779 0.846924
O O10 0.420772 0.000000 0.762917
O O11 0.632689 0.500000 0.631698
O O12 0.701522 0.262857 0.623987
O O13 0.879321 0.672520 0.500000
O O14 0.873758 0.500000 0.391456
O O15 0.819016 0.763084 0.394288
O O16 0.500000 0.205516 0.075614
O O17 0.421119 0.000000 0.075699
O O18 0.405294 0.236865 0.000000
O O19 0.746973 0.203184 0.500000
O O20 0.749555 0.000000 0.403615
#
# Coordination Sequence:
#
# PCOD9382940 Si02
#       7
#     4   4   8   8   8   8   8
#     4   9  15  23  35  53  75  97 121 145 178 221
#     4  11  23  37  49  57  67  88 121 160 201 241
#     4   9  17  29  44  60  78  99 122 151 189 231
#     4  12  23  32  43  57  75  96 123 158 196 235
#     4   9  16  25  38  55  75  94 116 148 188 226
#     4   7  10  19  38  62  81  95 115 144 177 216
#     4  10  19  31  45  56  69  92 124 158 193 232
#
# _framework density 12.594645999999999
#
# number of rings (size 3 to 8) (size 9 to 14) (size 15 to 20)
#    0.000    2.500    0.833    5.000    0.000    6.667 
#    0.000    0.000    0.000    0.500    0.000    2.333 
#    0.000    0.000    0.000    0.000    0.000    0.000 
#
# Total GULP energy -267371.669843 kJ/mol
# GULP energy per Si atom -5570.243122 kJ/mol
# Density = 1.256598 g / cm^3
# Si number density = 12.594646 Si / 1000 Ang^3
#
#
#
# Elastic Constant Matrix: (Units=GPa)
#
#
# Indices 1 2 3 4 5 6 
#
# 1 78.6147 47.8661 40.9811 0.0000 0.0000 0.0000
# 2 47.8661 77.1274 41.3914 0.0000 0.0000 0.0000
# 3 40.9811 41.3914 94.7706 0.0000 0.0000 0.0000
# 4 0.0000 0.0000 0.0000 0.9819 0.0000 0.0000
# 5 0.0000 0.0000 0.0000 0.0000 0.0006 0.0000
# 6 0.0000 0.0000 0.0000 0.0000 0.0000 34.9900
#
#
#
# Elastic Compliance Matrix: (Units=1/GPa)
#
#
# Indices 1 2 3 4 5 6 
#
# 1 0.021889 -0.011109 -0.004614 0.000000 0.000000 0.000000
# 2 -0.011109 0.022572 -0.005055 0.000000 0.000000 0.000000
# 3 -0.004614 -0.005055 0.014755 0.000000 0.000000 0.000000
# 4 0.000000 0.000000 0.000000 1.018419 0.000000 0.000000
# 5 0.000000 0.000000 0.000000 0.000000********** 0.000000
# 6 0.000000 0.000000 0.000000 0.000000 0.000000 0.028580
#
#
# Mechanical properties :
#
#
# Convention : Reuss Voigt Hill
#
# Bulk Modulus (GPa) = 56.61965 56.77665 56.69815
# Shear Modulus (GPa) = 0.00313 15.21280 7.60796
#
# Velocity S-wave (km/s) = 0.04987 3.47922 2.46044
# Velocity P-wave (km/s) = 6.71239 7.83057 7.29295
#
# Compressibility (1/GPa) = 0.01766171
#
# Stress axis : x y z
#
# Youngs Moduli (GPa) = 45.68512 44.30177 67.77543
#
# Poissons Ratio (x) = 0.49213 0.31269
# Poissons Ratio (y) = 0.50750 0.34260
# Poissons Ratio (z) = 0.21077 0.22394
#
# Static dielectric constant tensor:
#      x y z
#    x 1.398960 0.000000 0.000000 
#    y 0.000000 1.415550 0.000000 
#    z 0.000000 0.000000 1.411040 
# 
# From -- ./inp_files/9712.got.cif
#   From: 2010.05.17/outbox.cif.g08.bks.cpg/sg47_5_cif.got.tgz:9712.got - 2010.06.03 20:15:42.
