data_PCOD9382625
_publ_section_title
;
Structure prediction by ZEFSAII (Michael W. Deem and Ramdas Pophale) SiO2 
 PCOD9382625
Probable space group: P M M M
;
_chemical_formula_sum "Si O2"
_cell_formula_units_Z 44
_cell_length_a 13.966550
_cell_length_b 8.944464
_cell_length_c 21.704444
_cell_angle_alpha 90.000000
_cell_angle_beta 90.000000
_cell_angle_gamma 90.000000
_cell_volume 2711.390849
_symmetry_space_group_name_H-M "P M M M"
_symmetry_group_IT_number 47
_symmetry_cell_setting 'orthorhombic'
loop_
_space_group_symop_operation_xyz
x,y,z
-x,-y,z
x,-y,-z
-x,y,-z
-x,-y,-z
x,y,-z
-x,y,z
x,-y,z
loop_
_atom_site_type_symbol
_atom_site_label
_atom_site_fract_x
_atom_site_fract_y
_atom_site_fract_z
Si Si1 0.608346 0.820168 0.191417
Si Si2 0.891707 0.321516 0.758775
Si Si3 0.298467 0.678147 0.311066
Si Si4 0.387351 0.820353 0.569769
Si Si5 0.887164 0.320671 0.000000
Si Si6 0.200374 0.821116 0.877744
O O1 0.500000 0.778906 0.173855
O O2 0.636841 0.746789 0.256425
O O3 0.690812 0.779989 0.142272
O O4 0.612175 0.000000 0.198895
O O5 0.885344 0.500000 0.771503
O O6 0.810736 0.286282 0.708487
O O7 0.864352 0.234304 0.820779
O O8 0.000000 0.287739 0.739640
O O9 0.310128 0.500000 0.311547
O O10 0.327904 0.744772 0.376347
O O11 0.359903 0.776385 0.500000
O O12 0.500000 0.784069 0.577854
O O13 0.378853 0.000000 0.574171
O O14 0.836120 0.255680 0.060430
O O15 0.881374 0.500000 0.000000
O O16 0.000000 0.279188 0.000000
O O17 0.194819 0.000000 0.883836
#
# Coordination Sequence:
#
# PCOD9382625 Si02
#       6
#     8   8   8   8   4   8
#     4   9  18  33  51  70  96 129 158 185 226 280
#     4   9  18  33  50  68  95 128 156 186 232 285
#     4  10  19  29  46  73  98 121 155 197 234 270
#     4   9  18  32  48  66  92 127 160 188 227 281
#     4  11  23  37  52  69  94 128 157 185 234 293
#     4  10  20  33  51  75  97 119 155 199 233 266
#
# _framework density 16.227834000000001
#
# number of rings (size 3 to 8) (size 9 to 14) (size 15 to 20)
#    0.000    2.455    0.000    3.000    0.000    8.000 
#    0.000    1.364    0.000    3.273    0.000    3.818 
#    0.000    0.000    0.000    0.000    0.000    0.000 
#
# Total GULP energy -245409.407839 kJ/mol
# GULP energy per Si atom -5577.486542 kJ/mol
# Density = 1.619090 g / cm^3
# Si number density = 16.227834 Si / 1000 Ang^3
#
#
#
# Elastic Constant Matrix: (Units=GPa)
#
#
# Indices 1 2 3 4 5 6 
#
# 1 132.4564 45.1210 83.0413 0.0000 0.0000 0.0000
# 2 45.1210 32.9990 52.5853 0.0000 0.0000 0.0000
# 3 83.0413 52.5853 151.2619 0.0000 0.0000 0.0000
# 4 0.0000 0.0000 0.0000 15.2572 0.0000 0.0000
# 5 0.0000 0.0000 0.0000 0.0000 14.4137 0.0000
# 6 0.0000 0.0000 0.0000 0.0000 0.0000 24.2011
#
#
#
# Elastic Compliance Matrix: (Units=1/GPa)
#
#
# Indices 1 2 3 4 5 6 
#
# 1 0.014509 -0.016022 -0.002396 0.000000 0.000000 0.000000
# 2 -0.016022 0.085636 -0.020975 0.000000 0.000000 0.000000
# 3 -0.002396 -0.020975 0.015218 0.000000 0.000000 0.000000
# 4 0.000000 0.000000 0.000000 0.065543 0.000000 0.000000
# 5 0.000000 0.000000 0.000000 0.000000 0.069378 0.000000
# 6 0.000000 0.000000 0.000000 0.000000 0.000000 0.041320
#
#
# Mechanical properties :
#
#
# Convention : Reuss Voigt Hill
#
# Bulk Modulus (GPa) = 27.33854 75.35695 51.34775
# Shear Modulus (GPa) = 13.06911 19.83906 16.45408
#
# Velocity S-wave (km/s) = 2.84095 3.50027 3.18770
# Velocity P-wave (km/s) = 5.25781 7.92928 6.72748
#
# Compressibility (1/GPa) = 0.03657840
#
# Stress axis : x y z
#
# Youngs Moduli (GPa) = 68.92127 11.67739 65.71150
#
# Poissons Ratio (x) = 0.18709 0.15742
# Poissons Ratio (y) = 1.10424 1.37829
# Poissons Ratio (z) = 0.16511 0.24493
#
# Static dielectric constant tensor:
#      x y z
#    x 1.554350 0.000000 0.000000 
#    y 0.000000 1.541470 0.000000 
#    z 0.000000 0.000000 1.509540 
# 
# From -- ./inp_files/24319.got.cif
#   From: 2010.05.17/outbox.cif.g08.bks.cpg/sg47_13_cif.got.tgz:24319.got - 2010.06.03 20:15:42.
