data_PCOD9382507
_publ_section_title
;
Structure prediction by ZEFSAII (Michael W. Deem and Ramdas Pophale) SiO2 
 PCOD9382507
Probable space group: P M M M
;
_chemical_formula_sum "Si O2"
_cell_formula_units_Z 36
_cell_length_a 7.993576
_cell_length_b 7.294779
_cell_length_c 29.096681
_cell_angle_alpha 90.000000
_cell_angle_beta 90.000000
_cell_angle_gamma 90.000000
_cell_volume 1696.667341
_symmetry_space_group_name_H-M "P M M M"
_symmetry_group_IT_number 47
_symmetry_cell_setting 'orthorhombic'
loop_
_space_group_symop_operation_xyz
x,y,z
-x,-y,z
x,-y,-z
-x,y,-z
-x,-y,-z
x,y,-z
-x,y,z
x,-y,z
loop_
_atom_site_type_symbol
_atom_site_label
_atom_site_fract_x
_atom_site_fract_y
_atom_site_fract_z
Si Si1 0.000000 0.218461 0.887817
Si Si2 0.310769 0.277086 0.614470
Si Si3 0.688770 0.276763 0.279830
Si Si4 0.311209 0.223145 0.052880
Si Si5 0.000000 0.281470 0.220468
Si Si6 0.000000 0.276098 0.552870
O O1 0.167152 0.287452 0.912964
O O2 0.000000 0.249727 0.833665
O O3 0.000000 0.000000 0.894787
O O4 0.500000 0.219817 0.602428
O O5 0.310346 0.500000 0.613953
O O6 0.276747 0.223256 0.667316
O O7 0.165700 0.217056 0.580237
O O8 0.500000 0.218849 0.267775
O O9 0.688199 0.500000 0.279253
O O10 0.832890 0.212680 0.245672
O O11 0.500000 0.281529 0.064780
O O12 0.312090 0.000000 0.053625
O O13 0.276247 0.275758 0.000000
O O14 0.000000 0.500000 0.227305
O O15 0.000000 0.500000 0.553185
O O16 0.000000 0.218474 0.500000
#
# Coordination Sequence:
#
# PCOD9382507 Si02
#       6
#     4   8   8   8   4   4
#     4  10  19  29  43  65  90 111 131 161 203 244
#     4   8  13  21  32  44  59  83 118 159 196 227
#     4   8  14  25  40  55  70  93 130 172 204 230
#     4   8  14  26  45  66  84 105 137 171 196 225
#     4  10  19  29  42  60  82 108 136 167 203 240
#     4   9  15  19  24  38  61  88 117 152 196 241
#
# _framework density 21.218064999999999
#
# number of rings (size 3 to 8) (size 9 to 14) (size 15 to 20)
#    0.000    3.444    0.000    3.000    0.000    5.333 
#    0.000    2.222    0.000    1.333    0.000    1.556 
#    0.000    0.000    0.000    0.000    0.000    8.889 
#
# Total GULP energy -200957.492003 kJ/mol
# GULP energy per Si atom -5582.152556 kJ/mol
# Density = 2.116977 g / cm^3
# Si number density = 21.218065 Si / 1000 Ang^3
#
#
#
# Elastic Constant Matrix: (Units=GPa)
#
#
# Indices 1 2 3 4 5 6 
#
# 1 241.8890 7.8815 181.6498 0.0000 0.0000 0.0000
# 2 7.8815 88.3495 2.2058 0.0000 0.0000 0.0000
# 3 181.6498 2.2058 184.6520 0.0000 0.0000 0.0000
# 4 0.0000 0.0000 0.0000 9.6570 0.0000 0.0000
# 5 0.0000 0.0000 0.0000 0.0000 1.3820 0.0000
# 6 0.0000 0.0000 0.0000 0.0000 0.0000 -17.1890
#
#
#
# Elastic Compliance Matrix: (Units=1/GPa)
#
#
# Indices 1 2 3 4 5 6 
#
# 1 0.015918 -0.001029 -0.015647 0.000000 0.000000 0.000000
# 2 -0.001029 0.011389 0.000877 0.000000 0.000000 0.000000
# 3 -0.015647 0.000877 0.020797 0.000000 0.000000 0.000000
# 4 0.000000 0.000000 0.000000 0.103552 0.000000 0.000000
# 5 0.000000 0.000000 0.000000 0.000000 0.723570 0.000000
# 6 0.000000 0.000000 0.000000 0.000000 0.000000 -0.058177
#
#
# Mechanical properties :
#
#
# Convention : Reuss Voigt Hill
#
# Bulk Modulus (GPa) = 60.58812 99.81831 80.20321
# Shear Modulus (GPa) = 5.85378 20.31357 13.08367
#
# Velocity S-wave (km/s) = 1.66279 3.09750 2.48590
# Velocity P-wave (km/s) = 5.68361 7.74202 6.79125
#
# Compressibility (1/GPa) = 0.01650489
#
# Stress axis : x y z
#
# Youngs Moduli (GPa) = 62.82320 87.80696 48.08310
#
# Poissons Ratio (x) = 0.09038 0.75234
# Poissons Ratio (y) = 0.06467 -0.04215
# Poissons Ratio (z) = 0.98297 -0.07697
#
# Static dielectric constant tensor:
#      x y z
#    x 1.746120 0.000000 0.000000 
#    y 0.000000 1.914470 0.000000 
#    z 0.000000 0.000000 1.700960 
# 
# From -- ./inp_files/29296.got.cif
#   From: 2010.05.17/outbox.cif.g08.bks.cpg/sg47_15_cif.got.tgz:29296.got - 2010.06.03 20:15:42.
