data_PCOD9382607
_publ_section_title
;
Structure prediction by ZEFSAII (Michael W. Deem and Ramdas Pophale) SiO2 
 PCOD9382607
Probable space group: P M M M
;
_chemical_formula_sum "Si O2"
_cell_formula_units_Z 64
_cell_length_a 19.622627
_cell_length_b 24.195511
_cell_length_c 8.959227
_cell_angle_alpha 90.000000
_cell_angle_beta 90.000000
_cell_angle_gamma 90.000000
_cell_volume 4253.657203
_symmetry_space_group_name_H-M "P M M M"
_symmetry_group_IT_number 47
_symmetry_cell_setting 'orthorhombic'
loop_
_space_group_symop_operation_xyz
x,y,z
-x,-y,z
x,-y,-z
-x,y,-z
-x,-y,-z
x,y,-z
-x,y,z
x,-y,z
loop_
_atom_site_type_symbol
_atom_site_label
_atom_site_fract_x
_atom_site_fract_y
_atom_site_fract_z
Si Si1 0.782210 0.562688 0.180289
Si Si2 0.421035 0.063671 0.320342
Si Si3 0.219086 0.776395 0.321667
Si Si4 0.658511 0.163513 0.821902
Si Si5 0.924236 0.384977 0.820245
Si Si6 0.578840 0.275524 0.820319
Si Si7 0.299268 0.662609 0.677623
Si Si8 0.076021 0.736536 0.679769
O O1 0.766086 0.500000 0.224972
O O2 0.860059 0.577867 0.223755
O O3 0.732975 0.608332 0.250172
O O4 0.778136 0.566082 0.000000
O O5 0.416801 0.067747 0.500000
O O6 0.500000 0.074904 0.278262
O O7 0.371779 0.107969 0.246729
O O8 0.405873 0.000000 0.279508
O O9 0.223578 0.785263 0.500000
O O10 0.267459 0.819795 0.239961
O O11 0.250158 0.715328 0.290565
O O12 0.140058 0.774045 0.275552
O O13 0.609019 0.215113 0.780535
O O14 0.660152 0.159791 0.000000
O O15 0.916229 0.324110 0.750817
O O16 0.000000 0.405770 0.778220
O O17 0.922799 0.380139 0.000000
O O18 0.500000 0.280067 0.776580
O O19 0.627931 0.320302 0.745017
O O20 0.583423 0.280757 0.000000
O O21 0.303543 0.656559 0.500000
O O22 0.079584 0.730477 0.500000
O O23 0.000000 0.756999 0.718263
#
# Coordination Sequence:
#
# PCOD9382607 Si02
#       8
#     8   8   8   8   8   8   8   8
#     4  10  20  32  46  63  85 115 148 181 220 269
#     4   9  18  32  48  66  93 131 167 194 223 260
#     4   9  17  29  44  64  90 120 152 185 226 271
#     4  10  19  29  45  70  97 124 155 191 225 258
#     4   9  17  28  43  63  86 113 146 183 220 260
#     4   9  18  32  49  69  93 119 144 176 222 271
#     4  10  19  31  47  67  88 112 144 181 223 268
#     4   9  16  27  44  64  88 118 150 184 223 268
#
# _framework density 15.045876
#
# number of rings (size 3 to 8) (size 9 to 14) (size 15 to 20)
#    0.000    2.625    1.250    1.500    0.000    3.250 
#    0.000    1.875    0.000    0.375    0.000    5.250 
#    0.000    0.500    0.000    5.750    0.000    1.625 
#
# Total GULP energy -356698.270213 kJ/mol
# GULP energy per Si atom -5573.410472 kJ/mol
# Density = 1.501163 g / cm^3
# Si number density = 15.045876 Si / 1000 Ang^3
#
#
#
# Elastic Constant Matrix: (Units=GPa)
#
#
# Indices 1 2 3 4 5 6 
#
# 1 124.0449 65.0772 36.2649 0.0000 0.0000 0.0000
# 2 65.0772 98.1238 34.0873 0.0000 0.0000 0.0000
# 3 36.2649 34.0873 18.3106 0.0000 0.0000 0.0000
# 4 0.0000 0.0000 0.0000 22.4674 0.0000 0.0000
# 5 0.0000 0.0000 0.0000 0.0000 18.1981 0.0000
# 6 0.0000 0.0000 0.0000 0.0000 0.0000 25.8030
#
#
#
# Elastic Compliance Matrix: (Units=1/GPa)
#
#
# Indices 1 2 3 4 5 6 
#
# 1 0.019212 0.001349 -0.040562 0.000000 0.000000 0.000000
# 2 0.001349 0.028941 -0.056549 0.000000 0.000000 0.000000
# 3 -0.040562 -0.056549 0.240220 0.000000 0.000000 0.000000
# 4 0.000000 0.000000 0.000000 0.044509 0.000000 0.000000
# 5 0.000000 0.000000 0.000000 0.000000 0.054951 0.000000
# 6 0.000000 0.000000 0.000000 0.000000 0.000000 0.038755
#
#
# Mechanical properties :
#
#
# Convention : Reuss Voigt Hill
#
# Bulk Modulus (GPa) = 10.32526 56.81534 33.57030
# Shear Modulus (GPa) = 7.68762 20.29704 13.99233
#
# Velocity S-wave (km/s) = 2.26286 3.67687 3.05286
# Velocity P-wave (km/s) = 3.70200 7.47457 5.89805
#
# Compressibility (1/GPa) = 0.09684985
#
# Stress axis : x y z
#
# Youngs Moduli (GPa) = 52.05000 34.55290 4.16284
#
# Poissons Ratio (x) = -0.04661 0.16885
# Poissons Ratio (y) = -0.07021 0.23540
# Poissons Ratio (z) = 2.11125 1.95393
#
# Static dielectric constant tensor:
#      x y z
#    x 1.513000 0.000000 0.000000 
#    y 0.000000 1.466280 0.000000 
#    z 0.000000 0.000000 1.497000 
# 
# From -- ./inp_files/10194.got.cif
#   From: 2010.05.17/outbox.cif.g08.bks.cpg/sg47_6_cif.got.tgz:10194.got - 2010.06.03 20:15:42.
