data_PCOD9382127
_publ_section_title
;
Structure prediction by ZEFSAII (Michael W. Deem and Ramdas Pophale) SiO2 
 PCOD9382127
Probable space group: P M M M
;
_chemical_formula_sum "Si O2"
_cell_formula_units_Z 52
_cell_length_a 28.645853
_cell_length_b 9.032572
_cell_length_c 12.161089
_cell_angle_alpha 90.000000
_cell_angle_beta 90.000000
_cell_angle_gamma 90.000000
_cell_volume 3146.629848
_symmetry_space_group_name_H-M "P M M M"
_symmetry_group_IT_number 47
_symmetry_cell_setting 'orthorhombic'
loop_
_space_group_symop_operation_xyz
x,y,z
-x,-y,z
x,-y,-z
-x,y,-z
-x,-y,-z
x,y,-z
-x,y,z
x,-y,z
loop_
_atom_site_type_symbol
_atom_site_label
_atom_site_fract_x
_atom_site_fract_y
_atom_site_fract_z
Si Si1 0.000000 0.329948 0.633540
Si Si2 0.195315 0.821219 0.287401
Si Si3 0.239522 0.328998 0.500000
Si Si4 0.365084 0.177306 0.268497
Si Si5 0.725113 0.180060 0.125488
Si Si6 0.648428 0.671022 0.500000
Si Si7 0.554009 0.675651 0.869547
Si Si8 0.096242 0.177723 0.629428
O O1 0.047835 0.250014 0.666491
O O2 0.000000 0.500000 0.668438
O O3 0.000000 0.325532 0.500000
O O4 0.220701 0.753537 0.392979
O O5 0.225824 0.776760 0.181697
O O6 0.141079 0.778046 0.298521
O O7 0.196955 0.000000 0.295071
O O8 0.224139 0.500000 0.500000
O O9 0.295324 0.325242 0.500000
O O10 0.318045 0.226011 0.203137
O O11 0.367067 0.248482 0.388825
O O12 0.409280 0.230367 0.198501
O O13 0.363750 0.000000 0.277399
O O14 0.724065 0.000000 0.122812
O O15 0.720153 0.232497 0.000000
O O16 0.633194 0.500000 0.500000
O O17 0.500000 0.709875 0.842669
O O18 0.561219 0.500000 0.849726
O O19 0.560294 0.700946 0.000000
O O20 0.104940 0.216809 0.500000
O O21 0.091580 0.000000 0.633071
#
# Coordination Sequence:
#
# PCOD9382127 Si02
#       8
#     4   8   4   8   8   4   8   8
#     4   9  17  27  39  59  90 123 154 196 249 294
#     4  10  18  31  50  70  98 134 169 200 242 299
#     4  11  21  31  47  71 101 131 169 211 244 287
#     4  11  21  34  56  81 108 137 172 218 261 302
#     4   9  18  31  49  75 104 132 163 202 249 297
#     4  11  23  37  52  74 106 142 179 210 251 313
#     4   9  19  37  59  81 108 143 178 212 256 309
#     4   9  16  26  42  63  89 124 163 198 236 290
#
# _framework density 16.525618000000001
#
# number of rings (size 3 to 8) (size 9 to 14) (size 15 to 20)
#    0.000    2.231    2.308    2.077    0.000    3.385 
#    0.000    1.154    0.000    3.692    0.000    0.538 
#    0.000    4.308    0.000    0.000    0.000    0.000 
#
# Total GULP energy -289956.240414 kJ/mol
# GULP energy per Si atom -5576.081546 kJ/mol
# Density = 1.648801 g / cm^3
# Si number density = 16.525618 Si / 1000 Ang^3
#
#
#
# Elastic Constant Matrix: (Units=GPa)
#
#
# Indices 1 2 3 4 5 6 
#
# 1 115.1630 47.3712 55.2612 0.0000 0.0000 0.0000
# 2 47.3712 38.7573 35.1101 0.0000 0.0000 0.0000
# 3 55.2612 35.1101 94.2641 0.0000 0.0000 0.0000
# 4 0.0000 0.0000 0.0000 16.4220 0.0000 0.0000
# 5 0.0000 0.0000 0.0000 0.0000 12.7437 0.0000
# 6 0.0000 0.0000 0.0000 0.0000 0.0000 20.5134
#
#
#
# Elastic Compliance Matrix: (Units=1/GPa)
#
#
# Indices 1 2 3 4 5 6 
#
# 1 0.018241 -0.019028 -0.003606 0.000000 0.000000 0.000000
# 2 -0.019028 0.058790 -0.010742 0.000000 0.000000 0.000000
# 3 -0.003606 -0.010742 0.016724 0.000000 0.000000 0.000000
# 4 0.000000 0.000000 0.000000 0.060894 0.000000 0.000000
# 5 0.000000 0.000000 0.000000 0.000000 0.078470 0.000000
# 6 0.000000 0.000000 0.000000 0.000000 0.000000 0.048749
#
#
# Mechanical properties :
#
#
# Convention : Reuss Voigt Hill
#
# Bulk Modulus (GPa) = 37.03489 58.18550 47.61019
# Shear Modulus (GPa) = 13.98130 17.29862 15.63996
#
# Velocity S-wave (km/s) = 2.91183 3.23890 3.07971
# Velocity P-wave (km/s) = 5.81070 7.01947 6.44349
#
# Compressibility (1/GPa) = 0.02700156
#
# Stress axis : x y z
#
# Youngs Moduli (GPa) = 54.82217 17.00966 59.79536
#
# Poissons Ratio (x) = 0.32366 0.21563
# Poissons Ratio (y) = 1.04316 0.64234
# Poissons Ratio (z) = 0.19770 0.18272
#
# Static dielectric constant tensor:
#      x y z
#    x 1.559290 0.000000 0.000000 
#    y 0.000000 1.552690 0.000000 
#    z 0.000000 0.000000 1.536030 
# 
# From -- ./inp_files/4594.got.cif
#   From: 2010.05.17/outbox.cif.g08.bks.cpg/sg47_3_cif.got.tgz:4594.got - 2010.06.03 20:15:42.
