data_PCOD9382062
_publ_section_title
;
Structure prediction by ZEFSAII (Michael W. Deem and Ramdas Pophale) SiO2 
 PCOD9382062
Probable space group: P M M M
;
_chemical_formula_sum "Si O2"
_cell_formula_units_Z 52
_cell_length_a 28.038479
_cell_length_b 7.817146
_cell_length_c 12.549424
_cell_angle_alpha 90.000000
_cell_angle_beta 90.000000
_cell_angle_gamma 90.000000
_cell_volume 2750.593846
_symmetry_space_group_name_H-M "P M M M"
_symmetry_group_IT_number 47
_symmetry_cell_setting 'orthorhombic'
loop_
_space_group_symop_operation_xyz
x,y,z
-x,-y,z
x,-y,-z
-x,y,-z
-x,-y,-z
x,y,-z
-x,y,z
x,-y,z
loop_
_atom_site_type_symbol
_atom_site_label
_atom_site_fract_x
_atom_site_fract_y
_atom_site_fract_z
Si Si1 0.221516 0.702992 0.625937
Si Si2 0.556236 0.291093 0.000000
Si Si3 0.500000 0.710086 0.377403
Si Si4 0.947363 0.206493 0.122882
Si Si5 0.671240 0.199387 0.379270
Si Si6 0.945075 0.290048 0.500000
Si Si7 0.879077 0.297543 0.306555
Si Si8 0.413139 0.297643 0.769022
O O1 0.211725 0.725736 0.500000
O O2 0.226691 0.500000 0.645977
O O3 0.272980 0.781807 0.648217
O O4 0.174619 0.771768 0.685114
O O5 0.580208 0.230079 0.110593
O O6 0.558612 0.500000 0.000000
O O7 0.500000 0.246602 0.000000
O O8 0.500000 0.500000 0.379896
O O9 0.500000 0.766721 0.500000
O O10 0.453751 0.768552 0.311570
O O11 0.905036 0.271622 0.195335
O O12 0.000000 0.263364 0.161878
O O13 0.946964 0.000000 0.125653
O O14 0.942790 0.259134 0.000000
O O15 0.664384 0.273058 0.500000
O O16 0.637200 0.274773 0.289276
O O17 0.659686 0.000000 0.385071
O O18 0.946232 0.500000 0.500000
O O19 0.915158 0.231587 0.397192
O O20 0.000000 0.233031 0.500000
O O21 0.874266 0.500000 0.327796
O O22 0.422028 0.500000 0.777557
#
# Coordination Sequence:
#
# PCOD9382062 Si02
#       8
#     8   4   4   8   8   4   8   8
#     4   9  17  32  53  76 102 132 167 206 252 307
#     4   9  16  30  53  81 107 135 171 211 250 295
#     4   9  16  25  44  76 107 133 166 203 242 294
#     4   9  19  35  51  68  96 135 173 207 247 295
#     4  10  21  35  51  74 104 135 170 211 256 301
#     4   9  16  26  43  73 111 139 155 186 247 308
#     4  10  18  30  51  78 103 129 164 207 252 300
#     4  10  18  31  53  78 105 136 171 210 251 296
#
# _framework density 18.905009
#
# number of rings (size 3 to 8) (size 9 to 14) (size 15 to 20)
#    0.000    2.538    1.538    1.846    0.000    3.385 
#    0.000    1.923    1.692    3.231    0.000    0.000 
#    0.000    0.000    0.000    0.000    0.000    0.000 
#
# Total GULP energy -289979.578057 kJ/mol
# GULP energy per Si atom -5576.530347 kJ/mol
# Density = 1.886198 g / cm^3
# Si number density = 18.905009 Si / 1000 Ang^3
#
#
#
# Elastic Constant Matrix: (Units=GPa)
#
#
# Indices 1 2 3 4 5 6 
#
# 1 112.8648 0.1754 75.2717 0.0000 0.0000 0.0000
# 2 0.1754 16.3788 6.1437 0.0000 0.0000 0.0000
# 3 75.2717 6.1437 124.7138 0.0000 0.0000 0.0000
# 4 0.0000 0.0000 0.0000 31.4672 0.0000 0.0000
# 5 0.0000 0.0000 0.0000 0.0000 24.3950 0.0000
# 6 0.0000 0.0000 0.0000 0.0000 0.0000 137.1094
#
#
#
# Elastic Compliance Matrix: (Units=1/GPa)
#
#
# Indices 1 2 3 4 5 6 
#
# 1 0.015002 0.003297 -0.009217 0.000000 0.000000 0.000000
# 2 0.003297 0.062928 -0.005090 0.000000 0.000000 0.000000
# 3 -0.009217 -0.005090 0.013832 0.000000 0.000000 0.000000
# 4 0.000000 0.000000 0.000000 0.031779 0.000000 0.000000
# 5 0.000000 0.000000 0.000000 0.000000 0.040992 0.000000
# 6 0.000000 0.000000 0.000000 0.000000 0.000000 0.007293
#
#
# Mechanical properties :
#
#
# Convention : Reuss Voigt Hill
#
# Bulk Modulus (GPa) = 14.33847 46.34878 30.34362
# Shear Modulus (GPa) = 23.03145 50.08544 36.55844
#
# Velocity S-wave (km/s) = 3.49416 5.15274 4.40227
# Velocity P-wave (km/s) = 4.88670 7.74408 6.47498
#
# Compressibility (1/GPa) = 0.06974243
#
# Stress axis : x y z
#
# Youngs Moduli (GPa) = 66.65789 15.89106 72.29602
#
# Poissons Ratio (x) = -0.05239 0.66635
# Poissons Ratio (y) = -0.21975 0.36797
# Poissons Ratio (z) = 0.61438 0.08088
#
# Static dielectric constant tensor:
#      x y z
#    x 1.657310 0.000000 0.000000 
#    y 0.000000 1.698750 0.000000 
#    z 0.000000 0.000000 1.651710 
# 
# From -- ./inp_files/19843.got.cif
#   From: 2010.05.17/outbox.cif.g08.bks.cpg/sg47_10_cif.got.tgz:19843.got - 2010.06.03 20:15:42.
