data_PCOD9382884
_publ_section_title
;
Structure prediction by ZEFSAII (Michael W. Deem and Ramdas Pophale) SiO2 
 PCOD9382884
Probable space group: P M M M
;
_chemical_formula_sum "Si O2"
_cell_formula_units_Z 64
_cell_length_a 28.802504
_cell_length_b 14.162233
_cell_length_c 9.297360
_cell_angle_alpha 90.000000
_cell_angle_beta 90.000000
_cell_angle_gamma 90.000000
_cell_volume 3792.465409
_symmetry_space_group_name_H-M "P M M M"
_symmetry_group_IT_number 47
_symmetry_cell_setting 'orthorhombic'
loop_
_space_group_symop_operation_xyz
x,y,z
-x,-y,z
x,-y,-z
-x,y,-z
-x,-y,-z
x,y,-z
-x,y,z
x,-y,z
loop_
_atom_site_type_symbol
_atom_site_label
_atom_site_fract_x
_atom_site_fract_y
_atom_site_fract_z
Si Si1 0.443614 0.396022 0.833608
Si Si2 0.054450 0.610102 0.171719
Si Si3 0.816934 0.889800 0.828822
Si Si4 0.552920 0.207648 0.327799
Si Si5 0.277917 0.224838 0.170491
Si Si6 0.355245 0.107209 0.327283
Si Si7 0.771718 0.389777 0.328867
Si Si8 0.133440 0.723799 0.670849
O O1 0.500000 0.398001 0.831192
O O2 0.427698 0.500000 0.784232
O O3 0.430437 0.306720 0.739137
O O4 0.429669 0.383647 0.000000
O O5 0.064095 0.500000 0.207294
O O6 0.088316 0.678339 0.257464
O O7 0.000000 0.627453 0.201468
O O8 0.061437 0.621026 0.000000
O O9 0.765659 0.846186 0.804453
O O10 0.851973 0.822919 0.742207
O O11 0.818701 0.000000 0.788506
O O12 0.826175 0.882237 0.000000
O O13 0.551586 0.217004 0.500000
O O14 0.500000 0.187887 0.278845
O O15 0.591086 0.129521 0.292476
O O16 0.322246 0.179777 0.246411
O O17 0.263258 0.324087 0.240492
O O18 0.284634 0.234052 0.000000
O O19 0.349649 0.117034 0.500000
O O20 0.343396 0.000000 0.287404
O O21 0.762670 0.380392 0.500000
O O22 0.769628 0.500000 0.290724
O O23 0.823144 0.347322 0.302733
O O24 0.127926 0.733823 0.500000
#
# Coordination Sequence:
#
# PCOD9382884 Si02
#       8
#     8   8   8   8   8   8   8   8
#     4   8  14  26  45  68  93 120 148 180 222 270
#     4   9  18  32  49  70  99 137 178 215 251 296
#     4   9  18  33  52  73  98 129 165 205 249 297
#     4   9  18  32  50  73  98 123 156 197 236 278
#     4  10  20  34  53  77 102 127 161 204 245 288
#     4  10  21  36  53  72  96 128 162 196 241 295
#     4   9  18  33  52  75 106 140 169 199 240 294
#     4  10  19  30  48  76 106 134 167 209 256 301
#
# _framework density 16.875565999999999
#
# number of rings (size 3 to 8) (size 9 to 14) (size 15 to 20)
#    0.000    2.750    0.000    2.250    0.000    4.250 
#    0.000    3.750    0.000    1.125    0.000    5.250 
#    0.000    0.000    0.000    0.000    0.000    0.000 
#
# Total GULP energy -356776.609980 kJ/mol
# GULP energy per Si atom -5574.634531 kJ/mol
# Density = 1.683716 g / cm^3
# Si number density = 16.875566 Si / 1000 Ang^3
#
#
#
# Elastic Constant Matrix: (Units=GPa)
#
#
# Indices 1 2 3 4 5 6 
#
# 1 72.5865 52.6855 43.4070 0.0000 0.0000 0.0000
# 2 52.6855 128.8828 51.4175 0.0000 0.0000 0.0000
# 3 43.4070 51.4175 37.5251 0.0000 0.0000 0.0000
# 4 0.0000 0.0000 0.0000 18.2617 0.0000 0.0000
# 5 0.0000 0.0000 0.0000 0.0000 22.8287 0.0000
# 6 0.0000 0.0000 0.0000 0.0000 0.0000 24.4718
#
#
#
# Elastic Compliance Matrix: (Units=1/GPa)
#
#
# Indices 1 2 3 4 5 6 
#
# 1 0.046326 0.005385 -0.060966 0.000000 0.000000 0.000000
# 2 0.005385 0.017740 -0.030537 0.000000 0.000000 0.000000
# 3 -0.060966 -0.030537 0.139013 0.000000 0.000000 0.000000
# 4 0.000000 0.000000 0.000000 0.054759 0.000000 0.000000
# 5 0.000000 0.000000 0.000000 0.000000 0.043804 0.000000
# 6 0.000000 0.000000 0.000000 0.000000 0.000000 0.040863
#
#
# Mechanical properties :
#
#
# Convention : Reuss Voigt Hill
#
# Bulk Modulus (GPa) = 32.42176 59.33492 45.87834
# Shear Modulus (GPa) = 9.52338 19.21141 14.36740
#
# Velocity S-wave (km/s) = 2.37814 3.37770 2.92099
# Velocity P-wave (km/s) = 5.17636 7.10270 6.21462
#
# Compressibility (1/GPa) = 0.03084349
#
# Stress axis : x y z
#
# Youngs Moduli (GPa) = 21.58613 56.36840 7.19358
#
# Poissons Ratio (x) = -0.30352 0.43856
# Poissons Ratio (y) = -0.11623 0.21967
# Poissons Ratio (z) = 1.31601 1.72132
#
# Static dielectric constant tensor:
#      x y z
#    x 1.563370 0.000000 0.000000 
#    y 0.000000 1.560760 0.000000 
#    z 0.000000 0.000000 1.554610 
# 
# From -- ./inp_files/14180.got.cif
#   From: 2010.05.17/outbox.cif.g08.bks.cpg/sg47_8_cif.got.tgz:14180.got - 2010.06.03 20:15:42.
