data_PCOD9382909
_publ_section_title
;
Structure prediction by ZEFSAII (Michael W. Deem and Ramdas Pophale) SiO2 
 PCOD9382909
Probable space group: P M M M
;
_chemical_formula_sum "Si O2"
_cell_formula_units_Z 52
_cell_length_a 7.481436
_cell_length_b 20.960570
_cell_length_c 15.101161
_cell_angle_alpha 90.000000
_cell_angle_beta 90.000000
_cell_angle_gamma 90.000000
_cell_volume 2368.091023
_symmetry_space_group_name_H-M "P M M M"
_symmetry_group_IT_number 47
_symmetry_cell_setting 'orthorhombic'
loop_
_space_group_symop_operation_xyz
x,y,z
-x,-y,z
x,-y,-z
-x,y,-z
-x,-y,-z
x,y,-z
-x,y,z
x,-y,z
loop_
_atom_site_type_symbol
_atom_site_label
_atom_site_fract_x
_atom_site_fract_y
_atom_site_fract_z
Si Si1 0.217834 0.928624 0.397215
Si Si2 0.286008 0.311815 0.401047
Si Si3 0.710655 0.572218 0.289655
Si Si4 0.780731 0.140826 0.100494
Si Si5 0.784904 0.425252 0.905130
Si Si6 0.785753 0.190226 0.718939
Si Si7 0.201669 0.000000 0.892544
O O1 0.270165 0.918979 0.500000
O O2 0.281037 0.871391 0.335438
O O3 0.000000 0.928097 0.395816
O O4 0.273369 0.000000 0.369455
O O5 0.217444 0.299192 0.500000
O O6 0.500000 0.318400 0.406957
O O7 0.214133 0.377350 0.359013
O O8 0.253640 0.253658 0.334992
O O9 0.500000 0.566405 0.306981
O O10 0.786097 0.500000 0.292107
O O11 0.727657 0.599930 0.189986
O O12 0.724597 0.187416 0.179158
O O13 0.000000 0.138560 0.097538
O O14 0.720020 0.069142 0.127641
O O15 0.722907 0.155037 0.000000
O O16 0.729984 0.500000 0.904837
O O17 0.000000 0.423560 0.905463
O O18 0.724072 0.397687 0.000000
O O19 0.000000 0.184433 0.722217
O O20 0.000000 0.000000 0.854531
O O21 0.189450 0.000000 0.000000
#
# Coordination Sequence:
#
# PCOD9382909 Si02
#       7
#     8   8   8   8   8   8   4
#     4   8  14  24  39  64  96 123 153 201 251 282
#     4  10  22  39  55  71  96 129 161 200 257 317
#     4   9  18  33  54  78  99 123 164 214 255 295
#     4   8  14  24  40  67 102 133 161 199 245 287
#     4   8  14  26  46  74 108 140 163 187 230 288
#     4  10  19  30  50  75  99 130 168 205 240 289
#     4   7  10  18  34  60  96 131 158 192 241 285
#
# _framework density 21.958615000000002
#
# number of rings (size 3 to 8) (size 9 to 14) (size 15 to 20)
#    0.000    3.308    0.000    2.308    1.077    2.154 
#    0.000    3.846    0.000    3.692    0.000    5.385 
#    0.000    1.846    0.000    0.000    0.000    0.000 
#
# Total GULP energy -289888.956154 kJ/mol
# GULP energy per Si atom -5574.787618 kJ/mol
# Density = 2.190864 g / cm^3
# Si number density = 21.958615 Si / 1000 Ang^3
#
#
#
# Elastic Constant Matrix: (Units=GPa)
#
#
# Indices 1 2 3 4 5 6 
#
# 1 58.6091 3.2233 5.3448 0.0000 0.0000 0.0000
# 2 3.2233 106.3695 98.6131 0.0000 0.0000 0.0000
# 3 5.3448 98.6131 174.5953 0.0000 0.0000 0.0000
# 4 0.0000 0.0000 0.0000 33.5958 0.0000 0.0000
# 5 0.0000 0.0000 0.0000 0.0000 7.3206 0.0000
# 6 0.0000 0.0000 0.0000 0.0000 0.0000 12.8893
#
#
#
# Elastic Compliance Matrix: (Units=1/GPa)
#
#
# Indices 1 2 3 4 5 6 
#
# 1 0.017110 -0.000069 -0.000485 0.000000 0.000000 0.000000
# 2 -0.000069 0.019735 -0.011144 0.000000 0.000000 0.000000
# 3 -0.000485 -0.011144 0.012037 0.000000 0.000000 0.000000
# 4 0.000000 0.000000 0.000000 0.029766 0.000000 0.000000
# 5 0.000000 0.000000 0.000000 0.000000 0.136601 0.000000
# 6 0.000000 0.000000 0.000000 0.000000 0.000000 0.077584
#
#
# Mechanical properties :
#
#
# Convention : Reuss Voigt Hill
#
# Bulk Modulus (GPa) = 39.23787 61.54848 50.39318
# Shear Modulus (GPa) = 15.39767 26.25397 20.82582
#
# Velocity S-wave (km/s) = 2.65092 3.46151 3.08297
# Velocity P-wave (km/s) = 5.22280 6.63824 5.97260
#
# Compressibility (1/GPa) = 0.02548558
#
# Stress axis : x y z
#
# Youngs Moduli (GPa) = 58.44464 50.67107 83.07802
#
# Poissons Ratio (x) = 0.00350 0.04027
# Poissons Ratio (y) = 0.00404 0.92586
# Poissons Ratio (z) = 0.02833 0.56470
#
# Static dielectric constant tensor:
#      x y z
#    x 1.874710 0.000000 0.000000 
#    y 0.000000 1.791650 0.000000 
#    z 0.000000 0.000000 1.828400 
# 
# From -- ./inp_files/21440.got.cif
#   From: 2010.05.17/outbox.cif.g08.bks.cpg/sg47_11_cif.got.tgz:21440.got - 2010.06.03 20:15:42.
