data_PCOD9382316
_publ_section_title
;
Structure prediction by ZEFSAII (Michael W. Deem and Ramdas Pophale) SiO2 
 PCOD9382316
Probable space group: P M M M
;
_chemical_formula_sum "Si O2"
_cell_formula_units_Z 52
_cell_length_a 20.885932
_cell_length_b 15.628616
_cell_length_c 7.581557
_cell_angle_alpha 90.000000
_cell_angle_beta 90.000000
_cell_angle_gamma 90.000000
_cell_volume 2474.758273
_symmetry_space_group_name_H-M "P M M M"
_symmetry_group_IT_number 47
_symmetry_cell_setting 'orthorhombic'
loop_
_space_group_symop_operation_xyz
x,y,z
-x,-y,z
x,-y,-z
-x,y,-z
-x,-y,-z
x,y,-z
-x,y,z
x,-y,z
loop_
_atom_site_type_symbol
_atom_site_label
_atom_site_fract_x
_atom_site_fract_y
_atom_site_fract_z
Si Si1 0.638136 0.831562 0.299222
Si Si2 0.709284 0.407229 0.209003
Si Si3 0.773587 0.901708 0.283284
Si Si4 0.425136 0.000000 0.801361
Si Si5 0.073151 0.402872 0.715525
Si Si6 0.180992 0.724547 0.708445
Si Si7 0.427592 0.661230 0.287343
O O1 0.653024 0.805094 0.500000
O O2 0.704532 0.865976 0.222189
O O3 0.595448 0.915330 0.297208
O O4 0.597976 0.753569 0.219918
O O5 0.731325 0.500000 0.280423
O O6 0.751792 0.327171 0.272646
O O7 0.633478 0.397692 0.245674
O O8 0.717504 0.407700 0.000000
O O9 0.772792 0.904657 0.500000
O O10 0.818156 0.822486 0.226317
O O11 0.784811 0.000000 0.226415
O O12 0.500000 0.000000 0.816597
O O13 0.397296 0.000000 0.000000
O O14 0.074734 0.402710 0.500000
O O15 0.088245 0.500000 0.770955
O O16 0.125319 0.335879 0.781847
O O17 0.000000 0.383268 0.766685
O O18 0.169979 0.731530 0.500000
O O19 0.432471 0.663927 0.500000
O O20 0.500000 0.641212 0.223268
#
# Coordination Sequence:
#
# PCOD9382316 Si02
#       7
#     8   8   8   4   8   8   8
#     4  10  18  33  53  70  91 123 164 210 261 312
#     4  11  24  38  52  74 105 137 168 209 264 321
#     4   9  16  28  49  75  99 125 163 210 255 298
#     4  11  23  33  43  67  99 127 160 205 260 320
#     4   8  14  25  45  78 113 138 166 209 258 301
#     4  10  18  32  56  79 102 136 177 216 250 296
#     4  10  21  37  56  75  94 123 171 224 265 309
#
# _framework density 21.012152
#
# number of rings (size 3 to 8) (size 9 to 14) (size 15 to 20)
#    0.000    2.231    2.308    2.077    0.000    4.308 
#    0.000    1.538    0.000    0.923    0.000    5.385 
#    0.000    0.000    0.000    1.385    0.000    1.692 
#
# Total GULP energy -289896.825447 kJ/mol
# GULP energy per Si atom -5574.938951 kJ/mol
# Density = 2.096433 g / cm^3
# Si number density = 21.012152 Si / 1000 Ang^3
#
#
#
# Elastic Constant Matrix: (Units=GPa)
#
#
# Indices 1 2 3 4 5 6 
#
# 1 109.4799 64.4517 0.2082 0.0000 0.0000 0.0000
# 2 64.4517 149.4660 1.7364 0.0000 0.0000 0.0000
# 3 0.2082 1.7364 51.5923 0.0000 0.0000 0.0000
# 4 0.0000 0.0000 0.0000 -41.0186 0.0000 0.0000
# 5 0.0000 0.0000 0.0000 0.0000 -40.7746 0.0000
# 6 0.0000 0.0000 0.0000 0.0000 0.0000 72.1054
#
#
#
# Elastic Compliance Matrix: (Units=1/GPa)
#
#
# Indices 1 2 3 4 5 6 
#
# 1 0.012243 -0.005281 0.000128 0.000000 0.000000 0.000000
# 2 -0.005281 0.008971 -0.000281 0.000000 0.000000 0.000000
# 3 0.000128 -0.000281 0.019392 0.000000 0.000000 0.000000
# 4 0.000000 0.000000 0.000000 -0.024379 0.000000 0.000000
# 5 0.000000 0.000000 0.000000 0.000000 -0.024525 0.000000
# 6 0.000000 0.000000 0.000000 0.000000 0.000000 0.013869
#
#
# Mechanical properties :
#
#
# Convention : Reuss Voigt Hill
#
# Bulk Modulus (GPa) = 33.62564 49.25897 41.44231
# Shear Modulus (GPa) = 189.76478 14.33858 102.05168
#
# Velocity S-wave (km/s) = 9.51357 2.61510 6.97663
# Velocity P-wave (km/s) = 11.69252 5.71072 9.20129
#
# Compressibility (1/GPa) = 0.02973921
#
# Stress axis : x y z
#
# Youngs Moduli (GPa) = 81.68182 111.47235 51.56853
#
# Poissons Ratio (x) = 0.58865 -0.00662
# Poissons Ratio (y) = 0.43133 0.01447
# Poissons Ratio (z) = -0.01048 0.03128
#
# Static dielectric constant tensor:
#      x y z
#    x 1.760580 0.000000 0.000000 
#    y 0.000000 1.779480 0.000000 
#    z 0.000000 0.000000 1.801150 
# 
# From -- ./inp_files/11014.got.cif
#   From: 2010.05.17/outbox.cif.g08.bks.cpg/sg47_6_cif.got.tgz:11014.got - 2010.06.03 20:15:42.
