data_PCOD9382167
_publ_section_title
;
Structure prediction by ZEFSAII (Michael W. Deem and Ramdas Pophale) SiO2 
 PCOD9382167
Probable space group: P M M M
;
_chemical_formula_sum "Si O2"
_cell_formula_units_Z 64
_cell_length_a 8.932501
_cell_length_b 14.883645
_cell_length_c 32.284148
_cell_angle_alpha 90.000000
_cell_angle_beta 90.000000
_cell_angle_gamma 90.000000
_cell_volume 4292.118521
_symmetry_space_group_name_H-M "P M M M"
_symmetry_group_IT_number 47
_symmetry_cell_setting 'orthorhombic'
loop_
_space_group_symop_operation_xyz
x,y,z
-x,-y,z
x,-y,-z
-x,y,-z
-x,-y,-z
x,y,-z
-x,y,z
x,-y,z
loop_
_atom_site_type_symbol
_atom_site_label
_atom_site_fract_x
_atom_site_fract_y
_atom_site_fract_z
Si Si1 0.818265 0.290430 0.297885
Si Si2 0.181010 0.293183 0.453557
Si Si3 0.818284 0.098805 0.672447
Si Si4 0.823696 0.391088 0.954598
Si Si5 0.181635 0.901145 0.575282
Si Si6 0.180133 0.395650 0.784239
Si Si7 0.327189 0.609246 0.870085
Si Si8 0.321173 0.606051 0.375782
O O1 0.769987 0.186620 0.302690
O O2 0.772125 0.336132 0.254803
O O3 0.752946 0.344986 0.336565
O O4 0.000000 0.293766 0.300244
O O5 0.217719 0.323827 0.500000
O O6 0.228233 0.188708 0.448133
O O7 0.255653 0.350770 0.417567
O O8 0.000000 0.296636 0.448687
O O9 0.778333 0.109004 0.623865
O O10 0.000000 0.097762 0.673664
O O11 0.766294 0.000000 0.686470
O O12 0.810945 0.500000 0.954685
O O13 0.742043 0.358114 0.913402
O O14 0.000000 0.370780 0.951759
O O15 0.768178 0.360420 0.000000
O O16 0.000000 0.903054 0.573142
O O17 0.233896 0.000000 0.560947
O O18 0.226521 0.500000 0.777938
O O19 0.242659 0.363318 0.828301
O O20 0.000000 0.394473 0.786165
O O21 0.500000 0.634119 0.867496
O O22 0.317326 0.500000 0.870964
O O23 0.500000 0.618084 0.374562
O O24 0.287977 0.500000 0.374365
#
# Coordination Sequence:
#
# PCOD9382167 Si02
#       8
#     8   8   8   8   8   8   8   8
#     4  10  18  31  52  72  88 109 141 177 208 244
#     4  10  20  34  53  74  91 110 140 173 201 236
#     4   8  13  23  44  72  95 111 129 161 205 247
#     4   8  13  21  33  48  67  95 133 177 221 259
#     4   8  13  24  45  73  99 115 129 158 201 243
#     4   9  17  27  39  57  80 107 139 175 213 246
#     4   9  16  24  34  49  72 103 137 175 216 255
#     4  11  24  38  50  65  87 115 142 171 211 252
#
# _framework density 14.911051
#
# number of rings (size 3 to 8) (size 9 to 14) (size 15 to 20)
#    0.000    2.875    1.250    2.250    0.000    4.500 
#    0.000    5.000    0.000    1.500    0.000    0.875 
#    0.000    0.000    0.000    0.000    0.000    0.625 
#
# Total GULP energy -356364.538624 kJ/mol
# GULP energy per Si atom -5568.195916 kJ/mol
# Density = 1.487711 g / cm^3
# Si number density = 14.911051 Si / 1000 Ang^3
#
#
#
# Elastic Constant Matrix: (Units=GPa)
#
#
# Indices 1 2 3 4 5 6 
#
# 1 14.5999 21.3339 34.6697 0.0000 0.0000 0.0000
# 2 21.3339 74.1009 55.1011 0.0000 0.0000 0.0000
# 3 34.6697 55.1011 134.1481 0.0000 0.0000 0.0000
# 4 0.0000 0.0000 0.0000 2.4184 0.0000 0.0000
# 5 0.0000 0.0000 0.0000 0.0000 2.2981 0.0000
# 6 0.0000 0.0000 0.0000 0.0000 0.0000 3.9979
#
#
#
# Elastic Compliance Matrix: (Units=1/GPa)
#
#
# Indices 1 2 3 4 5 6 
#
# 1 0.214493 -0.029561 -0.043292 0.000000 0.000000 0.000000
# 2 -0.029561 0.023504 -0.002014 0.000000 0.000000 0.000000
# 3 -0.043292 -0.002014 0.019470 0.000000 0.000000 0.000000
# 4 0.000000 0.000000 0.000000 0.413492 0.000000 0.000000
# 5 0.000000 0.000000 0.000000 0.000000 0.435149 0.000000
# 6 0.000000 0.000000 0.000000 0.000000 0.000000 0.250129
#
#
# Mechanical properties :
#
#
# Convention : Reuss Voigt Hill
#
# Bulk Modulus (GPa) = 9.28232 49.45093 29.36663
# Shear Modulus (GPa) = 3.24279 9.19250 6.21764
#
# Velocity S-wave (km/s) = 1.47631 2.48561 2.04423
# Velocity P-wave (km/s) = 3.02401 6.44000 5.03082
#
# Compressibility (1/GPa) = 0.10773163
#
# Stress axis : x y z
#
# Youngs Moduli (GPa) = 4.66216 42.54660 51.36038
#
# Poissons Ratio (x) = 1.25774 2.22349
# Poissons Ratio (y) = 0.13782 0.10345
# Poissons Ratio (z) = 0.20183 0.08569
#
# Static dielectric constant tensor:
#      x y z
#    x 1.496950 0.000000 0.000000 
#    y 0.000000 1.495700 0.000000 
#    z 0.000000 0.000000 1.494120 
# 
# From -- ./inp_files/34472.got.cif
#   From: 2010.05.17/outbox.cif.g08.bks.cpg/sg47_18_cif.got.tgz:34472.got - 2010.06.03 20:15:42.
