data_PCOD9382873
_publ_section_title
;
Structure prediction by ZEFSAII (Michael W. Deem and Ramdas Pophale) SiO2 
 PCOD9382873
Probable space group: P M M M
;
_chemical_formula_sum "Si O2"
_cell_formula_units_Z 56
_cell_length_a 20.639137
_cell_length_b 7.541262
_cell_length_c 16.295352
_cell_angle_alpha 90.000000
_cell_angle_beta 90.000000
_cell_angle_gamma 90.000000
_cell_volume 2536.292336
_symmetry_space_group_name_H-M "P M M M"
_symmetry_group_IT_number 47
_symmetry_cell_setting 'orthorhombic'
loop_
_space_group_symop_operation_xyz
x,y,z
-x,-y,z
x,-y,-z
-x,y,-z
-x,-y,-z
x,y,-z
-x,y,z
x,-y,z
loop_
_atom_site_type_symbol
_atom_site_label
_atom_site_fract_x
_atom_site_fract_y
_atom_site_fract_z
Si Si1 0.167868 0.290064 0.090455
Si Si2 0.603447 0.292698 0.411443
Si Si3 0.430132 0.793616 0.772056
Si Si4 0.748753 0.213533 0.368411
Si Si5 0.926875 0.283904 0.767853
Si Si6 0.710106 0.786132 0.187314
Si Si7 0.892243 0.294115 0.411840
O O1 0.154480 0.500000 0.087360
O O2 0.124370 0.217629 0.165047
O O3 0.242959 0.267619 0.114458
O O4 0.154420 0.216322 0.000000
O O5 0.581493 0.221247 0.500000
O O6 0.586604 0.500000 0.408317
O O7 0.578130 0.211211 0.326939
O O8 0.681365 0.273613 0.407692
O O9 0.500000 0.713563 0.793019
O O10 0.363757 0.718087 0.809689
O O11 0.431884 0.000000 0.796069
O O12 0.743560 0.269442 0.273043
O O13 0.814185 0.286121 0.406618
O O14 0.751009 0.000000 0.373162
O O15 0.920683 0.500000 0.763927
O O16 0.915398 0.217279 0.675004
O O17 0.000000 0.242822 0.793377
O O18 0.707173 0.000000 0.189320
O O19 0.912338 0.216184 0.500000
O O20 0.912765 0.500000 0.412545
#
# Coordination Sequence:
#
# PCOD9382873 Si02
#       7
#     8   8   8   8   8   8   8
#     4  10  20  34  56  84 108 134 171 214 263 320
#     4  10  20  31  44  67 101 138 178 224 270 316
#     4   9  19  35  53  74 101 136 178 219 262 315
#     4  10  19  31  49  72  99 135 179 223 268 315
#     4   9  18  33  52  76 109 144 175 215 265 311
#     4   9  18  33  54  78 103 134 170 212 262 313
#     4  10  19  30  48  74 103 138 179 220 265 314
#
# _framework density 22.079474999999999
#
# number of rings (size 3 to 8) (size 9 to 14) (size 15 to 20)
#    0.000    2.429    1.429    2.143    0.000    6.857 
#    0.000    4.286    0.000    2.143    0.000    5.000 
#    0.000    0.000    0.000    0.000    0.000    0.000 
#
# Total GULP energy -312598.980211 kJ/mol
# GULP energy per Si atom -5582.124647 kJ/mol
# Density = 2.202922 g / cm^3
# Si number density = 22.079475 Si / 1000 Ang^3
#
#
#
# Elastic Constant Matrix: (Units=GPa)
#
#
# Indices 1 2 3 4 5 6 
#
# 1 122.3613 -5.5728 58.7250 0.0000 0.0000 0.0000
# 2 -5.5728 60.2520 5.2312 0.0000 0.0000 0.0000
# 3 58.7250 5.2312 138.3454 0.0000 0.0000 0.0000
# 4 0.0000 0.0000 0.0000 12.2941 0.0000 0.0000
# 5 0.0000 0.0000 0.0000 0.0000 -5.9085 0.0000
# 6 0.0000 0.0000 0.0000 0.0000 0.0000 9.7547
#
#
#
# Elastic Compliance Matrix: (Units=1/GPa)
#
#
# Indices 1 2 3 4 5 6 
#
# 1 0.010371 0.001346 -0.004453 0.000000 0.000000 0.000000
# 2 0.001346 0.016826 -0.001208 0.000000 0.000000 0.000000
# 3 -0.004453 -0.001208 0.009164 0.000000 0.000000 0.000000
# 4 0.000000 0.000000 0.000000 0.081340 0.000000 0.000000
# 5 0.000000 0.000000 0.000000 0.000000 -0.169249 0.000000
# 6 0.000000 0.000000 0.000000 0.000000 0.000000 0.102514
#
#
# Mechanical properties :
#
#
# Convention : Reuss Voigt Hill
#
# Bulk Modulus (GPa) = 36.05965 48.63615 42.34790
# Shear Modulus (GPa) = 72.63140 20.73309 46.68225
#
# Velocity S-wave (km/s) = 5.74168 3.06767 4.60312
# Velocity P-wave (km/s) = 7.76679 5.88414 6.89007
#
# Compressibility (1/GPa) = 0.02773183
#
# Stress axis : x y z
#
# Youngs Moduli (GPa) = 96.42228 59.43086 109.11974
#
# Poissons Ratio (x) = -0.07999 0.48593
# Poissons Ratio (y) = -0.12977 0.13177
# Poissons Ratio (z) = 0.42939 0.07177
#
# Static dielectric constant tensor:
#      x y z
#    x 1.814510 0.000000 0.000000 
#    y 0.000000 1.827350 0.000000 
#    z 0.000000 0.000000 1.812430 
# 
# From -- ./inp_files/25136.got.cif
#   From: 2010.05.17/outbox.cif.g08.bks.cpg/sg47_13_cif.got.tgz:25136.got - 2010.06.03 20:15:42.
