data_PCOD9382560
_publ_section_title
;
Structure prediction by ZEFSAII (Michael W. Deem and Ramdas Pophale) SiO2 
 PCOD9382560
Probable space group: P M M M
;
_chemical_formula_sum "Si O2"
_cell_formula_units_Z 46
_cell_length_a 7.400678
_cell_length_b 30.562483
_cell_length_c 11.850717
_cell_angle_alpha 90.000000
_cell_angle_beta 90.000000
_cell_angle_gamma 90.000000
_cell_volume 2680.431856
_symmetry_space_group_name_H-M "P M M M"
_symmetry_group_IT_number 47
_symmetry_cell_setting 'orthorhombic'
loop_
_space_group_symop_operation_xyz
x,y,z
-x,-y,z
x,-y,-z
-x,y,-z
-x,-y,-z
x,y,-z
-x,y,z
x,-y,z
loop_
_atom_site_type_symbol
_atom_site_label
_atom_site_fract_x
_atom_site_fract_y
_atom_site_fract_z
Si Si1 0.707318 0.951537 0.363326
Si Si2 0.283646 0.337890 0.500000
Si Si3 0.000000 0.784815 0.738931
Si Si4 0.000000 0.262485 0.500000
Si Si5 0.000000 0.120268 0.362048
Si Si6 0.280951 0.364458 0.747092
Si Si7 0.716164 0.273235 0.134326
Si Si8 0.720138 0.451887 0.131364
O O1 0.709689 0.952764 0.500000
O O2 0.500000 0.946202 0.327578
O O3 0.829932 0.910610 0.333541
O O4 0.770840 0.000000 0.326060
O O5 0.500000 0.331121 0.500000
O O6 0.233195 0.361866 0.615647
O O7 0.176935 0.292723 0.500000
O O8 0.000000 0.836247 0.712827
O O9 0.828139 0.765278 0.806181
O O10 0.000000 0.764459 0.614155
O O11 0.000000 0.128891 0.500000
O O12 0.500000 0.364924 0.754288
O O13 0.226164 0.319755 0.810353
O O14 0.215683 0.409148 0.803347
O O15 0.500000 0.268396 0.152186
O O16 0.749059 0.274290 0.000000
O O17 0.500000 0.451557 0.135296
O O18 0.777455 0.500000 0.173195
O O19 0.770285 0.448416 0.000000
#
# Coordination Sequence:
#
# PCOD9382560 Si02
#       8
#     8   4   4   2   4   8   8   8
#     4   8  14  26  44  66  95 135 180 217 248 290
#     4  10  20  34  51  72  98 131 172 213 249 297
#     4  12  23  35  51  76 107 139 177 214 255 312
#     4  12  22  36  52  70 104 144 174 208 254 300
#     4  10  19  29  43  68 103 141 175 208 251 301
#     4   9  16  28  47  70  96 128 165 203 250 308
#     4  10  21  37  56  75  97 129 172 222 266 305
#     4   8  13  22  39  66  98 126 155 201 259 311
#
# _framework density 17.161414000000001
#
# number of rings (size 3 to 8) (size 9 to 14) (size 15 to 20)
#    0.000    2.609    2.174    2.087    0.000    3.826 
#    0.000    0.435    0.000    2.609    0.000    3.043 
#    0.000   12.522    0.000   16.174    0.000    0.696 
#
# Total GULP energy -256396.511947 kJ/mol
# GULP energy per Si atom -5573.837216 kJ/mol
# Density = 1.712235 g / cm^3
# Si number density = 17.161414 Si / 1000 Ang^3
#
#
#
# Elastic Constant Matrix: (Units=GPa)
#
#
# Indices 1 2 3 4 5 6 
#
# 1 74.9381 57.5079 36.0730 0.0000 0.0000 0.0000
# 2 57.5079 189.2645 75.6594 0.0000 0.0000 0.0000
# 3 36.0730 75.6594 97.6552 0.0000 0.0000 0.0000
# 4 0.0000 0.0000 0.0000 4.0030 0.0000 0.0000
# 5 0.0000 0.0000 0.0000 0.0000 11.3018 0.0000
# 6 0.0000 0.0000 0.0000 0.0000 0.0000 99.9229
#
#
#
# Elastic Compliance Matrix: (Units=1/GPa)
#
#
# Indices 1 2 3 4 5 6 
#
# 1 0.018207 -0.004119 -0.003534 0.000000 0.000000 0.000000
# 2 -0.004119 0.008586 -0.005131 0.000000 0.000000 0.000000
# 3 -0.003534 -0.005131 0.015520 0.000000 0.000000 0.000000
# 4 0.000000 0.000000 0.000000 0.249816 0.000000 0.000000
# 5 0.000000 0.000000 0.000000 0.000000 0.088482 0.000000
# 6 0.000000 0.000000 0.000000 0.000000 0.000000 0.010008
#
#
# Mechanical properties :
#
#
# Convention : Reuss Voigt Hill
#
# Bulk Modulus (GPa) = 59.71687 77.81540 68.76613
# Shear Modulus (GPa) = 11.85485 35.88668 23.87077
#
# Velocity S-wave (km/s) = 2.63113 4.57784 3.73360
# Velocity P-wave (km/s) = 6.64102 8.56644 7.66443
#
# Compressibility (1/GPa) = 0.01674569
#
# Stress axis : x y z
#
# Youngs Moduli (GPa) = 54.92477 116.46471 64.43096
#
# Poissons Ratio (x) = 0.47977 0.22769
# Poissons Ratio (y) = 0.22626 0.33057
# Poissons Ratio (z) = 0.19410 0.59754
#
# Static dielectric constant tensor:
#      x y z
#    x 1.635860 0.000000 0.000000 
#    y 0.000000 1.575090 0.000000 
#    z 0.000000 0.000000 1.568310 
# 
# From -- ./inp_files/15431.got.cif
#   From: 2010.05.17/outbox.cif.g08.bks.cpg/sg47_8_cif.got.tgz:15431.got - 2010.06.03 20:15:42.
