data_PCOD9382329
_publ_section_title
;
Structure prediction by ZEFSAII (Michael W. Deem and Ramdas Pophale) SiO2 
 PCOD9382329
Probable space group: P M M M
;
_chemical_formula_sum "Si O2"
_cell_formula_units_Z 45
_cell_length_a 21.456338
_cell_length_b 14.122622
_cell_length_c 7.372727
_cell_angle_alpha 90.000000
_cell_angle_beta 90.000000
_cell_angle_gamma 90.000000
_cell_volume 2234.081900
_symmetry_space_group_name_H-M "P M M M"
_symmetry_group_IT_number 47
_symmetry_cell_setting 'orthorhombic'
loop_
_space_group_symop_operation_xyz
x,y,z
-x,-y,z
x,-y,-z
-x,y,-z
-x,-y,-z
x,y,-z
-x,y,z
x,-y,z
loop_
_atom_site_type_symbol
_atom_site_label
_atom_site_fract_x
_atom_site_fract_y
_atom_site_fract_z
Si Si1 0.683217 0.304739 0.796007
Si Si2 0.069826 0.289854 0.218423
Si Si3 0.193690 0.394891 0.712637
Si Si4 0.859042 0.895650 0.220567
Si Si5 0.617032 0.500000 0.223360
Si Si6 0.714079 0.105718 0.221715
Si Si7 0.500000 0.500000 0.500000
O O1 0.757526 0.323869 0.801109
O O2 0.653654 0.402542 0.724939
O O3 0.677648 0.199505 0.713465
O O4 0.658443 0.297056 0.000000
O O5 0.122263 0.366063 0.265016
O O6 0.097830 0.189751 0.283147
O O7 0.000000 0.308104 0.284319
O O8 0.067247 0.286058 0.000000
O O9 0.208078 0.393546 0.500000
O O10 0.204265 0.500000 0.785041
O O11 0.786819 0.886010 0.276644
O O12 0.881045 0.000000 0.275186
O O13 0.858823 0.893223 0.000000
O O14 0.554382 0.500000 0.339390
O O15 0.610407 0.500000 0.000000
O O16 0.692442 0.000000 0.275231
O O17 0.713224 0.108010 0.000000
#
# Coordination Sequence:
#
# PCOD9382329 Si02
#       7
#     8   8   8   8   4   8   1
#     4  10  18  32  57  87 116 143 185 237 274 325
#     4  10  20  33  49  68  91 128 179 230 285 341
#     4  11  23  35  50  70  98 134 177 229 284 345
#     4   8  13  23  42  69  98 126 162 214 276 336
#     4  10  23  39  63  98 126 164 203 229 276 333
#     4   8  13  23  45  78 112 143 175 224 289 338
#     4  12  26  44  68  90 142 172 184 240 272 320
#
# _framework density 20.142502
#
# number of rings (size 3 to 8) (size 9 to 14) (size 15 to 20)
#    0.000    2.489    2.667    1.733    1.244    2.133 
#    0.000    3.556    0.000    2.133    0.000    2.489 
#    0.000    4.267    0.000    0.000    0.000    0.000 
#
# Total GULP energy -250594.534442 kJ/mol
# GULP energy per Si atom -5568.767432 kJ/mol
# Density = 2.009666 g / cm^3
# Si number density = 20.142502 Si / 1000 Ang^3
#
#
#
# Elastic Constant Matrix: (Units=GPa)
#
#
# Indices 1 2 3 4 5 6 
#
# 1 76.5408 42.5716 8.9145 0.0000 0.0000 0.0000
# 2 42.5716 159.7891 7.9294 0.0000 0.0000 0.0000
# 3 8.9145 7.9294 85.3862 0.0000 0.0000 0.0000
# 4 0.0000 0.0000 0.0000 94.9969 0.0000 0.0000
# 5 0.0000 0.0000 0.0000 0.0000 74.9739 0.0000
# 6 0.0000 0.0000 0.0000 0.0000 0.0000 -2.3774
#
#
#
# Elastic Compliance Matrix: (Units=1/GPa)
#
#
# Indices 1 2 3 4 5 6 
#
# 1 0.015467 -0.004059 -0.001238 0.000000 0.000000 0.000000
# 2 -0.004059 0.007353 -0.000259 0.000000 0.000000 0.000000
# 3 -0.001238 -0.000259 0.011865 0.000000 0.000000 0.000000
# 4 0.000000 0.000000 0.000000 0.010527 0.000000 0.000000
# 5 0.000000 0.000000 0.000000 0.000000 0.013338 0.000000
# 6 0.000000 0.000000 0.000000 0.000000 0.000000 -0.420621
#
#
# Mechanical properties :
#
#
# Convention : Reuss Voigt Hill
#
# Bulk Modulus (GPa) = 42.42319 48.94966 45.68642
# Shear Modulus (GPa) = -14.57289 51.00538 18.21624
#
# Velocity S-wave (km/s) = -2.69269 5.03758 3.01053
# Velocity P-wave (km/s) = 3.38227 7.62829 5.90045
#
# Compressibility (1/GPa) = 0.02357202
#
# Stress axis : x y z
#
# Youngs Moduli (GPa) = 64.65435 136.00629 84.28308
#
# Poissons Ratio (x) = 0.55209 0.10433
# Poissons Ratio (y) = 0.26245 0.02183
# Poissons Ratio (z) = 0.08003 0.03523
#
# Static dielectric constant tensor:
#      x y z
#    x 1.659430 0.000000 0.000000 
#    y 0.000000 1.766930 0.000000 
#    z 0.000000 0.000000 1.796850 
# 
# From -- ./inp_files/10896.got.cif
#   From: 2010.05.17/outbox.cif.g08.bks.cpg/sg47_6_cif.got.tgz:10896.got - 2010.06.03 20:15:42.
