data_PCOD9382532
_publ_section_title
;
Structure prediction by ZEFSAII (Michael W. Deem and Ramdas Pophale) SiO2 
 PCOD9382532
Probable space group: P M M M
;
_chemical_formula_sum "Si O2"
_cell_formula_units_Z 48
_cell_length_a 14.117061
_cell_length_b 25.170777
_cell_length_c 7.753864
_cell_angle_alpha 90.000000
_cell_angle_beta 90.000000
_cell_angle_gamma 90.000000
_cell_volume 2755.237830
_symmetry_space_group_name_H-M "P M M M"
_symmetry_group_IT_number 47
_symmetry_cell_setting 'orthorhombic'
loop_
_space_group_symop_operation_xyz
x,y,z
-x,-y,z
x,-y,-z
-x,y,-z
-x,-y,-z
x,y,-z
-x,y,z
x,-y,z
loop_
_atom_site_type_symbol
_atom_site_label
_atom_site_fract_x
_atom_site_fract_y
_atom_site_fract_z
Si Si1 0.394405 0.165949 0.711170
Si Si2 0.885736 0.557152 0.793570
Si Si3 0.109274 0.672513 0.791490
Si Si4 0.798277 0.783000 0.295565
Si Si5 0.699428 0.058593 0.297373
Si Si6 0.105436 0.889984 0.201361
O O1 0.395057 0.165584 0.500000
O O2 0.500000 0.179737 0.768451
O O3 0.308667 0.204405 0.764387
O O4 0.363629 0.107027 0.771855
O O5 0.851691 0.500000 0.723402
O O6 0.853592 0.614881 0.728413
O O7 0.000000 0.557884 0.772687
O O8 0.868260 0.556274 0.000000
O O9 0.168564 0.723660 0.740110
O O10 0.000000 0.679184 0.733473
O O11 0.107399 0.670275 0.000000
O O12 0.801338 0.792463 0.500000
O O13 0.866900 0.827789 0.216802
O O14 0.676760 0.055424 0.500000
O O15 0.808596 0.077211 0.283008
O O16 0.686100 0.000000 0.221398
O O17 0.000000 0.898986 0.272782
O O18 0.104494 0.903942 0.000000
#
# Coordination Sequence:
#
# PCOD9382532 Si02
#       6
#     8   8   8   8   8   8
#     4   8  15  29  47  64  81 102 130 165 204 246
#     4   7  10  18  33  53  77 107 144 178 199 221
#     4   9  16  25  39  60  86 116 145 170 199 236
#     4  10  19  29  43  63  84 106 135 171 209 246
#     4   9  18  31  47  68  88 104 127 161 201 244
#     4  10  20  32  45  60  81 112 144 169 195 230
#
# _framework density 17.421365000000002
#
# number of rings (size 3 to 8) (size 9 to 14) (size 15 to 20)
#    0.000    3.167    0.000    4.000    0.000    4.667 
#    0.000    3.333    0.000   13.000    0.000    7.000 
#    0.000    0.667    0.000    8.333    0.000    0.333 
#
# Total GULP energy -267286.375520 kJ/mol
# GULP energy per Si atom -5568.466157 kJ/mol
# Density = 1.738171 g / cm^3
# Si number density = 17.421365 Si / 1000 Ang^3
#
#
#
# Elastic Constant Matrix: (Units=GPa)
#
#
# Indices 1 2 3 4 5 6 
#
# 1 71.3638 25.8729 -2.5269 0.0000 0.0000 0.0000
# 2 25.8729 119.5234 -3.8734 0.0000 0.0000 0.0000
# 3 -2.5269 -3.8734 25.6849 0.0000 0.0000 0.0000
# 4 0.0000 0.0000 0.0000 17.7096 0.0000 0.0000
# 5 0.0000 0.0000 0.0000 0.0000 12.1123 0.0000
# 6 0.0000 0.0000 0.0000 0.0000 0.0000 9.4008
#
#
#
# Elastic Compliance Matrix: (Units=1/GPa)
#
#
# Indices 1 2 3 4 5 6 
#
# 1 0.015232 -0.003265 0.001006 0.000000 0.000000 0.000000
# 2 -0.003265 0.009107 0.001052 0.000000 0.000000 0.000000
# 3 0.001006 0.001052 0.039191 0.000000 0.000000 0.000000
# 4 0.000000 0.000000 0.000000 0.056467 0.000000 0.000000
# 5 0.000000 0.000000 0.000000 0.000000 0.082560 0.000000
# 6 0.000000 0.000000 0.000000 0.000000 0.000000 0.106374
#
#
# Mechanical properties :
#
#
# Convention : Reuss Voigt Hill
#
# Bulk Modulus (GPa) = 16.36178 28.39083 22.37630
# Shear Modulus (GPa) = 15.07312 20.98450 18.02881
#
# Velocity S-wave (km/s) = 2.94463 3.47439 3.22043
# Velocity P-wave (km/s) = 4.57967 5.69449 5.16723
#
# Compressibility (1/GPa) = 0.06111805
#
# Stress axis : x y z
#
# Youngs Moduli (GPa) = 65.65164 109.80157 25.51600
#
# Poissons Ratio (x) = 0.35846 -0.02567
# Poissons Ratio (y) = 0.21433 -0.02685
# Poissons Ratio (z) = -0.06606 -0.11554
#
# Static dielectric constant tensor:
#      x y z
#    x 1.576630 0.000000 0.000000 
#    y 0.000000 1.631900 0.000000 
#    z 0.000000 0.000000 1.659830 
# 
# From -- ./inp_files/7530.got.cif
#   From: 2010.05.17/outbox.cif.g08.bks.cpg/sg47_4_cif.got.tgz:7530.got - 2010.06.03 20:15:42.
