data_PCOD9382636
_publ_section_title
;
Structure prediction by ZEFSAII (Michael W. Deem and Ramdas Pophale) SiO2 
 PCOD9382636
Probable space group: P M M M
;
_chemical_formula_sum "Si O2"
_cell_formula_units_Z 29
_cell_length_a 22.231229
_cell_length_b 8.304145
_cell_length_c 7.293090
_cell_angle_alpha 90.000000
_cell_angle_beta 90.000000
_cell_angle_gamma 90.000000
_cell_volume 1346.387184
_symmetry_space_group_name_H-M "P M M M"
_symmetry_group_IT_number 47
_symmetry_cell_setting 'orthorhombic'
loop_
_space_group_symop_operation_xyz
x,y,z
-x,-y,z
x,-y,-z
-x,y,-z
-x,-y,-z
x,y,-z
-x,y,z
x,-y,z
loop_
_atom_site_type_symbol
_atom_site_label
_atom_site_fract_x
_atom_site_fract_y
_atom_site_fract_z
Si Si1 0.192813 0.679820 0.221134
Si Si2 0.613990 0.500000 0.274602
Si Si3 0.317765 0.824796 0.286774
Si Si4 0.065564 0.811190 0.222697
Si Si5 0.500000 0.500000 0.000000
O O1 0.208455 0.500000 0.283483
O O2 0.246117 0.798602 0.274110
O O3 0.126191 0.726077 0.285770
O O4 0.191039 0.679963 0.000000
O O5 0.607251 0.500000 0.500000
O O6 0.650500 0.337918 0.219299
O O7 0.552613 0.500000 0.161789
O O8 0.333913 0.831567 0.500000
O O9 0.333742 0.000000 0.206348
O O10 0.000000 0.748569 0.282588
O O11 0.068887 0.000000 0.270275
O O12 0.065682 0.802273 0.000000
#
# Coordination Sequence:
#
# PCOD9382636 Si02
#       5
#     8   4   8   8   1
#     4  10  19  29  48  79 112 145 192 250 303 359
#     4  10  23  45  67  96 134 166 201 250 293 347
#     4  10  21  38  61  86 117 159 199 242 300 355
#     4   8  14  25  40  62  98 144 191 241 301 362
#     4  12  26  44  78 102 132 170 208 236 290 362
#
# _framework density 21.539124000000001
#
# number of rings (size 3 to 8) (size 9 to 14) (size 15 to 20)
#    0.000    2.483    1.379    1.862    1.931    2.207 
#    0.000    4.138    0.000    4.138    0.000    5.793 
#    0.000    0.000    0.000    0.000    0.000    0.000 
#
# Total GULP energy -161547.255160 kJ/mol
# GULP energy per Si atom -5570.595006 kJ/mol
# Density = 2.149010 g / cm^3
# Si number density = 21.539124 Si / 1000 Ang^3
#
#
#
# Elastic Constant Matrix: (Units=GPa)
#
#
# Indices 1 2 3 4 5 6 
#
# 1 148.9523 72.9400 10.7022 0.0000 0.0000 0.0000
# 2 72.9400 156.3483 17.6648 0.0000 0.0000 0.0000
# 3 10.7022 17.6648 100.4455 0.0000 0.0000 0.0000
# 4 0.0000 0.0000 0.0000 -3.5068 0.0000 0.0000
# 5 0.0000 0.0000 0.0000 0.0000 37.6488 0.0000
# 6 0.0000 0.0000 0.0000 0.0000 0.0000 -2.0274
#
#
#
# Elastic Compliance Matrix: (Units=1/GPa)
#
#
# Indices 1 2 3 4 5 6 
#
# 1 0.008706 -0.004037 -0.000218 0.000000 0.000000 0.000000
# 2 -0.004037 0.008398 -0.001047 0.000000 0.000000 0.000000
# 3 -0.000218 -0.001047 0.010163 0.000000 0.000000 0.000000
# 4 0.000000 0.000000 0.000000 -0.285160 0.000000 0.000000
# 5 0.000000 0.000000 0.000000 0.000000 0.026561 0.000000
# 6 0.000000 0.000000 0.000000 0.000000 0.000000 -0.493242
#
#
# Mechanical properties :
#
#
# Convention : Reuss Voigt Hill
#
# Bulk Modulus (GPa) = 60.01001 67.59557 63.80279
# Shear Modulus (GPa) = -7.05798 26.71886 9.83044
#
# Velocity S-wave (km/s) = -1.81216 3.52587 2.13867
# Velocity P-wave (km/s) = 4.85210 6.93011 5.98203
#
# Compressibility (1/GPa) = 0.01666389
#
# Stress axis : x y z
#
# Youngs Moduli (GPa) = 114.86261 119.08191 98.39692
#
# Poissons Ratio (x) = 0.48073 0.02142
# Poissons Ratio (y) = 0.46370 0.10299
# Poissons Ratio (z) = 0.02500 0.12464
#
# Static dielectric constant tensor:
#      x y z
#    x 1.735930 0.000000 0.000000 
#    y 0.000000 1.792330 0.000000 
#    z 0.000000 0.000000 1.860330 
# 
# From -- ./inp_files/877.got.cif
#   From: 2010.05.17/outbox.cif.g08.bks.cpg/sg47_1_cif.got.tgz:877.got - 2010.06.03 20:15:42.
