data_PCOD9382351
_publ_section_title
;
Structure prediction by ZEFSAII (Michael W. Deem and Ramdas Pophale) SiO2 
 PCOD9382351
Probable space group: P M M M
;
_chemical_formula_sum "Si O2"
_cell_formula_units_Z 64
_cell_length_a 13.697819
_cell_length_b 14.585412
_cell_length_c 17.864459
_cell_angle_alpha 90.000000
_cell_angle_beta 90.000000
_cell_angle_gamma 90.000000
_cell_volume 3569.110495
_symmetry_space_group_name_H-M "P M M M"
_symmetry_group_IT_number 47
_symmetry_cell_setting 'orthorhombic'
loop_
_space_group_symop_operation_xyz
x,y,z
-x,-y,z
x,-y,-z
-x,y,-z
-x,-y,-z
x,y,-z
-x,y,z
x,-y,z
loop_
_atom_site_type_symbol
_atom_site_label
_atom_site_fract_x
_atom_site_fract_y
_atom_site_fract_z
Si Si1 0.612819 0.203206 0.084364
Si Si2 0.386829 0.608235 0.696891
Si Si3 0.720905 0.892364 0.219774
Si Si4 0.108339 0.394903 0.173977
Si Si5 0.111760 0.230484 0.291305
Si Si6 0.742044 0.728310 0.415592
Si Si7 0.320330 0.605276 0.130724
Si Si8 0.613292 0.893782 0.373823
O O1 0.500000 0.180466 0.100473
O O2 0.681492 0.157602 0.146189
O O3 0.625952 0.313099 0.089089
O O4 0.635908 0.172909 0.000000
O O5 0.500000 0.638896 0.695694
O O6 0.384494 0.500000 0.680243
O O7 0.322365 0.662380 0.637352
O O8 0.345401 0.618882 0.781008
O O9 0.817204 0.842677 0.251545
O O10 0.640689 0.883212 0.286006
O O11 0.737119 0.000000 0.206699
O O12 0.115466 0.500000 0.202228
O O13 0.114943 0.322087 0.240603
O O14 0.203364 0.382774 0.122552
O O15 0.000000 0.384560 0.139227
O O16 0.157589 0.253684 0.371725
O O17 0.000000 0.199560 0.295704
O O18 0.753569 0.694276 0.500000
O O19 0.682921 0.823793 0.415766
O O20 0.346579 0.500000 0.111391
O O21 0.500000 0.873038 0.386705
O O22 0.630901 0.000000 0.393652
#
# Coordination Sequence:
#
# PCOD9382351 Si02
#       8
#     8   8   8   8   8   8   8   8
#     4  11  23  36  52  81 120 154 181 213 261 321
#     4  10  20  33  50  73 102 142 192 235 267 307
#     4  10  20  37  59  81 104 136 181 229 270 313
#     4   9  16  29  55  84 103 125 168 225 276 317
#     4  10  20  36  58  82 105 134 176 225 273 321
#     4  11  22  34  49  73 107 143 174 214 269 329
#     4  10  18  33  56  79 107 146 189 231 273 317
#     4   9  18  33  54  77  98 126 171 224 270 313
#
# _framework density 17.931639000000001
#
# number of rings (size 3 to 8) (size 9 to 14) (size 15 to 20)
#    0.000    2.000    2.500    1.875    0.000    4.000 
#    0.000    2.500    0.000    1.500    0.000    8.750 
#    0.000    0.000    0.000    0.000    0.000    0.000 
#
# Total GULP energy -357112.457635 kJ/mol
# GULP energy per Si atom -5579.882151 kJ/mol
# Density = 1.789083 g / cm^3
# Si number density = 17.931639 Si / 1000 Ang^3
#
#
#
# Elastic Constant Matrix: (Units=GPa)
#
#
# Indices 1 2 3 4 5 6 
#
# 1 85.5892 10.4600 21.1590 0.0000 0.0000 0.0000
# 2 10.4600 47.3246 14.4041 0.0000 0.0000 0.0000
# 3 21.1590 14.4041 56.4912 0.0000 0.0000 0.0000
# 4 0.0000 0.0000 0.0000 5.4961 0.0000 0.0000
# 5 0.0000 0.0000 0.0000 0.0000 4.6426 0.0000
# 6 0.0000 0.0000 0.0000 0.0000 0.0000 22.5393
#
#
#
# Elastic Compliance Matrix: (Units=1/GPa)
#
#
# Indices 1 2 3 4 5 6 
#
# 1 0.012974 -0.001505 -0.004476 0.000000 0.000000 0.000000
# 2 -0.001505 0.023083 -0.005322 0.000000 0.000000 0.000000
# 3 -0.004476 -0.005322 0.020735 0.000000 0.000000 0.000000
# 4 0.000000 0.000000 0.000000 0.181949 0.000000 0.000000
# 5 0.000000 0.000000 0.000000 0.000000 0.215399 0.000000
# 6 0.000000 0.000000 0.000000 0.000000 0.000000 0.044367
#
#
# Mechanical properties :
#
#
# Convention : Reuss Voigt Hill
#
# Bulk Modulus (GPa) = 29.25118 31.27237 30.26178
# Shear Modulus (GPa) = 9.38952 16.09439 12.74195
#
# Velocity S-wave (km/s) = 2.29078 2.99915 2.66857
# Velocity P-wave (km/s) = 4.83166 5.42870 5.13886
#
# Compressibility (1/GPa) = 0.03418665
#
# Stress axis : x y z
#
# Youngs Moduli (GPa) = 77.07638 43.32156 48.22707
#
# Poissons Ratio (x) = 0.06522 0.21585
# Poissons Ratio (y) = 0.11603 0.25666
# Poissons Ratio (z) = 0.34497 0.23055
#
# Static dielectric constant tensor:
#      x y z
#    x 1.622040 0.000000 0.000000 
#    y 0.000000 1.620470 0.000000 
#    z 0.000000 0.000000 1.602630 
# 
# From -- ./inp_files/28331.got.cif
#   From: 2010.05.17/outbox.cif.g08.bks.cpg/sg47_15_cif.got.tgz:28331.got - 2010.06.03 20:15:42.
