data_PCOD9382877
_publ_section_title
;
Structure prediction by ZEFSAII (Michael W. Deem and Ramdas Pophale) SiO2 
 PCOD9382877
Probable space group: P M M M
;
_chemical_formula_sum "Si O2"
_cell_formula_units_Z 52
_cell_length_a 22.922103
_cell_length_b 13.694656
_cell_length_c 7.565109
_cell_angle_alpha 90.000000
_cell_angle_beta 90.000000
_cell_angle_gamma 90.000000
_cell_volume 2374.765752
_symmetry_space_group_name_H-M "P M M M"
_symmetry_group_IT_number 47
_symmetry_cell_setting 'orthorhombic'
loop_
_space_group_symop_operation_xyz
x,y,z
-x,-y,z
x,-y,-z
-x,y,-z
-x,-y,-z
x,y,-z
-x,y,z
x,-y,z
loop_
_atom_site_type_symbol
_atom_site_label
_atom_site_fract_x
_atom_site_fract_y
_atom_site_fract_z
Si Si1 0.932643 0.000000 0.283687
Si Si2 0.869782 0.193789 0.708913
Si Si3 0.435769 0.315727 0.706443
Si Si4 0.687321 0.395025 0.205204
Si Si5 0.931697 0.610128 0.284678
Si Si6 0.385618 0.107173 0.785745
Si Si7 0.264076 0.193691 0.213806
O O1 0.903345 0.900290 0.218688
O O2 0.927839 0.000000 0.500000
O O3 0.000000 0.000000 0.238397
O O4 0.882328 0.197591 0.500000
O O5 0.892040 0.299155 0.778177
O O6 0.801375 0.173291 0.731544
O O7 0.435303 0.341247 0.500000
O O8 0.500000 0.336754 0.779083
O O9 0.381510 0.371520 0.790493
O O10 0.422146 0.200158 0.722991
O O11 0.699283 0.500000 0.287024
O O12 0.719159 0.301401 0.283080
O O13 0.704733 0.398905 0.000000
O O14 0.929287 0.608253 0.500000
O O15 0.915021 0.500000 0.225599
O O16 0.000000 0.626377 0.237993
O O17 0.317973 0.124945 0.732049
O O18 0.405361 0.000000 0.727719
O O19 0.387696 0.109771 0.000000
O O20 0.265452 0.194024 0.000000
#
# Coordination Sequence:
#
# PCOD9382877 Si02
#       7
#     4   8   8   8   8   8   8
#     4   9  18  32  49  71 101 135 170 211 254 299
#     4  10  19  30  48  74  99 127 167 208 250 304
#     4  10  21  35  51  77 111 139 165 205 261 318
#     4   9  19  37  58  76  98 135 180 217 250 297
#     4   8  14  26  45  68  93 122 159 204 249 292
#     4   9  19  36  56  74  95 132 179 219 254 299
#     4   9  19  34  51  73 101 130 162 205 256 303
#
# _framework density 21.896896000000002
#
# number of rings (size 3 to 8) (size 9 to 14) (size 15 to 20)
#    0.000    2.846    0.000    2.308    1.077    7.385 
#    0.000    3.077    0.000    2.308    0.000    1.077 
#    0.000    0.000    0.000    0.000    0.000    0.000 
#
# Total GULP energy -290139.036744 kJ/mol
# GULP energy per Si atom -5579.596860 kJ/mol
# Density = 2.184706 g / cm^3
# Si number density = 21.896896 Si / 1000 Ang^3
#
#
#
# Elastic Constant Matrix: (Units=GPa)
#
#
# Indices 1 2 3 4 5 6 
#
# 1 72.7812 -1.8369 -11.1674 0.0000 0.0000 0.0000
# 2 -1.8369 58.0742 2.0185 0.0000 0.0000 0.0000
# 3 -11.1674 2.0185 50.3941 0.0000 0.0000 0.0000
# 4 0.0000 0.0000 0.0000 95.6640 0.0000 0.0000
# 5 0.0000 0.0000 0.0000 0.0000 13.4165 0.0000
# 6 0.0000 0.0000 0.0000 0.0000 0.0000 -5.9440
#
#
#
# Elastic Compliance Matrix: (Units=1/GPa)
#
#
# Indices 1 2 3 4 5 6 
#
# 1 0.014230 0.000341 0.003140 0.000000 0.000000 0.000000
# 2 0.000341 0.017252 -0.000615 0.000000 0.000000 0.000000
# 3 0.003140 -0.000615 0.020564 0.000000 0.000000 0.000000
# 4 0.000000 0.000000 0.000000 0.010453 0.000000 0.000000
# 5 0.000000 0.000000 0.000000 0.000000 0.074535 0.000000
# 6 0.000000 0.000000 0.000000 0.000000 0.000000 -0.168236
#
#
# Mechanical properties :
#
#
# Convention : Reuss Voigt Hill
#
# Bulk Modulus (GPa) = 17.30814 17.69756 17.50285
# Shear Modulus (GPa) = -282.90360 33.44299 -124.73030
#
# Velocity S-wave (km/s) = -11.37886 3.91230 -7.55554
# Velocity P-wave (km/s) = 12.83419 5.33928 8.25253
#
# Compressibility (1/GPa) = 0.05777628
#
# Stress axis : x y z
#
# Youngs Moduli (GPa) = 70.27321 57.96593 48.62864
#
# Poissons Ratio (x) = -0.01976 -0.15268
# Poissons Ratio (y) = -0.02396 0.02993
# Poissons Ratio (z) = -0.22064 0.03567
#
# Static dielectric constant tensor:
#      x y z
#    x 1.759280 0.000000 0.000000 
#    y 0.000000 1.817130 0.000000 
#    z 0.000000 0.000000 1.826390 
# 
# From -- ./inp_files/11031.got.cif
#   From: 2010.05.17/outbox.cif.g08.bks.cpg/sg47_6_cif.got.tgz:11031.got - 2010.06.03 20:15:42.
