data_PCOD9382491
_publ_section_title
;
Structure prediction by ZEFSAII (Michael W. Deem and Ramdas Pophale) SiO2 
 PCOD9382491
Probable space group: P M M M
;
_chemical_formula_sum "Si O2"
_cell_formula_units_Z 52
_cell_length_a 27.211881
_cell_length_b 9.112501
_cell_length_c 13.945517
_cell_angle_alpha 90.000000
_cell_angle_beta 90.000000
_cell_angle_gamma 90.000000
_cell_volume 3458.046043
_symmetry_space_group_name_H-M "P M M M"
_symmetry_group_IT_number 47
_symmetry_cell_setting 'orthorhombic'
loop_
_space_group_symop_operation_xyz
x,y,z
-x,-y,z
x,-y,-z
-x,y,-z
-x,-y,-z
x,y,-z
-x,y,z
x,-y,z
loop_
_atom_site_type_symbol
_atom_site_label
_atom_site_fract_x
_atom_site_fract_y
_atom_site_fract_z
Si Si1 0.200878 0.325798 0.114805
Si Si2 0.099591 0.830910 0.883392
Si Si3 0.296550 0.824123 0.199529
Si Si4 0.555582 0.676071 0.698077
Si Si5 0.390034 0.325083 0.891876
Si Si6 0.350986 0.176079 0.607411
Si Si7 0.000000 0.330329 0.116932
O O1 0.200731 0.500000 0.131181
O O2 0.148806 0.255513 0.144122
O O3 0.245924 0.249303 0.168225
O O4 0.206798 0.301881 0.000000
O O5 0.049563 0.751695 0.851725
O O6 0.101216 0.000000 0.852262
O O7 0.098590 0.830684 0.000000
O O8 0.340575 0.762343 0.133472
O O9 0.313004 0.784854 0.308085
O O10 0.293516 0.000000 0.191110
O O11 0.500000 0.724213 0.678163
O O12 0.557974 0.500000 0.685413
O O13 0.570708 0.707456 0.808595
O O14 0.597007 0.751145 0.633728
O O15 0.379440 0.500000 0.886439
O O16 0.406560 0.292512 0.000000
O O17 0.335656 0.217947 0.500000
O O18 0.356724 0.000000 0.610790
O O19 0.000000 0.500000 0.146320
O O20 0.000000 0.328349 0.000000
#
# Coordination Sequence:
#
# PCOD9382491 Si02
#       7
#     8   8   8   8   8   8   4
#     4  10  19  29  41  59  85 115 144 174 210 251
#     4   9  16  25  37  54  77 108 148 188 219 247
#     4  10  19  30  45  63  82 105 135 172 210 248
#     4   9  18  31  46  66  89 109 133 167 203 240
#     4   9  17  29  44  61  83 112 141 166 197 240
#     4   9  19  35  51  65  82 106 135 166 205 254
#     4   9  15  23  35  51  75 109 148 187 224 257
#
# _framework density 15.037394000000001
#
# number of rings (size 3 to 8) (size 9 to 14) (size 15 to 20)
#    0.000    2.692    0.000    2.077    0.000    7.692 
#    0.000    3.077    0.000    0.000    0.000    4.308 
#    0.000    0.000    0.000    0.692    0.000   14.385 
#
# Total GULP energy -289809.485890 kJ/mol
# GULP energy per Si atom -5573.259344 kJ/mol
# Density = 1.500317 g / cm^3
# Si number density = 15.037394 Si / 1000 Ang^3
#
#
#
# Elastic Constant Matrix: (Units=GPa)
#
#
# Indices 1 2 3 4 5 6 
#
# 1 114.0383 50.7727 15.7408 0.0000 0.0000 0.0000
# 2 50.7727 58.7639 22.3827 0.0000 0.0000 0.0000
# 3 15.7408 22.3827 47.4345 0.0000 0.0000 0.0000
# 4 0.0000 0.0000 0.0000 15.3902 0.0000 0.0000
# 5 0.0000 0.0000 0.0000 0.0000 9.7281 0.0000
# 6 0.0000 0.0000 0.0000 0.0000 0.0000 24.3601
#
#
#
# Elastic Compliance Matrix: (Units=1/GPa)
#
#
# Indices 1 2 3 4 5 6 
#
# 1 0.014319 -0.012876 0.001324 0.000000 0.000000 0.000000
# 2 -0.012876 0.032325 -0.010980 0.000000 0.000000 0.000000
# 3 0.001324 -0.010980 0.025823 0.000000 0.000000 0.000000
# 4 0.000000 0.000000 0.000000 0.064976 0.000000 0.000000
# 5 0.000000 0.000000 0.000000 0.000000 0.102794 0.000000
# 6 0.000000 0.000000 0.000000 0.000000 0.000000 0.041051
#
#
# Mechanical properties :
#
#
# Convention : Reuss Voigt Hill
#
# Bulk Modulus (GPa) = 36.49236 44.22544 40.35890
# Shear Modulus (GPa) = 14.90372 18.65174 16.77773
#
# Velocity S-wave (km/s) = 3.15161 3.52569 3.34388
# Velocity P-wave (km/s) = 6.12894 6.78588 6.46576
#
# Compressibility (1/GPa) = 0.02740300
#
# Stress axis : x y z
#
# Youngs Moduli (GPa) = 69.83734 30.93620 38.72461
#
# Poissons Ratio (x) = 0.39834 -0.05128
# Poissons Ratio (y) = 0.89924 0.42520
# Poissons Ratio (z) = -0.09248 0.33968
#
# Static dielectric constant tensor:
#      x y z
#    x 1.479070 0.000000 0.000000 
#    y 0.000000 1.501790 0.000000 
#    z 0.000000 0.000000 1.492030 
# 
# From -- ./inp_files/7616.got.cif
#   From: 2010.05.17/outbox.cif.g08.bks.cpg/sg47_4_cif.got.tgz:7616.got - 2010.06.03 20:15:42.
