data_PCOD9382109
_publ_section_title
;
Structure prediction by ZEFSAII (Michael W. Deem and Ramdas Pophale) SiO2 
 PCOD9382109
Probable space group: P M M M
;
_chemical_formula_sum "Si O2"
_cell_formula_units_Z 60
_cell_length_a 7.873602
_cell_length_b 19.744765
_cell_length_c 21.769772
_cell_angle_alpha 90.000000
_cell_angle_beta 90.000000
_cell_angle_gamma 90.000000
_cell_volume 3384.381464
_symmetry_space_group_name_H-M "P M M M"
_symmetry_group_IT_number 47
_symmetry_cell_setting 'orthorhombic'
loop_
_space_group_symop_operation_xyz
x,y,z
-x,-y,z
x,-y,-z
-x,y,-z
-x,-y,-z
x,y,-z
-x,y,z
x,-y,z
loop_
_atom_site_type_symbol
_atom_site_label
_atom_site_fract_x
_atom_site_fract_y
_atom_site_fract_z
Si Si1 0.791749 0.289294 0.930842
Si Si2 0.201892 0.281076 0.311516
Si Si3 0.292128 0.921020 0.500000
Si Si4 0.208043 0.792598 0.186830
Si Si5 0.201312 0.924780 0.249516
Si Si6 0.700811 0.852009 0.374342
Si Si7 0.796957 0.425285 0.867521
Si Si8 0.297192 0.575736 0.274448
O O1 0.736940 0.237323 0.878012
O O2 0.733683 0.363531 0.908463
O O3 0.000000 0.289547 0.930623
O O4 0.736908 0.274310 0.000000
O O5 0.262805 0.253891 0.244596
O O6 0.268370 0.227557 0.361494
O O7 0.245694 0.360143 0.315406
O O8 0.000000 0.274646 0.311962
O O9 0.500000 0.920473 0.500000
O O10 0.235419 0.881707 0.561244
O O11 0.240350 0.000000 0.500000
O O12 0.267942 0.868170 0.202595
O O13 0.000000 0.791868 0.187165
O O14 0.222586 0.893171 0.317187
O O15 0.000000 0.929596 0.238290
O O16 0.275156 0.000000 0.245706
O O17 0.500000 0.863706 0.372205
O O18 0.727089 0.500000 0.881861
O O19 0.766888 0.412406 0.795220
O O20 0.000000 0.427547 0.876228
O O21 0.500000 0.574256 0.272239
O O22 0.237224 0.500000 0.292993
#
# Coordination Sequence:
#
# PCOD9382109 Si02
#       8
#     8   8   4   8   8   8   8   8
#     4   9  15  23  38  60  83 111 151 195 237 282
#     4  10  18  31  49  68  94 125 158 195 236 279
#     4   9  18  32  49  71 104 141 166 187 221 266
#     4   8  14  25  40  59  83 111 143 187 238 280
#     4   9  17  29  45  65  90 120 154 193 238 281
#     4  10  19  31  49  73  99 128 161 193 225 266
#     4   9  16  26  40  59  84 115 150 189 236 285
#     4  10  19  29  44  68  95 122 154 195 240 283
#
# _framework density 17.728498999999999
#
# number of rings (size 3 to 8) (size 9 to 14) (size 15 to 20)
#    0.000    2.733    1.333    2.400    0.000    1.867 
#    0.000    2.667    0.000    3.200    0.000    5.133 
#    0.000    3.733    0.000    3.467    0.000    4.533 
#
# Total GULP energy -334375.478191 kJ/mol
# GULP energy per Si atom -5572.924637 kJ/mol
# Density = 1.768815 g / cm^3
# Si number density = 17.728499 Si / 1000 Ang^3
#
#
#
# Elastic Constant Matrix: (Units=GPa)
#
#
# Indices 1 2 3 4 5 6 
#
# 1 17.2135 -0.6426 -1.1153 0.0000 0.0000 0.0000
# 2 -0.6426 154.5504 78.8260 0.0000 0.0000 0.0000
# 3 -1.1153 78.8260 109.2148 0.0000 0.0000 0.0000
# 4 0.0000 0.0000 0.0000 28.8211 0.0000 0.0000
# 5 0.0000 0.0000 0.0000 0.0000 17.8681 0.0000
# 6 0.0000 0.0000 0.0000 0.0000 0.0000 14.3928
#
#
#
# Elastic Compliance Matrix: (Units=1/GPa)
#
#
# Indices 1 2 3 4 5 6 
#
# 1 0.058133 -0.000097 0.000663 0.000000 0.000000 0.000000
# 2 -0.000097 0.010240 -0.007392 0.000000 0.000000 0.000000
# 3 0.000663 -0.007392 0.014498 0.000000 0.000000 0.000000
# 4 0.000000 0.000000 0.000000 0.034697 0.000000 0.000000
# 5 0.000000 0.000000 0.000000 0.000000 0.055966 0.000000
# 6 0.000000 0.000000 0.000000 0.000000 0.000000 0.069479
#
#
# Mechanical properties :
#
#
# Convention : Reuss Voigt Hill
#
# Bulk Modulus (GPa) = 14.44638 48.34611 31.39624
# Shear Modulus (GPa) = 17.87392 25.81043 21.84217
#
# Velocity S-wave (km/s) = 3.17867 3.81973 3.51385
# Velocity P-wave (km/s) = 4.65169 6.83983 5.84900
#
# Compressibility (1/GPa) = 0.06922150
#
# Stress axis : x y z
#
# Youngs Moduli (GPa) = 17.20181 97.65599 68.97474
#
# Poissons Ratio (x) = 0.00944 -0.04576
# Poissons Ratio (y) = 0.00166 0.50984
# Poissons Ratio (z) = -0.01141 0.72185
#
# Static dielectric constant tensor:
#      x y z
#    x 1.648850 0.000000 0.000000 
#    y 0.000000 1.637840 0.000000 
#    z 0.000000 0.000000 1.578770 
# 
# From -- ./inp_files/29942.got.cif
#   From: 2010.05.17/outbox.cif.g08.bks.cpg/sg47_15_cif.got.tgz:29942.got - 2010.06.03 20:15:42.
