data_PCOD9382754
_publ_section_title
;
Structure prediction by ZEFSAII (Michael W. Deem and Ramdas Pophale) SiO2 
 PCOD9382754
Probable space group: P M M M
;
_chemical_formula_sum "Si O2"
_cell_formula_units_Z 40
_cell_length_a 8.041264
_cell_length_b 12.935751
_cell_length_c 21.528053
_cell_angle_alpha 90.000000
_cell_angle_beta 90.000000
_cell_angle_gamma 90.000000
_cell_volume 2239.343527
_symmetry_space_group_name_H-M "P M M M"
_symmetry_group_IT_number 47
_symmetry_cell_setting 'orthorhombic'
loop_
_space_group_symop_operation_xyz
x,y,z
-x,-y,z
x,-y,-z
-x,y,-z
-x,-y,-z
x,y,-z
-x,y,z
x,-y,z
loop_
_atom_site_type_symbol
_atom_site_label
_atom_site_fract_x
_atom_site_fract_y
_atom_site_fract_z
Si Si1 0.500000 0.122438 0.106854
Si Si2 0.180273 0.241146 0.261969
Si Si3 0.309250 0.500000 0.925728
Si Si4 0.808477 0.273507 0.114912
Si Si5 0.500000 0.885525 0.257391
Si Si6 0.305449 0.622107 0.366370
Si Si7 0.199073 0.378765 0.500000
O O1 0.665690 0.192025 0.091450
O O2 0.500000 0.115328 0.181943
O O3 0.500000 0.000000 0.085201
O O4 0.200532 0.273825 0.190125
O O5 0.332904 0.168773 0.277811
O O6 0.196574 0.332749 0.310997
O O7 0.000000 0.190548 0.267152
O O8 0.500000 0.500000 0.902358
O O9 0.227663 0.391307 0.905738
O O10 0.310940 0.500000 0.000000
O O11 0.000000 0.245222 0.097658
O O12 0.500000 0.000000 0.280769
O O13 0.500000 0.638647 0.352715
O O14 0.275225 0.500000 0.368927
O O15 0.263943 0.665578 0.434842
O O16 0.252061 0.500000 0.500000
O O17 0.000000 0.375240 0.500000
#
# Coordination Sequence:
#
# PCOD9382754 Si02
#       7
#     4   8   4   8   4   8   4
#     4   9  18  35  57  82 112 144 179 227 278 327
#     4  10  20  33  51  79 107 135 174 213 262 313
#     4  11  23  39  61  84 113 154 190 224 269 322
#     4  10  21  36  56  83 113 146 184 227 272 326
#     4   9  18  34  52  73 104 136 170 214 267 315
#     4  10  19  30  46  69 101 140 174 208 254 307
#     4   9  17  29  43  63  95 134 175 213 249 301
#
# _framework density 17.862378
#
# number of rings (size 3 to 8) (size 9 to 14) (size 15 to 20)
#    0.000    2.200    2.000    1.200    1.400    4.000 
#    0.000    4.000    0.000    1.200    0.000    2.800 
#    0.000    2.400    0.000    0.000    0.000    0.000 
#
# Total GULP energy -222753.135799 kJ/mol
# GULP energy per Si atom -5568.828395 kJ/mol
# Density = 1.782172 g / cm^3
# Si number density = 17.862378 Si / 1000 Ang^3
#
#
#
# Elastic Constant Matrix: (Units=GPa)
#
#
# Indices 1 2 3 4 5 6 
#
# 1 134.9732 70.6601 30.4516 0.0000 0.0000 0.0000
# 2 70.6601 100.5163 20.0107 0.0000 0.0000 0.0000
# 3 30.4516 20.0107 25.4036 0.0000 0.0000 0.0000
# 4 0.0000 0.0000 0.0000 -13.7253 0.0000 0.0000
# 5 0.0000 0.0000 0.0000 0.0000 21.6258 0.0000
# 6 0.0000 0.0000 0.0000 0.0000 0.0000 -7.8998
#
#
#
# Elastic Compliance Matrix: (Units=1/GPa)
#
#
# Indices 1 2 3 4 5 6 
#
# 1 0.013742 -0.007568 -0.010512 0.000000 0.000000 0.000000
# 2 -0.007568 0.015966 -0.003505 0.000000 0.000000 0.000000
# 3 -0.010512 -0.003505 0.054727 0.000000 0.000000 0.000000
# 4 0.000000 0.000000 0.000000 -0.072858 0.000000 0.000000
# 5 0.000000 0.000000 0.000000 0.000000 0.046241 0.000000
# 6 0.000000 0.000000 0.000000 0.000000 0.000000 -0.126586
#
#
# Mechanical properties :
#
#
# Convention : Reuss Voigt Hill
#
# Bulk Modulus (GPa) = 24.23347 55.90422 40.06884
# Shear Modulus (GPa) = -422.20003 9.31820 -206.44091
#
# Velocity S-wave (km/s) = -15.39077 2.28648 -10.76215
# Velocity P-wave (km/s) = 17.38500 6.19159 11.48700
#
# Compressibility (1/GPa) = 0.04126525
#
# Stress axis : x y z
#
# Youngs Moduli (GPa) = 72.76807 62.63162 18.27267
#
# Poissons Ratio (x) = 0.47398 0.19208
# Poissons Ratio (y) = 0.55069 0.06405
# Poissons Ratio (z) = 0.76493 0.21955
#
# Static dielectric constant tensor:
#      x y z
#    x 1.599850 0.000000 0.000000 
#    y 0.000000 1.606830 0.000000 
#    z 0.000000 0.000000 1.622600 
# 
# From -- ./inp_files/29390.got.cif
#   From: 2010.05.17/outbox.cif.g08.bks.cpg/sg47_15_cif.got.tgz:29390.got - 2010.06.03 20:15:42.
