data_PCOD9382677
_publ_section_title
;
Structure prediction by ZEFSAII (Michael W. Deem and Ramdas Pophale) SiO2 
 PCOD9382677
Probable space group: P M M M
;
_chemical_formula_sum "Si O2"
_cell_formula_units_Z 64
_cell_length_a 7.970657
_cell_length_b 20.612863
_cell_length_c 20.887866
_cell_angle_alpha 90.000000
_cell_angle_beta 90.000000
_cell_angle_gamma 90.000000
_cell_volume 3431.835877
_symmetry_space_group_name_H-M "P M M M"
_symmetry_group_IT_number 47
_symmetry_cell_setting 'orthorhombic'
loop_
_space_group_symop_operation_xyz
x,y,z
-x,-y,z
x,-y,-z
-x,y,-z
-x,-y,-z
x,y,-z
-x,y,z
x,-y,z
loop_
_atom_site_type_symbol
_atom_site_label
_atom_site_fract_x
_atom_site_fract_y
_atom_site_fract_z
Si Si1 0.301662 0.290550 0.251447
Si Si2 0.702063 0.927486 0.073470
Si Si3 0.801299 0.110000 0.430882
Si Si4 0.205156 0.071518 0.707856
Si Si5 0.201999 0.429685 0.290046
Si Si6 0.201056 0.606227 0.568797
Si Si7 0.801042 0.168504 0.184303
Si Si8 0.702604 0.251840 0.392528
O O1 0.500000 0.290069 0.256508
O O2 0.248518 0.365532 0.250834
O O3 0.252600 0.242664 0.194353
O O4 0.236571 0.260421 0.318852
O O5 0.500000 0.929157 0.073090
O O6 0.754109 0.870277 0.120611
O O7 0.760813 0.000000 0.093920
O O8 0.757912 0.917483 0.000000
O O9 0.730976 0.089574 0.500000
O O10 0.733652 0.080614 0.364854
O O11 0.776520 0.187099 0.422741
O O12 0.000000 0.095395 0.431970
O O13 0.268706 0.126419 0.755868
O O14 0.000000 0.075205 0.706307
O O15 0.250432 0.000000 0.731491
O O16 0.258741 0.500000 0.265443
O O17 0.265160 0.421571 0.363635
O O18 0.000000 0.430242 0.292975
O O19 0.264946 0.581523 0.500000
O O20 0.239849 0.682691 0.573027
O O21 0.000000 0.596372 0.568973
O O22 0.000000 0.167540 0.189129
O O23 0.500000 0.247795 0.394395
#
# Coordination Sequence:
#
# PCOD9382677 Si02
#       8
#     8   8   8   8   8   8   8   8
#     4  10  20  33  50  71  96 128 168 209 253 308
#     4   9  19  36  56  80 115 155 185 209 245 298
#     4  10  19  30  45  62  83 115 155 202 258 315
#     4   9  18  31  46  67  93 120 156 205 258 305
#     4   9  18  32  49  69  95 126 160 204 260 315
#     4   9  17  28  43  63  87 116 152 194 246 312
#     4  11  20  32  54  79 105 135 171 219 261 296
#     4  10  19  30  44  62  86 115 152 201 253 304
#
# _framework density 18.648910000000001
#
# number of rings (size 3 to 8) (size 9 to 14) (size 15 to 20)
#    0.000    2.375    1.250    2.250    0.000    4.750 
#    0.000    3.125    0.000    1.125    0.000    4.375 
#    0.000    0.500    0.000    5.250    0.000    2.250 
#
# Total GULP energy -356993.423210 kJ/mol
# GULP energy per Si atom -5578.022238 kJ/mol
# Density = 1.860646 g / cm^3
# Si number density = 18.648910 Si / 1000 Ang^3
#
#
#
# Elastic Constant Matrix: (Units=GPa)
#
#
# Indices 1 2 3 4 5 6 
#
# 1 20.6428 6.5755 8.4705 0.0000 0.0000 0.0000
# 2 6.5755 130.6228 59.3023 0.0000 0.0000 0.0000
# 3 8.4705 59.3023 73.1230 0.0000 0.0000 0.0000
# 4 0.0000 0.0000 0.0000 -13.6859 0.0000 0.0000
# 5 0.0000 0.0000 0.0000 0.0000 14.0040 0.0000
# 6 0.0000 0.0000 0.0000 0.0000 0.0000 3.9779
#
#
#
# Elastic Compliance Matrix: (Units=1/GPa)
#
#
# Indices 1 2 3 4 5 6 
#
# 1 0.050863 0.000181 -0.006039 0.000000 0.000000 0.000000
# 2 0.000181 0.012118 -0.009848 0.000000 0.000000 0.000000
# 3 -0.006039 -0.009848 0.022362 0.000000 0.000000 0.000000
# 4 0.000000 0.000000 0.000000 -0.073068 0.000000 0.000000
# 5 0.000000 0.000000 0.000000 0.000000 0.071408 0.000000
# 6 0.000000 0.000000 0.000000 0.000000 0.000000 0.251386
#
#
# Mechanical properties :
#
#
# Convention : Reuss Voigt Hill
#
# Bulk Modulus (GPa) = 18.54222 41.45390 29.99806
# Shear Modulus (GPa) = 13.00531 10.86190 11.93360
#
# Velocity S-wave (km/s) = 2.64365 2.41600 2.53239
# Velocity P-wave (km/s) = 4.39123 5.48266 4.96702
#
# Compressibility (1/GPa) = 0.05393098
#
# Stress axis : x y z
#
# Youngs Moduli (GPa) = 19.66055 82.52456 44.71863
#
# Poissons Ratio (x) = -0.01495 0.27005
# Poissons Ratio (y) = -0.00356 0.44040
# Poissons Ratio (z) = 0.11873 0.81273
#
# Static dielectric constant tensor:
#      x y z
#    x 1.661250 0.000000 0.000000 
#    y 0.000000 1.700600 0.000000 
#    z 0.000000 0.000000 1.658510 
# 
# From -- ./inp_files/11876.got.cif
#   From: 2010.05.17/outbox.cif.g08.bks.cpg/sg47_6_cif.got.tgz:11876.got - 2010.06.03 20:15:42.
