data_PCOD9382565
_publ_section_title
;
Structure prediction by ZEFSAII (Michael W. Deem and Ramdas Pophale) SiO2 
 PCOD9382565
Probable space group: P M M M
;
_chemical_formula_sum "Si O2"
_cell_formula_units_Z 52
_cell_length_a 14.312939
_cell_length_b 27.486093
_cell_length_c 7.658848
_cell_angle_alpha 90.000000
_cell_angle_beta 90.000000
_cell_angle_gamma 90.000000
_cell_volume 3013.042672
_symmetry_space_group_name_H-M "P M M M"
_symmetry_group_IT_number 47
_symmetry_cell_setting 'orthorhombic'
loop_
_space_group_symop_operation_xyz
x,y,z
-x,-y,z
x,-y,-z
-x,y,-z
-x,-y,-z
x,y,-z
-x,y,z
x,-y,z
loop_
_atom_site_type_symbol
_atom_site_label
_atom_site_fract_x
_atom_site_fract_y
_atom_site_fract_z
Si Si1 0.292275 0.703671 0.288613
Si Si2 0.792819 0.152652 0.793944
Si Si3 0.106897 0.054523 0.289428
Si Si4 0.396426 0.198225 0.208360
Si Si5 0.896618 0.751714 0.294814
Si Si6 0.613508 0.500000 0.703257
Si Si7 0.391448 0.606169 0.285934
O O1 0.288892 0.702692 0.500000
O O2 0.364366 0.746308 0.239484
O O3 0.190214 0.720433 0.222548
O O4 0.328887 0.651399 0.228649
O O5 0.826331 0.098046 0.765035
O O6 0.689433 0.165410 0.723738
O O7 0.865086 0.192004 0.718137
O O8 0.791649 0.162225 0.000000
O O9 0.105415 0.054011 0.500000
O O10 0.000000 0.063834 0.230510
O O11 0.133493 0.000000 0.230859
O O12 0.500000 0.189303 0.280481
O O13 0.401126 0.190600 0.000000
O O14 0.901965 0.739922 0.500000
O O15 0.000000 0.744664 0.218749
O O16 0.500000 0.500000 0.705578
O O17 0.642552 0.500000 0.500000
O O18 0.640672 0.552674 0.776740
O O19 0.390444 0.604969 0.500000
O O20 0.500000 0.613590 0.235890
#
# Coordination Sequence:
#
# PCOD9382565 Si02
#       7
#     8   8   8   8   8   4   8
#     4   9  16  25  39  59  78  99 133 171 198 225
#     4  10  19  29  44  65  84 104 133 166 195 226
#     4   9  18  32  48  65  86 111 134 157 193 239
#     4   9  18  31  43  57  82 112 135 157 193 239
#     4   9  17  28  40  55  79 109 134 157 194 242
#     4   7  10  16  26  44  72 100 120 147 197 247
#     4   8  12  18  30  50  75  98 122 158 200 236
#
# _framework density 17.258300999999999
#
# number of rings (size 3 to 8) (size 9 to 14) (size 15 to 20)
#    0.000    3.154    0.000    2.769    0.000    4.308 
#    0.000    0.769    0.000    0.462    0.000    4.308 
#    0.000    7.385    0.000    0.000    0.000   13.615 
#
# Total GULP energy -289638.018552 kJ/mol
# GULP energy per Si atom -5569.961895 kJ/mol
# Density = 1.721902 g / cm^3
# Si number density = 17.258301 Si / 1000 Ang^3
#
#
#
# Elastic Constant Matrix: (Units=GPa)
#
#
# Indices 1 2 3 4 5 6 
#
# 1 114.9697 69.4336 2.0535 0.0000 0.0000 0.0000
# 2 69.4336 140.5916 -6.6011 0.0000 0.0000 0.0000
# 3 2.0535 -6.6011 30.3558 0.0000 0.0000 0.0000
# 4 0.0000 0.0000 0.0000 -40.4652 0.0000 0.0000
# 5 0.0000 0.0000 0.0000 0.0000 10.1268 0.0000
# 6 0.0000 0.0000 0.0000 0.0000 0.0000 21.5186
#
#
#
# Elastic Compliance Matrix: (Units=1/GPa)
#
#
# Indices 1 2 3 4 5 6 
#
# 1 0.012541 -0.006298 -0.002218 0.000000 0.000000 0.000000
# 2 -0.006298 0.010349 0.002676 0.000000 0.000000 0.000000
# 3 -0.002218 0.002676 0.033675 0.000000 0.000000 0.000000
# 4 0.000000 0.000000 0.000000 -0.024713 0.000000 0.000000
# 5 0.000000 0.000000 0.000000 0.000000 0.098747 0.000000
# 6 0.000000 0.000000 0.000000 0.000000 0.000000 0.046471
#
#
# Mechanical properties :
#
#
# Convention : Reuss Voigt Hill
#
# Bulk Modulus (GPa) = 22.27862 46.18768 34.23315
# Shear Modulus (GPa) = 24.54461 12.97146 18.75804
#
# Velocity S-wave (km/s) = 3.77529 2.74452 3.30039
# Velocity P-wave (km/s) = 5.65161 6.07156 5.86535
#
# Compressibility (1/GPa) = 0.04488608
#
# Stress axis : x y z
#
# Youngs Moduli (GPa) = 79.73896 96.63059 29.69591
#
# Poissons Ratio (x) = 0.60855 0.06586
# Poissons Ratio (y) = 0.50217 -0.07948
# Poissons Ratio (z) = 0.17685 -0.25862
#
# Static dielectric constant tensor:
#      x y z
#    x 1.599630 0.000000 0.000000 
#    y 0.000000 1.584470 0.000000 
#    z 0.000000 0.000000 1.649910 
# 
# From -- ./inp_files/7997.got.cif
#   From: 2010.05.17/outbox.cif.g08.bks.cpg/sg47_4_cif.got.tgz:7997.got - 2010.06.03 20:15:42.
