data_PCOD9382405
_publ_section_title
;
Structure prediction by ZEFSAII (Michael W. Deem and Ramdas Pophale) SiO2 
 PCOD9382405
Probable space group: P M M M
;
_chemical_formula_sum "Si O2"
_cell_formula_units_Z 56
_cell_length_a 29.905237
_cell_length_b 14.119013
_cell_length_c 8.851198
_cell_angle_alpha 90.000000
_cell_angle_beta 90.000000
_cell_angle_gamma 90.000000
_cell_volume 3737.262840
_symmetry_space_group_name_H-M "P M M M"
_symmetry_group_IT_number 47
_symmetry_cell_setting 'orthorhombic'
loop_
_space_group_symop_operation_xyz
x,y,z
-x,-y,z
x,-y,-z
-x,y,-z
-x,-y,-z
x,y,-z
-x,y,z
x,-y,z
loop_
_atom_site_type_symbol
_atom_site_label
_atom_site_fract_x
_atom_site_fract_y
_atom_site_fract_z
Si Si1 0.776876 0.893688 0.816760
Si Si2 0.549245 0.614722 0.177183
Si Si3 0.184068 0.609423 0.319089
Si Si4 0.271161 0.705115 0.181594
Si Si5 0.642176 0.611900 0.679881
Si Si6 0.133871 0.781918 0.181047
Si Si7 0.051545 0.110274 0.681740
O O1 0.741573 0.812716 0.772013
O O2 0.825902 0.854110 0.774865
O O3 0.769197 0.000000 0.759989
O O4 0.776008 0.897066 0.000000
O O5 0.500000 0.647775 0.229486
O O6 0.548435 0.500000 0.186409
O O7 0.593025 0.644961 0.267512
O O8 0.554003 0.638765 0.000000
O O9 0.186136 0.619721 0.500000
O O10 0.174777 0.500000 0.283078
O O11 0.231683 0.640225 0.249263
O O12 0.147781 0.681615 0.251919
O O13 0.318512 0.669802 0.241250
O O14 0.269589 0.699486 0.000000
O O15 0.646146 0.619256 0.500000
O O16 0.646724 0.500000 0.720438
O O17 0.087461 0.822965 0.240127
O O18 0.133842 0.774554 0.000000
O O19 0.055487 0.117802 0.500000
O O20 0.000000 0.131943 0.721700
O O21 0.059967 0.000000 0.722026
#
# Coordination Sequence:
#
# PCOD9382405 Si02
#       7
#     8   8   8   8   8   8   8
#     4   8  15  28  44  63  87 112 139 173 213 256
#     4   8  14  25  40  57  78 106 141 180 219 257
#     4  10  20  33  48  65  88 119 152 185 221 262
#     4  10  19  29  44  65  87 114 147 183 221 258
#     4  10  19  28  39  57  84 118 150 180 215 255
#     4  10  19  30  48  72  94 118 148 183 222 263
#     4   9  18  32  49  70  97 126 152 180 218 264
#
# _framework density 14.984228999999999
#
# number of rings (size 3 to 8) (size 9 to 14) (size 15 to 20)
#    0.000    2.714    0.000    4.286    0.000    5.143 
#    0.000    2.143    0.000    9.000    0.000    3.000 
#    0.000    0.571    0.000    6.571    0.000    2.143 
#
# Total GULP energy -312054.109449 kJ/mol
# GULP energy per Si atom -5572.394812 kJ/mol
# Density = 1.495012 g / cm^3
# Si number density = 14.984229 Si / 1000 Ang^3
#
#
#
# Elastic Constant Matrix: (Units=GPa)
#
#
# Indices 1 2 3 4 5 6 
#
# 1 131.0983 73.2233 49.2060 0.0000 0.0000 0.0000
# 2 73.2233 106.7881 43.4608 0.0000 0.0000 0.0000
# 3 49.2060 43.4608 43.7713 0.0000 0.0000 0.0000
# 4 0.0000 0.0000 0.0000 16.0581 0.0000 0.0000
# 5 0.0000 0.0000 0.0000 0.0000 25.8724 0.0000
# 6 0.0000 0.0000 0.0000 0.0000 0.0000 19.1621
#
#
#
# Elastic Compliance Matrix: (Units=1/GPa)
#
#
# Indices 1 2 3 4 5 6 
#
# 1 0.015048 -0.005762 -0.011196 0.000000 0.000000 0.000000
# 2 -0.005762 0.017921 -0.011316 0.000000 0.000000 0.000000
# 3 -0.011196 -0.011316 0.046668 0.000000 0.000000 0.000000
# 4 0.000000 0.000000 0.000000 0.062274 0.000000 0.000000
# 5 0.000000 0.000000 0.000000 0.000000 0.038651 0.000000
# 6 0.000000 0.000000 0.000000 0.000000 0.000000 0.052186
#
#
# Mechanical properties :
#
#
# Convention : Reuss Voigt Hill
#
# Bulk Modulus (GPa) = 43.31055 68.15977 55.73516
# Shear Modulus (GPa) = 16.83547 19.93636 18.38592
#
# Velocity S-wave (km/s) = 3.35557 3.65154 3.50668
# Velocity P-wave (km/s) = 6.63174 7.96020 7.32614
#
# Compressibility (1/GPa) = 0.02308906
#
# Stress axis : x y z
#
# Youngs Moduli (GPa) = 66.45279 55.80108 21.42815
#
# Poissons Ratio (x) = 0.32153 0.23990
# Poissons Ratio (y) = 0.38290 0.24249
# Poissons Ratio (z) = 0.74397 0.63146
#
# Static dielectric constant tensor:
#      x y z
#    x 1.490230 0.000000 0.000000 
#    y 0.000000 1.487710 0.000000 
#    z 0.000000 0.000000 1.501580 
# 
# From -- ./inp_files/14219.got.cif
#   From: 2010.05.17/outbox.cif.g08.bks.cpg/sg47_8_cif.got.tgz:14219.got - 2010.06.03 20:15:42.
