data_PCOD9382361
_publ_section_title
;
Structure prediction by ZEFSAII (Michael W. Deem and Ramdas Pophale) SiO2 
 PCOD9382361
Probable space group: P M M M
;
_chemical_formula_sum "Si O2"
_cell_formula_units_Z 40
_cell_length_a 10.535948
_cell_length_b 7.840181
_cell_length_c 25.076370
_cell_angle_alpha 90.000000
_cell_angle_beta 90.000000
_cell_angle_gamma 90.000000
_cell_volume 2071.401931
_symmetry_space_group_name_H-M "P M M M"
_symmetry_group_IT_number 47
_symmetry_cell_setting 'orthorhombic'
loop_
_space_group_symop_operation_xyz
x,y,z
-x,-y,z
x,-y,-z
-x,y,-z
-x,-y,-z
x,y,-z
-x,y,z
x,-y,z
loop_
_atom_site_type_symbol
_atom_site_label
_atom_site_fract_x
_atom_site_fract_y
_atom_site_fract_z
Si Si1 0.751555 0.294771 0.375226
Si Si2 0.357254 0.794808 0.060535
Si Si3 0.500000 0.797467 0.560555
Si Si4 0.000000 0.291116 0.438739
Si Si5 0.856140 0.705091 0.854403
Si Si6 0.147735 0.292420 0.734744
O O1 0.759606 0.500000 0.373074
O O2 0.624169 0.252317 0.406300
O O3 0.873789 0.234020 0.408355
O O4 0.766063 0.232387 0.314271
O O5 0.500000 0.735137 0.075268
O O6 0.248553 0.748284 0.102026
O O7 0.361610 0.000000 0.058771
O O8 0.330314 0.734611 0.000000
O O9 0.500000 0.725502 0.500000
O O10 0.500000 0.000000 0.556072
O O11 0.000000 0.500000 0.438211
O O12 0.000000 0.236790 0.500000
O O13 0.862350 0.500000 0.851749
O O14 0.821612 0.766917 0.794622
O O15 0.000000 0.765714 0.866905
O O16 0.153745 0.500000 0.735633
O O17 0.000000 0.249466 0.723771
#
# Coordination Sequence:
#
# PCOD9382361 Si02
#       6
#     8   8   4   4   8   8
#     4  10  18  33  58  81 101 130 170 214 256 302
#     4   9  19  36  54  72 100 139 180 219 257 297
#     4  11  25  41  51  67 105 147 174 205 256 311
#     4   9  16  26  49  85 107 117 156 219 262 292
#     4   9  18  32  52  79 109 137 167 206 255 311
#     4   8  14  29  53  80 107 132 161 206 261 307
#
# _framework density 19.310593000000001
#
# number of rings (size 3 to 8) (size 9 to 14) (size 15 to 20)
#    0.000    2.800    1.000    2.700    0.000    3.200 
#    1.800    4.500    0.000    3.000    0.000    0.000 
#    0.000    0.000    0.000    0.000    0.000    0.000 
#
# Total GULP energy -223034.317050 kJ/mol
# GULP energy per Si atom -5575.857926 kJ/mol
# Density = 1.926664 g / cm^3
# Si number density = 19.310593 Si / 1000 Ang^3
#
#
#
# Elastic Constant Matrix: (Units=GPa)
#
#
# Indices 1 2 3 4 5 6 
#
# 1 175.2243 7.0991 139.6518 0.0000 0.0000 0.0000
# 2 7.0991 19.3333 13.2281 0.0000 0.0000 0.0000
# 3 139.6518 13.2281 203.2418 0.0000 0.0000 0.0000
# 4 0.0000 0.0000 0.0000 57.7995 0.0000 0.0000
# 5 0.0000 0.0000 0.0000 0.0000 44.3541 0.0000
# 6 0.0000 0.0000 0.0000 0.0000 0.0000 31.3659
#
#
#
# Elastic Compliance Matrix: (Units=1/GPa)
#
#
# Indices 1 2 3 4 5 6 
#
# 1 0.012650 0.001363 -0.008781 0.000000 0.000000 0.000000
# 2 0.001363 0.054282 -0.004469 0.000000 0.000000 0.000000
# 3 -0.008781 -0.004469 0.011245 0.000000 0.000000 0.000000
# 4 0.000000 0.000000 0.000000 0.017301 0.000000 0.000000
# 5 0.000000 0.000000 0.000000 0.000000 0.022546 0.000000
# 6 0.000000 0.000000 0.000000 0.000000 0.000000 0.031882
#
#
# Mechanical properties :
#
#
# Convention : Reuss Voigt Hill
#
# Bulk Modulus (GPa) = 18.38177 79.75083 49.06630
# Shear Modulus (GPa) = 26.06700 42.55859 34.31279
#
# Velocity S-wave (km/s) = 3.67806 4.69966 4.21989
# Velocity P-wave (km/s) = 5.25140 8.41652 7.01480
#
# Compressibility (1/GPa) = 0.05440173
#
# Stress axis : x y z
#
# Youngs Moduli (GPa) = 79.05206 18.42239 88.93184
#
# Poissons Ratio (x) = -0.02511 0.78089
# Poissons Ratio (y) = -0.10774 0.39748
# Poissons Ratio (z) = 0.69413 0.08234
#
# Static dielectric constant tensor:
#      x y z
#    x 1.654960 0.000000 0.000000 
#    y 0.000000 1.712900 0.000000 
#    z 0.000000 0.000000 1.689950 
# 
# From -- ./inp_files/1821.got.cif
#   From: 2010.05.17/outbox.cif.g08.bks.cpg/sg47_1_cif.got.tgz:1821.got - 2010.06.03 20:15:42.
