data_PCOD9382572
_publ_section_title
;
Structure prediction by ZEFSAII (Michael W. Deem and Ramdas Pophale) SiO2 
 PCOD9382572
Probable space group: P M M M
;
_chemical_formula_sum "Si O2"
_cell_formula_units_Z 52
_cell_length_a 14.047263
_cell_length_b 9.183256
_cell_length_c 27.151777
_cell_angle_alpha 90.000000
_cell_angle_beta 90.000000
_cell_angle_gamma 90.000000
_cell_volume 3502.568704
_symmetry_space_group_name_H-M "P M M M"
_symmetry_group_IT_number 47
_symmetry_cell_setting 'orthorhombic'
loop_
_space_group_symop_operation_xyz
x,y,z
-x,-y,z
x,-y,-z
-x,y,-z
-x,-y,-z
x,y,-z
-x,y,z
x,-y,z
loop_
_atom_site_type_symbol
_atom_site_label
_atom_site_fract_x
_atom_site_fract_y
_atom_site_fract_z
Si Si1 0.891713 0.325816 0.740958
Si Si2 0.384302 0.832421 0.000000
Si Si3 0.612551 0.674401 0.100141
Si Si4 0.203668 0.174103 0.648474
Si Si5 0.112260 0.325965 0.556818
Si Si6 0.392528 0.825457 0.704848
Si Si7 0.297133 0.674832 0.202949
O O1 0.886324 0.500000 0.731665
O O2 0.862123 0.242622 0.691305
O O3 0.811679 0.291134 0.781794
O O4 0.000000 0.290951 0.755110
O O5 0.355145 0.751949 0.949909
O O6 0.500000 0.828435 0.000000
O O7 0.354252 0.000000 0.000000
O O8 0.500000 0.706140 0.108126
O O9 0.620954 0.500000 0.094117
O O10 0.670994 0.719686 0.148459
O O11 0.173671 0.241378 0.596663
O O12 0.311692 0.211012 0.664825
O O13 0.193354 0.000000 0.647919
O O14 0.134868 0.289621 0.500000
O O15 0.124188 0.500000 0.562851
O O16 0.000000 0.294338 0.564687
O O17 0.500000 0.784975 0.690912
O O18 0.362265 0.748960 0.755593
O O19 0.389013 0.000000 0.711946
O O20 0.309262 0.500000 0.205981
#
# Coordination Sequence:
#
# PCOD9382572 Si02
#       7
#     8   4   8   8   8   8   8
#     4   9  17  29  44  62  87 117 143 168 204 250
#     4   9  17  27  39  57  80 107 138 168 201 247
#     4   9  16  26  40  58  82 109 135 168 209 246
#     4  10  19  29  44  66  88 111 141 175 208 244
#     4   9  18  32  48  65  86 112 139 168 208 256
#     4   9  18  31  44  60  86 117 144 171 206 247
#     4   9  17  28  43  64  86 110 143 177 207 244
#
# _framework density 14.846247
#
# number of rings (size 3 to 8) (size 9 to 14) (size 15 to 20)
#    0.000    2.846    0.000    2.077    0.000    5.846 
#    0.000    2.308    0.000    0.462    0.000    3.769 
#    0.000    4.308    0.000    0.000    0.000    0.000 
#
# Total GULP energy -289715.644438 kJ/mol
# GULP energy per Si atom -5571.454701 kJ/mol
# Density = 1.481246 g / cm^3
# Si number density = 14.846247 Si / 1000 Ang^3
#
#
#
# Elastic Constant Matrix: (Units=GPa)
#
#
# Indices 1 2 3 4 5 6 
#
# 1 97.1717 37.7749 71.9623 0.0000 0.0000 0.0000
# 2 37.7749 28.1048 52.8334 0.0000 0.0000 0.0000
# 3 71.9623 52.8334 145.8646 0.0000 0.0000 0.0000
# 4 0.0000 0.0000 0.0000 8.1082 0.0000 0.0000
# 5 0.0000 0.0000 0.0000 0.0000 19.8297 0.0000
# 6 0.0000 0.0000 0.0000 0.0000 0.0000 17.8261
#
#
#
# Elastic Compliance Matrix: (Units=1/GPa)
#
#
# Indices 1 2 3 4 5 6 
#
# 1 0.021561 -0.028152 -0.000440 0.000000 0.000000 0.000000
# 2 -0.028152 0.148265 -0.039814 0.000000 0.000000 0.000000
# 3 -0.000440 -0.039814 0.021494 0.000000 0.000000 0.000000
# 4 0.000000 0.000000 0.000000 0.123333 0.000000 0.000000
# 5 0.000000 0.000000 0.000000 0.000000 0.050430 0.000000
# 6 0.000000 0.000000 0.000000 0.000000 0.000000 0.056097
#
#
# Mechanical properties :
#
#
# Convention : Reuss Voigt Hill
#
# Bulk Modulus (GPa) = 18.34624 66.25359 42.29992
# Shear Modulus (GPa) = 8.67814 16.39082 12.53448
#
# Velocity S-wave (km/s) = 2.42034 3.32631 2.90881
# Velocity P-wave (km/s) = 4.49389 7.71206 6.31153
#
# Compressibility (1/GPa) = 0.05450707
#
# Stress axis : x y z
#
# Youngs Moduli (GPa) = 46.38005 6.74469 46.52503
#
# Poissons Ratio (x) = 0.18988 0.02048
# Poissons Ratio (y) = 1.30570 1.85235
# Poissons Ratio (z) = 0.02042 0.26853
#
# Static dielectric constant tensor:
#      x y z
#    x 1.492990 0.000000 0.000000 
#    y 0.000000 1.492520 0.000000 
#    z 0.000000 0.000000 1.469930 
# 
# From -- ./inp_files/7998.got.cif
#   From: 2010.05.17/outbox.cif.g08.bks.cpg/sg47_4_cif.got.tgz:7998.got - 2010.06.03 20:15:42.
