data_PCOD9382306
_publ_section_title
;
Structure prediction by ZEFSAII (Michael W. Deem and Ramdas Pophale) SiO2 
 PCOD9382306
Probable space group: P M M M
;
_chemical_formula_sum "Si O2"
_cell_formula_units_Z 56
_cell_length_a 21.452071
_cell_length_b 7.856669
_cell_length_c 15.936484
_cell_angle_alpha 90.000000
_cell_angle_beta 90.000000
_cell_angle_gamma 90.000000
_cell_volume 2685.964037
_symmetry_space_group_name_H-M "P M M M"
_symmetry_group_IT_number 47
_symmetry_cell_setting 'orthorhombic'
loop_
_space_group_symop_operation_xyz
x,y,z
-x,-y,z
x,-y,-z
-x,y,-z
-x,-y,-z
x,y,-z
-x,y,z
x,-y,z
loop_
_atom_site_type_symbol
_atom_site_label
_atom_site_fract_x
_atom_site_fract_y
_atom_site_fract_z
Si Si1 0.569292 0.294440 0.343931
Si Si2 0.703017 0.203829 0.409659
Si Si3 0.238149 0.197993 0.239204
Si Si4 0.074995 0.703165 0.591111
Si Si5 0.000000 0.291126 0.902811
Si Si6 0.894586 0.698346 0.225101
Si Si7 0.429220 0.204015 0.000000
Si Si8 0.367398 0.700611 0.173387
O O1 0.500000 0.233268 0.367792
O O2 0.567913 0.500000 0.347975
O O3 0.629385 0.236961 0.396201
O O4 0.586373 0.242649 0.248323
O O5 0.722767 0.271898 0.500000
O O6 0.741432 0.271283 0.330259
O O7 0.710848 0.000000 0.409002
O O8 0.177704 0.287013 0.202498
O O9 0.300626 0.213406 0.185174
O O10 0.222373 0.000000 0.248258
O O11 0.096853 0.772716 0.500000
O O12 0.088579 0.500000 0.589660
O O13 0.098694 0.773261 0.680364
O O14 0.000000 0.721175 0.593164
O O15 0.059602 0.234682 0.847057
O O16 0.000000 0.500000 0.906457
O O17 0.000000 0.233810 0.000000
O O18 0.912174 0.500000 0.233792
O O19 0.395837 0.265336 0.083591
O O20 0.500000 0.266932 0.000000
O O21 0.429442 0.000000 0.000000
O O22 0.357807 0.500000 0.185442
#
# Coordination Sequence:
#
# PCOD9382306 Si02
#       8
#     8   8   8   8   4   8   4   8
#     4   9  18  32  51  76 105 136 173 223 278 321
#     4   9  19  35  52  71 100 141 185 222 259 316
#     4  10  21  37  55  76 107 145 180 222 277 328
#     4   8  13  23  43  73 105 133 165 213 271 322
#     4   9  18  34  56  82 108 135 171 219 264 312
#     4  10  18  32  55  80 105 137 178 221 266 322
#     4  11  23  37  57  87 119 146 173 214 273 335
#     4  10  20  37  58  79 105 141 186 230 269 318
#
# _framework density 20.849124
#
# number of rings (size 3 to 8) (size 9 to 14) (size 15 to 20)
#    0.000    2.571    0.714    1.929    0.000    3.714 
#    1.286    1.786    0.000    0.429    0.000    1.000 
#    0.000    0.000    0.000    0.000    0.000    0.000 
#
# Total GULP energy -312381.413220 kJ/mol
# GULP energy per Si atom -5578.239522 kJ/mol
# Density = 2.080167 g / cm^3
# Si number density = 20.849124 Si / 1000 Ang^3
#
#
#
# Elastic Constant Matrix: (Units=GPa)
#
#
# Indices 1 2 3 4 5 6 
#
# 1 105.9967 0.6412 46.5370 0.0000 0.0000 0.0000
# 2 0.6412 27.1552 5.3163 0.0000 0.0000 0.0000
# 3 46.5370 5.3163 128.8400 0.0000 0.0000 0.0000
# 4 0.0000 0.0000 0.0000 8.9794 0.0000 0.0000
# 5 0.0000 0.0000 0.0000 0.0000 -2.8751 0.0000
# 6 0.0000 0.0000 0.0000 0.0000 0.0000 49.6132
#
#
#
# Elastic Compliance Matrix: (Units=1/GPa)
#
#
# Indices 1 2 3 4 5 6 
#
# 1 0.011220 0.000533 -0.004075 0.000000 0.000000 0.000000
# 2 0.000533 0.037151 -0.001725 0.000000 0.000000 0.000000
# 3 -0.004075 -0.001725 0.009305 0.000000 0.000000 0.000000
# 4 0.000000 0.000000 0.000000 0.111367 0.000000 0.000000
# 5 0.000000 0.000000 0.000000 0.000000 -0.347809 0.000000
# 6 0.000000 0.000000 0.000000 0.000000 0.000000 0.020156
#
#
# Mechanical properties :
#
#
# Convention : Reuss Voigt Hill
#
# Bulk Modulus (GPa) = 21.21313 40.77566 30.99439
# Shear Modulus (GPa) = -37.77475 25.10998 -6.33238
#
# Velocity S-wave (km/s) = -4.26116 3.47416 -1.74466
# Velocity P-wave (km/s) = 3.74343 5.97436 3.29240
#
# Compressibility (1/GPa) = 0.04714062
#
# Stress axis : x y z
#
# Youngs Moduli (GPa) = 89.12681 26.91746 107.47465
#
# Poissons Ratio (x) = -0.01434 0.43792
# Poissons Ratio (y) = -0.04748 0.18543
# Poissons Ratio (z) = 0.36316 0.04644
#
# Static dielectric constant tensor:
#      x y z
#    x 1.730340 0.000000 0.000000 
#    y 0.000000 1.757430 0.000000 
#    z 0.000000 0.000000 1.768180 
# 
# From -- ./inp_files/25256.got.cif
#   From: 2010.05.17/outbox.cif.g08.bks.cpg/sg47_13_cif.got.tgz:25256.got - 2010.06.03 20:15:42.
