data_PCOD9382811
_publ_section_title
;
Structure prediction by ZEFSAII (Michael W. Deem and Ramdas Pophale) SiO2 
 PCOD9382811
Probable space group: P M M M
;
_chemical_formula_sum "Si O2"
_cell_formula_units_Z 52
_cell_length_a 21.246456
_cell_length_b 15.924440
_cell_length_c 7.773261
_cell_angle_alpha 90.000000
_cell_angle_beta 90.000000
_cell_angle_gamma 90.000000
_cell_volume 2629.988910
_symmetry_space_group_name_H-M "P M M M"
_symmetry_group_IT_number 47
_symmetry_cell_setting 'orthorhombic'
loop_
_space_group_symop_operation_xyz
x,y,z
-x,-y,z
x,-y,-z
-x,y,-z
-x,-y,-z
x,y,-z
-x,y,z
x,-y,z
loop_
_atom_site_type_symbol
_atom_site_label
_atom_site_fract_x
_atom_site_fract_y
_atom_site_fract_z
Si Si1 0.248664 0.219117 0.207034
Si Si2 0.000000 0.897977 0.199064
Si Si3 0.500000 0.115841 0.306891
Si Si4 0.641288 0.092382 0.707490
Si Si5 0.500000 0.712283 0.184787
Si Si6 0.392322 0.594210 0.701229
Si Si7 0.137571 0.096791 0.788879
Si Si8 0.249108 0.592688 0.800058
O O1 0.314841 0.171464 0.243661
O O2 0.193654 0.156737 0.267375
O O3 0.235724 0.314043 0.274205
O O4 0.245697 0.225568 0.000000
O O5 0.068110 0.874514 0.272424
O O6 0.000000 0.000000 0.197726
O O7 0.000000 0.869819 0.000000
O O8 0.500000 0.082036 0.500000
O O9 0.431372 0.095653 0.228801
O O10 0.500000 0.215439 0.320542
O O11 0.638592 0.093940 0.500000
O O12 0.667552 0.000000 0.760294
O O13 0.560814 0.656097 0.207659
O O14 0.500000 0.754526 0.000000
O O15 0.384856 0.616708 0.500000
O O16 0.418578 0.500000 0.707865
O O17 0.324717 0.592880 0.788320
O O18 0.147786 0.000000 0.737057
O O19 0.136127 0.097200 0.000000
O O20 0.229644 0.500000 0.726496
O O21 0.229179 0.592264 0.000000
#
# Coordination Sequence:
#
# PCOD9382811 Si02
#       8
#     8   4   4   8   4   8   8   8
#     4  10  19  30  47  71  95 120 152 191 234 275
#     4   7  10  18  34  58  90 124 152 181 221 265
#     4  10  21  37  53  64  81 115 156 191 221 262
#     4  10  21  36  52  69  90 118 152 190 233 279
#     4  12  23  32  45  66  89 110 137 177 227 281
#     4  10  20  33  48  64  82 107 142 184 229 277
#     4   8  13  22  38  63  94 123 151 186 226 267
#     4   9  18  32  47  64  89 119 149 183 226 275
#
# _framework density 19.771946
#
# number of rings (size 3 to 8) (size 9 to 14) (size 15 to 20)
#    0.000    2.538    0.000    3.923    0.000    7.385 
#    0.000    0.000    0.000    1.385    0.000    1.077 
#    0.000    7.385    0.000    0.000    0.000    8.846 
#
# Total GULP energy -289631.957678 kJ/mol
# GULP energy per Si atom -5569.845340 kJ/mol
# Density = 1.972694 g / cm^3
# Si number density = 19.771946 Si / 1000 Ang^3
#
#
#
# Elastic Constant Matrix: (Units=GPa)
#
#
# Indices 1 2 3 4 5 6 
#
# 1 99.6333 56.6516 -2.8591 0.0000 0.0000 0.0000
# 2 56.6516 143.0722 11.4835 0.0000 0.0000 0.0000
# 3 -2.8591 11.4835 41.1241 0.0000 0.0000 0.0000
# 4 0.0000 0.0000 0.0000 -5.9876 0.0000 0.0000
# 5 0.0000 0.0000 0.0000 0.0000 18.3421 0.0000
# 6 0.0000 0.0000 0.0000 0.0000 0.0000 -5.0729
#
#
#
# Elastic Compliance Matrix: (Units=1/GPa)
#
#
# Indices 1 2 3 4 5 6 
#
# 1 0.013186 -0.005416 0.002429 0.000000 0.000000 0.000000
# 2 -0.005416 0.009374 -0.002994 0.000000 0.000000 0.000000
# 3 0.002429 -0.002994 0.025322 0.000000 0.000000 0.000000
# 4 0.000000 0.000000 0.000000 -0.167012 0.000000 0.000000
# 5 0.000000 0.000000 0.000000 0.000000 0.054519 0.000000
# 6 0.000000 0.000000 0.000000 0.000000 0.000000 -0.197127
#
#
# Mechanical properties :
#
#
# Convention : Reuss Voigt Hill
#
# Bulk Modulus (GPa) = 27.83992 46.04239 36.94115
# Shear Modulus (GPa) = -21.02596 16.02657 -2.49969
#
# Velocity S-wave (km/s) = -3.26456 2.85014 -1.12561
# Velocity P-wave (km/s) = 0.31414 5.84537 4.12733
#
# Compressibility (1/GPa) = 0.03591965
#
# Stress axis : x y z
#
# Youngs Moduli (GPa) = 75.83691 106.67289 39.49186
#
# Poissons Ratio (x) = 0.57777 -0.09593
# Poissons Ratio (y) = 0.41075 0.11825
# Poissons Ratio (z) = -0.18422 0.31941
#
# Static dielectric constant tensor:
#      x y z
#    x 1.690950 0.000000 0.000000 
#    y 0.000000 1.739930 0.000000 
#    z 0.000000 0.000000 1.761800 
# 
# From -- ./inp_files/11134.got.cif
#   From: 2010.05.17/outbox.cif.g08.bks.cpg/sg47_6_cif.got.tgz:11134.got - 2010.06.03 20:15:42.
