data_PCOD9382662
_publ_section_title
;
Structure prediction by ZEFSAII (Michael W. Deem and Ramdas Pophale) SiO2 
 PCOD9382662
Probable space group: P M M M
;
_chemical_formula_sum "Si O2"
_cell_formula_units_Z 60
_cell_length_a 9.105299
_cell_length_b 19.699756
_cell_length_c 29.277439
_cell_angle_alpha 90.000000
_cell_angle_beta 90.000000
_cell_angle_gamma 90.000000
_cell_volume 5251.557725
_symmetry_space_group_name_H-M "P M M M"
_symmetry_group_IT_number 47
_symmetry_cell_setting 'orthorhombic'
loop_
_space_group_symop_operation_xyz
x,y,z
-x,-y,z
x,-y,-z
-x,y,-z
-x,-y,-z
x,y,-z
-x,y,z
x,-y,z
loop_
_atom_site_type_symbol
_atom_site_label
_atom_site_fract_x
_atom_site_fract_y
_atom_site_fract_z
Si Si1 0.671778 0.082438 0.949409
Si Si2 0.675817 0.848179 0.586120
Si Si3 0.826325 0.081524 0.671823
Si Si4 0.670681 0.575676 0.555407
Si Si5 0.171352 0.081343 0.500000
Si Si6 0.830803 0.917199 0.857584
Si Si7 0.827255 0.713234 0.444882
Si Si8 0.668345 0.082478 0.234360
O O1 0.500000 0.100093 0.944297
O O2 0.762709 0.105939 0.905680
O O3 0.678684 0.000000 0.949424
O O4 0.722183 0.104678 0.000000
O O5 0.500000 0.851306 0.584266
O O6 0.737378 0.880050 0.632680
O O7 0.747525 0.890209 0.544457
O O8 0.733421 0.771715 0.578999
O O9 0.764861 0.100932 0.721668
O O10 0.000000 0.095331 0.668170
O O11 0.806214 0.000000 0.666381
O O12 0.674195 0.574636 0.500000
O O13 0.500000 0.586396 0.568342
O O14 0.716132 0.500000 0.570747
O O15 0.770532 0.638789 0.569298
O O16 0.000000 0.103437 0.500000
O O17 0.174494 0.000000 0.500000
O O18 0.738521 0.894886 0.813491
O O19 0.000000 0.897138 0.853238
O O20 0.826561 0.000000 0.857882
O O21 0.806699 0.719748 0.500000
O O22 0.000000 0.721507 0.435615
O O23 0.500000 0.105010 0.239165
O O24 0.667113 0.000000 0.233128
#
# Coordination Sequence:
#
# PCOD9382662 Si02
#       8
#     8   8   8   8   4   8   8   8
#     4   8  13  20  28  38  54  76  99 121 146 178
#     4  12  23  33  46  60  74  92 113 137 165 201
#     4  10  20  33  46  57  70  86 105 135 173 208
#     4   8  14  25  41  60  81 101 119 138 158 181
#     4  11  23  37  49  59  72  89 110 137 169 203
#     4   9  15  21  30  44  60  77  97 121 151 186
#     4  10  19  30  44  59  78  99 118 139 161 189
#     4   9  16  26  39  52  64  78  99 127 158 194
#
# _framework density 11.425182
#
# number of rings (size 3 to 8) (size 9 to 14) (size 15 to 20)
#    0.000    2.467    0.667    4.200    0.000    7.200 
#    0.000    2.667    0.000    0.000    0.000    0.000 
#    0.000    0.000    0.000    0.000    0.000    0.000 
#
# Total GULP energy -334284.528655 kJ/mol
# GULP energy per Si atom -5571.408811 kJ/mol
# Density = 1.139918 g / cm^3
# Si number density = 11.425182 Si / 1000 Ang^3
#
#
#
# Elastic Constant Matrix: (Units=GPa)
#
#
# Indices 1 2 3 4 5 6 
#
# 1 96.2895 33.3754 48.1929 0.0000 0.0000 0.0000
# 2 33.3754 39.7476 21.8011 0.0000 0.0000 0.0000
# 3 48.1929 21.8011 78.9847 0.0000 0.0000 0.0000
# 4 0.0000 0.0000 0.0000 -0.3976 0.0000 0.0000
# 5 0.0000 0.0000 0.0000 0.0000 17.9172 0.0000
# 6 0.0000 0.0000 0.0000 0.0000 0.0000 13.3456
#
#
#
# Elastic Compliance Matrix: (Units=1/GPa)
#
#
# Indices 1 2 3 4 5 6 
#
# 1 0.018202 -0.010832 -0.008116 0.000000 0.000000 0.000000
# 2 -0.010832 0.036094 -0.003353 0.000000 0.000000 0.000000
# 3 -0.008116 -0.003353 0.018538 0.000000 0.000000 0.000000
# 4 0.000000 0.000000 0.000000 -2.515211 0.000000 0.000000
# 5 0.000000 0.000000 0.000000 0.000000 0.055812 0.000000
# 6 0.000000 0.000000 0.000000 0.000000 0.000000 0.074931
#
#
# Mechanical properties :
#
#
# Convention : Reuss Voigt Hill
#
# Bulk Modulus (GPa) = 35.42226 46.86229 41.14227
# Shear Modulus (GPa) = -2.21472 13.61655 5.70091
#
# Velocity S-wave (km/s) = -1.39380 3.45599 2.23620
# Velocity P-wave (km/s) = 5.33674 7.55188 6.53879
#
# Compressibility (1/GPa) = 0.02823084
#
# Stress axis : x y z
#
# Youngs Moduli (GPa) = 54.93849 27.70576 53.94237
#
# Poissons Ratio (x) = 0.30012 0.43781
# Poissons Ratio (y) = 0.59512 0.18087
# Poissons Ratio (z) = 0.44589 0.09290
#
# Static dielectric constant tensor:
#      x y z
#    x 1.381040 0.000000 0.000000 
#    y 0.000000 1.349790 0.000000 
#    z 0.000000 0.000000 1.365030 
# 
# From -- ./inp_files/33490.got.cif
#   From: 2010.05.17/outbox.cif.g08.bks.cpg/sg47_17_cif.got.tgz:33490.got - 2010.06.03 20:15:42.
