data_PCOD9382244
_publ_section_title
;
Structure prediction by ZEFSAII (Michael W. Deem and Ramdas Pophale) SiO2 
 PCOD9382244
Probable space group: P M M M
;
_chemical_formula_sum "Si O2"
_cell_formula_units_Z 45
_cell_length_a 7.473910
_cell_length_b 23.898449
_cell_length_c 12.411194
_cell_angle_alpha 90.000000
_cell_angle_beta 90.000000
_cell_angle_gamma 90.000000
_cell_volume 2216.823641
_symmetry_space_group_name_H-M "P M M M"
_symmetry_group_IT_number 47
_symmetry_cell_setting 'orthorhombic'
loop_
_space_group_symop_operation_xyz
x,y,z
-x,-y,z
x,-y,-z
-x,y,-z
-x,-y,-z
x,y,-z
-x,y,z
x,-y,z
loop_
_atom_site_type_symbol
_atom_site_label
_atom_site_fract_x
_atom_site_fract_y
_atom_site_fract_z
Si Si1 0.281654 0.063091 0.623924
Si Si2 0.790255 0.378598 0.230027
Si Si3 0.713895 0.166401 0.764616
Si Si4 0.713004 0.326873 0.000000
Si Si5 0.219164 0.500000 0.696744
Si Si6 0.784602 0.722688 0.376289
Si Si7 0.500000 0.500000 0.500000
Si Si8 0.280527 0.801231 0.000000
O O1 0.227971 0.073374 0.500000
O O2 0.500000 0.063775 0.624904
O O3 0.217055 0.112292 0.701085
O O4 0.227060 0.000000 0.654106
O O5 0.731106 0.442363 0.243066
O O6 0.714321 0.332429 0.313545
O O7 0.000000 0.379696 0.254225
O O8 0.767859 0.357130 0.109146
O O9 0.500000 0.160221 0.771865
O O10 0.745206 0.222532 0.695136
O O11 0.779780 0.172359 0.887113
O O12 0.778984 0.263229 0.000000
O O13 0.500000 0.324204 0.000000
O O14 0.340981 0.500000 0.591926
O O15 0.000000 0.500000 0.678517
O O16 0.719426 0.726870 0.500000
O O17 0.000000 0.718994 0.381565
O O18 0.500000 0.802012 0.000000
#
# Coordination Sequence:
#
# PCOD9382244 Si02
#       8
#     8   8   8   4   4   8   1   4
#     4   8  14  25  44  71 102 136 177 224 274 331
#     4  10  22  41  62  84 114 154 196 236 293 356
#     4  10  18  32  51  74 104 140 181 224 278 332
#     4  11  21  36  60  84 118 149 186 247 297 343
#     4  10  25  46  66  93 126 163 206 254 301 362
#     4  10  21  35  53  79 109 140 178 229 282 337
#     4  12  26  44  72  96 128 168 210 240 308 378
#     4   9  18  31  47  76 110 142 174 230 285 330
#
# _framework density 20.299312
#
# number of rings (size 3 to 8) (size 9 to 14) (size 15 to 20)
#    0.000    2.311    1.778    1.467    2.489    1.422 
#    0.000    2.667    0.000    3.200    0.000    2.489 
#    0.000    1.422    0.000    0.000    0.000    0.000 
#
# Total GULP energy -250859.438948 kJ/mol
# GULP energy per Si atom -5574.654199 kJ/mol
# Density = 2.025311 g / cm^3
# Si number density = 20.299312 Si / 1000 Ang^3
#
#
#
# Elastic Constant Matrix: (Units=GPa)
#
#
# Indices 1 2 3 4 5 6 
#
# 1 57.7363 10.2918 1.6521 0.0000 0.0000 0.0000
# 2 10.2918 207.4225 132.4169 0.0000 0.0000 0.0000
# 3 1.6521 132.4169 195.0565 0.0000 0.0000 0.0000
# 4 0.0000 0.0000 0.0000 59.6944 0.0000 0.0000
# 5 0.0000 0.0000 0.0000 0.0000 0.6693 0.0000
# 6 0.0000 0.0000 0.0000 0.0000 0.0000 14.1495
#
#
#
# Elastic Compliance Matrix: (Units=1/GPa)
#
#
# Indices 1 2 3 4 5 6 
#
# 1 0.017542 -0.001369 0.000781 0.000000 0.000000 0.000000
# 2 -0.001369 0.008615 -0.005837 0.000000 0.000000 0.000000
# 3 0.000781 -0.005837 0.009083 0.000000 0.000000 0.000000
# 4 0.000000 0.000000 0.000000 0.016752 0.000000 0.000000
# 5 0.000000 0.000000 0.000000 0.000000 1.494059 0.000000
# 6 0.000000 0.000000 0.000000 0.000000 0.000000 0.070674
#
#
# Mechanical properties :
#
#
# Convention : Reuss Voigt Hill
#
# Bulk Modulus (GPa) = 44.66392 83.21520 63.93956
# Shear Modulus (GPa) = 3.05430 35.95963 19.50696
#
# Velocity S-wave (km/s) = 1.22796 4.21345 3.10331
# Velocity P-wave (km/s) = 4.90520 8.04699 6.66389
#
# Compressibility (1/GPa) = 0.02238944
#
# Stress axis : x y z
#
# Youngs Moduli (GPa) = 57.00684 116.07259 110.09993
#
# Poissons Ratio (x) = 0.15887 -0.08594
# Poissons Ratio (y) = 0.07802 0.64266
# Poissons Ratio (z) = -0.04450 0.67752
#
# Static dielectric constant tensor:
#      x y z
#    x 1.781830 0.000000 0.000000 
#    y 0.000000 1.715950 0.000000 
#    z 0.000000 0.000000 1.681490 
# 
# From -- ./inp_files/15363.got.cif
#   From: 2010.05.17/outbox.cif.g08.bks.cpg/sg47_8_cif.got.tgz:15363.got - 2010.06.03 20:15:42.
