data_PCOD9382071
_publ_section_title
;
Structure prediction by ZEFSAII (Michael W. Deem and Ramdas Pophale) SiO2 
 PCOD9382071
Probable space group: P M M M
;
_chemical_formula_sum "Si O2"
_cell_formula_units_Z 48
_cell_length_a 8.223412
_cell_length_b 18.202790
_cell_length_c 15.429953
_cell_angle_alpha 90.000000
_cell_angle_beta 90.000000
_cell_angle_gamma 90.000000
_cell_volume 2309.694878
_symmetry_space_group_name_H-M "P M M M"
_symmetry_group_IT_number 47
_symmetry_cell_setting 'orthorhombic'
loop_
_space_group_symop_operation_xyz
x,y,z
-x,-y,z
x,-y,-z
-x,y,-z
-x,-y,-z
x,y,-z
-x,y,z
x,-y,z
loop_
_atom_site_type_symbol
_atom_site_label
_atom_site_fract_x
_atom_site_fract_y
_atom_site_fract_z
Si Si1 0.811740 0.418514 0.136408
Si Si2 0.196127 0.861674 0.219481
Si Si3 0.695932 0.914460 0.403786
Si Si4 0.189044 0.589717 0.500000
Si Si5 0.801236 0.261936 0.906454
Si Si6 0.320428 0.411687 0.681780
Si Si7 0.198634 0.000000 0.898937
O O1 0.739034 0.500000 0.121189
O O2 0.739269 0.345488 0.095573
O O3 0.801524 0.401779 0.239139
O O4 0.000000 0.423091 0.109936
O O5 0.247541 0.872058 0.318605
O O6 0.254652 0.787276 0.173282
O O7 0.000000 0.861737 0.217895
O O8 0.249495 0.929079 0.157415
O O9 0.750522 0.889003 0.500000
O O10 0.500000 0.913611 0.404223
O O11 0.747609 0.000000 0.394467
O O12 0.201284 0.500000 0.500000
O O13 0.268664 0.617534 0.411528
O O14 0.000000 0.607484 0.500000
O O15 0.000000 0.265581 0.901509
O O16 0.762198 0.227844 0.000000
O O17 0.500000 0.385416 0.706417
O O18 0.328794 0.500000 0.671647
O O19 0.000000 0.000000 0.901106
O O20 0.251502 0.000000 0.000000
#
# Coordination Sequence:
#
# PCOD9382071 Si02
#       7
#     8   8   8   4   8   8   4
#     4   9  17  30  49  71  95 127 170 216 262 313
#     4  10  18  30  51  79 107 137 175 216 255 298
#     4   9  18  33  53  77 107 143 177 209 252 305
#     4   9  15  23  39  65  95 123 153 192 241 300
#     4   9  18  32  51  76 105 135 170 217 269 314
#     4   9  16  26  42  65  92 121 154 196 247 301
#     4   9  16  26  44  73 106 138 171 205 244 295
#
# _framework density 20.781967000000002
#
# number of rings (size 3 to 8) (size 9 to 14) (size 15 to 20)
#    0.000    2.833    0.833    1.750    0.000    5.667 
#    0.000    3.333    1.833    4.000    0.000    2.333 
#    0.000    0.000    0.000    0.000    0.000    0.000 
#
# Total GULP energy -267398.888389 kJ/mol
# GULP energy per Si atom -5570.810175 kJ/mol
# Density = 2.073467 g / cm^3
# Si number density = 20.781967 Si / 1000 Ang^3
#
#
#
# Elastic Constant Matrix: (Units=GPa)
#
#
# Indices 1 2 3 4 5 6 
#
# 1 16.6245 6.6768 8.3592 0.0000 0.0000 0.0000
# 2 6.6768 96.3582 66.4724 0.0000 0.0000 0.0000
# 3 8.3592 66.4724 176.2813 0.0000 0.0000 0.0000
# 4 0.0000 0.0000 0.0000 13.6475 0.0000 0.0000
# 5 0.0000 0.0000 0.0000 0.0000-1094.2607 0.0000
# 6 0.0000 0.0000 0.0000 0.0000 0.0000 3.9091
#
#
#
# Elastic Compliance Matrix: (Units=1/GPa)
#
#
# Indices 1 2 3 4 5 6 
#
# 1 0.062290 -0.003080 -0.001793 0.000000 0.000000 0.000000
# 2 -0.003080 0.014179 -0.005201 0.000000 0.000000 0.000000
# 3 -0.001793 -0.005201 0.007719 0.000000 0.000000 0.000000
# 4 0.000000 0.000000 0.000000 0.073273 0.000000 0.000000
# 5 0.000000 0.000000 0.000000 0.000000 -0.000914 0.000000
# 6 0.000000 0.000000 0.000000 0.000000 0.000000 0.255812
#
#
# Mechanical properties :
#
#
# Convention : Reuss Voigt Hill
#
# Bulk Modulus (GPa) = 15.61456 50.25342 32.93399
# Shear Modulus (GPa) = 11.01679 -201.49043 -95.23682
#
# Velocity S-wave (km/s) = 2.30492 -9.85723 -6.77688
# Velocity P-wave (km/s) = 3.82274 10.26253 6.73447
#
# Compressibility (1/GPa) = 0.06404277
#
# Stress axis : x y z
#
# Youngs Moduli (GPa) = 16.05382 70.52716 129.55382
#
# Poissons Ratio (x) = 0.21719 0.23223
# Poissons Ratio (y) = 0.04944 0.67376
# Poissons Ratio (z) = 0.02878 0.36678
#
# Static dielectric constant tensor:
#      x y z
#    x 1.749030 0.000000 0.000000 
#    y 0.000000 1.771370 0.000000 
#    z 0.000000 0.000000 1.761580 
# 
# From -- ./inp_files/21122.got.cif
#   From: 2010.05.17/outbox.cif.g08.bks.cpg/sg47_11_cif.got.tgz:21122.got - 2010.06.03 20:15:42.
