data_PCOD9382975
_publ_section_title
;
Structure prediction by ZEFSAII (Michael W. Deem and Ramdas Pophale) SiO2 
 PCOD9382975
Probable space group: P M M M
;
_chemical_formula_sum "Si O2"
_cell_formula_units_Z 64
_cell_length_a 8.295762
_cell_length_b 24.426639
_cell_length_c 19.822857
_cell_angle_alpha 90.000000
_cell_angle_beta 90.000000
_cell_angle_gamma 90.000000
_cell_volume 4016.855843
_symmetry_space_group_name_H-M "P M M M"
_symmetry_group_IT_number 47
_symmetry_cell_setting 'orthorhombic'
loop_
_space_group_symop_operation_xyz
x,y,z
-x,-y,z
x,-y,-z
-x,y,-z
-x,-y,-z
x,y,-z
-x,y,z
x,-y,z
loop_
_atom_site_type_symbol
_atom_site_label
_atom_site_fract_x
_atom_site_fract_y
_atom_site_fract_z
Si Si1 0.189454 0.332671 0.345856
Si Si2 0.694160 0.061214 0.211843
Si Si3 0.696408 0.835112 0.705047
Si Si4 0.695107 0.759281 0.074810
Si Si5 0.694664 0.437600 0.577576
Si Si6 0.694445 0.275949 0.216886
Si Si7 0.306490 0.773551 0.424118
Si Si8 0.193158 0.115176 0.075693
O O1 0.240165 0.391794 0.372687
O O2 0.238138 0.320255 0.268767
O O3 0.271241 0.285668 0.391740
O O4 0.000000 0.325857 0.352920
O O5 0.500000 0.060486 0.217267
O O6 0.754603 0.108351 0.262706
O O7 0.736736 0.079591 0.136129
O O8 0.754658 0.000000 0.225645
O O9 0.500000 0.836940 0.704035
O O10 0.739587 0.783678 0.752668
O O11 0.752167 0.818456 0.630149
O O12 0.500000 0.760076 0.075634
O O13 0.748144 0.723903 0.139157
O O14 0.752094 0.821820 0.084189
O O15 0.748059 0.741247 0.000000
O O16 0.743971 0.425655 0.500000
O O17 0.500000 0.435998 0.579158
O O18 0.744495 0.500000 0.593329
O O19 0.500000 0.279530 0.219067
O O20 0.241907 0.778175 0.500000
O O21 0.500000 0.778854 0.427354
O O22 0.000000 0.112996 0.078724
O O23 0.244196 0.097948 0.000000
#
# Coordination Sequence:
#
# PCOD9382975 Si02
#       8
#     8   8   8   8   8   8   8   8
#     4  11  21  29  42  68  99 125 152 189 225 259
#     4  10  19  31  47  63  80 107 146 188 223 262
#     4   8  14  27  44  63  82 104 137 176 221 267
#     4   9  16  28  48  69  88 114 149 185 221 265
#     4   9  18  33  51  68  90 126 167 197 223 262
#     4   9  16  29  47  64  88 120 150 183 222 266
#     4   9  17  30  48  65  84 114 148 182 223 272
#     4  10  20  31  43  61  87 115 141 175 219 267
#
# _framework density 15.932859000000001
#
# number of rings (size 3 to 8) (size 9 to 14) (size 15 to 20)
#    0.000    2.625    1.250    3.000    0.000    4.000 
#    0.000    1.875    0.000    0.375    0.000    2.625 
#    0.000    0.500    0.000   10.125    0.000    7.125 
#
# Total GULP energy -356659.515164 kJ/mol
# GULP energy per Si atom -5572.804924 kJ/mol
# Density = 1.589660 g / cm^3
# Si number density = 15.932859 Si / 1000 Ang^3
#
#
#
# Elastic Constant Matrix: (Units=GPa)
#
#
# Indices 1 2 3 4 5 6 
#
# 1 5.3686 7.1128 13.3725 0.0000 0.0000 0.0000
# 2 7.1128 93.2969 65.3175 0.0000 0.0000 0.0000
# 3 13.3725 65.3175 127.2939 0.0000 0.0000 0.0000
# 4 0.0000 0.0000 0.0000 26.0984 0.0000 0.0000
# 5 0.0000 0.0000 0.0000 0.0000 2.3645 0.0000
# 6 0.0000 0.0000 0.0000 0.0000 0.0000 -7.7931
#
#
#
# Elastic Compliance Matrix: (Units=1/GPa)
#
#
# Indices 1 2 3 4 5 6 
#
# 1 0.252349 -0.001060 -0.025966 0.000000 0.000000 0.000000
# 2 -0.001060 0.016732 -0.008474 0.000000 0.000000 0.000000
# 3 -0.025966 -0.008474 0.014932 0.000000 0.000000 0.000000
# 4 0.000000 0.000000 0.000000 0.038317 0.000000 0.000000
# 5 0.000000 0.000000 0.000000 0.000000 0.422923 0.000000
# 6 0.000000 0.000000 0.000000 0.000000 0.000000 -0.128319
#
#
# Mechanical properties :
#
#
# Convention : Reuss Voigt Hill
#
# Bulk Modulus (GPa) = 4.69456 44.17390 24.43423
# Shear Modulus (GPa) = 6.58815 13.47773 10.03294
#
# Velocity S-wave (km/s) = 2.03566 2.91160 2.51211
# Velocity P-wave (km/s) = 2.91172 6.25208 4.87681
#
# Compressibility (1/GPa) = 0.21301245
#
# Stress axis : x y z
#
# Youngs Moduli (GPa) = 3.96277 59.76510 66.97039
#
# Poissons Ratio (x) = 0.06335 1.73894
# Poissons Ratio (y) = 0.00420 0.56753
# Poissons Ratio (z) = 0.10290 0.50647
#
# Static dielectric constant tensor:
#      x y z
#    x 1.544680 0.000000 0.000000 
#    y 0.000000 1.511880 0.000000 
#    z 0.000000 0.000000 1.561540 
# 
# From -- ./inp_files/11829.got.cif
#   From: 2010.05.17/outbox.cif.g08.bks.cpg/sg47_6_cif.got.tgz:11829.got - 2010.06.03 20:15:42.
