data_PCOD9382009
_publ_section_title
;
Structure prediction by ZEFSAII (Michael W. Deem and Ramdas Pophale) SiO2 
 PCOD9382009
Probable space group: P M M M
;
_chemical_formula_sum "Si O2"
_cell_formula_units_Z 52
_cell_length_a 13.045502
_cell_length_b 9.032916
_cell_length_c 28.187847
_cell_angle_alpha 90.000000
_cell_angle_beta 90.000000
_cell_angle_gamma 90.000000
_cell_volume 3321.625553
_symmetry_space_group_name_H-M "P M M M"
_symmetry_group_IT_number 47
_symmetry_cell_setting 'orthorhombic'
loop_
_space_group_symop_operation_xyz
x,y,z
-x,-y,z
x,-y,-z
-x,y,-z
-x,-y,-z
x,y,-z
-x,y,z
x,-y,z
loop_
_atom_site_type_symbol
_atom_site_label
_atom_site_fract_x
_atom_site_fract_y
_atom_site_fract_z
Si Si1 0.000000 0.323790 0.764834
Si Si2 0.213186 0.177620 0.763409
Si Si3 0.000000 0.824604 0.866562
Si Si4 0.617540 0.321868 0.053846
Si Si5 0.378731 0.323084 0.695624
Si Si6 0.624394 0.169875 0.403393
Si Si7 0.225362 0.825566 0.124234
Si Si8 0.625070 0.671368 0.500000
O O1 0.894123 0.250950 0.746877
O O2 0.000000 0.278340 0.820406
O O3 0.000000 0.500000 0.758497
O O4 0.307096 0.243571 0.733825
O O5 0.228233 0.211053 0.819587
O O6 0.207186 0.000000 0.758625
O O7 0.107690 0.799642 0.892113
O O8 0.000000 0.000000 0.851128
O O9 0.500000 0.275489 0.063212
O O10 0.619562 0.500000 0.054620
O O11 0.694513 0.261084 0.092697
O O12 0.644167 0.274538 0.000000
O O13 0.500000 0.290447 0.703159
O O14 0.365976 0.500000 0.697616
O O15 0.349680 0.262185 0.643525
O O16 0.500000 0.167306 0.405306
O O17 0.659039 0.246205 0.452151
O O18 0.659387 0.000000 0.399842
O O19 0.246376 0.000000 0.120064
O O20 0.656088 0.500000 0.500000
O O21 0.500000 0.673677 0.500000
#
# Coordination Sequence:
#
# PCOD9382009 Si02
#       8
#     4   8   4   8   8   8   8   4
#     4  10  18  30  50  73  93 117 155 197 234 271
#     4  10  20  34  50  69  96 127 157 190 232 283
#     4   8  16  32  49  69  98 123 143 177 228 277
#     4   9  19  35  51  67  91 122 153 188 230 271
#     4  10  20  32  45  65  95 128 161 197 237 280
#     4   9  16  26  40  58  83 118 157 194 235 283
#     4   9  18  32  51  72  92 117 150 186 224 271
#     4   9  15  23  37  57  81 112 153 198 237 275
#
# _framework density 15.654987
#
# number of rings (size 3 to 8) (size 9 to 14) (size 15 to 20)
#    0.000    2.692    0.000    3.692    0.000    8.000 
#    0.000    4.231    0.000    2.308    0.000    0.000 
#    0.000    0.615    0.000    6.154    0.000    5.538 
#
# Total GULP energy -289663.781247 kJ/mol
# GULP energy per Si atom -5570.457332 kJ/mol
# Density = 1.561936 g / cm^3
# Si number density = 15.654987 Si / 1000 Ang^3
#
#
#
# Elastic Constant Matrix: (Units=GPa)
#
#
# Indices 1 2 3 4 5 6 
#
# 1 91.4779 55.8201 68.9697 0.0000 0.0000 0.0000
# 2 55.8201 80.9198 51.5436 0.0000 0.0000 0.0000
# 3 68.9697 51.5436 89.2145 0.0000 0.0000 0.0000
# 4 0.0000 0.0000 0.0000 29.1078 0.0000 0.0000
# 5 0.0000 0.0000 0.0000 0.0000 -3.1407 0.0000
# 6 0.0000 0.0000 0.0000 0.0000 0.0000 26.4667
#
#
#
# Elastic Compliance Matrix: (Units=1/GPa)
#
#
# Indices 1 2 3 4 5 6 
#
# 1 0.030148 -0.009416 -0.017866 0.000000 0.000000 0.000000
# 2 -0.009416 0.022495 -0.005717 0.000000 0.000000 0.000000
# 3 -0.017866 -0.005717 0.028324 0.000000 0.000000 0.000000
# 4 0.000000 0.000000 0.000000 0.034355 0.000000 0.000000
# 5 0.000000 0.000000 0.000000 0.000000 -0.318398 0.000000
# 6 0.000000 0.000000 0.000000 0.000000 0.000000 0.037783
#
#
# Mechanical properties :
#
#
# Convention : Reuss Voigt Hill
#
# Bulk Modulus (GPa) = 66.81081 68.25323 67.53202
# Shear Modulus (GPa) = -53.01928 16.17202 -18.42363
#
# Velocity S-wave (km/s) = -5.82588 3.21756 -3.43425
# Velocity P-wave (km/s) = 1.57633 7.58265 5.24461
#
# Compressibility (1/GPa) = 0.01496764
#
# Stress axis : x y z
#
# Youngs Moduli (GPa) = 33.17013 44.45439 35.30582
#
# Poissons Ratio (x) = 0.41859 0.63078
# Poissons Ratio (y) = 0.31233 0.20184
# Poissons Ratio (z) = 0.59263 0.25415
#
# Static dielectric constant tensor:
#      x y z
#    x 1.519690 0.000000 0.000000 
#    y 0.000000 1.524280 0.000000 
#    z 0.000000 0.000000 1.508910 
# 
# From -- ./inp_files/33675.got.cif
#   From: 2010.05.17/outbox.cif.g08.bks.cpg/sg47_17_cif.got.tgz:33675.got - 2010.06.03 20:15:42.
