data_PCOD9382531
_publ_section_title
;
Structure prediction by ZEFSAII (Michael W. Deem and Ramdas Pophale) SiO2 
 PCOD9382531
Probable space group: P M M M
;
_chemical_formula_sum "Si O2"
_cell_formula_units_Z 52
_cell_length_a 7.801303
_cell_length_b 14.195289
_cell_length_c 27.702906
_cell_angle_alpha 90.000000
_cell_angle_beta 90.000000
_cell_angle_gamma 90.000000
_cell_volume 3067.868309
_symmetry_space_group_name_H-M "P M M M"
_symmetry_group_IT_number 47
_symmetry_cell_setting 'orthorhombic'
loop_
_space_group_symop_operation_xyz
x,y,z
-x,-y,z
x,-y,-z
-x,y,-z
-x,-y,-z
x,y,-z
-x,y,z
x,-y,z
loop_
_atom_site_type_symbol
_atom_site_label
_atom_site_fract_x
_atom_site_fract_y
_atom_site_fract_z
Si Si1 0.200966 0.214445 0.095173
Si Si2 0.211032 0.891003 0.000000
Si Si3 0.297149 0.894030 0.809060
Si Si4 0.210284 0.606856 0.150786
Si Si5 0.293655 0.607879 0.343230
Si Si6 0.203923 0.285602 0.753401
Si Si7 0.296400 0.614015 0.551926
O O1 0.271372 0.163198 0.047982
O O2 0.216479 0.148106 0.142155
O O3 0.270927 0.315977 0.111864
O O4 0.000000 0.229161 0.085453
O O5 0.000000 0.892101 0.000000
O O6 0.264594 0.000000 0.000000
O O7 0.500000 0.897176 0.817462
O O8 0.265058 0.819018 0.766688
O O9 0.235585 0.000000 0.799228
O O10 0.265913 0.500000 0.142738
O O11 0.265557 0.645685 0.203309
O O12 0.000000 0.607385 0.150436
O O13 0.500000 0.602956 0.347061
O O14 0.232170 0.500000 0.334856
O O15 0.252281 0.673518 0.298286
O O16 0.228005 0.643375 0.395591
O O17 0.000000 0.284150 0.756613
O O18 0.223848 0.646193 0.500000
O O19 0.500000 0.635900 0.551029
O O20 0.283103 0.500000 0.552584
#
# Coordination Sequence:
#
# PCOD9382531 Si02
#       7
#     8   4   8   8   8   8   8
#     4   9  17  29  46  66  86 112 143 170 203 252
#     4   9  16  26  42  64  88 111 139 177 214 251
#     4  10  20  33  48  65  85 107 133 172 220 263
#     4   8  14  25  40  58  81 108 138 171 203 236
#     4   9  16  25  39  61  89 119 150 185 220 250
#     4  10  19  29  43  62  85 114 145 176 211 259
#     4   7  10  18  33  53  78 111 150 185 214 246
#
# _framework density 16.949878999999999
#
# number of rings (size 3 to 8) (size 9 to 14) (size 15 to 20)
#    0.000    3.154    0.000    4.154    0.000    2.769 
#    0.000    0.769    0.000    8.308    0.000    2.154 
#    0.000    5.538    0.000    7.077    0.000    2.308 
#
# Total GULP energy -289531.304108 kJ/mol
# GULP energy per Si atom -5567.909694 kJ/mol
# Density = 1.691130 g / cm^3
# Si number density = 16.949879 Si / 1000 Ang^3
#
#
#
# Elastic Constant Matrix: (Units=GPa)
#
#
# Indices 1 2 3 4 5 6 
#
# 1 18.1468 1.2214 -5.2973 0.0000 0.0000 0.0000
# 2 1.2214 138.0131 78.6289 0.0000 0.0000 0.0000
# 3 -5.2973 78.6289 137.5399 0.0000 0.0000 0.0000
# 4 0.0000 0.0000 0.0000 15.4158 0.0000 0.0000
# 5 0.0000 0.0000 0.0000 0.0000 13.7189 0.0000
# 6 0.0000 0.0000 0.0000 0.0000 0.0000 6.6274
#
#
#
# Elastic Compliance Matrix: (Units=1/GPa)
#
#
# Indices 1 2 3 4 5 6 
#
# 1 0.056342 -0.002573 0.003641 0.000000 0.000000 0.000000
# 2 -0.002573 0.010863 -0.006309 0.000000 0.000000 0.000000
# 3 0.003641 -0.006309 0.011018 0.000000 0.000000 0.000000
# 4 0.000000 0.000000 0.000000 0.064869 0.000000 0.000000
# 5 0.000000 0.000000 0.000000 0.000000 0.072892 0.000000
# 6 0.000000 0.000000 0.000000 0.000000 0.000000 0.150888
#
#
# Mechanical properties :
#
#
# Convention : Reuss Voigt Hill
#
# Bulk Modulus (GPa) = 14.76227 49.20066 31.98146
# Shear Modulus (GPa) = 12.50206 21.76220 17.13213
#
# Velocity S-wave (km/s) = 2.71881 3.58706 3.18268
# Velocity P-wave (km/s) = 4.31093 6.80045 5.69343
#
# Compressibility (1/GPa) = 0.06774026
#
# Stress axis : x y z
#
# Youngs Moduli (GPa) = 17.74870 92.05582 90.76282
#
# Poissons Ratio (x) = 0.23685 -0.33046
# Poissons Ratio (y) = 0.04567 0.57265
# Poissons Ratio (z) = -0.06462 0.58080
#
# Static dielectric constant tensor:
#      x y z
#    x 1.628410 0.000000 0.000000 
#    y 0.000000 1.574610 0.000000 
#    z 0.000000 0.000000 1.607380 
# 
# From -- ./inp_files/33377.got.cif
#   From: 2010.05.17/outbox.cif.g08.bks.cpg/sg47_17_cif.got.tgz:33377.got - 2010.06.03 20:15:42.
