data_PCOD9382943
_publ_section_title
;
Structure prediction by ZEFSAII (Michael W. Deem and Ramdas Pophale) SiO2 
 PCOD9382943
Probable space group: P M M M
;
_chemical_formula_sum "Si O2"
_cell_formula_units_Z 36
_cell_length_a 17.401062
_cell_length_b 8.721107
_cell_length_c 16.172780
_cell_angle_alpha 90.000000
_cell_angle_beta 90.000000
_cell_angle_gamma 90.000000
_cell_volume 2454.324870
_symmetry_space_group_name_H-M "P M M M"
_symmetry_group_IT_number 47
_symmetry_cell_setting 'orthorhombic'
loop_
_space_group_symop_operation_xyz
x,y,z
-x,-y,z
x,-y,-z
-x,y,-z
-x,-y,-z
x,y,-z
-x,y,z
x,-y,z
loop_
_atom_site_type_symbol
_atom_site_label
_atom_site_fract_x
_atom_site_fract_y
_atom_site_fract_z
Si Si1 0.337637 0.816893 0.597668
Si Si2 0.906570 0.677328 0.000000
Si Si3 0.819357 0.315862 0.657202
Si Si4 0.500000 0.677339 0.399642
Si Si5 0.911001 0.687472 0.180421
Si Si6 0.090474 0.183595 0.500000
O O1 0.328710 0.775692 0.500000
O O2 0.267250 0.742492 0.646147
O O3 0.421047 0.758366 0.626109
O O4 0.334161 0.000000 0.603404
O O5 0.885083 0.744009 0.089435
O O6 0.880470 0.500000 0.000000
O O7 0.000000 0.674852 0.000000
O O8 0.820754 0.500000 0.653511
O O9 0.858044 0.265907 0.743399
O O10 0.868701 0.250716 0.581003
O O11 0.500000 0.500000 0.374775
O O12 0.500000 0.683522 0.500000
O O13 0.910767 0.500000 0.177220
O O14 0.000000 0.732748 0.194377
O O15 0.000000 0.220767 0.500000
O O16 0.099539 0.000000 0.500000
#
# Coordination Sequence:
#
# PCOD9382943 Si02
#       6
#     8   4   8   4   8   4
#     4  10  19  31  45  61  86 117 148 177 214 260
#     4   7  10  20  38  58  83 110 135 172 225 275
#     4  11  20  29  44  64  87 113 148 188 220 251
#     4   9  17  29  47  67  85 106 141 182 220 256
#     4   8  14  24  39  61  86 112 143 181 225 265
#     4  11  23  35  43  54  79 118 157 187 219 259
#
# _framework density 14.667985
#
# number of rings (size 3 to 8) (size 9 to 14) (size 15 to 20)
#    0.000    2.556    1.111    4.000    0.000    4.000 
#    0.000    0.000    0.000    0.000    0.000    3.111 
#    0.000   13.333    0.000   10.444    0.000    2.000 
#
# Total GULP energy -200591.422635 kJ/mol
# GULP energy per Si atom -5571.983962 kJ/mol
# Density = 1.463460 g / cm^3
# Si number density = 14.667985 Si / 1000 Ang^3
#
#
#
# Elastic Constant Matrix: (Units=GPa)
#
#
# Indices 1 2 3 4 5 6 
#
# 1 122.0474 35.1876 70.4157 0.0000 0.0000 0.0000
# 2 35.1876 27.9215 25.0954 0.0000 0.0000 0.0000
# 3 70.4157 25.0954 122.7117 0.0000 0.0000 0.0000
# 4 0.0000 0.0000 0.0000 0.4702 0.0000 0.0000
# 5 0.0000 0.0000 0.0000 0.0000 4.7198 0.0000
# 6 0.0000 0.0000 0.0000 0.0000 0.0000 22.9526
#
#
#
# Elastic Compliance Matrix: (Units=1/GPa)
#
#
# Indices 1 2 3 4 5 6 
#
# 1 0.015954 -0.014552 -0.006179 0.000000 0.000000 0.000000
# 2 -0.014552 0.057154 -0.003338 0.000000 0.000000 0.000000
# 3 -0.006179 -0.003338 0.012377 0.000000 0.000000 0.000000
# 4 0.000000 0.000000 0.000000 2.126588 0.000000 0.000000
# 5 0.000000 0.000000 0.000000 0.000000 0.211873 0.000000
# 6 0.000000 0.000000 0.000000 0.000000 0.000000 0.043568
#
#
# Mechanical properties :
#
#
# Convention : Reuss Voigt Hill
#
# Bulk Modulus (GPa) = 26.77565 59.34202 43.05883
# Shear Modulus (GPa) = 1.97777 15.09398 8.53588
#
# Velocity S-wave (km/s) = 1.16245 3.21135 2.41496
# Velocity P-wave (km/s) = 4.48284 7.36852 6.09880
#
# Compressibility (1/GPa) = 0.03734737
#
# Stress axis : x y z
#
# Youngs Moduli (GPa) = 62.67999 17.49661 80.79236
#
# Poissons Ratio (x) = 0.25462 0.49921
# Poissons Ratio (y) = 0.91214 0.26967
# Poissons Ratio (z) = 0.38729 0.05840
#
# Static dielectric constant tensor:
#      x y z
#    x 1.471040 0.000000 0.000000 
#    y 0.000000 1.492370 0.000000 
#    z 0.000000 0.000000 1.492090 
# 
# From -- ./inp_files/23287.got.cif
#   From: 2010.05.17/outbox.cif.g08.bks.cpg/sg47_12_cif.got.tgz:23287.got - 2010.06.03 20:15:42.
