data_PCOD9382820
_publ_section_title
;
Structure prediction by ZEFSAII (Michael W. Deem and Ramdas Pophale) SiO2 
 PCOD9382820
Probable space group: P M M M
;
_chemical_formula_sum "Si O2"
_cell_formula_units_Z 48
_cell_length_a 7.433018
_cell_length_b 15.343998
_cell_length_c 19.724875
_cell_angle_alpha 90.000000
_cell_angle_beta 90.000000
_cell_angle_gamma 90.000000
_cell_volume 2249.665651
_symmetry_space_group_name_H-M "P M M M"
_symmetry_group_IT_number 47
_symmetry_cell_setting 'orthorhombic'
loop_
_space_group_symop_operation_xyz
x,y,z
-x,-y,z
x,-y,-z
-x,y,-z
-x,-y,-z
x,y,-z
-x,y,z
x,-y,z
loop_
_atom_site_type_symbol
_atom_site_label
_atom_site_fract_x
_atom_site_fract_y
_atom_site_fract_z
Si Si1 0.785860 0.095824 0.223904
Si Si2 0.218515 0.593327 0.218385
Si Si3 0.218098 0.846956 0.925121
Si Si4 0.280951 0.598639 0.420705
Si Si5 0.782276 0.359213 0.927917
Si Si6 0.698866 0.257677 0.681609
O O1 0.716412 0.116638 0.147333
O O2 0.760180 0.169264 0.281419
O O3 0.000000 0.091956 0.215432
O O4 0.720196 0.000000 0.244535
O O5 0.268662 0.500000 0.248071
O O6 0.277002 0.596862 0.140629
O O7 0.300558 0.673484 0.257143
O O8 0.000000 0.601785 0.220936
O O9 0.256977 0.743709 0.923730
O O10 0.000000 0.856560 0.925600
O O11 0.279127 0.880143 0.000000
O O12 0.239508 0.610617 0.500000
O O13 0.500000 0.597534 0.413873
O O14 0.219394 0.500000 0.401909
O O15 0.212714 0.680779 0.376439
O O16 0.000000 0.367305 0.928597
O O17 0.715705 0.392559 0.000000
O O18 0.500000 0.237641 0.655867
#
# Coordination Sequence:
#
# PCOD9382820 Si02
#       6
#     8   8   8   8   8   8
#     4  10  20  34  53  75 100 132 170 212 258 306
#     4  10  19  30  47  71  99 132 168 205 245 293
#     4   8  13  24  45  70  93 119 160 217 267 298
#     4   8  15  30  53  80 106 131 163 201 239 283
#     4   8  13  23  41  64  90 121 161 210 253 285
#     4  11  21  33  52  76 104 134 161 200 251 302
#
# _framework density 21.336504000000001
#
# number of rings (size 3 to 8) (size 9 to 14) (size 15 to 20)
#    0.000    2.833    1.667    2.500    0.000    2.000 
#    0.000    3.333    0.000    4.500    0.000   11.667 
#    0.000    0.000    0.000    0.000    0.000    0.000 
#
# Total GULP energy -267420.476092 kJ/mol
# GULP energy per Si atom -5571.259919 kJ/mol
# Density = 2.128794 g / cm^3
# Si number density = 21.336504 Si / 1000 Ang^3
#
#
#
# Elastic Constant Matrix: (Units=GPa)
#
#
# Indices 1 2 3 4 5 6 
#
# 1 62.0014 10.6743 0.5818 0.0000 0.0000 0.0000
# 2 10.6743 150.2473 79.1171 0.0000 0.0000 0.0000
# 3 0.5818 79.1171 150.8046 0.0000 0.0000 0.0000
# 4 0.0000 0.0000 0.0000 8.6834 0.0000 0.0000
# 5 0.0000 0.0000 0.0000 0.0000 8.8283 0.0000
# 6 0.0000 0.0000 0.0000 0.0000 0.0000 -23.7188
#
#
#
# Elastic Compliance Matrix: (Units=1/GPa)
#
#
# Indices 1 2 3 4 5 6 
#
# 1 0.016391 -0.001563 0.000757 0.000000 0.000000 0.000000
# 2 -0.001563 0.009345 -0.004897 0.000000 0.000000 0.000000
# 3 0.000757 -0.004897 0.009197 0.000000 0.000000 0.000000
# 4 0.000000 0.000000 0.000000 0.115162 0.000000 0.000000
# 5 0.000000 0.000000 0.000000 0.000000 0.113272 0.000000
# 6 0.000000 0.000000 0.000000 0.000000 0.000000 -0.042161
#
#
# Mechanical properties :
#
#
# Convention : Reuss Voigt Hill
#
# Bulk Modulus (GPa) = 42.50419 60.42219 51.46319
# Shear Modulus (GPa) = 20.79388 16.93725 18.86557
#
# Velocity S-wave (km/s) = 3.12519 2.82053 2.97676
# Velocity P-wave (km/s) = 5.74339 6.24399 5.99891
#
# Compressibility (1/GPa) = 0.02352709
#
# Stress axis : x y z
#
# Youngs Moduli (GPa) = 61.01037 107.00566 108.72860
#
# Poissons Ratio (x) = 0.16724 -0.08228
# Poissons Ratio (y) = 0.09536 0.53242
# Poissons Ratio (z) = -0.04617 0.52399
#
# Static dielectric constant tensor:
#      x y z
#    x 1.880510 0.000000 0.000000 
#    y 0.000000 1.762460 0.000000 
#    z 0.000000 0.000000 1.795450 
# 
# From -- ./inp_files/21030.got.cif
#   From: 2010.05.17/outbox.cif.g08.bks.cpg/sg47_11_cif.got.tgz:21030.got - 2010.06.03 20:15:42.
