data_PCOD9382784
_publ_section_title
;
Structure prediction by ZEFSAII (Michael W. Deem and Ramdas Pophale) SiO2 
 PCOD9382784
Probable space group: P M M M
;
_chemical_formula_sum "Si O2"
_cell_formula_units_Z 46
_cell_length_a 12.305354
_cell_length_b 12.340990
_cell_length_c 16.652686
_cell_angle_alpha 90.000000
_cell_angle_beta 90.000000
_cell_angle_gamma 90.000000
_cell_volume 2528.881070
_symmetry_space_group_name_H-M "P M M M"
_symmetry_group_IT_number 47
_symmetry_cell_setting 'orthorhombic'
loop_
_space_group_symop_operation_xyz
x,y,z
-x,-y,z
x,-y,-z
-x,y,-z
-x,-y,-z
x,y,-z
-x,y,z
x,-y,z
loop_
_atom_site_type_symbol
_atom_site_label
_atom_site_fract_x
_atom_site_fract_y
_atom_site_fract_z
Si Si1 0.629080 0.120848 0.668663
Si Si2 0.125481 0.500000 0.368620
Si Si3 0.687859 0.660490 0.406626
Si Si4 0.126783 0.500000 0.176012
Si Si5 0.000000 0.123775 0.902384
Si Si6 0.500000 0.500000 0.352467
Si Si7 0.372119 0.878792 0.861573
Si Si8 0.806776 0.718007 0.907013
O O1 0.500000 0.130474 0.651699
O O2 0.689122 0.217565 0.624627
O O3 0.641106 0.128817 0.765112
O O4 0.663860 0.000000 0.644439
O O5 0.196190 0.397581 0.397282
O O6 0.127870 0.500000 0.271934
O O7 0.000000 0.500000 0.394634
O O8 0.654703 0.653972 0.500000
O O9 0.596359 0.593769 0.358148
O O10 0.183315 0.608261 0.142944
O O11 0.000000 0.500000 0.149116
O O12 0.895653 0.193991 0.878186
O O13 0.000000 0.000000 0.873049
O O14 0.000000 0.118850 0.000000
O O15 0.500000 0.872151 0.879297
O O16 0.306121 0.781359 0.900016
O O17 0.334172 0.000000 0.886789
O O18 0.829953 0.691950 0.000000
#
# Coordination Sequence:
#
# PCOD9382784 Si02
#       8
#     8   4   8   4   4   2   8   8
#     4   9  18  33  54  81 114 148 179 216 265 324
#     4  10  23  39  57  79 102 142 187 225 262 317
#     4  11  20  33  55  81 114 142 174 226 269 317
#     4  11  22  39  58  78 107 144 179 221 272 328
#     4   9  18  31  49  77 107 132 165 216 274 319
#     4  10  19  30  46  78 112 140 173 212 269 312
#     4   9  19  36  56  78 108 147 185 222 264 314
#     4  11  21  34  55  80 109 140 179 225 272 325
#
# _framework density 18.189864
#
# number of rings (size 3 to 8) (size 9 to 14) (size 15 to 20)
#    0.000    2.000    1.739    4.435    0.000    2.783 
#    0.000    2.174    0.000    1.565    0.000    1.217 
#    0.000    0.000    0.000    0.000    0.000    0.000 
#
# Total GULP energy -256203.586160 kJ/mol
# GULP energy per Si atom -5569.643177 kJ/mol
# Density = 1.814846 g / cm^3
# Si number density = 18.189864 Si / 1000 Ang^3
#
#
#
# Elastic Constant Matrix: (Units=GPa)
#
#
# Indices 1 2 3 4 5 6 
#
# 1 69.3326 32.1130 4.9874 0.0000 0.0000 0.0000
# 2 32.1130 142.6649 25.2929 0.0000 0.0000 0.0000
# 3 4.9874 25.2929 22.0489 0.0000 0.0000 0.0000
# 4 0.0000 0.0000 0.0000 -43.2980 0.0000 0.0000
# 5 0.0000 0.0000 0.0000 0.0000 10.4646 0.0000
# 6 0.0000 0.0000 0.0000 0.0000 0.0000 19.4374
#
#
#
# Elastic Compliance Matrix: (Units=1/GPa)
#
#
# Indices 1 2 3 4 5 6 
#
# 1 0.016109 -0.003741 0.000647 0.000000 0.000000 0.000000
# 2 -0.003741 0.009668 -0.010244 0.000000 0.000000 0.000000
# 3 0.000647 -0.010244 0.056958 0.000000 0.000000 0.000000
# 4 0.000000 0.000000 0.000000 -0.023096 0.000000 0.000000
# 5 0.000000 0.000000 0.000000 0.000000 0.095560 0.000000
# 6 0.000000 0.000000 0.000000 0.000000 0.000000 0.051447
#
#
# Mechanical properties :
#
#
# Convention : Reuss Voigt Hill
#
# Bulk Modulus (GPa) = 17.83786 39.87034 28.85410
# Shear Modulus (GPa) = 19.84066 8.76436 14.30251
#
# Velocity S-wave (km/s) = 3.30624 2.19744 2.80713
# Velocity P-wave (km/s) = 4.93991 5.32962 5.13846
#
# Compressibility (1/GPa) = 0.05606054
#
# Stress axis : x y z
#
# Youngs Moduli (GPa) = 62.07579 103.43838 17.55676
#
# Poissons Ratio (x) = 0.38695 -0.01137
# Poissons Ratio (y) = 0.23222 0.17985
# Poissons Ratio (z) = -0.04019 1.05960
#
# Static dielectric constant tensor:
#      x y z
#    x 1.630750 0.000000 0.000000 
#    y 0.000000 1.656450 0.000000 
#    z 0.000000 0.000000 1.633240 
# 
# From -- ./inp_files/27478.got.cif
#   From: 2010.05.17/outbox.cif.g08.bks.cpg/sg47_14_cif.got.tgz:27478.got - 2010.06.03 20:15:42.
