data_PCOD9382359
_publ_section_title
;
Structure prediction by ZEFSAII (Michael W. Deem and Ramdas Pophale) SiO2 
 PCOD9382359
Probable space group: P M M M
;
_chemical_formula_sum "Si O2"
_cell_formula_units_Z 48
_cell_length_a 17.762570
_cell_length_b 15.873697
_cell_length_c 8.562439
_cell_angle_alpha 90.000000
_cell_angle_beta 90.000000
_cell_angle_gamma 90.000000
_cell_volume 2414.245214
_symmetry_space_group_name_H-M "P M M M"
_symmetry_group_IT_number 47
_symmetry_cell_setting 'orthorhombic'
loop_
_space_group_symop_operation_xyz
x,y,z
-x,-y,z
x,-y,-z
-x,y,-z
-x,-y,-z
x,y,-z
-x,y,z
x,-y,z
loop_
_atom_site_type_symbol
_atom_site_label
_atom_site_fract_x
_atom_site_fract_y
_atom_site_fract_z
Si Si1 0.342148 0.164808 0.315098
Si Si2 0.809544 0.905990 0.811882
Si Si3 0.086111 0.751512 0.188500
Si Si4 0.500000 0.360815 0.182847
Si Si5 0.500000 0.844584 0.181603
Si Si6 0.177409 0.592899 0.313448
Si Si7 0.336548 0.354383 0.187798
O O1 0.342453 0.178268 0.500000
O O2 0.271609 0.109249 0.264094
O O3 0.422575 0.128231 0.261867
O O4 0.332236 0.255419 0.231009
O O5 0.866310 0.832904 0.759297
O O6 0.837178 0.000000 0.776537
O O7 0.801050 0.899078 0.000000
O O8 0.128886 0.667772 0.241496
O O9 0.000000 0.753301 0.244084
O O10 0.085178 0.753035 0.000000
O O11 0.500000 0.258357 0.190315
O O12 0.418377 0.386851 0.246428
O O13 0.500000 0.384552 0.000000
O O14 0.500000 0.867756 0.000000
O O15 0.174456 0.599507 0.500000
O O16 0.149989 0.500000 0.266275
O O17 0.263804 0.602665 0.259872
O O18 0.334632 0.362491 0.000000
#
# Coordination Sequence:
#
# PCOD9382359 Si02
#       7
#     8   8   8   4   4   8   8
#     4  11  20  32  54  85 121 159 201 249 301 353
#     4  10  21  38  61  89 122 160 199 241 294 358
#     4  10  22  41  66  93 119 152 195 243 297 360
#     4   7  14  27  48  79 110 145 191 241 288 337
#     4   9  17  31  52  79 114 158 207 253 298 348
#     4  11  24  40  59  87 122 160 200 245 302 360
#     4  10  18  33  57  83 115 157 203 248 297 351
#
# _framework density 19.881989999999998
#
# number of rings (size 3 to 8) (size 9 to 14) (size 15 to 20)
#    0.000    2.000    1.667    3.750    0.000    2.667 
#    0.000    5.417    0.000    5.000    0.000    2.333 
#    0.000    0.000    0.000    0.000    0.000    0.000 
#
# Total GULP energy -268031.069082 kJ/mol
# GULP energy per Si atom -5583.980606 kJ/mol
# Density = 1.983674 g / cm^3
# Si number density = 19.881990 Si / 1000 Ang^3
#
#
#
# Elastic Constant Matrix: (Units=GPa)
#
#
# Indices 1 2 3 4 5 6 
#
# 1 161.4963 70.1720 21.7627 0.0000 0.0000 0.0000
# 2 70.1720 106.4783 13.4115 0.0000 0.0000 0.0000
# 3 21.7627 13.4115 13.3424 0.0000 0.0000 0.0000
# 4 0.0000 0.0000 0.0000 26.5163 0.0000 0.0000
# 5 0.0000 0.0000 0.0000 0.0000 0.4580 0.0000
# 6 0.0000 0.0000 0.0000 0.0000 0.0000 -8.1066
#
#
#
# Elastic Compliance Matrix: (Units=1/GPa)
#
#
# Indices 1 2 3 4 5 6 
#
# 1 0.009909 -0.005146 -0.010990 0.000000 0.000000 0.000000
# 2 -0.005146 0.013426 -0.005101 0.000000 0.000000 0.000000
# 3 -0.010990 -0.005101 0.098002 0.000000 0.000000 0.000000
# 4 0.000000 0.000000 0.000000 0.037713 0.000000 0.000000
# 5 0.000000 0.000000 0.000000 0.000000 2.183597 0.000000
# 6 0.000000 0.000000 0.000000 0.000000 0.000000 -0.123356
#
#
# Mechanical properties :
#
#
# Convention : Reuss Voigt Hill
#
# Bulk Modulus (GPa) = 12.68036 54.66770 33.67403
# Shear Modulus (GPa) = 2.18527 15.50493 8.84510
#
# Velocity S-wave (km/s) = 1.04953 2.79561 2.11151
# Velocity P-wave (km/s) = 2.80363 6.16249 4.78731
#
# Compressibility (1/GPa) = 0.07886210
#
# Stress axis : x y z
#
# Youngs Moduli (GPa) = 100.91731 74.48490 10.20389
#
# Poissons Ratio (x) = 0.38331 0.11214
# Poissons Ratio (y) = 0.51933 0.05205
# Poissons Ratio (z) = 1.10907 0.37996
#
# Static dielectric constant tensor:
#      x y z
#    x 1.700590 0.000000 0.000000 
#    y 0.000000 1.718010 0.000000 
#    z 0.000000 0.000000 1.665740 
# 
# From -- ./inp_files/9219.got.cif
#   From: 2010.05.17/outbox.cif.g08.bks.cpg/sg47_5_cif.got.tgz:9219.got - 2010.06.03 20:15:42.
