data_PCOD9382918
_publ_section_title
;
Structure prediction by ZEFSAII (Michael W. Deem and Ramdas Pophale) SiO2 
 PCOD9382918
Probable space group: P M M M
;
_chemical_formula_sum "Si O2"
_cell_formula_units_Z 64
_cell_length_a 15.220300
_cell_length_b 7.554404
_cell_length_c 24.282385
_cell_angle_alpha 90.000000
_cell_angle_beta 90.000000
_cell_angle_gamma 90.000000
_cell_volume 2791.995795
_symmetry_space_group_name_H-M "P M M M"
_symmetry_group_IT_number 47
_symmetry_cell_setting 'orthorhombic'
loop_
_space_group_symop_operation_xyz
x,y,z
-x,-y,z
x,-y,-z
-x,y,-z
-x,-y,-z
x,y,-z
-x,y,z
x,-y,z
loop_
_atom_site_type_symbol
_atom_site_label
_atom_site_fract_x
_atom_site_fract_y
_atom_site_fract_z
Si Si1 0.901033 0.794290 0.162117
Si Si2 0.756859 0.799766 0.756245
Si Si3 0.347342 0.287230 0.560653
Si Si4 0.211441 0.291723 0.062690
Si Si5 0.141477 0.715127 0.441409
Si Si6 0.594993 0.787035 0.935602
Si Si7 0.093929 0.285216 0.322763
Si Si8 0.596860 0.788506 0.685509
O O1 0.820829 0.713078 0.198019
O O2 0.863835 0.788553 0.100414
O O3 0.000000 0.719509 0.166402
O O4 0.906334 0.000000 0.179393
O O5 0.824565 0.804069 0.705650
O O6 0.670478 0.717713 0.727939
O O7 0.734727 0.000000 0.775551
O O8 0.381787 0.225106 0.500000
O O9 0.353130 0.500000 0.559194
O O10 0.244392 0.238098 0.562361
O O11 0.386047 0.236118 0.619946
O O12 0.195215 0.500000 0.060342
O O13 0.310181 0.267215 0.087062
O O14 0.212045 0.221015 0.000000
O O15 0.107099 0.778402 0.500000
O O16 0.137256 0.500000 0.442084
O O17 0.094819 0.769544 0.386178
O O18 0.500000 0.727426 0.912173
O O19 0.594215 0.000000 0.934568
O O20 0.595580 0.730320 0.000000
O O21 0.103974 0.500000 0.319850
O O22 0.000000 0.239867 0.296997
O O23 0.500000 0.719267 0.697959
O O24 0.597908 0.000000 0.693452
#
# Coordination Sequence:
#
# PCOD9382918 Si02
#       8
#     8   8   8   8   8   8   8   8
#     4  10  22  40  61  83 107 141 186 231 277 335
#     4  10  21  39  59  77 103 139 177 224 275 323
#     4   9  17  31  52  76 104 141 183 225 270 324
#     4  10  21  36  56  86 123 157 186 225 280 334
#     4   8  14  26  44  68 100 134 168 210 259 312
#     4   8  14  27  50  80 114 154 197 232 260 300
#     4  10  19  30  50  79 104 131 172 220 269 320
#     4  10  21  36  55  80 108 140 179 224 278 334
#
# _framework density 22.922671999999999
#
# number of rings (size 3 to 8) (size 9 to 14) (size 15 to 20)
#    0.000    2.625    1.250    1.875    0.000    3.750 
#    0.000    5.625    0.000    2.625    0.000    0.875 
#    0.000    0.000    0.000    0.000    0.000    0.000 
#
# Total GULP energy -356728.399553 kJ/mol
# GULP energy per Si atom -5573.881243 kJ/mol
# Density = 2.287050 g / cm^3
# Si number density = 22.922672 Si / 1000 Ang^3
#
#
#
# Elastic Constant Matrix: (Units=GPa)
#
#
# Indices 1 2 3 4 5 6 
#
# 1 165.9845 7.7071 65.5409 0.0000 0.0000 0.0000
# 2 7.7071 59.1751 -1.2436 0.0000 0.0000 0.0000
# 3 65.5409 -1.2436 90.1071 0.0000 0.0000 0.0000
# 4 0.0000 0.0000 0.0000 17.1290 0.0000 0.0000
# 5 0.0000 0.0000 0.0000 0.0000 -71.0977 0.0000
# 6 0.0000 0.0000 0.0000 0.0000 0.0000 -24.8580
#
#
#
# Elastic Compliance Matrix: (Units=1/GPa)
#
#
# Indices 1 2 3 4 5 6 
#
# 1 0.008543 -0.001244 -0.006231 0.000000 0.000000 0.000000
# 2 -0.001244 0.017085 0.001140 0.000000 0.000000 0.000000
# 3 -0.006231 0.001140 0.015646 0.000000 0.000000 0.000000
# 4 0.000000 0.000000 0.000000 0.058380 0.000000 0.000000
# 5 0.000000 0.000000 0.000000 0.000000 -0.014065 0.000000
# 6 0.000000 0.000000 0.000000 0.000000 0.000000 -0.040229
#
#
# Mechanical properties :
#
#
# Convention : Reuss Voigt Hill
#
# Bulk Modulus (GPa) = 34.95870 51.03064 42.99467
# Shear Modulus (GPa) = 74.00454 0.45216 37.22835
#
# Velocity S-wave (km/s) = 5.68810 0.44462 4.03436
# Velocity P-wave (km/s) = 7.64350 4.75121 6.36385
#
# Compressibility (1/GPa) = 0.02860519
#
# Stress axis : x y z
#
# Youngs Moduli (GPa) = 117.05865 58.53117 63.91509
#
# Poissons Ratio (x) = 0.07279 0.39825
# Poissons Ratio (y) = 0.14557 -0.07288
# Poissons Ratio (z) = 0.72938 -0.06674
#
# Static dielectric constant tensor:
#      x y z
#    x 1.866550 0.000000 0.000000 
#    y 0.000000 1.869920 0.000000 
#    z 0.000000 0.000000 1.894650 
# 
# From -- ./inp_files/12689.got.cif
#   From: 2010.05.17/outbox.cif.g08.bks.cpg/sg47_7_cif.got.tgz:12689.got - 2010.06.03 20:15:42.
