data_PCOD9382335
_publ_section_title
;
Structure prediction by ZEFSAII (Michael W. Deem and Ramdas Pophale) SiO2 
 PCOD9382335
Probable space group: P M M M
;
_chemical_formula_sum "Si O2"
_cell_formula_units_Z 48
_cell_length_a 9.638049
_cell_length_b 15.258207
_cell_length_c 17.546005
_cell_angle_alpha 90.000000
_cell_angle_beta 90.000000
_cell_angle_gamma 90.000000
_cell_volume 2580.304033
_symmetry_space_group_name_H-M "P M M M"
_symmetry_group_IT_number 47
_symmetry_cell_setting 'orthorhombic'
loop_
_space_group_symop_operation_xyz
x,y,z
-x,-y,z
x,-y,-z
-x,y,-z
-x,-y,-z
x,y,-z
-x,y,z
x,-y,z
loop_
_atom_site_type_symbol
_atom_site_label
_atom_site_fract_x
_atom_site_fract_y
_atom_site_fract_z
Si Si1 0.337405 0.599464 0.227354
Si Si2 0.155752 0.847073 0.136479
Si Si3 0.167852 0.399427 0.500000
Si Si4 0.831445 0.710576 0.349567
Si Si5 0.167060 0.098239 0.690514
Si Si6 0.649619 0.897431 0.000000
Si Si7 0.843879 0.644272 0.909226
O O1 0.500000 0.623542 0.225679
O O2 0.325342 0.500000 0.257640
O O3 0.248149 0.664430 0.279997
O O4 0.271430 0.600048 0.142924
O O5 0.194555 0.877852 0.220993
O O6 0.264400 0.876785 0.074721
O O7 0.150089 0.742960 0.123741
O O8 0.000000 0.881217 0.120867
O O9 0.219690 0.500000 0.500000
O O10 0.204949 0.344425 0.424878
O O11 0.000000 0.404145 0.500000
O O12 0.791395 0.813625 0.354716
O O13 0.000000 0.706460 0.337565
O O14 0.000000 0.093749 0.682896
O O15 0.220815 0.000000 0.672203
O O16 0.500000 0.851907 0.000000
O O17 0.631771 0.000000 0.000000
O O18 0.000000 0.607117 0.899265
O O19 0.815043 0.645659 0.000000
#
# Coordination Sequence:
#
# PCOD9382335 Si02
#       7
#     8   8   4   8   8   4   8
#     4  11  24  39  56  81 112 147 186 229 285 345
#     4  10  18  33  53  72  97 136 185 232 279 330
#     4   9  18  32  56  90 118 145 185 233 284 329
#     4  10  19  36  60  85 115 148 186 231 275 330
#     4   9  17  30  52  81 109 140 180 224 271 324
#     4  11  23  33  43  69 106 141 182 233 287 336
#     4  10  20  36  57  80 105 139 189 239 282 333
#
# _framework density 18.602457000000001
#
# number of rings (size 3 to 8) (size 9 to 14) (size 15 to 20)
#    0.000    2.000    2.500    1.750    0.000    4.667 
#    0.000    2.500    0.000    4.500    0.000    0.000 
#    0.000    1.333    0.000    0.000    0.000    0.000 
#
# Total GULP energy -267504.268187 kJ/mol
# GULP energy per Si atom -5573.005587 kJ/mol
# Density = 1.856012 g / cm^3
# Si number density = 18.602457 Si / 1000 Ang^3
#
#
#
# Elastic Constant Matrix: (Units=GPa)
#
#
# Indices 1 2 3 4 5 6 
#
# 1 63.5425 35.5046 38.4320 0.0000 0.0000 0.0000
# 2 35.5046 145.1193 55.1969 0.0000 0.0000 0.0000
# 3 38.4320 55.1969 97.0288 0.0000 0.0000 0.0000
# 4 0.0000 0.0000 0.0000 28.5119 0.0000 0.0000
# 5 0.0000 0.0000 0.0000 0.0000 5.7574 0.0000
# 6 0.0000 0.0000 0.0000 0.0000 0.0000 16.3220
#
#
#
# Elastic Compliance Matrix: (Units=1/GPa)
#
#
# Indices 1 2 3 4 5 6 
#
# 1 0.021421 -0.002570 -0.007023 0.000000 0.000000 0.000000
# 2 -0.002570 0.009102 -0.004160 0.000000 0.000000 0.000000
# 3 -0.007023 -0.004160 0.015454 0.000000 0.000000 0.000000
# 4 0.000000 0.000000 0.000000 0.035073 0.000000 0.000000
# 5 0.000000 0.000000 0.000000 0.000000 0.173689 0.000000
# 6 0.000000 0.000000 0.000000 0.000000 0.000000 0.061267
#
#
# Mechanical properties :
#
#
# Convention : Reuss Voigt Hill
#
# Bulk Modulus (GPa) = 54.13518 62.66197 58.39857
# Shear Modulus (GPa) = 14.29925 21.88872 18.09399
#
# Velocity S-wave (km/s) = 2.77551 3.43397 3.12214
# Velocity P-wave (km/s) = 6.27977 7.03425 6.66769
#
# Compressibility (1/GPa) = 0.01847228
#
# Stress axis : x y z
#
# Youngs Moduli (GPa) = 46.68355 109.86800 64.70674
#
# Poissons Ratio (x) = 0.28232 0.45442
# Poissons Ratio (y) = 0.11996 0.26918
# Poissons Ratio (z) = 0.32785 0.45705
#
# Static dielectric constant tensor:
#      x y z
#    x 1.681690 0.000000 0.000000 
#    y 0.000000 1.697510 0.000000 
#    z 0.000000 0.000000 1.622360 
# 
# From -- ./inp_files/9180.got.cif
#   From: 2010.05.17/outbox.cif.g08.bks.cpg/sg47_5_cif.got.tgz:9180.got - 2010.06.03 20:15:42.
