data_PCOD9382493
_publ_section_title
;
Structure prediction by ZEFSAII (Michael W. Deem and Ramdas Pophale) SiO2 
 PCOD9382493
Probable space group: P M M M
;
_chemical_formula_sum "Si O2"
_cell_formula_units_Z 44
_cell_length_a 15.834844
_cell_length_b 15.381635
_cell_length_c 7.296200
_cell_angle_alpha 90.000000
_cell_angle_beta 90.000000
_cell_angle_gamma 90.000000
_cell_volume 1777.104722
_symmetry_space_group_name_H-M "P M M M"
_symmetry_group_IT_number 47
_symmetry_cell_setting 'orthorhombic'
loop_
_space_group_symop_operation_xyz
x,y,z
-x,-y,z
x,-y,-z
-x,y,-z
-x,-y,-z
x,y,-z
-x,y,z
x,-y,z
loop_
_atom_site_type_symbol
_atom_site_label
_atom_site_fract_x
_atom_site_fract_y
_atom_site_fract_z
Si Si1 0.905917 0.638380 0.706040
Si Si2 0.094801 0.836494 0.787146
Si Si3 0.281619 0.655832 0.723555
Si Si4 0.596096 0.500000 0.277256
Si Si5 0.807139 0.000000 0.777869
Si Si6 0.386935 0.000000 0.288810
Si Si7 0.407100 0.195839 0.723041
O O1 0.905633 0.602174 0.500000
O O2 0.904875 0.743231 0.696149
O O3 0.811956 0.625162 0.787873
O O4 0.000000 0.615958 0.785757
O O5 0.000000 0.871716 0.781631
O O6 0.152679 0.911002 0.710332
O O7 0.116393 0.819623 0.000000
O O8 0.274891 0.659010 0.500000
O O9 0.350515 0.584264 0.775243
O O10 0.325143 0.747662 0.781051
O O11 0.500000 0.500000 0.213086
O O12 0.593574 0.500000 0.500000
O O13 0.712321 0.000000 0.722074
O O14 0.817372 0.000000 0.000000
O O15 0.408966 0.904577 0.212610
O O16 0.414182 0.000000 0.500000
O O17 0.402940 0.194001 0.500000
O O18 0.500000 0.234628 0.769463
#
# Coordination Sequence:
#
# PCOD9382493 Si02
#       7
#     8   8   8   4   4   4   8
#     4   9  17  29  44  64  92 121 145 175 220 271
#     4   9  17  29  44  61  83 115 155 194 227 261
#     4   9  16  26  41  62  89 120 151 184 225 270
#     4   9  16  26  41  63  92 123 153 187 228 270
#     4  10  19  29  41  59  85 116 150 189 231 270
#     4  10  19  29  43  63  87 116 149 182 219 269
#     4   9  16  26  41  61  84 111 147 191 231 264
#
# _framework density 24.759374000000001
#
# number of rings (size 3 to 8) (size 9 to 14) (size 15 to 20)
#    0.000    2.818    0.000    2.182    0.000    6.545 
#    0.000    0.455    0.000    6.545    0.000    0.636 
#    0.000    5.818    0.000    0.000    0.000    0.182 
#
# Total GULP energy -245427.218177 kJ/mol
# GULP energy per Si atom -5577.891322 kJ/mol
# Density = 2.470302 g / cm^3
# Si number density = 24.759374 Si / 1000 Ang^3
#
#
#
# Elastic Constant Matrix: (Units=GPa)
#
#
# Indices 1 2 3 4 5 6 
#
# 1 203.2014 65.4506 8.7370 0.0000 0.0000 0.0000
# 2 65.4506 105.0793 4.0766 0.0000 0.0000 0.0000
# 3 8.7370 4.0766 101.5610 0.0000 0.0000 0.0000
# 4 0.0000 0.0000 0.0000 -11.6289 0.0000 0.0000
# 5 0.0000 0.0000 0.0000 0.0000 6.3125 0.0000
# 6 0.0000 0.0000 0.0000 0.0000 0.0000 34.3931
#
#
#
# Elastic Compliance Matrix: (Units=1/GPa)
#
#
# Indices 1 2 3 4 5 6 
#
# 1 0.006171 -0.003829 -0.000377 0.000000 0.000000 0.000000
# 2 -0.003829 0.011907 -0.000149 0.000000 0.000000 0.000000
# 3 -0.000377 -0.000149 0.009885 0.000000 0.000000 0.000000
# 4 0.000000 0.000000 0.000000 -0.085993 0.000000 0.000000
# 5 0.000000 0.000000 0.000000 0.000000 0.158417 0.000000
# 6 0.000000 0.000000 0.000000 0.000000 0.000000 0.029076
#
#
# Mechanical properties :
#
#
# Convention : Reuss Voigt Hill
#
# Bulk Modulus (GPa) = 51.93872 62.93001 57.43436
# Shear Modulus (GPa) = 34.58056 27.92049 31.25053
#
# Velocity S-wave (km/s) = 3.74125 3.36173 3.55656
# Velocity P-wave (km/s) = 6.29965 6.36711 6.33347
#
# Compressibility (1/GPa) = 0.01925346
#
# Stress axis : x y z
#
# Youngs Moduli (GPa) = 162.05546 83.98213 101.16631
#
# Poissons Ratio (x) = 0.32156 0.03816
# Poissons Ratio (y) = 0.62050 0.01503
# Poissons Ratio (z) = 0.06112 0.01248
#
# Static dielectric constant tensor:
#      x y z
#    x 1.961930 0.000000 0.000000 
#    y 0.000000 1.943190 0.000000 
#    z 0.000000 0.000000 1.966000 
# 
# From -- ./inp_files/17455.got.cif
#   From: 2010.05.17/outbox.cif.g08.bks.cpg/sg47_9_cif.got.tgz:17455.got - 2010.06.03 20:15:42.
