data_PCOD9382146
_publ_section_title
;
Structure prediction by ZEFSAII (Michael W. Deem and Ramdas Pophale) SiO2 
 PCOD9382146
Probable space group: P M M M
;
_chemical_formula_sum "Si O2"
_cell_formula_units_Z 52
_cell_length_a 14.930761
_cell_length_b 7.345011
_cell_length_c 23.774924
_cell_angle_alpha 90.000000
_cell_angle_beta 90.000000
_cell_angle_gamma 90.000000
_cell_volume 2607.315170
_symmetry_space_group_name_H-M "P M M M"
_symmetry_group_IT_number 47
_symmetry_cell_setting 'orthorhombic'
loop_
_space_group_symop_operation_xyz
x,y,z
-x,-y,z
x,-y,-z
-x,y,-z
-x,-y,-z
x,y,-z
-x,y,z
x,-y,z
loop_
_atom_site_type_symbol
_atom_site_label
_atom_site_fract_x
_atom_site_fract_y
_atom_site_fract_z
Si Si1 0.397420 0.278286 0.436115
Si Si2 0.398592 0.784535 0.000000
Si Si3 0.283537 0.722187 0.330583
Si Si4 0.397111 0.722383 0.221546
Si Si5 0.288665 0.284602 0.112844
Si Si6 0.099736 0.721239 0.279326
Si Si7 0.099486 0.721481 0.851959
O O1 0.376810 0.221365 0.500000
O O2 0.500000 0.224523 0.422894
O O3 0.396728 0.500000 0.435834
O O4 0.328451 0.217318 0.388605
O O5 0.342936 0.737391 0.055589
O O6 0.500000 0.708218 0.000000
O O7 0.406855 0.000000 0.000000
O O8 0.282852 0.500000 0.331419
O O9 0.345211 0.776311 0.277855
O O10 0.182522 0.781985 0.317172
O O11 0.500000 0.780881 0.221372
O O12 0.397487 0.500000 0.220887
O O13 0.344880 0.785949 0.166032
O O14 0.280841 0.500000 0.122561
O O15 0.186423 0.215491 0.113825
O O16 0.099934 0.500000 0.280219
O O17 0.113626 0.770777 0.213750
O O18 0.000000 0.780680 0.296163
O O19 0.096650 0.500000 0.854099
O O20 0.000000 0.783891 0.869141
#
# Coordination Sequence:
#
# PCOD9382146 Si02
#       7
#     8   4   8   8   8   8   8
#     4   8  13  19  25  34  53  88 132 168 197 240
#     4  11  25  41  52  63  86 122 153 171 202 261
#     4   9  13  18  28  44  67  93 121 158 208 253
#     4   9  15  21  33  57  82  97 117 163 221 257
#     4  10  18  31  51  72  89 109 142 184 220 252
#     4   8  12  18  29  47  72  98 121 150 199 259
#     4   8  13  23  41  66  92 110 127 162 215 266
#
# _framework density 19.943888999999999
#
# number of rings (size 3 to 8) (size 9 to 14) (size 15 to 20)
#    0.000    3.154    1.538    2.538    0.000    3.077 
#    0.000    0.385    0.000    3.231    0.000    3.231 
#    0.000    0.000    0.000    0.000    0.000    0.769 
#
# Total GULP energy -290110.878684 kJ/mol
# GULP energy per Si atom -5579.055359 kJ/mol
# Density = 1.989850 g / cm^3
# Si number density = 19.943889 Si / 1000 Ang^3
#
#
#
# Elastic Constant Matrix: (Units=GPa)
#
#
# Indices 1 2 3 4 5 6 
#
# 1 236.6991 6.5280 117.4645 0.0000 0.0000 0.0000
# 2 6.5280 72.4662 -2.6639 0.0000 0.0000 0.0000
# 3 117.4645 -2.6639 132.8889 0.0000 0.0000 0.0000
# 4 0.0000 0.0000 0.0000 -64.8649 0.0000 0.0000
# 5 0.0000 0.0000 0.0000 0.0000 35.9058 0.0000
# 6 0.0000 0.0000 0.0000 0.0000 0.0000 -29.0272
#
#
#
# Elastic Compliance Matrix: (Units=1/GPa)
#
#
# Indices 1 2 3 4 5 6 
#
# 1 0.007588 -0.000931 -0.006726 0.000000 0.000000 0.000000
# 2 -0.000931 0.013924 0.001102 0.000000 0.000000 0.000000
# 3 -0.006726 0.001102 0.013493 0.000000 0.000000 0.000000
# 4 0.000000 0.000000 0.000000 -0.015417 0.000000 0.000000
# 5 0.000000 0.000000 0.000000 0.000000 0.027851 0.000000
# 6 0.000000 0.000000 0.000000 0.000000 0.000000 -0.034450
#
#
# Mechanical properties :
#
#
# Convention : Reuss Voigt Hill
#
# Bulk Modulus (GPa) = 45.67332 76.07906 60.87619
# Shear Modulus (GPa) = 149.71197 9.78443 79.74820
#
# Velocity S-wave (km/s) = 8.67350 2.21735 6.33033
# Velocity P-wave (km/s) = 11.10210 6.69215 9.16629
#
# Compressibility (1/GPa) = 0.02189462
#
# Stress axis : x y z
#
# Youngs Moduli (GPa) = 131.77898 71.81900 74.11371
#
# Poissons Ratio (x) = 0.06685 0.49851
# Poissons Ratio (y) = 0.12267 -0.08167
# Poissons Ratio (z) = 0.88639 -0.07914
#
# Static dielectric constant tensor:
#      x y z
#    x 1.715190 0.000000 0.000000 
#    y 0.000000 1.845110 0.000000 
#    z 0.000000 0.000000 2.235380 
# 
# From -- ./inp_files/21754.got.cif
#   From: 2010.05.17/outbox.cif.g08.bks.cpg/sg47_11_cif.got.tgz:21754.got - 2010.06.03 20:15:42.
