data_PCOD9382223
_publ_section_title
;
Structure prediction by ZEFSAII (Michael W. Deem and Ramdas Pophale) SiO2 
 PCOD9382223
Probable space group: P M M M
;
_chemical_formula_sum "Si O2"
_cell_formula_units_Z 56
_cell_length_a 16.204578
_cell_length_b 10.109041
_cell_length_c 19.079256
_cell_angle_alpha 90.000000
_cell_angle_beta 90.000000
_cell_angle_gamma 90.000000
_cell_volume 3125.425267
_symmetry_space_group_name_H-M "P M M M"
_symmetry_group_IT_number 47
_symmetry_cell_setting 'orthorhombic'
loop_
_space_group_symop_operation_xyz
x,y,z
-x,-y,z
x,-y,-z
-x,y,-z
-x,-y,-z
x,y,-z
-x,y,z
x,-y,z
loop_
_atom_site_type_symbol
_atom_site_label
_atom_site_fract_x
_atom_site_fract_y
_atom_site_fract_z
Si Si1 0.100313 0.000000 0.416560
Si Si2 0.848781 0.746874 0.672631
Si Si3 0.592040 0.340263 0.154171
Si Si4 0.759581 0.338802 0.080092
Si Si5 0.907840 0.657782 0.183685
Si Si6 0.334395 0.341211 0.305925
Si Si7 0.901003 0.500000 0.420030
Si Si8 0.599213 0.852868 0.579946
O O1 0.135602 0.124936 0.374191
O O2 0.121463 0.000000 0.500000
O O3 0.000000 0.000000 0.412623
O O4 0.902032 0.735547 0.743271
O O5 0.756260 0.721118 0.699572
O O6 0.870809 0.626605 0.621635
O O7 0.500000 0.290598 0.136554
O O8 0.589929 0.500000 0.146122
O O9 0.670397 0.293469 0.108972
O O10 0.613834 0.315174 0.235447
O O11 0.758242 0.500000 0.080951
O O12 0.835025 0.301371 0.130993
O O13 0.772229 0.296804 0.000000
O O14 0.896209 0.500000 0.199588
O O15 0.000000 0.672419 0.153574
O O16 0.328744 0.500000 0.314749
O O17 0.373726 0.266154 0.371275
O O18 0.871341 0.500000 0.500000
O O19 0.000000 0.500000 0.420618
O O20 0.628524 0.835664 0.500000
O O21 0.500000 0.855324 0.578635
O O22 0.626971 0.000000 0.604234
#
# Coordination Sequence:
#
# PCOD9382223 Si02
#       8
#     4   8   8   8   8   8   4   8
#     4  11  26  44  58  78 112 150 191 242 294 342
#     4  12  22  38  57  81 109 147 190 233 284 338
#     4   9  17  30  49  74 107 146 185 225 276 331
#     4   9  17  29  46  74 114 150 183 225 274 331
#     4  10  18  31  54  80 109 146 187 229 279 338
#     4  11  21  35  54  80 110 141 183 237 282 333
#     4  11  22  36  56  80 106 142 189 232 276 334
#     4   9  20  38  56  75 104 143 183 226 281 340
#
# _framework density 17.917562
#
# number of rings (size 3 to 8) (size 9 to 14) (size 15 to 20)
#    0.000    1.857    2.857    2.571    1.000    4.000 
#    0.000    3.571    0.000    0.000    0.000    0.500 
#    0.000    1.714    0.000    4.429    0.000    4.143 
#
# Total GULP energy -312300.985836 kJ/mol
# GULP energy per Si atom -5576.803318 kJ/mol
# Density = 1.787678 g / cm^3
# Si number density = 17.917562 Si / 1000 Ang^3
#
#
#
# Elastic Constant Matrix: (Units=GPa)
#
#
# Indices 1 2 3 4 5 6 
#
# 1 111.8513 20.7779 53.9894 0.0000 0.0000 0.0000
# 2 20.7779 70.3648 37.0986 0.0000 0.0000 0.0000
# 3 53.9894 37.0986 117.9893 0.0000 0.0000 0.0000
# 4 0.0000 0.0000 0.0000 13.6401 0.0000 0.0000
# 5 0.0000 0.0000 0.0000 0.0000 16.7141 0.0000
# 6 0.0000 0.0000 0.0000 0.0000 0.0000 2.7729
#
#
#
# Elastic Compliance Matrix: (Units=1/GPa)
#
#
# Indices 1 2 3 4 5 6 
#
# 1 0.011507 -0.000745 -0.005031 0.000000 0.000000 0.000000
# 2 -0.000745 0.017084 -0.005031 0.000000 0.000000 0.000000
# 3 -0.005031 -0.005031 0.012359 0.000000 0.000000 0.000000
# 4 0.000000 0.000000 0.000000 0.073313 0.000000 0.000000
# 5 0.000000 0.000000 0.000000 0.000000 0.059830 0.000000
# 6 0.000000 0.000000 0.000000 0.000000 0.000000 0.360630
#
#
# Mechanical properties :
#
#
# Convention : Reuss Voigt Hill
#
# Bulk Modulus (GPa) = 51.71589 58.21526 54.96558
# Shear Modulus (GPa) = 8.88441 19.18138 14.03290
#
# Velocity S-wave (km/s) = 2.22918 3.27545 2.80159
# Velocity P-wave (km/s) = 5.96251 6.84587 6.41940
#
# Compressibility (1/GPa) = 0.01933641
#
# Stress axis : x y z
#
# Youngs Moduli (GPa) = 86.90054 58.53425 80.91123
#
# Poissons Ratio (x) = 0.04363 0.40708
# Poissons Ratio (y) = 0.06478 0.40703
# Poissons Ratio (z) = 0.43721 0.29446
#
# Static dielectric constant tensor:
#      x y z
#    x 1.683500 0.000000 0.000000 
#    y 0.000000 1.666630 0.000000 
#    z 0.000000 0.000000 1.602470 
# 
# From -- ./inp_files/31017.got.cif
#   From: 2010.05.17/outbox.cif.g08.bks.cpg/sg47_16_cif.got.tgz:31017.got - 2010.06.03 20:15:42.
