data_PCOD9382239
_publ_section_title
;
Structure prediction by ZEFSAII (Michael W. Deem and Ramdas Pophale) SiO2 
 PCOD9382239
Probable space group: P M M M
;
_chemical_formula_sum "Si O2"
_cell_formula_units_Z 34
_cell_length_a 12.303082
_cell_length_b 14.945678
_cell_length_c 11.747769
_cell_angle_alpha 90.000000
_cell_angle_beta 90.000000
_cell_angle_gamma 90.000000
_cell_volume 2160.155117
_symmetry_space_group_name_H-M "P M M M"
_symmetry_group_IT_number 47
_symmetry_cell_setting 'orthorhombic'
loop_
_space_group_symop_operation_xyz
x,y,z
-x,-y,z
x,-y,-z
-x,y,-z
-x,-y,-z
x,y,-z
-x,y,z
x,-y,z
loop_
_atom_site_type_symbol
_atom_site_label
_atom_site_fract_x
_atom_site_fract_y
_atom_site_fract_z
Si Si1 0.372994 0.098739 0.861938
Si Si2 0.500000 0.398782 0.234617
Si Si3 0.266882 0.606195 0.500000
Si Si4 0.872418 0.604949 0.271731
Si Si5 0.704400 0.290103 0.136285
Si Si6 0.500000 0.363720 0.500000
O O1 0.500000 0.109884 0.830162
O O2 0.308370 0.186715 0.826119
O O3 0.336457 0.000000 0.822829
O O4 0.370265 0.097381 0.000000
O O5 0.500000 0.500000 0.190178
O O6 0.605912 0.346481 0.191231
O O7 0.500000 0.403410 0.371783
O O8 0.302607 0.500000 0.500000
O O9 0.193530 0.618967 0.611146
O O10 0.373658 0.668894 0.500000
O O11 0.859553 0.500000 0.241427
O O12 0.815692 0.666330 0.178185
O O13 0.000000 0.622504 0.286636
O O14 0.693883 0.294045 0.000000
#
# Coordination Sequence:
#
# PCOD9382239 Si02
#       6
#     8   4   4   8   8   2
#     4   8  14  27  47  70  96 125 159 198 241 293
#     4  12  22  32  46  71 105 134 163 200 246 292
#     4  10  18  32  51  71  94 123 168 216 249 276
#     4  10  21  35  50  68  95 135 177 211 239 275
#     4  11  21  32  48  73 103 133 163 198 245 302
#     4  12  21  32  52  74  97 128 165 210 250 280
#
# _framework density 15.739611
#
# number of rings (size 3 to 8) (size 9 to 14) (size 15 to 20)
#    0.000    1.882    3.529    3.176    0.000    4.235 
#    0.000    1.176    0.000    0.706    0.000    7.412 
#    0.000    1.882    0.000    0.000    0.000    0.000 
#
# Total GULP energy -189293.028861 kJ/mol
# GULP energy per Si atom -5567.442025 kJ/mol
# Density = 1.570379 g / cm^3
# Si number density = 15.739611 Si / 1000 Ang^3
#
#
#
# Elastic Constant Matrix: (Units=GPa)
#
#
# Indices 1 2 3 4 5 6 
#
# 1 104.1046 54.6315 23.3135 0.0000 0.0000 0.0000
# 2 54.6315 106.5164 31.7959 0.0000 0.0000 0.0000
# 3 23.3135 31.7959 59.4366 0.0000 0.0000 0.0000
# 4 0.0000 0.0000 0.0000 -6.9943 0.0000 0.0000
# 5 0.0000 0.0000 0.0000 0.0000 16.6751 0.0000
# 6 0.0000 0.0000 0.0000 0.0000 0.0000 17.0032
#
#
#
# Elastic Compliance Matrix: (Units=1/GPa)
#
#
# Indices 1 2 3 4 5 6 
#
# 1 0.013315 -0.006272 -0.001868 0.000000 0.000000 0.000000
# 2 -0.006272 0.014126 -0.005097 0.000000 0.000000 0.000000
# 3 -0.001868 -0.005097 0.020284 0.000000 0.000000 0.000000
# 4 0.000000 0.000000 0.000000 -0.142974 0.000000 0.000000
# 5 0.000000 0.000000 0.000000 0.000000 0.059970 0.000000
# 6 0.000000 0.000000 0.000000 0.000000 0.000000 0.058813
#
#
# Mechanical properties :
#
#
# Convention : Reuss Voigt Hill
#
# Bulk Modulus (GPa) = 47.05276 54.39326 50.72301
# Shear Modulus (GPa) = 87.57967 16.02458 51.80213
#
# Velocity S-wave (km/s) = 7.46751 3.19424 5.74312
# Velocity P-wave (km/s) = 10.21327 6.94532 8.73351
#
# Compressibility (1/GPa) = 0.02125274
#
# Stress axis : x y z
#
# Youngs Moduli (GPa) = 75.10188 70.78917 49.30029
#
# Poissons Ratio (x) = 0.44397 0.09208
# Poissons Ratio (y) = 0.47102 0.25128
# Poissons Ratio (z) = 0.14027 0.36081
#
# Static dielectric constant tensor:
#      x y z
#    x 1.528390 0.000000 0.000000 
#    y 0.000000 1.539420 0.000000 
#    z 0.000000 0.000000 1.524000 
# 
# From -- ./inp_files/16063.got.cif
#   From: 2010.05.17/outbox.cif.g08.bks.cpg/sg47_9_cif.got.tgz:16063.got - 2010.06.03 20:15:42.
