data_PCOD9382928
_publ_section_title
;
Structure prediction by ZEFSAII (Michael W. Deem and Ramdas Pophale) SiO2 
 PCOD9382928
Probable space group: P M M M
;
_chemical_formula_sum "Si O2"
_cell_formula_units_Z 56
_cell_length_a 25.258504
_cell_length_b 14.692068
_cell_length_c 7.992802
_cell_angle_alpha 90.000000
_cell_angle_beta 90.000000
_cell_angle_gamma 90.000000
_cell_volume 2966.126091
_symmetry_space_group_name_H-M "P M M M"
_symmetry_group_IT_number 47
_symmetry_cell_setting 'orthorhombic'
loop_
_space_group_symop_operation_xyz
x,y,z
-x,-y,z
x,-y,-z
-x,y,-z
-x,-y,-z
x,y,-z
-x,y,z
x,-y,z
loop_
_atom_site_type_symbol
_atom_site_label
_atom_site_fract_x
_atom_site_fract_y
_atom_site_fract_z
Si Si1 0.941047 0.211992 0.802709
Si Si2 0.342713 0.277651 0.200190
Si Si3 0.943350 0.646992 0.500000
Si Si4 0.174343 0.602310 0.500000
Si Si5 0.719498 0.896241 0.301453
Si Si6 0.238637 0.610350 0.809856
Si Si7 0.439427 0.604043 0.204521
Si Si8 0.164274 0.897088 0.799363
O O1 0.942279 0.292730 0.668846
O O2 0.889701 0.153596 0.752872
O O3 0.000000 0.167147 0.790552
O O4 0.935252 0.238349 0.000000
O O5 0.324750 0.177033 0.252500
O O6 0.294646 0.346488 0.240202
O O7 0.396972 0.322139 0.265290
O O8 0.346762 0.276132 0.000000
O O9 0.888139 0.597056 0.500000
O O10 0.000000 0.598788 0.500000
O O11 0.196228 0.500000 0.500000
O O12 0.196354 0.642626 0.672272
O O13 0.719313 0.902393 0.500000
O O14 0.777848 0.860669 0.249493
O O15 0.712792 0.000000 0.233111
O O16 0.241905 0.500000 0.814262
O O17 0.225399 0.639756 0.000000
O O18 0.500000 0.621765 0.256386
O O19 0.425325 0.500000 0.253141
O O20 0.438872 0.605116 0.000000
O O21 0.162461 0.000000 0.731490
O O22 0.163758 0.900563 0.000000
#
# Coordination Sequence:
#
# PCOD9382928 Si02
#       8
#     8   8   4   4   8   8   8   8
#     4   9  19  34  51  73  99 127 162 206 257 313
#     4  10  19  30  52  80 104 140 177 211 259 313
#     4  10  22  37  53  72  96 128 168 215 259 310
#     4  10  22  37  54  75 100 134 170 212 266 313
#     4  10  22  36  49  70 102 138 177 222 265 308
#     4   9  19  34  51  79 114 139 168 212 264 326
#     4   8  14  27  50  81 114 142 170 209 257 312
#     4   9  18  32  50  71  96 127 162 204 255 309
#
# _framework density 18.879843999999999
#
# number of rings (size 3 to 8) (size 9 to 14) (size 15 to 20)
#    0.000    2.714    0.000    1.286    4.000    3.571 
#    0.000    1.429    0.000    2.143    0.000    8.000 
#    0.000    0.000    0.000    0.000    0.000    0.000 
#
# Total GULP energy -311913.065238 kJ/mol
# GULP energy per Si atom -5569.876165 kJ/mol
# Density = 1.883687 g / cm^3
# Si number density = 18.879844 Si / 1000 Ang^3
#
#
#
# Elastic Constant Matrix: (Units=GPa)
#
#
# Indices 1 2 3 4 5 6 
#
# 1 145.2089 70.2165 37.8408 0.0000 0.0000 0.0000
# 2 70.2165 82.6368 18.5713 0.0000 0.0000 0.0000
# 3 37.8408 18.5713 35.2435 0.0000 0.0000 0.0000
# 4 0.0000 0.0000 0.0000 -4.7659 0.0000 0.0000
# 5 0.0000 0.0000 0.0000 0.0000 -10.0247 0.0000
# 6 0.0000 0.0000 0.0000 0.0000 0.0000 47.4787
#
#
#
# Elastic Compliance Matrix: (Units=1/GPa)
#
#
# Indices 1 2 3 4 5 6 
#
# 1 0.014310 -0.009876 -0.010160 0.000000 0.000000 0.000000
# 2 -0.009876 0.020542 -0.000221 0.000000 0.000000 0.000000
# 3 -0.010160 -0.000221 0.039400 0.000000 0.000000 0.000000
# 4 0.000000 0.000000 0.000000 -0.209823 0.000000 0.000000
# 5 0.000000 0.000000 0.000000 0.000000 -0.099753 0.000000
# 6 0.000000 0.000000 0.000000 0.000000 0.000000 0.021062
#
#
# Mechanical properties :
#
#
# Convention : Reuss Voigt Hill
#
# Bulk Modulus (GPa) = 29.64080 57.37182 43.50631
# Shear Modulus (GPa) = -30.76885 15.63499 -7.56693
#
# Velocity S-wave (km/s) = -4.04136 2.88085 -2.00416
# Velocity P-wave (km/s) = 2.45825 6.44357 4.21169
#
# Compressibility (1/GPa) = 0.03373728
#
# Stress axis : x y z
#
# Youngs Moduli (GPa) = 69.88211 48.68036 25.38088
#
# Poissons Ratio (x) = 0.48075 0.25788
# Poissons Ratio (y) = 0.69013 0.00561
# Poissons Ratio (z) = 0.71003 0.01076
#
# Static dielectric constant tensor:
#      x y z
#    x 1.664190 0.000000 0.000000 
#    y 0.000000 1.706810 0.000000 
#    z 0.000000 0.000000 1.676330 
# 
# From -- ./inp_files/11303.got.cif
#   From: 2010.05.17/outbox.cif.g08.bks.cpg/sg47_6_cif.got.tgz:11303.got - 2010.06.03 20:15:42.
