data_PCOD9382362
_publ_section_title
;
Structure prediction by ZEFSAII (Michael W. Deem and Ramdas Pophale) SiO2 
 PCOD9382362
Probable space group: P M M M
;
_chemical_formula_sum "Si O2"
_cell_formula_units_Z 60
_cell_length_a 7.374880
_cell_length_b 22.535632
_cell_length_c 15.602814
_cell_angle_alpha 90.000000
_cell_angle_beta 90.000000
_cell_angle_gamma 90.000000
_cell_volume 2593.149955
_symmetry_space_group_name_H-M "P M M M"
_symmetry_group_IT_number 47
_symmetry_cell_setting 'orthorhombic'
loop_
_space_group_symop_operation_xyz
x,y,z
-x,-y,z
x,-y,-z
-x,y,-z
-x,-y,-z
x,y,-z
-x,y,z
x,-y,z
loop_
_atom_site_type_symbol
_atom_site_label
_atom_site_fract_x
_atom_site_fract_y
_atom_site_fract_z
Si Si1 0.714572 0.066777 0.253183
Si Si2 0.780568 0.279439 0.161518
Si Si3 0.278443 0.410942 0.595382
Si Si4 0.749889 0.500000 0.248546
Si Si5 0.709487 0.719123 0.362104
Si Si6 0.218118 0.848445 0.905058
Si Si7 0.278461 0.150361 0.405073
Si Si8 0.779217 0.407619 0.096143
O O1 0.500000 0.061787 0.268715
O O2 0.735614 0.103204 0.165804
O O3 0.787460 0.107318 0.330299
O O4 0.788181 0.000000 0.249141
O O5 0.718657 0.282010 0.259461
O O6 0.718066 0.217451 0.121074
O O7 0.725926 0.339425 0.113163
O O8 0.000000 0.279004 0.161215
O O9 0.228469 0.431915 0.500000
O O10 0.500000 0.413401 0.600032
O O11 0.219321 0.449094 0.676668
O O12 0.215278 0.343056 0.605042
O O13 0.719357 0.448715 0.174406
O O14 0.500000 0.718870 0.390323
O O15 0.786226 0.782052 0.391804
O O16 0.000000 0.845268 0.907180
O O17 0.282604 0.863890 0.000000
O O18 0.230687 0.129547 0.500000
O O19 0.500000 0.152409 0.399747
O O20 0.000000 0.411624 0.098513
O O21 0.723563 0.425441 0.000000
#
# Coordination Sequence:
#
# PCOD9382362 Si02
#       8
#     8   8   8   4   8   8   8   8
#     4  10  21  36  55  82 117 153 186 224 272 323
#     4  10  19  35  59  84 109 139 178 229 284 331
#     4  10  21  36  55  79 107 142 185 228 272 328
#     4  12  20  32  54  78 102 138 182 224 266 316
#     4  10  18  33  58  84 109 141 182 228 277 327
#     4  10  21  37  59  84 109 143 187 231 276 328
#     4   9  17  31  55  84 111 141 181 227 271 319
#     4  10  21  37  57  79 104 138 182 227 272 331
#
# _framework density 23.137884
#
# number of rings (size 3 to 8) (size 9 to 14) (size 15 to 20)
#    0.000    2.000    2.667    1.600    0.000    5.333 
#    0.000    2.667    0.000   13.600    0.000    0.933 
#    0.000    0.000    0.000    0.000    0.000    0.000 
#
# Total GULP energy -334427.081350 kJ/mol
# GULP energy per Si atom -5573.784689 kJ/mol
# Density = 2.308522 g / cm^3
# Si number density = 23.137884 Si / 1000 Ang^3
#
#
#
# Elastic Constant Matrix: (Units=GPa)
#
#
# Indices 1 2 3 4 5 6 
#
# 1 80.4321 7.8884 -2.8927 0.0000 0.0000 0.0000
# 2 7.8884 227.0477 118.1219 0.0000 0.0000 0.0000
# 3 -2.8927 118.1219 239.4128 0.0000 0.0000 0.0000
# 4 0.0000 0.0000 0.0000 -58.5924 0.0000 0.0000
# 5 0.0000 0.0000 0.0000 0.0000 9.5567 0.0000
# 6 0.0000 0.0000 0.0000 0.0000 0.0000 18.0273
#
#
#
# Elastic Compliance Matrix: (Units=1/GPa)
#
#
# Indices 1 2 3 4 5 6 
#
# 1 0.012518 -0.000691 0.000492 0.000000 0.000000 0.000000
# 2 -0.000691 0.005963 -0.002951 0.000000 0.000000 0.000000
# 3 0.000492 -0.002951 0.005639 0.000000 0.000000 0.000000
# 4 0.000000 0.000000 0.000000 -0.017067 0.000000 0.000000
# 5 0.000000 0.000000 0.000000 0.000000 0.104639 0.000000
# 6 0.000000 0.000000 0.000000 0.000000 0.000000 0.055471
#
#
# Mechanical properties :
#
#
# Convention : Reuss Voigt Hill
#
# Bulk Modulus (GPa) = 56.11190 88.12530 72.11860
# Shear Modulus (GPa) = 27.87019 22.04999 24.96009
#
# Velocity S-wave (km/s) = 3.47439 3.09039 3.28800
# Velocity P-wave (km/s) = 6.35602 7.13468 6.75658
#
# Compressibility (1/GPa) = 0.01782153
#
# Stress axis : x y z
#
# Youngs Moduli (GPa) = 79.88298 167.68918 177.34908
#
# Poissons Ratio (x) = 0.11587 -0.08729
# Poissons Ratio (y) = 0.05520 0.52328
# Poissons Ratio (z) = -0.03932 0.49478
#
# Static dielectric constant tensor:
#      x y z
#    x 2.051360 0.000000 0.000000 
#    y 0.000000 1.831160 0.000000 
#    z 0.000000 0.000000 1.805860 
# 
# From -- ./inp_files/16614.got.cif
#   From: 2010.05.17/outbox.cif.g08.bks.cpg/sg47_9_cif.got.tgz:16614.got - 2010.06.03 20:15:42.
