data_PCOD9382022
_publ_section_title
;
Structure prediction by ZEFSAII (Michael W. Deem and Ramdas Pophale) SiO2 
 PCOD9382022
Probable space group: P M M M
;
_chemical_formula_sum "Si O2"
_cell_formula_units_Z 48
_cell_length_a 15.626458
_cell_length_b 7.470717
_cell_length_c 17.724970
_cell_angle_alpha 90.000000
_cell_angle_beta 90.000000
_cell_angle_gamma 90.000000
_cell_volume 2069.227983
_symmetry_space_group_name_H-M "P M M M"
_symmetry_group_IT_number 47
_symmetry_cell_setting 'orthorhombic'
loop_
_space_group_symop_operation_xyz
x,y,z
-x,-y,z
x,-y,-z
-x,y,-z
-x,-y,-z
x,y,-z
-x,y,z
x,-y,z
loop_
_atom_site_type_symbol
_atom_site_label
_atom_site_fract_x
_atom_site_fract_y
_atom_site_fract_z
Si Si1 0.160375 0.282864 0.680224
Si Si2 0.720228 0.211608 0.138218
Si Si3 0.402938 0.286224 0.000000
Si Si4 0.097937 0.793513 0.848261
Si Si5 0.592851 0.214350 0.263635
Si Si6 0.675322 0.713872 0.586585
Si Si7 0.000000 0.282335 0.416749
O O1 0.165084 0.500000 0.686570
O O2 0.130777 0.214153 0.761610
O O3 0.243866 0.217816 0.635456
O O4 0.083522 0.229556 0.626619
O O5 0.814414 0.285373 0.115386
O O6 0.672903 0.285028 0.213814
O O7 0.733925 0.000000 0.150720
O O8 0.651143 0.230798 0.072731
O O9 0.407202 0.500000 0.000000
O O10 0.500000 0.216024 0.000000
O O11 0.000000 0.718555 0.854277
O O12 0.090207 0.000000 0.872939
O O13 0.500000 0.280017 0.235942
O O14 0.601008 0.252744 0.352685
O O15 0.593882 0.000000 0.254486
O O16 0.667549 0.780764 0.500000
O O17 0.685741 0.500000 0.580202
O O18 0.000000 0.500000 0.418863
O O19 0.000000 0.213063 0.500000
#
# Coordination Sequence:
#
# PCOD9382022 Si02
#       7
#     8   8   4   8   8   8   4
#     4  10  18  30  50  75 104 144 193 241 289 343
#     4  10  21  40  65  90 120 158 194 230 281 347
#     4  11  25  43  66  99 130 152 183 233 288 337
#     4  10  20  35  58  87 118 151 191 237 282 333
#     4  10  21  37  58  83 109 145 196 244 288 347
#     4  10  21  35  51  75 109 149 195 246 299 352
#     4   9  16  26  43  69 101 138 185 238 287 337
#
# _framework density 23.197054999999999
#
# number of rings (size 3 to 8) (size 9 to 14) (size 15 to 20)
#    0.000    2.000    2.500    1.250    0.000    5.667 
#    0.000    2.083    0.000    4.500    0.000    0.000 
#    0.000    0.000    0.000    0.000    0.000    0.000 
#
# Total GULP energy -267636.972276 kJ/mol
# GULP energy per Si atom -5575.770256 kJ/mol
# Density = 2.314426 g / cm^3
# Si number density = 23.197055 Si / 1000 Ang^3
#
#
#
# Elastic Constant Matrix: (Units=GPa)
#
#
# Indices 1 2 3 4 5 6 
#
# 1 217.1526 8.5233 47.9879 0.0000 0.0000 0.0000
# 2 8.5233 73.3245 -9.1648 0.0000 0.0000 0.0000
# 3 47.9879 -9.1648 90.8448 0.0000 0.0000 0.0000
# 4 0.0000 0.0000 0.0000 22.5198 0.0000 0.0000
# 5 0.0000 0.0000 0.0000 0.0000 41.1587 0.0000
# 6 0.0000 0.0000 0.0000 0.0000 0.0000 8.3271
#
#
#
# Elastic Compliance Matrix: (Units=1/GPa)
#
#
# Indices 1 2 3 4 5 6 
#
# 1 0.005282 -0.000975 -0.002888 0.000000 0.000000 0.000000
# 2 -0.000975 0.013992 0.001927 0.000000 0.000000 0.000000
# 3 -0.002888 0.001927 0.012728 0.000000 0.000000 0.000000
# 4 0.000000 0.000000 0.000000 0.044405 0.000000 0.000000
# 5 0.000000 0.000000 0.000000 0.000000 0.024296 0.000000
# 6 0.000000 0.000000 0.000000 0.000000 0.000000 0.120090
#
#
# Mechanical properties :
#
#
# Convention : Reuss Voigt Hill
#
# Bulk Modulus (GPa) = 35.55141 52.89052 44.22096
# Shear Modulus (GPa) = 21.36361 36.66615 29.01488
#
# Velocity S-wave (km/s) = 3.03803 3.98004 3.54050
# Velocity P-wave (km/s) = 5.25978 6.63106 5.98482
#
# Compressibility (1/GPa) = 0.02812828
#
# Stress axis : x y z
#
# Youngs Moduli (GPa) = 189.33651 71.46868 78.56775
#
# Poissons Ratio (x) = 0.06968 0.22693
# Poissons Ratio (y) = 0.18459 -0.15137
# Poissons Ratio (z) = 0.54686 -0.13769
#
# Static dielectric constant tensor:
#      x y z
#    x 1.942420 0.000000 0.000000 
#    y 0.000000 1.902360 0.000000 
#    z 0.000000 0.000000 1.872740 
# 
# From -- ./inp_files/21133.got.cif
#   From: 2010.05.17/outbox.cif.g08.bks.cpg/sg47_11_cif.got.tgz:21133.got - 2010.06.03 20:15:42.
