data_PCOD9382434
_publ_section_title
;
Structure prediction by ZEFSAII (Michael W. Deem and Ramdas Pophale) SiO2 
 PCOD9382434
Probable space group: P M M M
;
_chemical_formula_sum "Si O2"
_cell_formula_units_Z 64
_cell_length_a 7.422995
_cell_length_b 18.721798
_cell_length_c 20.594417
_cell_angle_alpha 90.000000
_cell_angle_beta 90.000000
_cell_angle_gamma 90.000000
_cell_volume 2862.043467
_symmetry_space_group_name_H-M "P M M M"
_symmetry_group_IT_number 47
_symmetry_cell_setting 'orthorhombic'
loop_
_space_group_symop_operation_xyz
x,y,z
-x,-y,z
x,-y,-z
-x,y,-z
-x,-y,-z
x,y,-z
-x,y,z
x,-y,z
loop_
_atom_site_type_symbol
_atom_site_label
_atom_site_fract_x
_atom_site_fract_y
_atom_site_fract_z
Si Si1 0.202191 0.724193 0.922991
Si Si2 0.220647 0.881893 0.073727
Si Si3 0.281879 0.421507 0.605009
Si Si4 0.289263 0.618104 0.250711
Si Si5 0.217982 0.221934 0.287223
Si Si6 0.219490 0.077174 0.784867
Si Si7 0.789520 0.738149 0.569664
Si Si8 0.795113 0.424136 0.112726
O O1 0.283078 0.801176 0.910635
O O2 0.294765 0.650360 0.905691
O O3 0.000000 0.724500 0.892431
O O4 0.182053 0.723221 0.000000
O O5 0.271988 0.922390 0.138957
O O6 0.000000 0.881496 0.071164
O O7 0.277242 0.902558 0.000000
O O8 0.500000 0.420708 0.602132
O O9 0.223360 0.500000 0.581574
O O10 0.226153 0.411039 0.680024
O O11 0.221632 0.348204 0.572220
O O12 0.500000 0.601331 0.245589
O O13 0.267859 0.704234 0.250950
O O14 0.196970 0.581554 0.190178
O O15 0.279265 0.148968 0.252462
O O16 0.283789 0.232162 0.361860
O O17 0.000000 0.220665 0.288371
O O18 0.000000 0.079694 0.783866
O O19 0.273884 0.000000 0.756644
O O20 0.711670 0.761388 0.500000
O O21 0.000000 0.757532 0.569510
O O22 0.714691 0.500000 0.093301
O O23 0.000000 0.422294 0.086137
#
# Coordination Sequence:
#
# PCOD9382434 Si02
#       8
#     8   8   8   8   8   8   8   8
#     4   8  14  25  40  58  82 113 149 188 228 269
#     4   8  13  21  34  55  87 123 150 175 214 263
#     4   9  18  31  45  63  89 119 149 183 224 268
#     4  10  19  31  47  65  87 117 153 189 226 269
#     4   9  17  31  50  68  89 118 151 187 223 265
#     4   9  16  25  41  67  95 121 148 178 216 265
#     4   9  18  31  46  65  88 116 151 189 228 266
#     4  10  19  28  41  63  88 115 150 192 236 278
#
# _framework density 22.361644999999999
#
# number of rings (size 3 to 8) (size 9 to 14) (size 15 to 20)
#    0.000    3.000    0.000    2.250    0.000    4.500 
#    0.000    3.750    0.000    1.125    0.000    3.500 
#    0.000    0.000    0.000   10.750    0.000   10.500 
#
# Total GULP energy -356855.459694 kJ/mol
# GULP energy per Si atom -5575.866558 kJ/mol
# Density = 2.231075 g / cm^3
# Si number density = 22.361645 Si / 1000 Ang^3
#
#
#
# Elastic Constant Matrix: (Units=GPa)
#
#
# Indices 1 2 3 4 5 6 
#
# 1 74.2306 -1.7958 -1.2205 0.0000 0.0000 0.0000
# 2 -1.7958 143.3465 62.8116 0.0000 0.0000 0.0000
# 3 -1.2205 62.8116 67.2990 0.0000 0.0000 0.0000
# 4 0.0000 0.0000 0.0000 -16.7738 0.0000 0.0000
# 5 0.0000 0.0000 0.0000 0.0000 27.7573 0.0000
# 6 0.0000 0.0000 0.0000 0.0000 0.0000 118.7551
#
#
#
# Elastic Compliance Matrix: (Units=1/GPa)
#
#
# Indices 1 2 3 4 5 6 
#
# 1 0.013476 0.000104 0.000147 0.000000 0.000000 0.000000
# 2 0.000104 0.011804 -0.011015 0.000000 0.000000 0.000000
# 3 0.000147 -0.011015 0.025142 0.000000 0.000000 0.000000
# 4 0.000000 0.000000 0.000000 -0.059617 0.000000 0.000000
# 5 0.000000 0.000000 0.000000 0.000000 0.036027 0.000000
# 6 0.000000 0.000000 0.000000 0.000000 0.000000 0.008421
#
#
# Mechanical properties :
#
#
# Convention : Reuss Voigt Hill
#
# Bulk Modulus (GPa) = 34.60753 44.94073 39.77413
# Shear Modulus (GPa) = 75.28724 40.95309 58.12017
#
# Velocity S-wave (km/s) = 5.80871 4.28413 5.10367
# Velocity P-wave (km/s) = 7.77805 6.67926 7.24950
#
# Compressibility (1/GPa) = 0.02889544
#
# Stress axis : x y z
#
# Youngs Moduli (GPa) = 74.20336 84.71733 39.77367
#
# Poissons Ratio (x) = -0.00885 -0.00584
# Poissons Ratio (y) = -0.00775 0.43811
# Poissons Ratio (z) = -0.01090 0.93316
#
# Static dielectric constant tensor:
#      x y z
#    x 1.885890 0.000000 0.000000 
#    y 0.000000 1.858260 0.000000 
#    z 0.000000 0.000000 1.841910 
# 
# From -- ./inp_files/10034.got.cif
#   From: 2010.05.17/outbox.cif.g08.bks.cpg/sg47_6_cif.got.tgz:10034.got - 2010.06.03 20:15:42.
