data_PCOD9382705
_publ_section_title
;
Structure prediction by ZEFSAII (Michael W. Deem and Ramdas Pophale) SiO2 
 PCOD9382705
Probable space group: P M M M
;
_chemical_formula_sum "Si O2"
_cell_formula_units_Z 64
_cell_length_a 8.807732
_cell_length_b 24.238346
_cell_length_c 19.592021
_cell_angle_alpha 90.000000
_cell_angle_beta 90.000000
_cell_angle_gamma 90.000000
_cell_volume 4182.599776
_symmetry_space_group_name_H-M "P M M M"
_symmetry_group_IT_number 47
_symmetry_cell_setting 'orthorhombic'
loop_
_space_group_symop_operation_xyz
x,y,z
-x,-y,z
x,-y,-z
-x,y,-z
-x,-y,-z
x,y,-z
-x,y,z
x,-y,z
loop_
_atom_site_type_symbol
_atom_site_label
_atom_site_fract_x
_atom_site_fract_y
_atom_site_fract_z
Si Si1 0.318501 0.664060 0.201735
Si Si2 0.318696 0.774564 0.284689
Si Si3 0.815618 0.387523 0.424673
Si Si4 0.181425 0.163256 0.161340
Si Si5 0.816241 0.437380 0.718070
Si Si6 0.182740 0.258097 0.577009
Si Si7 0.317084 0.063744 0.078701
Si Si8 0.182955 0.726557 0.078699
O O1 0.500000 0.660901 0.200549
O O2 0.274221 0.715203 0.251487
O O3 0.249625 0.608140 0.231243
O O4 0.256110 0.681056 0.127759
O O5 0.500000 0.778314 0.283746
O O6 0.249243 0.820315 0.234626
O O7 0.257459 0.774905 0.361460
O O8 0.763606 0.406132 0.500000
O O9 0.765550 0.421620 0.358966
O O10 0.774731 0.322998 0.416379
O O11 0.000000 0.389724 0.425548
O O12 0.244033 0.107073 0.129822
O O13 0.224286 0.213786 0.110453
O O14 0.000000 0.161501 0.165577
O O15 0.771981 0.500000 0.734332
O O16 0.000000 0.434091 0.719560
O O17 0.224516 0.240677 0.500000
O O18 0.000000 0.255219 0.582796
O O19 0.500000 0.067669 0.082357
O O20 0.275718 0.000000 0.092676
O O21 0.272792 0.076104 0.000000
O O22 0.000000 0.721900 0.082108
O O23 0.229695 0.722571 0.000000
#
# Coordination Sequence:
#
# PCOD9382705 Si02
#       8
#     8   8   8   8   8   8   8   8
#     4  10  20  32  46  65  89 117 146 180 224 274
#     4  10  19  30  45  66  92 123 157 191 232 279
#     4   8  14  25  42  64  88 113 144 183 223 263
#     4  10  19  30  47  71  98 126 159 198 233 269
#     4  10  19  30  47  67  86 113 149 186 223 269
#     4   9  16  27  45  66  89 120 154 189 232 277
#     4   9  18  32  48  67  97 137 172 199 230 269
#     4   9  18  32  50  71  93 116 143 182 230 275
#
# _framework density 15.301488000000001
#
# number of rings (size 3 to 8) (size 9 to 14) (size 15 to 20)
#    0.000    2.625    1.250    2.625    0.000    3.500 
#    0.000    1.875    0.000    0.750    0.000    3.500 
#    0.000    0.500    0.000    5.250    0.000    2.250 
#
# Total GULP energy -356783.482121 kJ/mol
# GULP energy per Si atom -5574.741908 kJ/mol
# Density = 1.526666 g / cm^3
# Si number density = 15.301488 Si / 1000 Ang^3
#
#
#
# Elastic Constant Matrix: (Units=GPa)
#
#
# Indices 1 2 3 4 5 6 
#
# 1 22.2368 31.4892 37.0698 0.0000 0.0000 0.0000
# 2 31.4892 93.4426 65.4557 0.0000 0.0000 0.0000
# 3 37.0698 65.4557 128.0471 0.0000 0.0000 0.0000
# 4 0.0000 0.0000 0.0000 27.0718 0.0000 0.0000
# 5 0.0000 0.0000 0.0000 0.0000 18.1249 0.0000
# 6 0.0000 0.0000 0.0000 0.0000 0.0000 20.6303
#
#
#
# Elastic Compliance Matrix: (Units=1/GPa)
#
#
# Indices 1 2 3 4 5 6 
#
# 1 0.112568 -0.023533 -0.020559 0.000000 0.000000 0.000000
# 2 -0.023533 0.021591 -0.004224 0.000000 0.000000 0.000000
# 3 -0.020559 -0.004224 0.015921 0.000000 0.000000 0.000000
# 4 0.000000 0.000000 0.000000 0.036939 0.000000 0.000000
# 5 0.000000 0.000000 0.000000 0.000000 0.055173 0.000000
# 6 0.000000 0.000000 0.000000 0.000000 0.000000 0.048472
#
#
# Mechanical properties :
#
#
# Convention : Reuss Voigt Hill
#
# Bulk Modulus (GPa) = 18.70983 56.86177 37.78580
# Shear Modulus (GPa) = 12.34226 20.47954 16.41090
#
# Velocity S-wave (km/s) = 2.84316 3.66239 3.27846
# Velocity P-wave (km/s) = 4.79918 7.42467 6.25131
#
# Compressibility (1/GPa) = 0.05344785
#
# Stress axis : x y z
#
# Youngs Moduli (GPa) = 8.88351 46.31518 62.81074
#
# Poissons Ratio (x) = 1.08993 1.29132
# Poissons Ratio (y) = 0.20906 0.26533
# Poissons Ratio (z) = 0.18264 0.19565
#
# Static dielectric constant tensor:
#      x y z
#    x 1.509800 0.000000 0.000000 
#    y 0.000000 1.486080 0.000000 
#    z 0.000000 0.000000 1.509440 
# 
# From -- ./inp_files/10157.got.cif
#   From: 2010.05.17/outbox.cif.g08.bks.cpg/sg47_6_cif.got.tgz:10157.got - 2010.06.03 20:15:42.
