data_PCOD9382620
_publ_section_title
;
Structure prediction by ZEFSAII (Michael W. Deem and Ramdas Pophale) SiO2 
 PCOD9382620
Probable space group: P M M M
;
_chemical_formula_sum "Si O2"
_cell_formula_units_Z 48
_cell_length_a 14.286215
_cell_length_b 8.209022
_cell_length_c 24.708889
_cell_angle_alpha 90.000000
_cell_angle_beta 90.000000
_cell_angle_gamma 90.000000
_cell_volume 2897.756040
_symmetry_space_group_name_H-M "P M M M"
_symmetry_group_IT_number 47
_symmetry_cell_setting 'orthorhombic'
loop_
_space_group_symop_operation_xyz
x,y,z
-x,-y,z
x,-y,-z
-x,y,-z
-x,-y,-z
x,y,-z
-x,y,z
x,-y,z
loop_
_atom_site_type_symbol
_atom_site_label
_atom_site_fract_x
_atom_site_fract_y
_atom_site_fract_z
Si Si1 0.394504 0.698877 0.774576
Si Si2 0.894740 0.805737 0.273707
Si Si3 0.391612 0.698817 0.439096
Si Si4 0.210459 0.694468 0.166953
Si Si5 0.286998 0.303870 0.666715
Si Si6 0.892448 0.803427 0.938939
O O1 0.500000 0.756121 0.784145
O O2 0.396586 0.500000 0.774758
O O3 0.315436 0.750413 0.817515
O O4 0.355353 0.749409 0.715695
O O5 0.857729 0.760161 0.213937
O O6 0.817413 0.743733 0.315979
O O7 0.000000 0.742031 0.282123
O O8 0.897044 0.000000 0.277280
O O9 0.366308 0.751733 0.500000
O O10 0.500000 0.744364 0.428769
O O11 0.389420 0.500000 0.439078
O O12 0.324931 0.756391 0.390858
O O13 0.209158 0.500000 0.171212
O O14 0.174661 0.744174 0.108282
O O15 0.290979 0.500000 0.665814
O O16 0.000000 0.750847 0.928369
O O17 0.892252 0.000000 0.938508
O O18 0.867312 0.750401 0.000000
#
# Coordination Sequence:
#
# PCOD9382620 Si02
#       6
#     8   8   8   8   8   8
#     4   8  14  25  41  62  88 115 141 171 210 255
#     4  10  20  32  45  61  85 118 149 177 217 268
#     4   8  13  22  40  68  97 120 143 175 218 267
#     4  10  19  29  46  71  92 112 142 181 220 255
#     4   9  16  26  44  68  89 112 145 184 219 251
#     4   9  18  32  48  65  88 120 151 176 211 261
#
# _framework density 16.564541999999999
#
# number of rings (size 3 to 8) (size 9 to 14) (size 15 to 20)
#    0.000    3.000    0.000    4.000    0.000    6.000 
#    0.000    0.833    0.000   18.500    0.000    8.167 
#    0.000    0.000    0.000    0.000    0.000    0.000 
#
# Total GULP energy -267432.771570 kJ/mol
# GULP energy per Si atom -5571.516074 kJ/mol
# Density = 1.652684 g / cm^3
# Si number density = 16.564542 Si / 1000 Ang^3
#
#
#
# Elastic Constant Matrix: (Units=GPa)
#
#
# Indices 1 2 3 4 5 6 
#
# 1 144.9463 4.9610 94.7953 0.0000 0.0000 0.0000
# 2 4.9610 5.6743 9.7000 0.0000 0.0000 0.0000
# 3 94.7953 9.7000 144.6899 0.0000 0.0000 0.0000
# 4 0.0000 0.0000 0.0000 -7.5515 0.0000 0.0000
# 5 0.0000 0.0000 0.0000 0.0000 24.2560 0.0000
# 6 0.0000 0.0000 0.0000 0.0000 0.0000 43.0091
#
#
#
# Elastic Compliance Matrix: (Units=1/GPa)
#
#
# Indices 1 2 3 4 5 6 
#
# 1 0.012128 0.003365 -0.008171 0.000000 0.000000 0.000000
# 2 0.003365 0.199976 -0.015611 0.000000 0.000000 0.000000
# 3 -0.008171 -0.015611 0.013312 0.000000 0.000000 0.000000
# 4 0.000000 0.000000 0.000000 -0.132424 0.000000 0.000000
# 5 0.000000 0.000000 0.000000 0.000000 0.041227 0.000000
# 6 0.000000 0.000000 0.000000 0.000000 0.000000 0.023251
#
#
# Mechanical properties :
#
#
# Convention : Reuss Voigt Hill
#
# Bulk Modulus (GPa) = 5.41767 57.13591 31.27679
# Shear Modulus (GPa) = 19.24318 24.33298 21.78808
#
# Velocity S-wave (km/s) = 3.41208 3.83689 3.63070
# Velocity P-wave (km/s) = 4.33599 7.36184 6.04142
#
# Compressibility (1/GPa) = 0.18458129
#
# Stress axis : x y z
#
# Youngs Moduli (GPa) = 82.45325 5.00059 75.12284
#
# Poissons Ratio (x) = -0.01683 0.61386
# Poissons Ratio (y) = -0.27748 1.17276
# Poissons Ratio (z) = 0.67376 0.07807
#
# Static dielectric constant tensor:
#      x y z
#    x 1.564380 0.000000 0.000000 
#    y 0.000000 1.584140 0.000000 
#    z 0.000000 0.000000 1.554760 
# 
# From -- ./inp_files/4338.got.cif
#   From: 2010.05.17/outbox.cif.g08.bks.cpg/sg47_3_cif.got.tgz:4338.got - 2010.06.03 20:15:42.
