data_PCOD9382821
_publ_section_title
;
Structure prediction by ZEFSAII (Michael W. Deem and Ramdas Pophale) SiO2 
 PCOD9382821
Probable space group: P M M M
;
_chemical_formula_sum "Si O2"
_cell_formula_units_Z 40
_cell_length_a 28.485661
_cell_length_b 9.651544
_cell_length_c 7.485878
_cell_angle_alpha 90.000000
_cell_angle_beta 90.000000
_cell_angle_gamma 90.000000
_cell_volume 2058.097009
_symmetry_space_group_name_H-M "P M M M"
_symmetry_group_IT_number 47
_symmetry_cell_setting 'orthorhombic'
loop_
_space_group_symop_operation_xyz
x,y,z
-x,-y,z
x,-y,-z
-x,y,-z
-x,-y,-z
x,y,-z
-x,y,z
x,-y,z
loop_
_atom_site_type_symbol
_atom_site_label
_atom_site_fract_x
_atom_site_fract_y
_atom_site_fract_z
Si Si1 0.053213 0.331875 0.500000
Si Si2 0.127397 0.339481 0.205527
Si Si3 0.781266 0.158756 0.716275
Si Si4 0.693721 0.659413 0.282245
Si Si5 0.500000 0.158972 0.718712
Si Si6 0.412111 0.659299 0.717718
O O1 0.050431 0.500000 0.500000
O O2 0.084615 0.292676 0.329865
O O3 0.000000 0.278965 0.500000
O O4 0.139232 0.500000 0.253299
O O5 0.172910 0.245010 0.230598
O O6 0.113007 0.337105 0.000000
O O7 0.780078 0.157313 0.500000
O O8 0.734539 0.238491 0.778417
O O9 0.782992 0.000000 0.777554
O O10 0.693923 0.660759 0.500000
O O11 0.702796 0.500000 0.228527
O O12 0.640790 0.697440 0.226304
O O13 0.500000 0.160515 0.500000
O O14 0.546624 0.240057 0.777205
O O15 0.500000 0.000000 0.775196
O O16 0.412279 0.660846 0.500000
O O17 0.421017 0.500000 0.770988
#
# Coordination Sequence:
#
# PCOD9382821 Si02
#       6
#     4   8   8   8   4   8
#     4   9  18  34  57  85 115 143 175 222 269 306
#     4  10  20  34  55  81 108 142 180 217 262 314
#     4  10  19  30  47  71  99 133 170 211 262 316
#     4   8  14  24  39  58  81 113 156 206 257 311
#     4   9  15  19  25  39  63  99 142 193 250 304
#     4   8  13  21  31  44  65  99 145 194 246 305
#
# _framework density 19.435428999999999
#
# number of rings (size 3 to 8) (size 9 to 14) (size 15 to 20)
#    0.000    3.000    1.000    2.100    0.000    3.600 
#    0.000    6.000    0.000    1.200    0.000    1.400 
#    0.000    0.000    0.000    0.900    0.000   18.400 
#
# Total GULP energy -223209.001565 kJ/mol
# GULP energy per Si atom -5580.225039 kJ/mol
# Density = 1.939119 g / cm^3
# Si number density = 19.435429 Si / 1000 Ang^3
#
#
#
# Elastic Constant Matrix: (Units=GPa)
#
#
# Indices 1 2 3 4 5 6 
#
# 1 212.1863 121.0038 38.2709 0.0000 0.0000 0.0000
# 2 121.0038 118.5124 28.4411 0.0000 0.0000 0.0000
# 3 38.2709 28.4411 67.1056 0.0000 0.0000 0.0000
# 4 0.0000 0.0000 0.0000 1.9073 0.0000 0.0000
# 5 0.0000 0.0000 0.0000 0.0000 -19.8473 0.0000
# 6 0.0000 0.0000 0.0000 0.0000 0.0000 -3.3684
#
#
#
# Elastic Compliance Matrix: (Units=1/GPa)
#
#
# Indices 1 2 3 4 5 6 
#
# 1 0.011465 -0.011284 -0.001756 0.000000 0.000000 0.000000
# 2 -0.011284 0.020500 -0.002253 0.000000 0.000000 0.000000
# 3 -0.001756 -0.002253 0.016858 0.000000 0.000000 0.000000
# 4 0.000000 0.000000 0.000000 0.524297 0.000000 0.000000
# 5 0.000000 0.000000 0.000000 0.000000 -0.050385 0.000000
# 6 0.000000 0.000000 0.000000 0.000000 0.000000 -0.296874
#
#
# Mechanical properties :
#
#
# Convention : Reuss Voigt Hill
#
# Bulk Modulus (GPa) = 54.83431 85.91510 70.37470
# Shear Modulus (GPa) = 19.04576 9.74420 14.39498
#
# Velocity S-wave (km/s) = 3.13381 2.24154 2.72445
# Velocity P-wave (km/s) = 6.43189 7.14148 6.79595
#
# Compressibility (1/GPa) = 0.01823676
#
# Stress axis : x y z
#
# Youngs Moduli (GPa) = 87.22479 48.78023 59.31865
#
# Poissons Ratio (x) = 0.55045 0.10415
# Poissons Ratio (y) = 0.98427 0.13364
# Poissons Ratio (z) = 0.15315 0.10990
#
# Static dielectric constant tensor:
#      x y z
#    x 1.643630 0.000000 0.000000 
#    y 0.000000 1.648660 0.000000 
#    z 0.000000 0.000000 1.785140 
# 
# From -- ./inp_files/13086.got.cif
#   From: 2010.05.17/outbox.cif.g08.bks.cpg/sg47_7_cif.got.tgz:13086.got - 2010.06.03 20:15:42.
