data_PCOD9382610
_publ_section_title
;
Structure prediction by ZEFSAII (Michael W. Deem and Ramdas Pophale) SiO2 
 PCOD9382610
Probable space group: P M M M
;
_chemical_formula_sum "Si O2"
_cell_formula_units_Z 56
_cell_length_a 9.028503
_cell_length_b 19.377572
_cell_length_c 18.766359
_cell_angle_alpha 90.000000
_cell_angle_beta 90.000000
_cell_angle_gamma 90.000000
_cell_volume 3283.183270
_symmetry_space_group_name_H-M "P M M M"
_symmetry_group_IT_number 47
_symmetry_cell_setting 'orthorhombic'
loop_
_space_group_symop_operation_xyz
x,y,z
-x,-y,z
x,-y,-z
-x,y,-z
-x,-y,-z
x,y,-z
-x,y,z
x,-y,z
loop_
_atom_site_type_symbol
_atom_site_label
_atom_site_fract_x
_atom_site_fract_y
_atom_site_fract_z
Si Si1 0.325093 0.420723 0.156192
Si Si2 0.176123 0.422384 0.311995
Si Si3 0.324771 0.288407 0.350311
Si Si4 0.677665 0.855030 0.418743
Si Si5 0.676404 0.795005 0.795472
Si Si6 0.823419 0.079923 0.282259
Si Si7 0.176651 0.707119 0.082823
O O1 0.500000 0.404819 0.160638
O O2 0.308006 0.500000 0.131877
O O3 0.255135 0.416408 0.235044
O O4 0.244928 0.366218 0.105975
O O5 0.207868 0.500000 0.339285
O O6 0.236257 0.359071 0.358287
O O7 0.000000 0.416167 0.302400
O O8 0.500000 0.302330 0.355706
O O9 0.287625 0.225550 0.403207
O O10 0.295815 0.256566 0.271501
O O11 0.712022 0.873228 0.500000
O O12 0.500000 0.862405 0.407436
O O13 0.762034 0.899809 0.360258
O O14 0.500000 0.800411 0.803714
O O15 0.745109 0.867772 0.772103
O O16 0.750913 0.763072 0.864935
O O17 0.000000 0.090331 0.280337
O O18 0.791194 0.000000 0.267261
O O19 0.000000 0.705834 0.093277
O O20 0.207801 0.720836 0.000000
#
# Coordination Sequence:
#
# PCOD9382610 Si02
#       7
#     8   8   8   8   8   8   8
#     4  10  20  33  49  70  99 136 177 220 266 314
#     4  10  19  29  45  70  98 130 170 218 270 317
#     4   9  17  30  50  74  98 129 171 217 262 307
#     4   9  19  35  54  78 109 143 177 213 254 304
#     4  10  20  35  56  79 103 134 174 218 258 304
#     4  10  21  36  56  83 113 143 172 206 251 304
#     4  11  23  36  52  75 104 139 176 217 267 318
#
# _framework density 17.056616999999999
#
# number of rings (size 3 to 8) (size 9 to 14) (size 15 to 20)
#    0.000    2.143    1.429    3.000    0.000    7.143 
#    0.000    2.857    0.000    0.857    0.000    6.000 
#    0.000    0.000    0.000    0.000    0.000    0.000 
#
# Total GULP energy -312529.747434 kJ/mol
# GULP energy per Si atom -5580.888347 kJ/mol
# Density = 1.701780 g / cm^3
# Si number density = 17.056617 Si / 1000 Ang^3
#
#
#
# Elastic Constant Matrix: (Units=GPa)
#
#
# Indices 1 2 3 4 5 6 
#
# 1 52.2027 50.1741 15.8012 0.0000 0.0000 0.0000
# 2 50.1741 109.1172 21.2975 0.0000 0.0000 0.0000
# 3 15.8012 21.2975 32.9946 0.0000 0.0000 0.0000
# 4 0.0000 0.0000 0.0000 14.5744 0.0000 0.0000
# 5 0.0000 0.0000 0.0000 0.0000 22.7960 0.0000
# 6 0.0000 0.0000 0.0000 0.0000 0.0000 31.8110
#
#
#
# Elastic Compliance Matrix: (Units=1/GPa)
#
#
# Indices 1 2 3 4 5 6 
#
# 1 0.035868 -0.015034 -0.007473 0.000000 0.000000 0.000000
# 2 -0.015034 0.016787 -0.003636 0.000000 0.000000 0.000000
# 3 -0.007473 -0.003636 0.036234 0.000000 0.000000 0.000000
# 4 0.000000 0.000000 0.000000 0.068613 0.000000 0.000000
# 5 0.000000 0.000000 0.000000 0.000000 0.043867 0.000000
# 6 0.000000 0.000000 0.000000 0.000000 0.000000 0.031436
#
#
# Mechanical properties :
#
#
# Convention : Reuss Voigt Hill
#
# Bulk Modulus (GPa) = 27.32037 40.98446 34.15242
# Shear Modulus (GPa) = 16.81845 20.97239 18.89542
#
# Velocity S-wave (km/s) = 3.14353 3.51033 3.33198
# Velocity P-wave (km/s) = 5.40629 6.36479 5.90502
#
# Compressibility (1/GPa) = 0.03660273
#
# Stress axis : x y z
#
# Youngs Moduli (GPa) = 27.87991 59.56946 27.59859
#
# Poissons Ratio (x) = 0.89558 0.20625
# Poissons Ratio (y) = 0.41915 0.10034
# Poissons Ratio (z) = 0.20835 0.21659
#
# Static dielectric constant tensor:
#      x y z
#    x 1.567040 0.000000 0.000000 
#    y 0.000000 1.584960 0.000000 
#    z 0.000000 0.000000 1.555600 
# 
# From -- ./inp_files/29693.got.cif
#   From: 2010.05.17/outbox.cif.g08.bks.cpg/sg47_15_cif.got.tgz:29693.got - 2010.06.03 20:15:42.
