data_PCOD9382816
_publ_section_title
;
Structure prediction by ZEFSAII (Michael W. Deem and Ramdas Pophale) SiO2 
 PCOD9382816
Probable space group: P M M M
;
_chemical_formula_sum "Si O2"
_cell_formula_units_Z 64
_cell_length_a 21.494337
_cell_length_b 7.938338
_cell_length_c 18.207732
_cell_angle_alpha 90.000000
_cell_angle_beta 90.000000
_cell_angle_gamma 90.000000
_cell_volume 3106.772788
_symmetry_space_group_name_H-M "P M M M"
_symmetry_group_IT_number 47
_symmetry_cell_setting 'orthorhombic'
loop_
_space_group_symop_operation_xyz
x,y,z
-x,-y,z
x,-y,-z
-x,y,-z
-x,-y,-z
x,y,-z
-x,y,z
x,-y,z
loop_
_atom_site_type_symbol
_atom_site_label
_atom_site_fract_x
_atom_site_fract_y
_atom_site_fract_z
Si Si1 0.067091 0.702899 0.206743
Si Si2 0.429610 0.202788 0.294517
Si Si3 0.298716 0.297602 0.079708
Si Si4 0.335505 0.206038 0.419679
Si Si5 0.568397 0.698707 0.873556
Si Si6 0.798811 0.202506 0.629883
Si Si7 0.201085 0.802011 0.202438
Si Si8 0.932936 0.702185 0.620367
O O1 0.068441 0.500000 0.204419
O O2 0.131312 0.767104 0.173728
O O3 0.067565 0.752086 0.293155
O O4 0.000000 0.758973 0.176232
O O5 0.500000 0.235829 0.320955
O O6 0.378695 0.262202 0.352694
O O7 0.423441 0.281756 0.214132
O O8 0.423211 0.000000 0.285694
O O9 0.303134 0.500000 0.077951
O O10 0.368809 0.230221 0.091410
O O11 0.253483 0.258023 0.146858
O O12 0.274899 0.239707 0.000000
O O13 0.358334 0.258329 0.500000
O O14 0.264059 0.259819 0.409182
O O15 0.336374 0.000000 0.417991
O O16 0.500000 0.770559 0.892631
O O17 0.566105 0.500000 0.891545
O O18 0.795961 0.269482 0.714302
O O19 0.865041 0.244981 0.593319
O O20 0.796670 0.000000 0.632625
O O21 0.209528 0.000000 0.209857
O O22 0.934335 0.500000 0.616328
O O23 0.000000 0.762922 0.590084
#
# Coordination Sequence:
#
# PCOD9382816 Si02
#       8
#     8   8   8   8   8   8   8   8
#     4   8  14  26  45  69  96 124 155 193 236 281
#     4   9  17  30  50  74  97 122 154 192 232 276
#     4  10  21  35  50  69  94 125 160 195 230 274
#     4   9  17  29  45  66  94 126 159 196 233 268
#     4   9  18  33  53  75  97 122 153 191 236 282
#     4   9  17  28  44  67  92 120 155 193 232 274
#     4  10  19  30  47  71  98 126 156 194 239 284
#     4   8  14  25  42  65  91 117 147 187 234 279
#
# _framework density 20.600154
#
# number of rings (size 3 to 8) (size 9 to 14) (size 15 to 20)
#    0.000    3.000    0.000    1.875    0.000    3.250 
#    0.000    5.625    0.000    2.250    0.000    9.625 
#    0.000    0.000    0.000    0.000    0.000    0.000 
#
# Total GULP energy -356644.546446 kJ/mol
# GULP energy per Si atom -5572.571038 kJ/mol
# Density = 2.055327 g / cm^3
# Si number density = 20.600154 Si / 1000 Ang^3
#
#
#
# Elastic Constant Matrix: (Units=GPa)
#
#
# Indices 1 2 3 4 5 6 
#
# 1 101.3220 8.4113 28.0682 0.0000 0.0000 0.0000
# 2 8.4113 14.1909 2.0564 0.0000 0.0000 0.0000
# 3 28.0682 2.0564 47.6799 0.0000 0.0000 0.0000
# 4 0.0000 0.0000 0.0000 6.2221 0.0000 0.0000
# 5 0.0000 0.0000 0.0000 0.0000 -23.7849 0.0000
# 6 0.0000 0.0000 0.0000 0.0000 0.0000 14.2547
#
#
#
# Elastic Compliance Matrix: (Units=1/GPa)
#
#
# Indices 1 2 3 4 5 6 
#
# 1 0.012327 -0.006294 -0.006985 0.000000 0.000000 0.000000
# 2 -0.006294 0.074125 0.000508 0.000000 0.000000 0.000000
# 3 -0.006985 0.000508 0.025063 0.000000 0.000000 0.000000
# 4 0.000000 0.000000 0.000000 0.160717 0.000000 0.000000
# 5 0.000000 0.000000 0.000000 0.000000 -0.042043 0.000000
# 6 0.000000 0.000000 0.000000 0.000000 0.000000 0.070152
#
#
# Mechanical properties :
#
#
# Convention : Reuss Voigt Hill
#
# Bulk Modulus (GPa) = 11.63154 26.69604 19.16379
# Shear Modulus (GPa) = 14.10272 7.64884 10.87578
#
# Velocity S-wave (km/s) = 2.61931 1.92901 2.30020
# Velocity P-wave (km/s) = 3.84790 4.23659 4.04691
#
# Compressibility (1/GPa) = 0.08597311
#
# Stress axis : x y z
#
# Youngs Moduli (GPa) = 81.12204 13.49073 39.89891
#
# Poissons Ratio (x) = 0.08492 0.27870
# Poissons Ratio (y) = 0.51061 -0.02029
# Poissons Ratio (z) = 0.56666 -0.00686
#
# Static dielectric constant tensor:
#      x y z
#    x 1.773520 0.000000 0.000000 
#    y 0.000000 1.743460 0.000000 
#    z 0.000000 0.000000 1.719780 
# 
# From -- ./inp_files/27010.got.cif
#   From: 2010.05.17/outbox.cif.g08.bks.cpg/sg47_14_cif.got.tgz:27010.got - 2010.06.03 20:15:42.
