data_PCOD9382309
_publ_section_title
;
Structure prediction by ZEFSAII (Michael W. Deem and Ramdas Pophale) SiO2 
 PCOD9382309
Probable space group: P M M M
;
_chemical_formula_sum "Si O2"
_cell_formula_units_Z 44
_cell_length_a 7.571169
_cell_length_b 15.191076
_cell_length_c 17.781880
_cell_angle_alpha 90.000000
_cell_angle_beta 90.000000
_cell_angle_gamma 90.000000
_cell_volume 2045.168768
_symmetry_space_group_name_H-M "P M M M"
_symmetry_group_IT_number 47
_symmetry_cell_setting 'orthorhombic'
loop_
_space_group_symop_operation_xyz
x,y,z
-x,-y,z
x,-y,-z
-x,y,-z
-x,-y,-z
x,y,-z
-x,y,z
x,-y,z
loop_
_atom_site_type_symbol
_atom_site_label
_atom_site_fract_x
_atom_site_fract_y
_atom_site_fract_z
Si Si1 0.286291 0.786730 0.913849
Si Si2 0.285500 0.403164 0.588796
Si Si3 0.207249 0.901645 0.775473
Si Si4 0.283032 0.100990 0.500000
Si Si5 0.706935 0.218224 0.361590
Si Si6 0.710114 0.594815 0.908857
O O1 0.500000 0.782639 0.914944
O O2 0.233569 0.864471 0.858891
O O3 0.221887 0.690562 0.884677
O O4 0.227445 0.798901 0.000000
O O5 0.245709 0.391091 0.500000
O O6 0.500000 0.406628 0.594673
O O7 0.220585 0.500000 0.612249
O O8 0.220333 0.317227 0.632835
O O9 0.280204 0.830466 0.717382
O O10 0.000000 0.906427 0.760321
O O11 0.282452 0.000000 0.765974
O O12 0.500000 0.098783 0.500000
O O13 0.222098 0.154037 0.573483
O O14 0.224717 0.000000 0.500000
O O15 0.500000 0.227612 0.379431
O O16 0.500000 0.593559 0.892264
O O17 0.782736 0.500000 0.882647
O O18 0.726302 0.595857 0.000000
#
# Coordination Sequence:
#
# PCOD9382309 Si02
#       6
#     8   8   8   4   8   8
#     4   9  18  34  58  85 106 129 170 221 268 316
#     4   8  13  24  47  81 115 140 167 209 259 309
#     4  11  25  41  53  69 100 142 181 219 269 322
#     4   9  16  26  46  78 106 127 163 217 264 297
#     4  10  18  32  55  81 106 136 174 215 260 308
#     4   7  10  20  43  76 108 130 150 187 243 302
#
# _framework density 21.514116999999999
#
# number of rings (size 3 to 8) (size 9 to 14) (size 15 to 20)
#    0.000    3.000    0.909    3.273    0.000    2.909 
#    0.000    3.182    0.000    8.182    0.000    3.818 
#    0.000    0.000    0.000    0.000    0.000    0.000 
#
# Total GULP energy -245290.036259 kJ/mol
# GULP energy per Si atom -5574.773551 kJ/mol
# Density = 2.146515 g / cm^3
# Si number density = 21.514117 Si / 1000 Ang^3
#
#
#
# Elastic Constant Matrix: (Units=GPa)
#
#
# Indices 1 2 3 4 5 6 
#
# 1 44.5131 6.4031 -9.7051 0.0000 0.0000 0.0000
# 2 6.4031 219.9848 62.9842 0.0000 0.0000 0.0000
# 3 -9.7051 62.9842 61.0007 0.0000 0.0000 0.0000
# 4 0.0000 0.0000 0.0000 28.0173 0.0000 0.0000
# 5 0.0000 0.0000 0.0000 0.0000 60.5734 0.0000
# 6 0.0000 0.0000 0.0000 0.0000 0.0000 87.6236
#
#
#
# Elastic Compliance Matrix: (Units=1/GPa)
#
#
# Indices 1 2 3 4 5 6 
#
# 1 0.024255 -0.002571 0.006513 0.000000 0.000000 0.000000
# 2 -0.002571 0.006726 -0.007354 0.000000 0.000000 0.000000
# 3 0.006513 -0.007354 0.025022 0.000000 0.000000 0.000000
# 4 0.000000 0.000000 0.000000 0.035692 0.000000 0.000000
# 5 0.000000 0.000000 0.000000 0.000000 0.016509 0.000000
# 6 0.000000 0.000000 0.000000 0.000000 0.000000 0.011412
#
#
# Mechanical properties :
#
#
# Convention : Reuss Voigt Hill
#
# Bulk Modulus (GPa) = 20.33296 49.42923 34.88110
# Shear Modulus (GPa) = 35.00576 52.96393 43.98485
#
# Velocity S-wave (km/s) = 4.03812 4.96706 4.52648
# Velocity P-wave (km/s) = 5.58689 7.47801 6.60053
#
# Compressibility (1/GPa) = 0.04918122
#
# Stress axis : x y z
#
# Youngs Moduli (GPa) = 41.22822 148.67506 39.96415
#
# Poissons Ratio (x) = 0.38222 -0.26030
# Poissons Ratio (y) = 0.10599 0.29389
# Poissons Ratio (z) = -0.26854 1.09333
#
# Static dielectric constant tensor:
#      x y z
#    x 1.824410 0.000000 0.000000 
#    y 0.000000 1.833480 0.000000 
#    z 0.000000 0.000000 1.746300 
# 
# From -- ./inp_files/26365.got.cif
#   From: 2010.05.17/outbox.cif.g08.bks.cpg/sg47_14_cif.got.tgz:26365.got - 2010.06.03 20:15:42.
