data_PCOD9382805
_publ_section_title
;
Structure prediction by ZEFSAII (Michael W. Deem and Ramdas Pophale) SiO2 
 PCOD9382805
Probable space group: P M M M
;
_chemical_formula_sum "Si O2"
_cell_formula_units_Z 36
_cell_length_a 21.593840
_cell_length_b 7.648832
_cell_length_c 13.666518
_cell_angle_alpha 90.000000
_cell_angle_beta 90.000000
_cell_angle_gamma 90.000000
_cell_volume 2257.266722
_symmetry_space_group_name_H-M "P M M M"
_symmetry_group_IT_number 47
_symmetry_cell_setting 'orthorhombic'
loop_
_space_group_symop_operation_xyz
x,y,z
-x,-y,z
x,-y,-z
-x,y,-z
-x,-y,-z
x,y,-z
-x,y,z
x,-y,z
loop_
_atom_site_type_symbol
_atom_site_label
_atom_site_fract_x
_atom_site_fract_y
_atom_site_fract_z
Si Si1 0.000000 0.295812 0.618861
Si Si2 0.348427 0.500000 0.610805
Si Si3 0.659677 0.205480 0.111955
Si Si4 0.426572 0.500000 0.195595
Si Si5 0.265298 0.799759 0.302731
Si Si6 0.864941 0.712328 0.386161
O O1 0.932876 0.223248 0.647682
O O2 0.000000 0.500000 0.647856
O O3 0.000000 0.291758 0.500000
O O4 0.370969 0.500000 0.500000
O O5 0.401708 0.500000 0.692718
O O6 0.304584 0.333176 0.631392
O O7 0.603805 0.330958 0.143909
O O8 0.714008 0.236972 0.190986
O O9 0.642951 0.000000 0.118517
O O10 0.677518 0.242521 0.000000
O O11 0.500000 0.500000 0.189891
O O12 0.193020 0.773383 0.323337
O O13 0.281787 0.000000 0.324721
O O14 0.855783 0.764571 0.500000
O O15 0.866091 0.500000 0.385058
#
# Coordination Sequence:
#
# PCOD9382805 Si02
#       6
#     4   4   8   4   8   8
#     4   7  12  22  37  57  84 122 158 186 223 270
#     4  10  20  34  49  67  96 128 155 185 222 266
#     4   9  19  35  52  71  96 122 149 188 237 280
#     4  10  21  35  52  75  98 120 152 188 221 268
#     4  10  19  30  47  70  93 120 157 196 231 271
#     4   9  15  25  41  62  91 124 156 189 227 271
#
# _framework density 15.948492
#
# number of rings (size 3 to 8) (size 9 to 14) (size 15 to 20)
#    0.000    2.778    1.111    2.333    0.000    3.333 
#    0.000    1.667    0.000    2.000    0.000    7.000 
#    0.000    6.222    0.000    0.000    0.000    0.000 
#
# Total GULP energy -200543.086814 kJ/mol
# GULP energy per Si atom -5570.641300 kJ/mol
# Density = 1.591219 g / cm^3
# Si number density = 15.948492 Si / 1000 Ang^3
#
#
#
# Elastic Constant Matrix: (Units=GPa)
#
#
# Indices 1 2 3 4 5 6 
#
# 1 135.6090 33.8429 49.1196 0.0000 0.0000 0.0000
# 2 33.8429 58.2751 34.5589 0.0000 0.0000 0.0000
# 3 49.1196 34.5589 93.6343 0.0000 0.0000 0.0000
# 4 0.0000 0.0000 0.0000 -57.4637 0.0000 0.0000
# 5 0.0000 0.0000 0.0000 0.0000 10.1182 0.0000
# 6 0.0000 0.0000 0.0000 0.0000 0.0000 2.1964
#
#
#
# Elastic Compliance Matrix: (Units=1/GPa)
#
#
# Indices 1 2 3 4 5 6 
#
# 1 0.009577 -0.003306 -0.003804 0.000000 0.000000 0.000000
# 2 -0.003306 0.023110 -0.006795 0.000000 0.000000 0.000000
# 3 -0.003804 -0.006795 0.015183 0.000000 0.000000 0.000000
# 4 0.000000 0.000000 0.000000 -0.017402 0.000000 0.000000
# 5 0.000000 0.000000 0.000000 0.000000 0.098832 0.000000
# 6 0.000000 0.000000 0.000000 0.000000 0.000000 0.455293
#
#
# Mechanical properties :
#
#
# Convention : Reuss Voigt Hill
#
# Bulk Modulus (GPa) = 49.85028 58.06234 53.95631
# Shear Modulus (GPa) = 8.07639 2.30332 5.18985
#
# Velocity S-wave (km/s) = 2.25278 1.20306 1.80588
# Velocity P-wave (km/s) = 6.17184 6.19798 6.18493
#
# Compressibility (1/GPa) = 0.02006007
#
# Stress axis : x y z
#
# Youngs Moduli (GPa) = 104.41693 43.27202 65.86211
#
# Poissons Ratio (x) = 0.14306 0.25053
# Poissons Ratio (y) = 0.34520 0.44754
# Poissons Ratio (z) = 0.39718 0.29404
#
# Static dielectric constant tensor:
#      x y z
#    x 1.528880 0.000000 0.000000 
#    y 0.000000 1.570380 0.000000 
#    z 0.000000 0.000000 1.518200 
# 
# From -- ./inp_files/18879.got.cif
#   From: 2010.05.17/outbox.cif.g08.bks.cpg/sg47_10_cif.got.tgz:18879.got - 2010.06.03 20:15:42.
