data_PCOD9382383
_publ_section_title
;
Structure prediction by ZEFSAII (Michael W. Deem and Ramdas Pophale) SiO2 
 PCOD9382383
Probable space group: P M M M
;
_chemical_formula_sum "Si O2"
_cell_formula_units_Z 52
_cell_length_a 9.154966
_cell_length_b 13.943705
_cell_length_c 27.166632
_cell_angle_alpha 90.000000
_cell_angle_beta 90.000000
_cell_angle_gamma 90.000000
_cell_volume 3467.933186
_symmetry_space_group_name_H-M "P M M M"
_symmetry_group_IT_number 47
_symmetry_cell_setting 'orthorhombic'
loop_
_space_group_symop_operation_xyz
x,y,z
-x,-y,z
x,-y,-z
-x,y,-z
-x,-y,-z
x,y,-z
-x,y,z
x,-y,z
loop_
_atom_site_type_symbol
_atom_site_label
_atom_site_fract_x
_atom_site_fract_y
_atom_site_fract_z
Si Si1 0.324362 0.209057 0.397892
Si Si2 0.173652 0.296151 0.247455
Si Si3 0.174121 0.890133 0.306336
Si Si4 0.175110 0.610680 0.647433
Si Si5 0.677568 0.889493 0.500000
Si Si6 0.829051 0.616279 0.945606
Si Si7 0.673860 0.613388 0.153947
O O1 0.500000 0.212149 0.395525
O O2 0.261889 0.141413 0.354702
O O3 0.258104 0.313746 0.386849
O O4 0.278931 0.165994 0.450516
O O5 0.207504 0.187392 0.264081
O O6 0.207655 0.359994 0.295912
O O7 0.258904 0.331268 0.200009
O O8 0.000000 0.304227 0.238426
O O9 0.000000 0.880571 0.316634
O O10 0.204288 0.000000 0.293214
O O11 0.213104 0.500000 0.638658
O O12 0.000000 0.622218 0.641251
O O13 0.500000 0.892119 0.500000
O O14 0.728340 0.000000 0.500000
O O15 0.820509 0.500000 0.946237
O O16 0.739403 0.648030 0.898111
O O17 0.000000 0.640940 0.940093
O O18 0.779246 0.649093 0.000000
O O19 0.500000 0.621924 0.153325
O O20 0.710909 0.500000 0.159247
#
# Coordination Sequence:
#
# PCOD9382383 Si02
#       7
#     8   8   8   8   4   8   8
#     4  10  19  31  49  71  92 115 145 180 217 260
#     4   9  17  29  45  63  83 111 145 177 211 255
#     4   9  18  33  50  67  89 115 143 178 221 266
#     4   9  18  33  50  66  88 119 151 182 218 259
#     4   9  18  32  48  67  92 118 143 175 218 267
#     4   8  14  25  40  56  76 108 149 185 215 251
#     4  10  19  27  37  58  88 118 146 179 216 250
#
# _framework density 14.994522999999999
#
# number of rings (size 3 to 8) (size 9 to 14) (size 15 to 20)
#    0.000    2.846    0.000    3.231    0.000    5.538 
#    0.000    3.462    0.000    5.077    0.000    0.000 
#    0.000    0.615    0.000    7.077    0.000    2.308 
#
# Total GULP energy -289714.760877 kJ/mol
# GULP energy per Si atom -5571.437709 kJ/mol
# Density = 1.496039 g / cm^3
# Si number density = 14.994523 Si / 1000 Ang^3
#
#
#
# Elastic Constant Matrix: (Units=GPa)
#
#
# Indices 1 2 3 4 5 6 
#
# 1 37.2528 41.7851 58.1480 0.0000 0.0000 0.0000
# 2 41.7851 107.5434 69.2152 0.0000 0.0000 0.0000
# 3 58.1480 69.2152 145.5819 0.0000 0.0000 0.0000
# 4 0.0000 0.0000 0.0000 16.0275 0.0000 0.0000
# 5 0.0000 0.0000 0.0000 0.0000 26.9448 0.0000
# 6 0.0000 0.0000 0.0000 0.0000 0.0000 19.8949
#
#
#
# Elastic Compliance Matrix: (Units=1/GPa)
#
#
# Indices 1 2 3 4 5 6 
#
# 1 0.088115 -0.016693 -0.027258 0.000000 0.000000 0.000000
# 2 -0.016693 0.016561 -0.001206 0.000000 0.000000 0.000000
# 3 -0.027258 -0.001206 0.018330 0.000000 0.000000 0.000000
# 4 0.000000 0.000000 0.000000 0.062393 0.000000 0.000000
# 5 0.000000 0.000000 0.000000 0.000000 0.037113 0.000000
# 6 0.000000 0.000000 0.000000 0.000000 0.000000 0.050264
#
#
# Mechanical properties :
#
#
# Convention : Reuss Voigt Hill
#
# Bulk Modulus (GPa) = 30.58946 69.85274 50.22110
# Shear Modulus (GPa) = 13.36945 20.65543 17.01244
#
# Velocity S-wave (km/s) = 2.98924 3.71554 3.37200
# Velocity P-wave (km/s) = 5.68848 8.06806 6.98042
#
# Compressibility (1/GPa) = 0.03269100
#
# Stress axis : x y z
#
# Youngs Moduli (GPa) = 11.34880 60.38379 54.55560
#
# Poissons Ratio (x) = 1.00798 1.48709
# Poissons Ratio (y) = 0.18944 0.06580
# Poissons Ratio (z) = 0.30935 0.07283
#
# Static dielectric constant tensor:
#      x y z
#    x 1.499270 0.000000 0.000000 
#    y 0.000000 1.492610 0.000000 
#    z 0.000000 0.000000 1.485820 
# 
# From -- ./inp_files/31976.got.cif
#   From: 2010.05.17/outbox.cif.g08.bks.cpg/sg47_16_cif.got.tgz:31976.got - 2010.06.03 20:15:42.
