data_PCOD9382315
_publ_section_title
;
Structure prediction by ZEFSAII (Michael W. Deem and Ramdas Pophale) SiO2 
 PCOD9382315
Probable space group: P M M M
;
_chemical_formula_sum "Si O2"
_cell_formula_units_Z 64
_cell_length_a 26.384374
_cell_length_b 14.939868
_cell_length_c 7.478906
_cell_angle_alpha 90.000000
_cell_angle_beta 90.000000
_cell_angle_gamma 90.000000
_cell_volume 2948.028173
_symmetry_space_group_name_H-M "P M M M"
_symmetry_group_IT_number 47
_symmetry_cell_setting 'orthorhombic'
loop_
_space_group_symop_operation_xyz
x,y,z
-x,-y,z
x,-y,-z
-x,y,-z
-x,-y,-z
x,y,-z
-x,y,z
x,-y,z
loop_
_atom_site_type_symbol
_atom_site_label
_atom_site_fract_x
_atom_site_fract_y
_atom_site_fract_z
Si Si1 0.557256 0.707298 0.709824
Si Si2 0.745662 0.281205 0.289662
Si Si3 0.559467 0.904159 0.784906
Si Si4 0.091742 0.900935 0.715847
Si Si5 0.055025 0.294146 0.209826
Si Si6 0.209970 0.098731 0.718146
Si Si7 0.845348 0.603437 0.216606
Si Si8 0.347421 0.601801 0.719654
O O1 0.552430 0.688177 0.500000
O O2 0.500000 0.704875 0.786504
O O3 0.579165 0.808299 0.724471
O O4 0.598345 0.638637 0.782063
O O5 0.735789 0.268439 0.500000
O O6 0.758496 0.183205 0.215307
O O7 0.795568 0.342365 0.272413
O O8 0.697421 0.333686 0.216661
O O9 0.500000 0.904184 0.731029
O O10 0.581377 0.000000 0.723754
O O11 0.560984 0.903874 0.000000
O O12 0.089974 0.900765 0.500000
O O13 0.062995 0.812650 0.776540
O O14 0.150838 0.891553 0.769575
O O15 0.074003 0.000000 0.774686
O O16 0.104225 0.345333 0.282784
O O17 0.000000 0.317774 0.287218
O O18 0.053586 0.316791 0.000000
O O19 0.210249 0.100205 0.500000
O O20 0.227537 0.000000 0.773924
O O21 0.843997 0.500000 0.274518
O O22 0.845881 0.604226 0.000000
O O23 0.347353 0.603089 0.500000
O O24 0.338479 0.500000 0.773893
#
# Coordination Sequence:
#
# PCOD9382315 Si02
#       8
#     8   8   8   8   8   8   8   8
#     4   9  17  29  46  69  98 133 170 205 241 284
#     4  10  18  32  56  78  97 124 160 203 246 292
#     4   8  14  26  45  68  94 126 162 198 240 290
#     4   9  17  31  51  74 100 130 163 198 238 286
#     4  10  21  35  50  71 100 132 165 201 240 285
#     4   8  14  26  47  74  99 122 151 189 234 284
#     4  10  21  36  53  73  97 126 162 204 249 295
#     4   9  18  31  47  72 102 128 161 206 251 292
#
# _framework density 21.709426000000001
#
# number of rings (size 3 to 8) (size 9 to 14) (size 15 to 20)
#    0.000    2.875    1.250    1.500    0.000    2.250 
#    0.000    6.250    0.000    3.750    0.000    3.500 
#    0.000    0.000    0.000    0.000    0.000    0.000 
#
# Total GULP energy -357049.440475 kJ/mol
# GULP energy per Si atom -5578.897507 kJ/mol
# Density = 2.166001 g / cm^3
# Si number density = 21.709426 Si / 1000 Ang^3
#
#
#
# Elastic Constant Matrix: (Units=GPa)
#
#
# Indices 1 2 3 4 5 6 
#
# 1 108.1096 64.6701 -0.5176 0.0000 0.0000 0.0000
# 2 64.6701 126.4993 -9.3143 0.0000 0.0000 0.0000
# 3 -0.5176 -9.3143 58.4500 0.0000 0.0000 0.0000
# 4 0.0000 0.0000 0.0000 42.1304 0.0000 0.0000
# 5 0.0000 0.0000 0.0000 0.0000 9.5513 0.0000
# 6 0.0000 0.0000 0.0000 0.0000 0.0000 -10.1672
#
#
#
# Elastic Compliance Matrix: (Units=1/GPa)
#
#
# Indices 1 2 3 4 5 6 
#
# 1 0.013380 -0.006913 -0.000983 0.000000 0.000000 0.000000
# 2 -0.006913 0.011570 0.001783 0.000000 0.000000 0.000000
# 3 -0.000983 0.001783 0.017384 0.000000 0.000000 0.000000
# 4 0.000000 0.000000 0.000000 0.023736 0.000000 0.000000
# 5 0.000000 0.000000 0.000000 0.000000 0.104698 0.000000
# 6 0.000000 0.000000 0.000000 0.000000 0.000000 -0.098356
#
#
# Mechanical properties :
#
#
# Convention : Reuss Voigt Hill
#
# Bulk Modulus (GPa) = 33.21356 44.74836 38.98096
# Shear Modulus (GPa) = 52.81201 24.18427 38.49814
#
# Velocity S-wave (km/s) = 4.93757 3.34128 4.21567
# Velocity P-wave (km/s) = 6.91653 5.96177 6.45682
#
# Compressibility (1/GPa) = 0.03010819
#
# Stress axis : x y z
#
# Youngs Moduli (GPa) = 74.73650 86.42696 57.52416
#
# Poissons Ratio (x) = 0.59745 0.05655
# Poissons Ratio (y) = 0.51664 -0.10254
# Poissons Ratio (z) = 0.07347 -0.15406
#
# Static dielectric constant tensor:
#      x y z
#    x 1.776020 0.000000 0.000000 
#    y 0.000000 1.789250 0.000000 
#    z 0.000000 0.000000 1.849520 
# 
# From -- ./inp_files/7789.got.cif
#   From: 2010.05.17/outbox.cif.g08.bks.cpg/sg47_4_cif.got.tgz:7789.got - 2010.06.03 20:15:42.
