data_PCOD9382826
_publ_section_title
;
Structure prediction by ZEFSAII (Michael W. Deem and Ramdas Pophale) SiO2 
 PCOD9382826
Probable space group: P M M M
;
_chemical_formula_sum "Si O2"
_cell_formula_units_Z 40
_cell_length_a 8.231322
_cell_length_b 7.306637
_cell_length_c 29.381615
_cell_angle_alpha 90.000000
_cell_angle_beta 90.000000
_cell_angle_gamma 90.000000
_cell_volume 1767.106753
_symmetry_space_group_name_H-M "P M M M"
_symmetry_group_IT_number 47
_symmetry_cell_setting 'orthorhombic'
loop_
_space_group_symop_operation_xyz
x,y,z
-x,-y,z
x,-y,-z
-x,y,-z
-x,-y,-z
x,y,-z
-x,y,z
x,-y,z
loop_
_atom_site_type_symbol
_atom_site_label
_atom_site_fract_x
_atom_site_fract_y
_atom_site_fract_z
Si Si1 0.684738 0.779073 0.198011
Si Si2 0.680074 0.776959 0.607541
Si Si3 0.187300 0.777224 0.295999
Si Si4 0.823690 0.286733 0.898322
Si Si5 0.000000 0.223211 0.447471
Si Si6 0.500000 0.276601 0.052865
O O1 0.500000 0.718103 0.189724
O O2 0.744878 0.716533 0.247384
O O3 0.794944 0.723048 0.155805
O O4 0.685223 0.000000 0.198875
O O5 0.500000 0.719144 0.592386
O O6 0.711493 0.721442 0.659829
O O7 0.835061 0.718015 0.577942
O O8 0.681111 0.000000 0.606567
O O9 0.000000 0.722688 0.301534
O O10 0.190440 0.000000 0.295467
O O11 0.829142 0.500000 0.911231
O O12 0.663344 0.210315 0.922359
O O13 0.000000 0.207179 0.909761
O O14 0.000000 0.278290 0.500000
O O15 0.000000 0.000000 0.446065
O O16 0.500000 0.500000 0.055986
O O17 0.500000 0.228204 0.000000
#
# Coordination Sequence:
#
# PCOD9382826 Si02
#       6
#     8   8   8   8   4   4
#     4  10  19  30  47  72  99 128 163 201 239 284
#     4   9  15  23  34  47  67  96 132 177 224 270
#     4   9  15  24  38  57  82 110 143 185 229 272
#     4  10  20  34  53  76 102 131 161 196 241 289
#     4   9  16  24  32  44  64  94 135 181 228 273
#     4   9  18  34  55  77 101 129 163 203 240 279
#
# _framework density 22.635871999999999
#
# number of rings (size 3 to 8) (size 9 to 14) (size 15 to 20)
#    0.000    2.600    2.000    1.200    0.000    4.400 
#    0.000    4.000    0.000    1.200    0.000    1.400 
#    0.000    0.000    0.000    0.000    0.000    2.000 
#
# Total GULP energy -223527.625225 kJ/mol
# GULP energy per Si atom -5588.190631 kJ/mol
# Density = 2.258435 g / cm^3
# Si number density = 22.635872 Si / 1000 Ang^3
#
#
#
# Elastic Constant Matrix: (Units=GPa)
#
#
# Indices 1 2 3 4 5 6 
#
# 1 237.8417 9.3523 96.1220 0.0000 0.0000 0.0000
# 2 9.3523 93.3624 -3.4046 0.0000 0.0000 0.0000
# 3 96.1220 -3.4046 144.8804 0.0000 0.0000 0.0000
# 4 0.0000 0.0000 0.0000 6.9391 0.0000 0.0000
# 5 0.0000 0.0000 0.0000 0.0000 13.7417 0.0000
# 6 0.0000 0.0000 0.0000 0.0000 0.0000 -14.0623
#
#
#
# Elastic Compliance Matrix: (Units=1/GPa)
#
#
# Indices 1 2 3 4 5 6 
#
# 1 0.005793 -0.000721 -0.003860 0.000000 0.000000 0.000000
# 2 -0.000721 0.010810 0.000732 0.000000 0.000000 0.000000
# 3 -0.003860 0.000732 0.009481 0.000000 0.000000 0.000000
# 4 0.000000 0.000000 0.000000 0.144110 0.000000 0.000000
# 5 0.000000 0.000000 0.000000 0.000000 0.072771 0.000000
# 6 0.000000 0.000000 0.000000 0.000000 0.000000 -0.071112
#
#
# Mechanical properties :
#
#
# Convention : Reuss Voigt Hill
#
# Bulk Modulus (GPa) = 54.39062 75.58044 64.98553
# Shear Modulus (GPa) = 26.92817 26.25802 26.59310
#
# Velocity S-wave (km/s) = 3.45283 3.40960 3.43128
# Velocity P-wave (km/s) = 6.32272 6.99733 6.66856
#
# Compressibility (1/GPa) = 0.01838552
#
# Stress axis : x y z
#
# Youngs Moduli (GPa) = 172.62350 92.50792 105.47834
#
# Poissons Ratio (x) = 0.06670 0.40718
# Poissons Ratio (y) = 0.12447 -0.07725
# Poissons Ratio (z) = 0.66638 -0.06775
#
# Static dielectric constant tensor:
#      x y z
#    x 1.822260 0.000000 0.000000 
#    y 0.000000 1.825160 0.000000 
#    z 0.000000 0.000000 1.773000 
# 
# From -- ./inp_files/33018.got.cif
#   From: 2010.05.17/outbox.cif.g08.bks.cpg/sg47_17_cif.got.tgz:33018.got - 2010.06.03 20:15:42.
