data_PCOD9382617
_publ_section_title
;
Structure prediction by ZEFSAII (Michael W. Deem and Ramdas Pophale) SiO2 
 PCOD9382617
Probable space group: P M M M
;
_chemical_formula_sum "Si O2"
_cell_formula_units_Z 29
_cell_length_a 7.635749
_cell_length_b 7.788233
_cell_length_c 26.026794
_cell_angle_alpha 90.000000
_cell_angle_beta 90.000000
_cell_angle_gamma 90.000000
_cell_volume 1547.787213
_symmetry_space_group_name_H-M "P M M M"
_symmetry_group_IT_number 47
_symmetry_cell_setting 'orthorhombic'
loop_
_space_group_symop_operation_xyz
x,y,z
-x,-y,z
x,-y,-z
-x,y,-z
-x,-y,-z
x,y,-z
-x,y,z
x,-y,z
loop_
_atom_site_type_symbol
_atom_site_label
_atom_site_fract_x
_atom_site_fract_y
_atom_site_fract_z
Si Si1 0.500000 0.798295 0.746485
Si Si2 0.202862 0.306011 0.329422
Si Si3 0.799390 0.290531 0.057782
Si Si4 0.500000 0.291645 0.134584
Si Si5 0.500000 0.000000 0.500000
Si Si6 0.208469 0.000000 0.590843
O O1 0.330659 0.720714 0.718415
O O2 0.500000 0.767625 0.807040
O O3 0.500000 0.000000 0.736031
O O4 0.225524 0.500000 0.349244
O O5 0.000000 0.284203 0.313855
O O6 0.239522 0.166348 0.373188
O O7 0.797349 0.500000 0.057916
O O8 0.668559 0.233408 0.101998
O O9 0.000000 0.236864 0.065976
O O10 0.745297 0.238274 0.000000
O O11 0.500000 0.500000 0.135157
O O12 0.655288 0.000000 0.544720
O O13 0.000000 0.000000 0.576296
#
# Coordination Sequence:
#
# PCOD9382617 Si02
#       6
#     4   8   8   4   1   4
#     4  12  23  36  54  80 115 151 188 236 293 350
#     4  10  21  40  65  87 113 155 202 245 288 338
#     4   8  14  26  45  68  94 127 169 219 276 335
#     4  10  19  29  45  73 104 131 170 226 281 337
#     4  12  22  36  62  90 128 170 190 232 292 330
#     4  10  21  39  61  90 123 157 200 240 280 336
#
# _framework density 18.736426000000002
#
# number of rings (size 3 to 8) (size 9 to 14) (size 15 to 20)
#    0.000    2.207    1.379    3.517    0.000    2.759 
#    0.000    4.138    0.000    4.966    0.000    1.931 
#    0.000    0.000    0.000    0.000    0.000    0.000 
#
# Total GULP energy -161611.552964 kJ/mol
# GULP energy per Si atom -5572.812171 kJ/mol
# Density = 1.869378 g / cm^3
# Si number density = 18.736426 Si / 1000 Ang^3
#
#
#
# Elastic Constant Matrix: (Units=GPa)
#
#
# Indices 1 2 3 4 5 6 
#
# 1 128.9561 40.6188 117.2194 0.0000 0.0000 0.0000
# 2 40.6188 86.9664 43.9194 0.0000 0.0000 0.0000
# 3 117.2194 43.9194 168.0244 0.0000 0.0000 0.0000
# 4 0.0000 0.0000 0.0000 -4.2568 0.0000 0.0000
# 5 0.0000 0.0000 0.0000 0.0000 -24.1704 0.0000
# 6 0.0000 0.0000 0.0000 0.0000 0.0000 113.4689
#
#
#
# Elastic Compliance Matrix: (Units=1/GPa)
#
#
# Indices 1 2 3 4 5 6 
#
# 1 0.021805 -0.002883 -0.014459 0.000000 0.000000 0.000000
# 2 -0.002883 0.013628 -0.001551 0.000000 0.000000 0.000000
# 3 -0.014459 -0.001551 0.016444 0.000000 0.000000 0.000000
# 4 0.000000 0.000000 0.000000 -0.234919 0.000000 0.000000
# 5 0.000000 0.000000 0.000000 0.000000 -0.041373 0.000000
# 6 0.000000 0.000000 0.000000 0.000000 0.000000 0.008813
#
#
# Mechanical properties :
#
#
# Convention : Reuss Voigt Hill
#
# Bulk Modulus (GPa) = 70.95963 87.49579 79.22771
# Shear Modulus (GPa) = -28.88181 29.15430 0.13625
#
# Velocity S-wave (km/s) = -3.93043 3.94892 0.26995
# Velocity P-wave (km/s) = 4.16618 8.22141 6.51724
#
# Compressibility (1/GPa) = 0.01409252
#
# Stress axis : x y z
#
# Youngs Moduli (GPa) = 45.86075 73.37574 60.81340
#
# Poissons Ratio (x) = 0.21151 0.87927
# Poissons Ratio (y) = 0.13220 0.09434
# Poissons Ratio (z) = 0.66308 0.11383
#
# Static dielectric constant tensor:
#      x y z
#    x 1.658260 0.000000 0.000000 
#    y 0.000000 1.689080 0.000000 
#    z 0.000000 0.000000 1.591120 
# 
# From -- ./inp_files/29092.got.cif
#   From: 2010.05.17/outbox.cif.g08.bks.cpg/sg47_15_cif.got.tgz:29092.got - 2010.06.03 20:15:42.
