data_PCOD9382949
_publ_section_title
;
Structure prediction by ZEFSAII (Michael W. Deem and Ramdas Pophale) SiO2 
 PCOD9382949
Probable space group: P M M M
;
_chemical_formula_sum "Si O2"
_cell_formula_units_Z 52
_cell_length_a 30.715168
_cell_length_b 9.151934
_cell_length_c 12.681274
_cell_angle_alpha 90.000000
_cell_angle_beta 90.000000
_cell_angle_gamma 90.000000
_cell_volume 3564.746579
_symmetry_space_group_name_H-M "P M M M"
_symmetry_group_IT_number 47
_symmetry_cell_setting 'orthorhombic'
loop_
_space_group_symop_operation_xyz
x,y,z
-x,-y,z
x,-y,-z
-x,y,-z
-x,-y,-z
x,y,-z
-x,y,z
x,-y,z
loop_
_atom_site_type_symbol
_atom_site_label
_atom_site_fract_x
_atom_site_fract_y
_atom_site_fract_z
Si Si1 0.635404 0.168308 0.628641
Si Si2 0.451694 0.670711 0.628104
Si Si3 0.899056 0.674267 0.693381
Si Si4 0.052203 0.828046 0.500000
Si Si5 0.811690 0.171627 0.372567
Si Si6 0.948673 0.171054 0.875101
Si Si7 0.722841 0.667852 0.371754
O O1 0.635131 0.171953 0.500000
O O2 0.589697 0.237226 0.664462
O O3 0.677435 0.260387 0.662931
O O4 0.639406 0.000000 0.660170
O O5 0.451688 0.676971 0.500000
O O6 0.500000 0.720097 0.662471
O O7 0.446523 0.500000 0.655935
O O8 0.899384 0.500000 0.682142
O O9 0.927934 0.749532 0.602006
O O10 0.850690 0.737890 0.678728
O O11 0.919577 0.725927 0.803425
O O12 0.000000 0.818325 0.500000
O O13 0.064441 0.000000 0.500000
O O14 0.815892 0.185635 0.500000
O O15 0.764892 0.237474 0.341784
O O16 0.814653 0.000000 0.347221
O O17 0.000000 0.196718 0.854072
O O18 0.939971 0.000000 0.849894
O O19 0.941652 0.191082 0.000000
O O20 0.722043 0.667266 0.500000
O O21 0.726721 0.500000 0.337264
#
# Coordination Sequence:
#
# PCOD9382949 Si02
#       7
#     8   8   8   4   8   8   8
#     4   9  15  21  29  42  59  80 110 145 185 234
#     4   8  13  20  28  37  51  73 102 139 186 235
#     4  12  23  33  49  72  97 119 143 177 217 257
#     4  11  23  37  51  67  91 123 153 177 206 251
#     4  10  19  31  46  61  82 111 141 169 203 249
#     4   9  19  37  58  75  92 118 150 179 209 250
#     4   9  16  25  37  51  69  92 121 157 196 237
#
# _framework density 14.587293000000001
#
# number of rings (size 3 to 8) (size 9 to 14) (size 15 to 20)
#    0.000    2.385    0.769    4.385    0.000    7.692 
#    0.000    2.308    0.000    0.000    0.000    0.000 
#    0.000    0.000    0.000    0.000    0.000    0.000 
#
# Total GULP energy -289868.063350 kJ/mol
# GULP energy per Si atom -5574.385834 kJ/mol
# Density = 1.455409 g / cm^3
# Si number density = 14.587293 Si / 1000 Ang^3
#
#
#
# Elastic Constant Matrix: (Units=GPa)
#
#
# Indices 1 2 3 4 5 6 
#
# 1 121.7477 80.9182 25.2864 0.0000 0.0000 0.0000
# 2 80.9182 130.7340 27.4076 0.0000 0.0000 0.0000
# 3 25.2864 27.4076 18.7292 0.0000 0.0000 0.0000
# 4 0.0000 0.0000 0.0000 10.4629 0.0000 0.0000
# 5 0.0000 0.0000 0.0000 0.0000 7.8078 0.0000
# 6 0.0000 0.0000 0.0000 0.0000 0.0000 30.5089
#
#
#
# Elastic Compliance Matrix: (Units=1/GPa)
#
#
# Indices 1 2 3 4 5 6 
#
# 1 0.015076 -0.007306 -0.009664 0.000000 0.000000 0.000000
# 2 -0.007306 0.014574 -0.011464 0.000000 0.000000 0.000000
# 3 -0.009664 -0.011464 0.083216 0.000000 0.000000 0.000000
# 4 0.000000 0.000000 0.000000 0.095576 0.000000 0.000000
# 5 0.000000 0.000000 0.000000 0.000000 0.128077 0.000000
# 6 0.000000 0.000000 0.000000 0.000000 0.000000 0.032777
#
#
# Mechanical properties :
#
#
# Convention : Reuss Voigt Hill
#
# Bulk Modulus (GPa) = 17.85731 59.82615 38.84173
# Shear Modulus (GPa) = 11.24020 18.92917 15.08468
#
# Velocity S-wave (km/s) = 2.77888 3.60620 3.21923
# Velocity P-wave (km/s) = 4.75021 7.64468 6.36418
#
# Compressibility (1/GPa) = 0.05599947
#
# Stress axis : x y z
#
# Youngs Moduli (GPa) = 66.32853 68.61369 12.01685
#
# Poissons Ratio (x) = 0.50126 0.11613
# Poissons Ratio (y) = 0.48457 0.13776
# Poissons Ratio (z) = 0.64100 0.78660
#
# Static dielectric constant tensor:
#      x y z
#    x 1.491050 0.000000 0.000000 
#    y 0.000000 1.486370 0.000000 
#    z 0.000000 0.000000 1.449770 
# 
# From -- ./inp_files/15655.got.cif
#   From: 2010.05.17/outbox.cif.g08.bks.cpg/sg47_8_cif.got.tgz:15655.got - 2010.06.03 20:15:42.
