data_PCOD9382465
_publ_section_title
;
Structure prediction by ZEFSAII (Michael W. Deem and Ramdas Pophale) SiO2 
 PCOD9382465
Probable space group: P M M M
;
_chemical_formula_sum "Si O2"
_cell_formula_units_Z 48
_cell_length_a 8.974069
_cell_length_b 22.954678
_cell_length_c 18.625712
_cell_angle_alpha 90.000000
_cell_angle_beta 90.000000
_cell_angle_gamma 90.000000
_cell_volume 3836.838266
_symmetry_space_group_name_H-M "P M M M"
_symmetry_group_IT_number 47
_symmetry_cell_setting 'orthorhombic'
loop_
_space_group_symop_operation_xyz
x,y,z
-x,-y,z
x,-y,-z
-x,y,-z
-x,-y,-z
x,y,-z
-x,y,z
x,-y,z
loop_
_atom_site_type_symbol
_atom_site_label
_atom_site_fract_x
_atom_site_fract_y
_atom_site_fract_z
Si Si1 0.326231 0.070597 0.920569
Si Si2 0.681816 0.500000 0.416930
Si Si3 0.318932 0.933454 0.500000
Si Si4 0.177560 0.068892 0.227504
Si Si5 0.673159 0.626658 0.587375
Si Si6 0.177376 0.747000 0.585024
Si Si7 0.320912 0.862066 0.358397
O O1 0.500000 0.086717 0.911215
O O2 0.231484 0.088126 0.851621
O O3 0.320945 0.000000 0.922101
O O4 0.276556 0.090649 0.000000
O O5 0.500000 0.500000 0.417790
O O6 0.731889 0.500000 0.500000
O O7 0.725732 0.437083 0.385826
O O8 0.500000 0.934530 0.500000
O O9 0.273324 0.899509 0.428401
O O10 0.266007 0.000000 0.500000
O O11 0.256993 0.106529 0.288393
O O12 0.000000 0.074098 0.233325
O O13 0.216377 0.000000 0.236290
O O14 0.676155 0.623467 0.500000
O O15 0.500000 0.635173 0.607644
O O16 0.768402 0.682775 0.607626
O O17 0.216165 0.754018 0.500000
O O18 0.257961 0.797567 0.629076
O O19 0.000000 0.752001 0.591644
O O20 0.500000 0.860918 0.355779
#
# Coordination Sequence:
#
# PCOD9382465 Si02
#       7
#     8   4   4   8   8   8   8
#     4   8  14  26  44  63  80  98 120 144 172 212
#     4   7  10  18  33  53  71  87 109 143 178 211
#     4   9  18  30  43  57  67  80 113 160 201 233
#     4  10  20  31  42  59  81 100 118 146 190 236
#     4   8  13  22  37  53  69  89 116 145 178 218
#     4  10  19  29  39  52  72  94 119 153 193 231
#     4  11  20  31  45  56  70  93 126 162 194 229
#
# _framework density 12.510300000000001
#
# number of rings (size 3 to 8) (size 9 to 14) (size 15 to 20)
#    0.000    2.833    0.833    3.500    0.000    2.667 
#    0.000    2.083    0.000    4.500    0.000    0.000 
#    0.000    0.000    0.000    0.000    0.000    0.000 
#
# Total GULP energy -267203.318008 kJ/mol
# GULP energy per Si atom -5566.735792 kJ/mol
# Density = 1.248183 g / cm^3
# Si number density = 12.510300 Si / 1000 Ang^3
#
#
#
# Elastic Constant Matrix: (Units=GPa)
#
#
# Indices 1 2 3 4 5 6 
#
# 1 40.2548 35.3265 32.8770 0.0000 0.0000 0.0000
# 2 35.3265 94.9241 40.5508 0.0000 0.0000 0.0000
# 3 32.8770 40.5508 73.0977 0.0000 0.0000 0.0000
# 4 0.0000 0.0000 0.0000 1.9099 0.0000 0.0000
# 5 0.0000 0.0000 0.0000 0.0000 13.1179 0.0000
# 6 0.0000 0.0000 0.0000 0.0000 0.0000 12.9288
#
#
#
# Elastic Compliance Matrix: (Units=1/GPa)
#
#
# Indices 1 2 3 4 5 6 
#
# 1 0.046650 -0.011006 -0.014876 0.000000 0.000000 0.000000
# 2 -0.011006 0.016403 -0.004150 0.000000 0.000000 0.000000
# 3 -0.014876 -0.004150 0.022673 0.000000 0.000000 0.000000
# 4 0.000000 0.000000 0.000000 0.523596 0.000000 0.000000
# 5 0.000000 0.000000 0.000000 0.000000 0.076232 0.000000
# 6 0.000000 0.000000 0.000000 0.000000 0.000000 0.077346
#
#
# Mechanical properties :
#
#
# Convention : Reuss Voigt Hill
#
# Bulk Modulus (GPa) = 38.96661 47.30946 43.13804
# Shear Modulus (GPa) = 6.01310 12.22614 9.11962
#
# Velocity S-wave (km/s) = 2.19476 3.12955 2.70287
# Velocity P-wave (km/s) = 6.13497 7.13844 6.65564
#
# Compressibility (1/GPa) = 0.02566299
#
# Stress axis : x y z
#
# Youngs Moduli (GPa) = 21.43626 60.96314 44.10526
#
# Poissons Ratio (x) = 0.67097 0.65611
# Poissons Ratio (y) = 0.23593 0.18302
# Poissons Ratio (z) = 0.31889 0.25297
#
# Static dielectric constant tensor:
#      x y z
#    x 1.412190 0.000000 0.000000 
#    y 0.000000 1.416330 0.000000 
#    z 0.000000 0.000000 1.391990 
# 
# From -- ./inp_files/11414.got.cif
#   From: 2010.05.17/outbox.cif.g08.bks.cpg/sg47_6_cif.got.tgz:11414.got - 2010.06.03 20:15:42.
