data_PCOD9382226
_publ_section_title
;
Structure prediction by ZEFSAII (Michael W. Deem and Ramdas Pophale) SiO2 
 PCOD9382226
Probable space group: P M M M
;
_chemical_formula_sum "Si O2"
_cell_formula_units_Z 33
_cell_length_a 8.080214
_cell_length_b 26.564717
_cell_length_c 7.317131
_cell_angle_alpha 90.000000
_cell_angle_beta 90.000000
_cell_angle_gamma 90.000000
_cell_volume 1570.611912
_symmetry_space_group_name_H-M "P M M M"
_symmetry_group_IT_number 47
_symmetry_cell_setting 'orthorhombic'
loop_
_space_group_symop_operation_xyz
x,y,z
-x,-y,z
x,-y,-z
-x,y,-z
-x,-y,-z
x,y,-z
-x,y,z
x,-y,z
loop_
_atom_site_type_symbol
_atom_site_label
_atom_site_fract_x
_atom_site_fract_y
_atom_site_fract_z
Si Si1 0.319576 0.117672 0.214068
Si Si2 0.000000 0.058234 0.223611
Si Si3 0.000000 0.500000 0.000000
Si Si4 0.190753 0.227917 0.720405
Si Si5 0.000000 0.405538 0.722345
Si Si6 0.684632 0.336571 0.721792
O O1 0.500000 0.106495 0.293128
O O2 0.163427 0.087301 0.288696
O O3 0.283102 0.177075 0.226954
O O4 0.326504 0.104890 0.000000
O O5 0.000000 0.000000 0.275376
O O6 0.000000 0.060389 0.000000
O O7 0.000000 0.544114 0.160498
O O8 0.188814 0.229374 0.500000
O O9 0.274691 0.279691 0.782217
O O10 0.000000 0.225768 0.782271
O O11 0.835787 0.373122 0.769922
O O12 0.000000 0.413358 0.500000
O O13 0.682726 0.335756 0.500000
O O14 0.500000 0.351815 0.781627
#
# Coordination Sequence:
#
# PCOD9382226 Si02
#       6
#     8   4   1   8   4   8
#     4  10  20  33  50  75 105 138 176 221 278 337
#     4   9  18  33  51  70  96 134 180 233 281 324
#     4  12  26  44  66  94 116 162 206 240 304 338
#     4  10  18  31  54  83 113 146 182 219 268 337
#     4  10  21  42  64  87 120 153 197 250 288 339
#     4   9  17  33  59  86 113 149 187 225 278 337
#
# _framework density 21.010919999999999
#
# number of rings (size 3 to 8) (size 9 to 14) (size 15 to 20)
#    0.000    2.303    2.424    0.909    0.000    1.939 
#    2.182    4.242    0.000    4.364    0.000    1.697 
#    0.000    0.000    0.000    0.000    0.000    0.000 
#
# Total GULP energy -184071.624178 kJ/mol
# GULP energy per Si atom -5577.928005 kJ/mol
# Density = 2.096310 g / cm^3
# Si number density = 21.010920 Si / 1000 Ang^3
#
#
#
# Elastic Constant Matrix: (Units=GPa)
#
#
# Indices 1 2 3 4 5 6 
#
# 1 235.1887 110.0472 23.2332 0.0000 0.0000 0.0000
# 2 110.0472 176.0506 17.5338 0.0000 0.0000 0.0000
# 3 23.2332 17.5338 94.5477 0.0000 0.0000 0.0000
# 4 0.0000 0.0000 0.0000 19.2133 0.0000 0.0000
# 5 0.0000 0.0000 0.0000 0.0000 -144.3616 0.0000
# 6 0.0000 0.0000 0.0000 0.0000 0.0000 -2.9208
#
#
#
# Elastic Compliance Matrix: (Units=1/GPa)
#
#
# Indices 1 2 3 4 5 6 
#
# 1 0.006069 -0.003714 -0.000803 0.000000 0.000000 0.000000
# 2 -0.003714 0.008059 -0.000582 0.000000 0.000000 0.000000
# 3 -0.000803 -0.000582 0.010882 0.000000 0.000000 0.000000
# 4 0.000000 0.000000 0.000000 0.052047 0.000000 0.000000
# 5 0.000000 0.000000 0.000000 0.000000 -0.006927 0.000000
# 6 0.000000 0.000000 0.000000 0.000000 0.000000 -0.342370
#
#
# Mechanical properties :
#
#
# Convention : Reuss Voigt Hill
#
# Bulk Modulus (GPa) = 67.50571 89.71281 78.60926
# Shear Modulus (GPa) = -19.44730 -1.94897 -10.69813
#
# Velocity S-wave (km/s) = -3.04564 -0.96416 -2.25893
# Velocity P-wave (km/s) = 4.45317 6.44604 5.53995
#
# Compressibility (1/GPa) = 0.01481356
#
# Stress axis : x y z
#
# Youngs Moduli (GPa) = 164.77640 124.07726 91.89621
#
# Poissons Ratio (x) = 0.46078 0.07376
# Poissons Ratio (y) = 0.61192 0.05349
# Poissons Ratio (z) = 0.13225 0.07222
#
# Static dielectric constant tensor:
#      x y z
#    x 1.762650 0.000000 0.000000 
#    y 0.000000 1.681100 0.000000 
#    z 0.000000 0.000000 2.065800 
# 
# From -- ./inp_files/1337.got.cif
#   From: 2010.05.17/outbox.cif.g08.bks.cpg/sg47_1_cif.got.tgz:1337.got - 2010.06.03 20:15:42.
