data_PCOD9382250
_publ_section_title
;
Structure prediction by ZEFSAII (Michael W. Deem and Ramdas Pophale) SiO2 
 PCOD9382250
Probable space group: P M M M
;
_chemical_formula_sum "Si O2"
_cell_formula_units_Z 52
_cell_length_a 15.301119
_cell_length_b 22.008886
_cell_length_c 7.398852
_cell_angle_alpha 90.000000
_cell_angle_beta 90.000000
_cell_angle_gamma 90.000000
_cell_volume 2491.641719
_symmetry_space_group_name_H-M "P M M M"
_symmetry_group_IT_number 47
_symmetry_cell_setting 'orthorhombic'
loop_
_space_group_symop_operation_xyz
x,y,z
-x,-y,z
x,-y,-z
-x,y,-z
-x,-y,-z
x,y,-z
-x,y,z
x,-y,z
loop_
_atom_site_type_symbol
_atom_site_label
_atom_site_fract_x
_atom_site_fract_y
_atom_site_fract_z
Si Si1 0.396412 0.927263 0.500000
Si Si2 0.316648 0.624112 0.706322
Si Si3 0.901871 0.806698 0.220367
Si Si4 0.594837 0.742765 0.783126
Si Si5 0.131656 0.329741 0.793789
Si Si6 0.399242 0.500000 0.278340
Si Si7 0.000000 0.430436 0.778989
Si Si8 0.715896 0.853419 0.218661
O O1 0.500000 0.909692 0.500000
O O2 0.342623 0.901310 0.672233
O O3 0.393503 0.000000 0.500000
O O4 0.290765 0.612959 0.500000
O O5 0.390610 0.675323 0.712003
O O6 0.233201 0.654642 0.795914
O O7 0.350535 0.560834 0.782516
O O8 0.886942 0.736899 0.284704
O O9 0.818065 0.847437 0.271571
O O10 0.000000 0.825925 0.273720
O O11 0.899402 0.805840 0.000000
O O12 0.500000 0.766653 0.726800
O O13 0.671492 0.788641 0.732981
O O14 0.596063 0.738849 0.000000
O O15 0.081457 0.388574 0.719800
O O16 0.100884 0.324509 0.000000
O O17 0.500000 0.500000 0.222054
O O18 0.399697 0.500000 0.500000
O O19 0.000000 0.500000 0.714891
O O20 0.000000 0.434656 0.000000
O O21 0.709751 0.861634 0.000000
#
# Coordination Sequence:
#
# PCOD9382250 Si02
#       8
#     4   8   8   8   8   4   4   8
#     4  11  26  46  69  99 135 174 216 253 292 363
#     4  11  22  34  51  72 102 143 188 242 303 367
#     4   9  16  31  58  88 119 159 202 249 308 371
#     4  10  20  34  54  82 113 145 186 241 302 356
#     4  10  18  32  52  75 106 140 182 239 298 356
#     4   9  20  38  51  62  89 138 198 245 295 371
#     4   9  18  30  49  75  99 137 189 238 292 355
#     4  10  21  39  64  95 133 169 209 261 312 363
#
# _framework density 20.869772999999999
#
# number of rings (size 3 to 8) (size 9 to 14) (size 15 to 20)
#    0.000    2.077    2.308    1.385    2.154    2.154 
#    0.000    2.692    0.000    4.154    0.000    2.154 
#    0.000    0.000    0.000    0.000    0.000    0.000 
#
# Total GULP energy -290171.003287 kJ/mol
# GULP energy per Si atom -5580.211602 kJ/mol
# Density = 2.082227 g / cm^3
# Si number density = 20.869773 Si / 1000 Ang^3
#
#
#
# Elastic Constant Matrix: (Units=GPa)
#
#
# Indices 1 2 3 4 5 6 
#
# 1 176.5356 51.2898 24.5951 0.0000 0.0000 0.0000
# 2 51.2898 101.9124 21.9614 0.0000 0.0000 0.0000
# 3 24.5951 21.9614 80.0443 0.0000 0.0000 0.0000
# 4 0.0000 0.0000 0.0000 5.8605 0.0000 0.0000
# 5 0.0000 0.0000 0.0000 0.0000 48.7480 0.0000
# 6 0.0000 0.0000 0.0000 0.0000 0.0000 30.2850
#
#
#
# Elastic Compliance Matrix: (Units=1/GPa)
#
#
# Indices 1 2 3 4 5 6 
#
# 1 0.006744 -0.003133 -0.001213 0.000000 0.000000 0.000000
# 2 -0.003133 0.011884 -0.002298 0.000000 0.000000 0.000000
# 3 -0.001213 -0.002298 0.013496 0.000000 0.000000 0.000000
# 4 0.000000 0.000000 0.000000 0.170633 0.000000 0.000000
# 5 0.000000 0.000000 0.000000 0.000000 0.020514 0.000000
# 6 0.000000 0.000000 0.000000 0.000000 0.000000 0.033020
#
#
# Mechanical properties :
#
#
# Convention : Reuss Voigt Hill
#
# Bulk Modulus (GPa) = 53.08585 61.57609 57.33097
# Shear Modulus (GPa) = 18.12540 34.35512 26.24026
#
# Velocity S-wave (km/s) = 2.95023 4.06170 3.54974
# Velocity P-wave (km/s) = 6.09074 7.18091 6.65817
#
# Compressibility (1/GPa) = 0.01883741
#
# Stress axis : x y z
#
# Youngs Moduli (GPa) = 148.28759 84.14598 74.09498
#
# Poissons Ratio (x) = 0.26359 0.08985
# Poissons Ratio (y) = 0.46452 0.17027
# Poissons Ratio (z) = 0.17982 0.19337
#
# Static dielectric constant tensor:
#      x y z
#    x 1.784000 0.000000 0.000000 
#    y 0.000000 1.703180 0.000000 
#    z 0.000000 0.000000 1.827230 
# 
# From -- ./inp_files/7114.got.cif
#   From: 2010.05.17/outbox.cif.g08.bks.cpg/sg47_4_cif.got.tgz:7114.got - 2010.06.03 20:15:42.
