data_PCOD9382556
_publ_section_title
;
Structure prediction by ZEFSAII (Michael W. Deem and Ramdas Pophale) SiO2 
 PCOD9382556
Probable space group: P M M M
;
_chemical_formula_sum "Si O2"
_cell_formula_units_Z 52
_cell_length_a 13.918513
_cell_length_b 27.090946
_cell_length_c 9.235693
_cell_angle_alpha 90.000000
_cell_angle_beta 90.000000
_cell_angle_gamma 90.000000
_cell_volume 3482.462899
_symmetry_space_group_name_H-M "P M M M"
_symmetry_group_IT_number 47
_symmetry_cell_setting 'orthorhombic'
loop_
_space_group_symop_operation_xyz
x,y,z
-x,-y,z
x,-y,-z
-x,y,-z
-x,-y,-z
x,y,-z
-x,y,z
x,-y,z
loop_
_atom_site_type_symbol
_atom_site_label
_atom_site_fract_x
_atom_site_fract_y
_atom_site_fract_z
Si Si1 0.386995 0.000000 0.173175
Si Si2 0.611018 0.799523 0.672130
Si Si3 0.297510 0.906160 0.671416
Si Si4 0.887413 0.346853 0.826520
Si Si5 0.116428 0.445688 0.670063
Si Si6 0.110234 0.152566 0.327009
Si Si7 0.209337 0.243909 0.173880
O O1 0.336724 0.951643 0.238403
O O2 0.500000 0.000000 0.212892
O O3 0.379838 0.000000 0.000000
O O4 0.624748 0.790726 0.500000
O O5 0.500000 0.791197 0.708366
O O6 0.639462 0.856812 0.697004
O O7 0.685497 0.767040 0.762414
O O8 0.302350 0.917641 0.500000
O O9 0.188478 0.889586 0.707329
O O10 0.850708 0.397356 0.754876
O O11 0.829499 0.297903 0.785106
O O12 0.000000 0.340065 0.786679
O O13 0.883327 0.351851 0.000000
O O14 0.139295 0.441386 0.500000
O O15 0.149607 0.500000 0.721456
O O16 0.000000 0.446042 0.681841
O O17 0.119528 0.162093 0.500000
O O18 0.141429 0.201649 0.242012
O O19 0.000000 0.139429 0.296435
O O20 0.208760 0.239879 0.000000
#
# Coordination Sequence:
#
# PCOD9382556 Si02
#       7
#     4   8   8   8   8   8   8
#     4  11  23  35  48  69  94 116 141 177 220 265
#     4   9  18  33  51  69  89 114 146 182 219 262
#     4   9  18  33  52  71  89 113 145 178 214 257
#     4   9  17  27  38  56  85 119 151 180 211 251
#     4   8  14  24  37  54  77 107 145 186 223 256
#     4   9  18  33  51  69  90 118 152 185 216 255
#     4  10  19  29  43  66  94 120 148 182 219 262
#
# _framework density 14.93196
#
# number of rings (size 3 to 8) (size 9 to 14) (size 15 to 20)
#    0.000    2.846    0.000    3.000    0.000    6.462 
#    0.000    3.462    0.000    2.308    0.000    0.000 
#    0.000    0.615    0.000    6.769    0.000    5.231 
#
# Total GULP energy -289709.716520 kJ/mol
# GULP energy per Si atom -5571.340702 kJ/mol
# Density = 1.489797 g / cm^3
# Si number density = 14.931960 Si / 1000 Ang^3
#
#
#
# Elastic Constant Matrix: (Units=GPa)
#
#
# Indices 1 2 3 4 5 6 
#
# 1 103.2698 66.6509 41.6380 0.0000 0.0000 0.0000
# 2 66.6509 137.6613 60.6111 0.0000 0.0000 0.0000
# 3 41.6380 60.6111 39.2896 0.0000 0.0000 0.0000
# 4 0.0000 0.0000 0.0000 33.6575 0.0000 0.0000
# 5 0.0000 0.0000 0.0000 0.0000 20.0819 0.0000
# 6 0.0000 0.0000 0.0000 0.0000 0.0000 15.2423
#
#
#
# Elastic Compliance Matrix: (Units=1/GPa)
#
#
# Indices 1 2 3 4 5 6 
#
# 1 0.016946 -0.000928 -0.016528 0.000000 0.000000 0.000000
# 2 -0.000928 0.022697 -0.034031 0.000000 0.000000 0.000000
# 3 -0.016528 -0.034031 0.095466 0.000000 0.000000 0.000000
# 4 0.000000 0.000000 0.000000 0.029711 0.000000 0.000000
# 5 0.000000 0.000000 0.000000 0.000000 0.049796 0.000000
# 6 0.000000 0.000000 0.000000 0.000000 0.000000 0.065607
#
#
# Mechanical properties :
#
#
# Convention : Reuss Voigt Hill
#
# Bulk Modulus (GPa) = 31.11722 68.66897 49.89309
# Shear Modulus (GPa) = 12.69331 21.21771 16.95551
#
# Velocity S-wave (km/s) = 2.91877 3.77365 3.37340
# Velocity P-wave (km/s) = 5.67834 8.06691 6.97562
#
# Compressibility (1/GPa) = 0.03213655
#
# Stress axis : x y z
#
# Youngs Moduli (GPa) = 59.01080 44.05916 10.47489
#
# Poissons Ratio (x) = 0.04087 0.17313
# Poissons Ratio (y) = 0.05474 0.35647
# Poissons Ratio (z) = 0.97533 1.49937
#
# Static dielectric constant tensor:
#      x y z
#    x 1.489240 0.000000 0.000000 
#    y 0.000000 1.483670 0.000000 
#    z 0.000000 0.000000 1.496210 
# 
# From -- ./inp_files/7673.got.cif
#   From: 2010.05.17/outbox.cif.g08.bks.cpg/sg47_4_cif.got.tgz:7673.got - 2010.06.03 20:15:42.
