data_PCOD9382069
_publ_section_title
;
Structure prediction by ZEFSAII (Michael W. Deem and Ramdas Pophale) SiO2 
 PCOD9382069
Probable space group: P M M M
;
_chemical_formula_sum "Si O2"
_cell_formula_units_Z 56
_cell_length_a 9.448147
_cell_length_b 20.388670
_cell_length_c 15.290450
_cell_angle_alpha 90.000000
_cell_angle_beta 90.000000
_cell_angle_gamma 90.000000
_cell_volume 2945.478149
_symmetry_space_group_name_H-M "P M M M"
_symmetry_group_IT_number 47
_symmetry_cell_setting 'orthorhombic'
loop_
_space_group_symop_operation_xyz
x,y,z
-x,-y,z
x,-y,-z
-x,y,-z
-x,-y,-z
x,y,-z
-x,y,z
x,-y,z
loop_
_atom_site_type_symbol
_atom_site_label
_atom_site_fract_x
_atom_site_fract_y
_atom_site_fract_z
Si Si1 0.836456 0.073662 0.856471
Si Si2 0.163975 0.072326 0.643199
Si Si3 0.330671 0.422402 0.767930
Si Si4 0.336493 0.198741 0.643771
Si Si5 0.663531 0.199928 0.856090
Si Si6 0.835969 0.330187 0.898398
Si Si7 0.327864 0.655979 0.404071
O O1 0.833002 0.073189 0.749876
O O2 0.734540 0.131833 0.885556
O O3 0.000000 0.085984 0.881701
O O4 0.797360 0.000000 0.885107
O O5 0.250942 0.135237 0.613524
O O6 0.000000 0.077714 0.617286
O O7 0.216827 0.000000 0.616154
O O8 0.500000 0.410951 0.779149
O O9 0.306488 0.500000 0.769786
O O10 0.244994 0.383849 0.841318
O O11 0.286971 0.390901 0.675147
O O12 0.500000 0.192445 0.616821
O O13 0.333467 0.200979 0.749783
O O14 0.280995 0.269003 0.611553
O O15 0.500000 0.205246 0.883151
O O16 0.755344 0.261254 0.887151
O O17 0.000000 0.323379 0.871163
O O18 0.832569 0.348688 0.000000
O O19 0.282708 0.633387 0.500000
O O20 0.500000 0.657810 0.402900
#
# Coordination Sequence:
#
# PCOD9382069 Si02
#       7
#     8   8   8   8   8   8   8
#     4   8  14  25  42  68 104 145 188 231 278 335
#     4   8  14  24  39  63  96 135 180 228 275 322
#     4  10  21  39  63  90 118 146 180 223 273 328
#     4   9  16  27  46  73 104 139 180 225 271 320
#     4  10  18  30  51  78 109 143 185 237 286 332
#     4  11  24  40  59  83 112 149 190 229 275 334
#     4   9  17  32  55  84 118 150 182 223 270 323
#
# _framework density 19.012193
#
# number of rings (size 3 to 8) (size 9 to 14) (size 15 to 20)
#    0.000    2.714    1.429    1.714    0.000    3.143 
#    0.000    5.714    0.000    2.571    0.000    7.000 
#    0.000    0.000    0.000    0.000    0.000    0.000 
#
# Total GULP energy -312456.694244 kJ/mol
# GULP energy per Si atom -5579.583826 kJ/mol
# Density = 1.896892 g / cm^3
# Si number density = 19.012193 Si / 1000 Ang^3
#
#
#
# Elastic Constant Matrix: (Units=GPa)
#
#
# Indices 1 2 3 4 5 6 
#
# 1 90.4973 91.7475 40.8446 0.0000 0.0000 0.0000
# 2 91.7475 161.1730 53.7079 0.0000 0.0000 0.0000
# 3 40.8446 53.7079 69.3314 0.0000 0.0000 0.0000
# 4 0.0000 0.0000 0.0000 -16.9437 0.0000 0.0000
# 5 0.0000 0.0000 0.0000 0.0000 2.7454 0.0000
# 6 0.0000 0.0000 0.0000 0.0000 0.0000 23.8427
#
#
#
# Elastic Compliance Matrix: (Units=1/GPa)
#
#
# Indices 1 2 3 4 5 6 
#
# 1 0.027610 -0.013880 -0.005514 0.000000 0.000000 0.000000
# 2 -0.013880 0.015341 -0.003707 0.000000 0.000000 0.000000
# 3 -0.005514 -0.003707 0.020543 0.000000 0.000000 0.000000
# 4 0.000000 0.000000 0.000000 -0.059019 0.000000 0.000000
# 5 0.000000 0.000000 0.000000 0.000000 0.364242 0.000000
# 6 0.000000 0.000000 0.000000 0.000000 0.000000 0.041942
#
#
# Mechanical properties :
#
#
# Convention : Reuss Voigt Hill
#
# Bulk Modulus (GPa) = 57.82542 77.06686 67.44614
# Shear Modulus (GPa) = 10.80793 10.90898 10.85846
#
# Velocity S-wave (km/s) = 2.38685 2.39799 2.39243
# Velocity P-wave (km/s) = 6.17066 6.94914 6.57144
#
# Compressibility (1/GPa) = 0.01729343
#
# Stress axis : x y z
#
# Youngs Moduli (GPa) = 36.21891 65.18597 48.67742
#
# Poissons Ratio (x) = 0.90475 0.26839
# Poissons Ratio (y) = 0.50270 0.18045
# Poissons Ratio (z) = 0.19970 0.24165
#
# Static dielectric constant tensor:
#      x y z
#    x 1.634370 0.000000 0.000000 
#    y 0.000000 1.637650 0.000000 
#    z 0.000000 0.000000 1.702130 
# 
# From -- ./inp_files/11251.got.cif
#   From: 2010.05.17/outbox.cif.g08.bks.cpg/sg47_6_cif.got.tgz:11251.got - 2010.06.03 20:15:42.
