data_PCOD9382932
_publ_section_title
;
Structure prediction by ZEFSAII (Michael W. Deem and Ramdas Pophale) SiO2 
 PCOD9382932
Probable space group: P M M M
;
_chemical_formula_sum "Si O2"
_cell_formula_units_Z 48
_cell_length_a 7.981357
_cell_length_b 22.990712
_cell_length_c 20.599916
_cell_angle_alpha 90.000000
_cell_angle_beta 90.000000
_cell_angle_gamma 90.000000
_cell_volume 3780.024437
_symmetry_space_group_name_H-M "P M M M"
_symmetry_group_IT_number 47
_symmetry_cell_setting 'orthorhombic'
loop_
_space_group_symop_operation_xyz
x,y,z
-x,-y,z
x,-y,-z
-x,y,-z
-x,-y,-z
x,y,-z
-x,y,z
x,-y,z
loop_
_atom_site_type_symbol
_atom_site_label
_atom_site_fract_x
_atom_site_fract_y
_atom_site_fract_z
Si Si1 0.296647 0.274159 0.575537
Si Si2 0.500000 0.932889 0.420753
Si Si3 0.813021 0.144874 0.578902
Si Si4 0.701368 0.614157 0.654743
Si Si5 0.200904 0.500000 0.574453
Si Si6 0.201628 0.568056 0.929942
Si Si7 0.701016 0.566984 0.789968
O O1 0.250254 0.284297 0.500000
O O2 0.500000 0.270906 0.577631
O O3 0.226890 0.211597 0.596418
O O4 0.236996 0.327601 0.619528
O O5 0.500000 0.932337 0.500000
O O6 0.665624 0.898047 0.399423
O O7 0.500000 0.000000 0.400408
O O8 0.810633 0.143648 0.500000
O O9 0.000000 0.128352 0.600076
O O10 0.500000 0.619516 0.657937
O O11 0.740146 0.557433 0.611959
O O12 0.764493 0.602252 0.727711
O O13 0.261678 0.500000 0.500000
O O14 0.000000 0.500000 0.573870
O O15 0.254848 0.500000 0.929256
O O16 0.258899 0.592366 0.860905
O O17 0.000000 0.568958 0.929961
O O18 0.258452 0.592510 0.000000
O O19 0.500000 0.563902 0.784833
O O20 0.765111 0.500000 0.786345
#
# Coordination Sequence:
#
# PCOD9382932 Si02
#       7
#     8   4   8   8   4   8   8
#     4   9  16  27  42  55  67  90 124 157 188 224
#     4   9  16  26  40  58  80  99 117 143 176 222
#     4   9  16  26  40  56  75  97 120 149 183 218
#     4  10  19  31  44  55  68  91 120 149 189 236
#     4  11  23  33  39  51  70  87 112 155 197 234
#     4   8  14  24  37  52  68  87 109 129 159 212
#     4   9  16  26  38  53  71  87 108 141 181 224
#
# _framework density 12.69833
#
# number of rings (size 3 to 8) (size 9 to 14) (size 15 to 20)
#    0.000    2.833    1.667    1.250    0.000    3.333 
#    0.000    5.000    0.000    0.000    0.000    0.000 
#    0.000    0.000    0.000    0.000    0.000    0.000 
#
# Total GULP energy -267240.628767 kJ/mol
# GULP energy per Si atom -5567.513099 kJ/mol
# Density = 1.266943 g / cm^3
# Si number density = 12.698330 Si / 1000 Ang^3
#
#
#
# Elastic Constant Matrix: (Units=GPa)
#
#
# Indices 1 2 3 4 5 6 
#
# 1 37.7175 32.2507 17.0616 0.0000 0.0000 0.0000
# 2 32.2507 83.6534 35.4965 0.0000 0.0000 0.0000
# 3 17.0616 35.4965 88.1368 0.0000 0.0000 0.0000
# 4 0.0000 0.0000 0.0000 0.5783 0.0000 0.0000
# 5 0.0000 0.0000 0.0000 0.0000 5.9179 0.0000
# 6 0.0000 0.0000 0.0000 0.0000 0.0000 0.8164
#
#
#
# Elastic Compliance Matrix: (Units=1/GPa)
#
#
# Indices 1 2 3 4 5 6 
#
# 1 0.039796 -0.014562 -0.001839 0.000000 0.000000 0.000000
# 2 -0.014562 0.019747 -0.005134 0.000000 0.000000 0.000000
# 3 -0.001839 -0.005134 0.013770 0.000000 0.000000 0.000000
# 4 0.000000 0.000000 0.000000 1.729162 0.000000 0.000000
# 5 0.000000 0.000000 0.000000 0.000000 0.168979 0.000000
# 6 0.000000 0.000000 0.000000 0.000000 0.000000 1.224868
#
#
# Mechanical properties :
#
#
# Convention : Reuss Voigt Hill
#
# Bulk Modulus (GPa) = 33.06608 42.12502 37.59555
# Shear Modulus (GPa) = 1.53871 9.77578 5.65725
#
# Velocity S-wave (km/s) = 1.10199 2.77762 2.11300
# Velocity P-wave (km/s) = 5.26454 6.59792 5.96858
#
# Compressibility (1/GPa) = 0.03024247
#
# Stress axis : x y z
#
# Youngs Moduli (GPa) = 25.12795 50.64137 72.62365
#
# Poissons Ratio (x) = 0.73745 0.13355
# Poissons Ratio (y) = 0.36592 0.37284
# Poissons Ratio (z) = 0.04621 0.25999
#
# Static dielectric constant tensor:
#      x y z
#    x 1.451840 0.000000 0.000000 
#    y 0.000000 1.394060 0.000000 
#    z 0.000000 0.000000 1.426260 
# 
# From -- ./inp_files/26918.got.cif
#   From: 2010.05.17/outbox.cif.g08.bks.cpg/sg47_14_cif.got.tgz:26918.got - 2010.06.03 20:15:42.
