data_PCOD9382834
_publ_section_title
;
Structure prediction by ZEFSAII (Michael W. Deem and Ramdas Pophale) SiO2 
 PCOD9382834
Probable space group: P M M M
;
_chemical_formula_sum "Si O2"
_cell_formula_units_Z 64
_cell_length_a 14.511663
_cell_length_b 13.337798
_cell_length_c 18.326500
_cell_angle_alpha 90.000000
_cell_angle_beta 90.000000
_cell_angle_gamma 90.000000
_cell_volume 3547.160595
_symmetry_space_group_name_H-M "P M M M"
_symmetry_group_IT_number 47
_symmetry_cell_setting 'orthorhombic'
loop_
_space_group_symop_operation_xyz
x,y,z
-x,-y,z
x,-y,-z
-x,y,-z
-x,-y,-z
x,y,-z
-x,y,z
x,-y,z
loop_
_atom_site_type_symbol
_atom_site_label
_atom_site_fract_x
_atom_site_fract_y
_atom_site_fract_z
Si Si1 0.601661 0.817138 0.835932
Si Si2 0.395920 0.879680 0.329557
Si Si3 0.362100 0.385569 0.916068
Si Si4 0.895088 0.607098 0.236936
Si Si5 0.110706 0.822758 0.721212
Si Si6 0.801446 0.889177 0.869643
Si Si7 0.782381 0.879955 0.418394
Si Si8 0.852074 0.671837 0.079620
O O1 0.500000 0.859547 0.853979
O O2 0.612942 0.826996 0.748872
O O3 0.603631 0.702704 0.864028
O O4 0.691106 0.871161 0.869630
O O5 0.500000 0.863172 0.357284
O O6 0.315497 0.847222 0.384064
O O7 0.386007 0.000000 0.316647
O O8 0.384321 0.500000 0.895106
O O9 0.251708 0.371046 0.917543
O O10 0.393143 0.369884 0.000000
O O11 0.849658 0.500000 0.252005
O O12 0.854164 0.708297 0.269053
O O13 0.898779 0.625144 0.150138
O O14 0.000000 0.603262 0.264116
O O15 0.161181 0.882432 0.786185
O O16 0.140021 0.856623 0.641307
O O17 0.000000 0.827843 0.731957
O O18 0.845458 0.792448 0.909107
O O19 0.822829 0.000000 0.898541
O O20 0.798243 0.840076 0.500000
O O21 0.777491 0.000000 0.423452
O O22 0.890719 0.649140 0.000000
#
# Coordination Sequence:
#
# PCOD9382834 Si02
#       8
#     8   8   8   8   8   8   8   8
#     4  10  19  30  48  72  95 125 168 211 251 292
#     4   9  17  31  51  73 100 133 166 203 245 286
#     4   9  18  32  48  67  96 133 168 206 254 301
#     4   9  18  32  51  74  96 123 162 206 254 302
#     4  10  20  34  52  74 102 133 163 200 243 288
#     4  10  19  32  50  69  94 132 172 205 242 291
#     4  10  20  33  51  77 106 134 165 199 238 289
#     4   9  18  31  46  68  98 128 163 209 254 295
#
# _framework density 18.042601000000001
#
# number of rings (size 3 to 8) (size 9 to 14) (size 15 to 20)
#    0.000    2.500    1.250    1.125    0.000    4.000 
#    0.000    3.125    0.000    1.500    0.000   12.250 
#    0.000    0.000    0.000    3.875    0.000    0.250 
#
# Total GULP energy -356632.171611 kJ/mol
# GULP energy per Si atom -5572.377681 kJ/mol
# Density = 1.800153 g / cm^3
# Si number density = 18.042601 Si / 1000 Ang^3
#
#
#
# Elastic Constant Matrix: (Units=GPa)
#
#
# Indices 1 2 3 4 5 6 
#
# 1 64.3678 6.4728 6.2198 0.0000 0.0000 0.0000
# 2 6.4728 84.6658 9.1061 0.0000 0.0000 0.0000
# 3 6.2198 9.1061 61.3640 0.0000 0.0000 0.0000
# 4 0.0000 0.0000 0.0000 13.7714 0.0000 0.0000
# 5 0.0000 0.0000 0.0000 0.0000 77.2120 0.0000
# 6 0.0000 0.0000 0.0000 0.0000 0.0000 8.8036
#
#
#
# Elastic Compliance Matrix: (Units=1/GPa)
#
#
# Indices 1 2 3 4 5 6 
#
# 1 0.015781 -0.001051 -0.001444 0.000000 0.000000 0.000000
# 2 -0.001051 0.012073 -0.001685 0.000000 0.000000 0.000000
# 3 -0.001444 -0.001685 0.016693 0.000000 0.000000 0.000000
# 4 0.000000 0.000000 0.000000 0.072614 0.000000 0.000000
# 5 0.000000 0.000000 0.000000 0.000000 0.012951 0.000000
# 6 0.000000 0.000000 0.000000 0.000000 0.000000 0.113589
#
#
# Mechanical properties :
#
#
# Convention : Reuss Voigt Hill
#
# Bulk Modulus (GPa) = 27.63442 28.22165 27.92803
# Shear Modulus (GPa) = 18.93058 32.53068 25.73063
#
# Velocity S-wave (km/s) = 3.24267 4.25077 3.78048
# Velocity P-wave (km/s) = 5.41935 6.30617 5.87950
#
# Compressibility (1/GPa) = 0.03618676
#
# Stress axis : x y z
#
# Youngs Moduli (GPa) = 63.36766 82.83130 59.90694
#
# Poissons Ratio (x) = 0.08707 0.08648
# Poissons Ratio (y) = 0.06661 0.10094
# Poissons Ratio (z) = 0.09147 0.13957
#
# Static dielectric constant tensor:
#      x y z
#    x 1.670440 0.000000 0.000000 
#    y 0.000000 1.647220 0.000000 
#    z 0.000000 0.000000 1.601870 
# 
# From -- ./inp_files/28242.got.cif
#   From: 2010.05.17/outbox.cif.g08.bks.cpg/sg47_15_cif.got.tgz:28242.got - 2010.06.03 20:15:42.
