data_PCOD9382729
_publ_section_title
;
Structure prediction by ZEFSAII (Michael W. Deem and Ramdas Pophale) SiO2 
 PCOD9382729
Probable space group: P M M M
;
_chemical_formula_sum "Si O2"
_cell_formula_units_Z 56
_cell_length_a 7.847050
_cell_length_b 30.416301
_cell_length_c 14.322588
_cell_angle_alpha 90.000000
_cell_angle_beta 90.000000
_cell_angle_gamma 90.000000
_cell_volume 3418.490021
_symmetry_space_group_name_H-M "P M M M"
_symmetry_group_IT_number 47
_symmetry_cell_setting 'orthorhombic'
loop_
_space_group_symop_operation_xyz
x,y,z
-x,-y,z
x,-y,-z
-x,y,-z
-x,-y,-z
x,y,-z
-x,y,z
x,-y,z
loop_
_atom_site_type_symbol
_atom_site_label
_atom_site_fract_x
_atom_site_fract_y
_atom_site_fract_z
Si Si1 0.296405 0.047262 0.887380
Si Si2 0.294683 0.770002 0.214566
Si Si3 0.798014 0.635035 0.717155
Si Si4 0.294922 0.450600 0.394039
Si Si5 0.794703 0.279644 0.605528
Si Si6 0.291149 0.856605 0.891031
Si Si7 0.703970 0.683821 0.895357
O O1 0.500000 0.046750 0.868990
O O2 0.231457 0.095134 0.857224
O O3 0.226602 0.000000 0.853746
O O4 0.277714 0.047596 0.000000
O O5 0.500000 0.770299 0.207975
O O6 0.249557 0.758393 0.320838
O O7 0.233692 0.816052 0.172323
O O8 0.230655 0.729004 0.151792
O O9 0.754035 0.587854 0.675798
O O10 0.729394 0.674521 0.650914
O O11 0.739084 0.645249 0.821891
O O12 0.000000 0.639276 0.716853
O O13 0.234838 0.440695 0.500000
O O14 0.500000 0.451853 0.396908
O O15 0.235670 0.500000 0.369504
O O16 0.731397 0.273637 0.500000
O O17 0.000000 0.282246 0.601404
O O18 0.500000 0.857364 0.890192
O O19 0.242862 0.850193 0.000000
O O20 0.500000 0.688235 0.901380
O O21 0.770508 0.677374 0.000000
#
# Coordination Sequence:
#
# PCOD9382729 Si02
#       7
#     8   8   8   8   8   8   8
#     4   7   9  13  22  39  66 100 132 156 183 226
#     4   9  16  25  39  60  81 102 133 169 201 233
#     4  10  19  30  46  67  88 110 137 168 201 237
#     4   9  18  32  49  69  92 115 137 163 198 241
#     4   9  18  31  43  56  79 109 135 160 195 239
#     4   8  12  18  30  49  75 105 132 160 194 230
#     4   9  17  29  44  61  83 112 143 171 199 235
#
# _framework density 16.381502999999999
#
# number of rings (size 3 to 8) (size 9 to 14) (size 15 to 20)
#    0.000    3.286    0.000    3.000    0.000    4.000 
#    0.000    0.714    0.000    1.714    0.000    3.000 
#    0.000    1.143    0.000   10.714    0.000    4.286 
#
# Total GULP energy -311737.815304 kJ/mol
# GULP energy per Si atom -5566.746702 kJ/mol
# Density = 1.634422 g / cm^3
# Si number density = 16.381503 Si / 1000 Ang^3
#
#
#
# Elastic Constant Matrix: (Units=GPa)
#
#
# Indices 1 2 3 4 5 6 
#
# 1 16.9054 3.5312 7.7130 0.0000 0.0000 0.0000
# 2 3.5312 135.7159 83.4229 0.0000 0.0000 0.0000
# 3 7.7130 83.4229 128.6751 0.0000 0.0000 0.0000
# 4 0.0000 0.0000 0.0000 19.7536 0.0000 0.0000
# 5 0.0000 0.0000 0.0000 0.0000 -18.7130 0.0000
# 6 0.0000 0.0000 0.0000 0.0000 0.0000 0.2722
#
#
#
# Elastic Compliance Matrix: (Units=1/GPa)
#
#
# Indices 1 2 3 4 5 6 
#
# 1 0.060914 0.001096 -0.004362 0.000000 0.000000 0.000000
# 2 0.001096 0.012270 -0.008021 0.000000 0.000000 0.000000
# 3 -0.004362 -0.008021 0.013233 0.000000 0.000000 0.000000
# 4 0.000000 0.000000 0.000000 0.050624 0.000000 0.000000
# 5 0.000000 0.000000 0.000000 0.000000 -0.053439 0.000000
# 6 0.000000 0.000000 0.000000 0.000000 0.000000 3.673411
#
#
# Mechanical properties :
#
#
# Convention : Reuss Voigt Hill
#
# Bulk Modulus (GPa) = 15.66313 52.29230 33.97771
# Shear Modulus (GPa) = 1.31549 12.70451 7.01000
#
# Velocity S-wave (km/s) = 0.89709 2.78787 2.07087
# Velocity P-wave (km/s) = 3.26424 6.50798 5.14826
#
# Compressibility (1/GPa) = 0.06384421
#
# Stress axis : x y z
#
# Youngs Moduli (GPa) = 16.41660 81.49967 75.56905
#
# Poissons Ratio (x) = -0.08936 0.32964
# Poissons Ratio (y) = -0.01800 0.60611
# Poissons Ratio (z) = 0.07161 0.65368
#
# Static dielectric constant tensor:
#      x y z
#    x 1.591500 0.000000 0.000000 
#    y 0.000000 1.583980 0.000000 
#    z 0.000000 0.000000 1.538000 
# 
# From -- ./inp_files/8123.got.cif
#   From: 2010.05.17/outbox.cif.g08.bks.cpg/sg47_5_cif.got.tgz:8123.got - 2010.06.03 20:15:42.
