data_PCOD9382138
_publ_section_title
;
Structure prediction by ZEFSAII (Michael W. Deem and Ramdas Pophale) SiO2 
 PCOD9382138
Probable space group: P M M M
;
_chemical_formula_sum "Si O2"
_cell_formula_units_Z 64
_cell_length_a 19.551074
_cell_length_b 14.437654
_cell_length_c 14.511147
_cell_angle_alpha 90.000000
_cell_angle_beta 90.000000
_cell_angle_gamma 90.000000
_cell_volume 4096.085287
_symmetry_space_group_name_H-M "P M M M"
_symmetry_group_IT_number 47
_symmetry_cell_setting 'orthorhombic'
loop_
_space_group_symop_operation_xyz
x,y,z
-x,-y,z
x,-y,-z
-x,y,-z
-x,-y,-z
x,y,-z
-x,y,z
x,-y,z
loop_
_atom_site_type_symbol
_atom_site_label
_atom_site_fract_x
_atom_site_fract_y
_atom_site_fract_z
Si Si1 0.818413 0.801727 0.889203
Si Si2 0.807000 0.887782 0.604871
Si Si3 0.227236 0.399242 0.111176
Si Si4 0.577603 0.243901 0.750316
Si Si5 0.702955 0.889178 0.233984
Si Si6 0.079114 0.111880 0.250592
Si Si7 0.583036 0.397308 0.606881
Si Si8 0.389485 0.603404 0.890322
O O1 0.810567 0.693989 0.859958
O O2 0.751619 0.853635 0.848665
O O3 0.883280 0.846112 0.838383
O O4 0.821343 0.808326 0.000000
O O5 0.802909 0.853165 0.500000
O O6 0.743795 0.863938 0.671824
O O7 0.875479 0.860397 0.660532
O O8 0.807806 0.000000 0.600524
O O9 0.203494 0.500000 0.146166
O O10 0.308224 0.390982 0.130492
O O11 0.221941 0.401452 0.000000
O O12 0.500000 0.212943 0.729915
O O13 0.630546 0.161876 0.767011
O O14 0.604463 0.311542 0.669042
O O15 0.576260 0.313293 0.837023
O O16 0.696680 0.000000 0.229620
O O17 0.000000 0.138560 0.257783
O O18 0.082735 0.000000 0.244025
O O19 0.601754 0.385877 0.500000
O O20 0.500000 0.398504 0.611669
O O21 0.606602 0.500000 0.637522
O O22 0.413415 0.500000 0.863321
O O23 0.398077 0.611349 0.000000
#
# Coordination Sequence:
#
# PCOD9382138 Si02
#       8
#     8   8   8   8   8   8   8   8
#     4  10  18  31  51  69  91 128 163 190 231 280
#     4   8  15  30  51  70  89 118 152 188 234 277
#     4   8  14  26  46  69  89 113 150 193 234 277
#     4  11  21  31  46  66  89 122 159 195 245 297
#     4  10  21  34  46  64  89 120 165 210 236 268
#     4   9  18  30  45  73 107 129 153 189 223 265
#     4   8  15  29  47  66  88 111 137 175 227 291
#     4   9  17  30  47  68  93 116 144 190 245 296
#
# _framework density 15.624675
#
# number of rings (size 3 to 8) (size 9 to 14) (size 15 to 20)
#    0.000    2.875    1.250    2.625    0.000    3.250 
#    0.000    2.500    0.000    0.375    0.000    7.000 
#    0.000    4.500    0.000    4.500    0.000    0.500 
#
# Total GULP energy -356329.738006 kJ/mol
# GULP energy per Si atom -5567.652156 kJ/mol
# Density = 1.558911 g / cm^3
# Si number density = 15.624675 Si / 1000 Ang^3
#
#
#
# Elastic Constant Matrix: (Units=GPa)
#
#
# Indices 1 2 3 4 5 6 
#
# 1 79.9149 39.5399 26.5633 0.0000 0.0000 0.0000
# 2 39.5399 73.1094 24.6675 0.0000 0.0000 0.0000
# 3 26.5633 24.6675 80.3785 0.0000 0.0000 0.0000
# 4 0.0000 0.0000 0.0000 13.1635 0.0000 0.0000
# 5 0.0000 0.0000 0.0000 0.0000 8.1232 0.0000
# 6 0.0000 0.0000 0.0000 0.0000 0.0000 12.2450
#
#
#
# Elastic Compliance Matrix: (Units=1/GPa)
#
#
# Indices 1 2 3 4 5 6 
#
# 1 0.017824 -0.008536 -0.003271 0.000000 0.000000 0.000000
# 2 -0.008536 0.019346 -0.003116 0.000000 0.000000 0.000000
# 3 -0.003271 -0.003116 0.014478 0.000000 0.000000 0.000000
# 4 0.000000 0.000000 0.000000 0.075968 0.000000 0.000000
# 5 0.000000 0.000000 0.000000 0.000000 0.123105 0.000000
# 6 0.000000 0.000000 0.000000 0.000000 0.000000 0.081666
#
#
# Mechanical properties :
#
#
# Convention : Reuss Voigt Hill
#
# Bulk Modulus (GPa) = 45.86665 46.10491 45.98578
# Shear Modulus (GPa) = 13.53179 16.21516 14.87348
#
# Velocity S-wave (km/s) = 2.94607 3.22497 3.08867
# Velocity P-wave (km/s) = 6.40246 6.59083 6.49733
#
# Compressibility (1/GPa) = 0.02180233
#
# Stress axis : x y z
#
# Youngs Moduli (GPa) = 56.10416 51.68977 69.06864
#
# Poissons Ratio (x) = 0.44124 0.22590
# Poissons Ratio (y) = 0.47892 0.21523
# Poissons Ratio (z) = 0.18350 0.16107
#
# Static dielectric constant tensor:
#      x y z
#    x 1.514790 0.000000 0.000000 
#    y 0.000000 1.532480 0.000000 
#    z 0.000000 0.000000 1.537300 
# 
# From -- ./inp_files/24800.got.cif
#   From: 2010.05.17/outbox.cif.g08.bks.cpg/sg47_13_cif.got.tgz:24800.got - 2010.06.03 20:15:42.
