data_PCOD9382541
_publ_section_title
;
Structure prediction by ZEFSAII (Michael W. Deem and Ramdas Pophale) SiO2 
 PCOD9382541
Probable space group: P M M M
;
_chemical_formula_sum "Si O2"
_cell_formula_units_Z 52
_cell_length_a 14.222646
_cell_length_b 7.741804
_cell_length_c 29.002778
_cell_angle_alpha 90.000000
_cell_angle_beta 90.000000
_cell_angle_gamma 90.000000
_cell_volume 3193.465076
_symmetry_space_group_name_H-M "P M M M"
_symmetry_group_IT_number 47
_symmetry_cell_setting 'orthorhombic'
loop_
_space_group_symop_operation_xyz
x,y,z
-x,-y,z
x,-y,-z
-x,y,-z
-x,-y,-z
x,y,-z
-x,y,z
x,-y,z
loop_
_atom_site_type_symbol
_atom_site_label
_atom_site_fract_x
_atom_site_fract_y
_atom_site_fract_z
Si Si1 0.608162 0.708482 0.551414
Si Si2 0.887298 0.296464 0.123232
Si Si3 0.295971 0.795798 0.645606
Si Si4 0.103468 0.794818 0.313685
Si Si5 0.202587 0.709070 0.779716
Si Si6 0.603909 0.703461 0.737046
Si Si7 0.113988 0.000000 0.052474
O O1 0.637492 0.765658 0.500000
O O2 0.500000 0.765470 0.558643
O O3 0.607675 0.500000 0.551323
O O4 0.671383 0.765906 0.593771
O O5 0.868978 0.500000 0.114093
O O6 0.833918 0.242831 0.169913
O O7 0.000000 0.279259 0.130740
O O8 0.859910 0.170421 0.081528
O O9 0.191802 0.725599 0.657090
O O10 0.367461 0.719623 0.683319
O O11 0.295164 0.000000 0.654613
O O12 0.132420 0.768974 0.260471
O O13 0.000000 0.721334 0.322816
O O14 0.098888 0.000000 0.322407
O O15 0.203409 0.500000 0.777947
O O16 0.306920 0.773404 0.765775
O O17 0.500000 0.778252 0.745057
O O18 0.599166 0.500000 0.747738
O O19 0.000000 0.000000 0.050422
O O20 0.149076 0.000000 0.000000
#
# Coordination Sequence:
#
# PCOD9382541 Si02
#       7
#     8   8   8   8   8   8   4
#     4   9  18  32  48  64  82 106 136 169 208 257
#     4   9  17  28  43  64  90 119 151 190 229 265
#     4  10  19  29  43  64  87 110 138 174 213 251
#     4   9  18  30  43  60  84 115 146 174 206 250
#     4   9  17  28  42  63  88 113 146 183 216 253
#     4   9  17  29  44  61  86 120 148 170 205 258
#     4   9  18  30  44  64  89 121 157 187 225 276
#
# _framework density 16.283252000000001
#
# number of rings (size 3 to 8) (size 9 to 14) (size 15 to 20)
#    0.000    2.846    0.000    1.846    1.077    4.615 
#    0.000    2.308    0.000    0.462    0.000    3.231 
#    0.000    1.231    0.000    6.000    0.000    0.154 
#
# Total GULP energy -289727.038764 kJ/mol
# GULP energy per Si atom -5571.673822 kJ/mol
# Density = 1.624619 g / cm^3
# Si number density = 16.283252 Si / 1000 Ang^3
#
#
#
# Elastic Constant Matrix: (Units=GPa)
#
#
# Indices 1 2 3 4 5 6 
#
# 1 87.9383 14.2481 46.1955 0.0000 0.0000 0.0000
# 2 14.2481 34.4305 19.2205 0.0000 0.0000 0.0000
# 3 46.1955 19.2205 120.0207 0.0000 0.0000 0.0000
# 4 0.0000 0.0000 0.0000 27.2904 0.0000 0.0000
# 5 0.0000 0.0000 0.0000 0.0000 17.2508 0.0000
# 6 0.0000 0.0000 0.0000 0.0000 0.0000 21.0322
#
#
#
# Elastic Compliance Matrix: (Units=1/GPa)
#
#
# Indices 1 2 3 4 5 6 
#
# 1 0.014564 -0.003182 -0.005096 0.000000 0.000000 0.000000
# 2 -0.003182 0.032591 -0.003994 0.000000 0.000000 0.000000
# 3 -0.005096 -0.003994 0.010933 0.000000 0.000000 0.000000
# 4 0.000000 0.000000 0.000000 0.036643 0.000000 0.000000
# 5 0.000000 0.000000 0.000000 0.000000 0.057968 0.000000
# 6 0.000000 0.000000 0.000000 0.000000 0.000000 0.047546
#
#
# Mechanical properties :
#
#
# Convention : Reuss Voigt Hill
#
# Bulk Modulus (GPa) = 29.81273 44.63528 37.22400
# Shear Modulus (GPa) = 21.18897 23.96303 22.57600
#
# Velocity S-wave (km/s) = 3.61123 3.84035 3.72755
# Velocity P-wave (km/s) = 5.97801 6.86554 6.43709
#
# Compressibility (1/GPa) = 0.03354272
#
# Stress axis : x y z
#
# Youngs Moduli (GPa) = 68.66110 30.68359 91.46579
#
# Poissons Ratio (x) = 0.09764 0.46612
# Poissons Ratio (y) = 0.21849 0.36535
# Poissons Ratio (z) = 0.34991 0.12256
#
# Static dielectric constant tensor:
#      x y z
#    x 1.571290 0.000000 0.000000 
#    y 0.000000 1.595000 0.000000 
#    z 0.000000 0.000000 1.521340 
# 
# From -- ./inp_files/22013.got.cif
#   From: 2010.05.17/outbox.cif.g08.bks.cpg/sg47_12_cif.got.tgz:22013.got - 2010.06.03 20:15:42.
