data_PCOD9382436
_publ_section_title
;
Structure prediction by ZEFSAII (Michael W. Deem and Ramdas Pophale) SiO2 
 PCOD9382436
Probable space group: P M M M
;
_chemical_formula_sum "Si O2"
_cell_formula_units_Z 52
_cell_length_a 27.477768
_cell_length_b 8.675157
_cell_length_c 14.147045
_cell_angle_alpha 90.000000
_cell_angle_beta 90.000000
_cell_angle_gamma 90.000000
_cell_volume 3372.287017
_symmetry_space_group_name_H-M "P M M M"
_symmetry_group_IT_number 47
_symmetry_cell_setting 'orthorhombic'
loop_
_space_group_symop_operation_xyz
x,y,z
-x,-y,z
x,-y,-z
-x,y,-z
-x,-y,-z
x,y,-z
-x,y,z
x,-y,z
loop_
_atom_site_type_symbol
_atom_site_label
_atom_site_fract_x
_atom_site_fract_y
_atom_site_fract_z
Si Si1 0.500000 0.821560 0.614779
Si Si2 0.756973 0.686112 0.893320
Si Si3 0.795450 0.813920 0.606751
Si Si4 0.393508 0.186903 0.610274
Si Si5 0.851185 0.815661 0.207480
Si Si6 0.055364 0.685844 0.890408
Si Si7 0.701137 0.684652 0.707276
O O1 0.500000 0.823646 0.500000
O O2 0.552699 0.755497 0.641289
O O3 0.500000 0.000000 0.646276
O O4 0.759919 0.500000 0.891688
O O5 0.809175 0.750856 0.861273
O O6 0.718322 0.732476 0.812699
O O7 0.745061 0.734845 0.000000
O O8 0.807873 0.767698 0.500000
O O9 0.834495 0.768928 0.686763
O O10 0.743897 0.744108 0.638424
O O11 0.791092 0.000000 0.609213
O O12 0.385720 0.231041 0.500000
O O13 0.349921 0.247759 0.673742
O O14 0.394212 0.000000 0.612573
O O15 0.903221 0.753907 0.175660
O O16 0.850909 0.000000 0.202380
O O17 0.057523 0.500000 0.886709
O O18 0.000000 0.732277 0.866213
O O19 0.064376 0.730804 0.000000
O O20 0.699332 0.500000 0.703679
#
# Coordination Sequence:
#
# PCOD9382436 Si02
#       7
#     4   8   8   8   8   8   8
#     4   7  12  24  41  59  78 107 146 174 195 241
#     4   9  18  32  46  59  82 117 147 168 201 254
#     4   9  18  32  46  60  84 118 148 170 200 248
#     4   9  16  27  43  61  84 114 143 170 204 249
#     4  10  19  29  45  69  90 108 137 178 215 243
#     4   9  18  32  48  65  87 116 144 167 201 255
#     4  10  19  28  41  64  88 109 139 178 213 244
#
# _framework density 15.419803
#
# number of rings (size 3 to 8) (size 9 to 14) (size 15 to 20)
#    0.000    2.846    0.000    3.231    0.000    6.462 
#    0.000    1.154    0.000    1.846    0.000    3.769 
#    0.000    4.308    0.000    0.000    0.000    0.000 
#
# Total GULP energy -289684.847804 kJ/mol
# GULP energy per Si atom -5570.862458 kJ/mol
# Density = 1.538471 g / cm^3
# Si number density = 15.419803 Si / 1000 Ang^3
#
#
#
# Elastic Constant Matrix: (Units=GPa)
#
#
# Indices 1 2 3 4 5 6 
#
# 1 152.3929 25.4565 77.3642 0.0000 0.0000 0.0000
# 2 25.4565 8.5255 22.3382 0.0000 0.0000 0.0000
# 3 77.3642 22.3382 108.8069 0.0000 0.0000 0.0000
# 4 0.0000 0.0000 0.0000 20.2893 0.0000 0.0000
# 5 0.0000 0.0000 0.0000 0.0000 20.4177 0.0000
# 6 0.0000 0.0000 0.0000 0.0000 0.0000 -45.6974
#
#
#
# Elastic Compliance Matrix: (Units=1/GPa)
#
#
# Indices 1 2 3 4 5 6 
#
# 1 0.013492 -0.032787 -0.002862 0.000000 0.000000 0.000000
# 2 -0.032787 0.333523 -0.045160 0.000000 0.000000 0.000000
# 3 -0.002862 -0.045160 0.020497 0.000000 0.000000 0.000000
# 4 0.000000 0.000000 0.000000 0.049287 0.000000 0.000000
# 5 0.000000 0.000000 0.000000 0.000000 0.048977 0.000000
# 6 0.000000 0.000000 0.000000 0.000000 0.000000 -0.021883
#
#
# Mechanical properties :
#
#
# Convention : Reuss Voigt Hill
#
# Bulk Modulus (GPa) = 4.85688 57.78258 31.31973
# Shear Modulus (GPa) = 7.41683 8.63966 8.02824
#
# Velocity S-wave (km/s) = 2.19554 2.36963 2.28424
# Velocity P-wave (km/s) = 3.09577 6.71127 5.22613
#
# Compressibility (1/GPa) = 0.20589337
#
# Stress axis : x y z
#
# Youngs Moduli (GPa) = 74.11970 2.99829 48.78824
#
# Poissons Ratio (x) = 0.09831 0.13961
# Poissons Ratio (y) = 2.43018 2.20329
# Poissons Ratio (z) = 0.21210 0.13540
#
# Static dielectric constant tensor:
#      x y z
#    x 1.506240 0.000000 0.000000 
#    y 0.000000 1.523270 0.000000 
#    z 0.000000 0.000000 1.515250 
# 
# From -- ./inp_files/13388.got.cif
#   From: 2010.05.17/outbox.cif.g08.bks.cpg/sg47_7_cif.got.tgz:13388.got - 2010.06.03 20:15:42.
