data_PCOD9382209
_publ_section_title
;
Structure prediction by ZEFSAII (Michael W. Deem and Ramdas Pophale) SiO2 
 PCOD9382209
Probable space group: P M M M
;
_chemical_formula_sum "Si O2"
_cell_formula_units_Z 64
_cell_length_a 8.580025
_cell_length_b 25.372184
_cell_length_c 15.864907
_cell_angle_alpha 90.000000
_cell_angle_beta 90.000000
_cell_angle_gamma 90.000000
_cell_volume 3453.694636
_symmetry_space_group_name_H-M "P M M M"
_symmetry_group_IT_number 47
_symmetry_cell_setting 'orthorhombic'
loop_
_space_group_symop_operation_xyz
x,y,z
-x,-y,z
x,-y,-z
-x,y,-z
-x,-y,-z
x,y,-z
-x,y,z
x,-y,z
loop_
_atom_site_type_symbol
_atom_site_label
_atom_site_fract_x
_atom_site_fract_y
_atom_site_fract_z
Si Si1 0.314430 0.763938 0.691148
Si Si2 0.315090 0.097232 0.091591
Si Si3 0.187541 0.855512 0.594745
Si Si4 0.812071 0.671254 0.092539
Si Si5 0.314407 0.644460 0.272549
Si Si6 0.812026 0.439120 0.595398
Si Si7 0.184197 0.791260 0.131117
Si Si8 0.187719 0.941041 0.731358
O O1 0.500000 0.767912 0.706411
O O2 0.265627 0.799163 0.612513
O O3 0.272686 0.702194 0.689705
O O4 0.221042 0.788551 0.769730
O O5 0.500000 0.089646 0.097433
O O6 0.275946 0.159442 0.094815
O O7 0.237494 0.072348 0.173679
O O8 0.261613 0.076770 0.000000
O O9 0.221024 0.873765 0.500000
O O10 0.243320 0.897295 0.664787
O O11 0.000000 0.849872 0.602655
O O12 0.746211 0.643937 0.176149
O O13 0.769772 0.733450 0.097932
O O14 0.000000 0.668784 0.096870
O O15 0.762901 0.651168 0.000000
O O16 0.500000 0.640831 0.270461
O O17 0.249018 0.599376 0.332770
O O18 0.761775 0.424011 0.500000
O O19 0.764400 0.500000 0.609347
O O20 0.000000 0.437791 0.596465
O O21 0.000000 0.798680 0.116178
O O22 0.000000 0.940183 0.728094
O O23 0.240976 0.000000 0.709407
#
# Coordination Sequence:
#
# PCOD9382209 Si02
#       8
#     8   8   8   8   8   8   8   8
#     4  10  20  34  52  78 114 150 181 215 264 322
#     4  11  23  36  53  79 109 141 175 214 266 326
#     4  10  21  37  58  83 108 138 177 220 271 329
#     4   9  18  32  51  77 110 149 190 229 270 318
#     4  10  21  34  52  82 117 152 187 225 273 328
#     4   9  19  37  60  84 110 144 189 238 283 327
#     4  10  18  31  53  79 107 140 180 223 267 315
#     4  10  22  40  60  80 103 135 177 226 274 323
#
# _framework density 18.530878999999999
#
# number of rings (size 3 to 8) (size 9 to 14) (size 15 to 20)
#    0.000    2.125    1.250    2.250    0.000    5.750 
#    0.000    5.625    0.000    0.375    0.000    4.375 
#    0.000    0.000    0.000    0.000    0.000    0.000 
#
# Total GULP energy -357120.962100 kJ/mol
# GULP energy per Si atom -5580.015033 kJ/mol
# Density = 1.848870 g / cm^3
# Si number density = 18.530879 Si / 1000 Ang^3
#
#
#
# Elastic Constant Matrix: (Units=GPa)
#
#
# Indices 1 2 3 4 5 6 
#
# 1 13.1363 19.2880 21.7450 0.0000 0.0000 0.0000
# 2 19.2880 86.2012 70.0759 0.0000 0.0000 0.0000
# 3 21.7450 70.0759 136.0432 0.0000 0.0000 0.0000
# 4 0.0000 0.0000 0.0000 2.6618 0.0000 0.0000
# 5 0.0000 0.0000 0.0000 0.0000 -5.7864 0.0000
# 6 0.0000 0.0000 0.0000 0.0000 0.0000 14.4193
#
#
#
# Elastic Compliance Matrix: (Units=1/GPa)
#
#
# Indices 1 2 3 4 5 6 
#
# 1 0.119684 -0.019318 -0.009180 0.000000 0.000000 0.000000
# 2 -0.019318 0.023076 -0.008799 0.000000 0.000000 0.000000
# 3 -0.009180 -0.008799 0.013350 0.000000 0.000000 0.000000
# 4 0.000000 0.000000 0.000000 0.375679 0.000000 0.000000
# 5 0.000000 0.000000 0.000000 0.000000 -0.172818 0.000000
# 6 0.000000 0.000000 0.000000 0.000000 0.000000 0.069352
#
#
# Mechanical properties :
#
#
# Convention : Reuss Voigt Hill
#
# Bulk Modulus (GPa) = 12.26718 50.84426 31.55572
# Shear Modulus (GPa) = 9.43239 10.54373 9.98806
#
# Velocity S-wave (km/s) = 2.25857 2.38792 2.32415
# Velocity P-wave (km/s) = 3.66548 5.92453 4.92625
#
# Compressibility (1/GPa) = 0.08151832
#
# Stress axis : x y z
#
# Youngs Moduli (GPa) = 8.35532 43.33504 74.90578
#
# Poissons Ratio (x) = 0.83713 0.68761
# Poissons Ratio (y) = 0.16140 0.65908
# Poissons Ratio (z) = 0.07670 0.38129
#
# Static dielectric constant tensor:
#      x y z
#    x 1.625690 0.000000 0.000000 
#    y 0.000000 1.633580 0.000000 
#    z 0.000000 0.000000 1.667270 
# 
# From -- ./inp_files/7846.got.cif
#   From: 2010.05.17/outbox.cif.g08.bks.cpg/sg47_4_cif.got.tgz:7846.got - 2010.06.03 20:15:42.
