data_PCOD9382938
_publ_section_title
;
Structure prediction by ZEFSAII (Michael W. Deem and Ramdas Pophale) SiO2 
 PCOD9382938
Probable space group: P M M M
;
_chemical_formula_sum "Si O2"
_cell_formula_units_Z 40
_cell_length_a 8.088405
_cell_length_b 22.742926
_cell_length_c 14.823239
_cell_angle_alpha 90.000000
_cell_angle_beta 90.000000
_cell_angle_gamma 90.000000
_cell_volume 2726.794053
_symmetry_space_group_name_H-M "P M M M"
_symmetry_group_IT_number 47
_symmetry_cell_setting 'orthorhombic'
loop_
_space_group_symop_operation_xyz
x,y,z
-x,-y,z
x,-y,-z
-x,y,-z
-x,-y,-z
x,y,-z
-x,y,z
x,-y,z
loop_
_atom_site_type_symbol
_atom_site_label
_atom_site_fract_x
_atom_site_fract_y
_atom_site_fract_z
Si Si1 0.302505 0.616753 0.711632
Si Si2 0.000000 0.932014 0.610072
Si Si3 0.682986 0.142742 0.390286
Si Si4 0.198930 0.500000 0.604698
Si Si5 0.194954 0.730332 0.603989
Si Si6 0.298435 0.431602 0.899675
O O1 0.500000 0.623789 0.713275
O O2 0.261470 0.558209 0.654979
O O3 0.227628 0.673721 0.664360
O O4 0.242286 0.605650 0.813978
O O5 0.834805 0.897829 0.639892
O O6 0.000000 0.930951 0.500000
O O7 0.000000 0.000000 0.637661
O O8 0.686697 0.142059 0.500000
O O9 0.500000 0.123236 0.361785
O O10 0.713299 0.210664 0.364849
O O11 0.251443 0.500000 0.500000
O O12 0.000000 0.500000 0.607169
O O13 0.244762 0.717516 0.500000
O O14 0.000000 0.743923 0.603185
O O15 0.500000 0.430887 0.899035
O O16 0.250078 0.500000 0.887162
O O17 0.245045 0.412829 0.000000
#
# Coordination Sequence:
#
# PCOD9382938 Si02
#       6
#     8   4   8   4   8   8
#     4  11  20  30  46  66  80  99 138 180 217 261
#     4   9  16  26  40  60  86 113 144 183 222 255
#     4   9  16  27  42  59  81 111 148 185 218 256
#     4  11  23  35  42  53  80 112 135 167 220 269
#     4  10  19  31  44  58  82 116 147 177 217 263
#     4   8  14  27  46  64  81 100 125 165 218 270
#
# _framework density 14.669242000000001
#
# number of rings (size 3 to 8) (size 9 to 14) (size 15 to 20)
#    0.000    2.400    2.000    2.700    0.000    4.800 
#    0.000    2.000    0.000    3.000    0.000    0.000 
#    0.000    0.000    0.000    0.000    0.000    2.000 
#
# Total GULP energy -222977.979191 kJ/mol
# GULP energy per Si atom -5574.449480 kJ/mol
# Density = 1.463585 g / cm^3
# Si number density = 14.669242 Si / 1000 Ang^3
#
#
#
# Elastic Constant Matrix: (Units=GPa)
#
#
# Indices 1 2 3 4 5 6 
#
# 1 66.3050 36.5242 12.9850 0.0000 0.0000 0.0000
# 2 36.5242 92.7842 31.0238 0.0000 0.0000 0.0000
# 3 12.9850 31.0238 70.1389 0.0000 0.0000 0.0000
# 4 0.0000 0.0000 0.0000 -0.4168 0.0000 0.0000
# 5 0.0000 0.0000 0.0000 0.0000 -3.5611 0.0000
# 6 0.0000 0.0000 0.0000 0.0000 0.0000 6.1895
#
#
#
# Elastic Compliance Matrix: (Units=1/GPa)
#
#
# Indices 1 2 3 4 5 6 
#
# 1 0.019261 -0.007499 -0.000249 0.000000 0.000000 0.000000
# 2 -0.007499 0.015568 -0.005498 0.000000 0.000000 0.000000
# 3 -0.000249 -0.005498 0.016735 0.000000 0.000000 0.000000
# 4 0.000000 0.000000 0.000000 -2.398976 0.000000 0.000000
# 5 0.000000 0.000000 0.000000 0.000000 -0.280815 0.000000
# 6 0.000000 0.000000 0.000000 0.000000 0.000000 0.161565
#
#
# Mechanical properties :
#
#
# Convention : Reuss Voigt Hill
#
# Bulk Modulus (GPa) = 39.88306 43.36601 41.62454
# Shear Modulus (GPa) = -2.05608 10.35532 4.14962
#
# Velocity S-wave (km/s) = -1.18519 2.65980 1.68373
# Velocity P-wave (km/s) = 5.03730 6.24975 5.67599
#
# Compressibility (1/GPa) = 0.02507330
#
# Stress axis : x y z
#
# Youngs Moduli (GPa) = 51.91740 64.23492 59.75415
#
# Poissons Ratio (x) = 0.48169 0.01488
# Poissons Ratio (y) = 0.38932 0.32851
# Poissons Ratio (z) = 0.01293 0.35314
#
# Static dielectric constant tensor:
#      x y z
#    x 1.525490 0.000000 0.000000 
#    y 0.000000 1.471100 0.000000 
#    z 0.000000 0.000000 1.474350 
# 
# From -- ./inp_files/21262.got.cif
#   From: 2010.05.17/outbox.cif.g08.bks.cpg/sg47_11_cif.got.tgz:21262.got - 2010.06.03 20:15:42.
