data_PCOD9382570
_publ_section_title
;
Structure prediction by ZEFSAII (Michael W. Deem and Ramdas Pophale) SiO2 
 PCOD9382570
Probable space group: P M M M
;
_chemical_formula_sum "Si O2"
_cell_formula_units_Z 64
_cell_length_a 9.271698
_cell_length_b 22.217941
_cell_length_c 14.928316
_cell_angle_alpha 90.000000
_cell_angle_beta 90.000000
_cell_angle_gamma 90.000000
_cell_volume 3075.203824
_symmetry_space_group_name_H-M "P M M M"
_symmetry_group_IT_number 47
_symmetry_cell_setting 'orthorhombic'
loop_
_space_group_symop_operation_xyz
x,y,z
-x,-y,z
x,-y,-z
-x,y,-z
-x,-y,-z
x,y,-z
-x,y,z
x,-y,z
loop_
_atom_site_type_symbol
_atom_site_label
_atom_site_fract_x
_atom_site_fract_y
_atom_site_fract_z
Si Si1 0.173835 0.432878 0.300659
Si Si2 0.335902 0.686377 0.653834
Si Si3 0.662321 0.930918 0.891839
Si Si4 0.827289 0.591197 0.096773
Si Si5 0.337777 0.290806 0.868265
Si Si6 0.163861 0.802429 0.641941
Si Si7 0.840424 0.818970 0.852278
Si Si8 0.167102 0.934773 0.392506
O O1 0.205529 0.500000 0.336080
O O2 0.250945 0.377060 0.349482
O O3 0.218558 0.432733 0.194634
O O4 0.000000 0.423899 0.303325
O O5 0.500000 0.680978 0.621069
O O6 0.343021 0.701125 0.760501
O O7 0.253246 0.743943 0.612577
O O8 0.500000 0.913237 0.863021
O O9 0.781876 0.886260 0.856109
O O10 0.686387 0.000000 0.865901
O O11 0.665421 0.928312 0.000000
O O12 0.774312 0.659731 0.098742
O O13 0.000000 0.586180 0.096720
O O14 0.776737 0.566251 0.000000
O O15 0.500000 0.301088 0.900305
O O16 0.277495 0.225592 0.893130
O O17 0.150154 0.799402 0.749103
O O18 0.231516 0.868852 0.626650
O O19 0.000000 0.801488 0.604896
O O20 0.000000 0.813643 0.891697
O O21 0.162830 0.937750 0.500000
O O22 0.000000 0.932283 0.359859
O O23 0.228258 0.000000 0.361570
#
# Coordination Sequence:
#
# PCOD9382570 Si02
#       8
#     8   8   8   8   8   8   8   8
#     4   9  17  29  45  64  87 116 149 188 237 289
#     4   9  17  29  45  64  87 116 151 190 229 270
#     4   9  19  35  49  58  73 101 136 175 222 276
#     4   9  17  28  41  58  81 108 140 180 225 275
#     4   9  17  29  43  57  76 104 137 174 218 266
#     4   9  17  29  47  71  98 126 156 193 232 268
#     4  10  19  29  44  66  87 107 137 181 230 275
#     4   8  14  26  46  73 104 136 167 195 223 261
#
# _framework density 20.811627999999999
#
# number of rings (size 3 to 8) (size 9 to 14) (size 15 to 20)
#    0.000    3.000    0.000    1.875    0.000    5.750 
#    0.000    3.125    0.000    0.750    0.000    4.375 
#    0.000    0.500    0.000    5.750    0.000    1.625 
#
# Total GULP energy -356409.568003 kJ/mol
# GULP energy per Si atom -5568.899500 kJ/mol
# Density = 2.076426 g / cm^3
# Si number density = 20.811628 Si / 1000 Ang^3
#
#
#
# Elastic Constant Matrix: (Units=GPa)
#
#
# Indices 1 2 3 4 5 6 
#
# 1 45.2527 55.3594 -1.3174 0.0000 0.0000 0.0000
# 2 55.3594 166.4826 0.2464 0.0000 0.0000 0.0000
# 3 -1.3174 0.2464 26.8519 0.0000 0.0000 0.0000
# 4 0.0000 0.0000 0.0000 21.2685 0.0000 0.0000
# 5 0.0000 0.0000 0.0000 0.0000 -3.7572 0.0000
# 6 0.0000 0.0000 0.0000 0.0000 0.0000 15.8543
#
#
#
# Elastic Compliance Matrix: (Units=1/GPa)
#
#
# Indices 1 2 3 4 5 6 
#
# 1 0.037353 -0.012424 0.001947 0.000000 0.000000 0.000000
# 2 -0.012424 0.010139 -0.000703 0.000000 0.000000 0.000000
# 3 0.001947 -0.000703 0.037343 0.000000 0.000000 0.000000
# 4 0.000000 0.000000 0.000000 0.047018 0.000000 0.000000
# 5 0.000000 0.000000 0.000000 0.000000 -0.266154 0.000000
# 6 0.000000 0.000000 0.000000 0.000000 0.000000 0.063074
#
#
# Mechanical properties :
#
#
# Convention : Reuss Voigt Hill
#
# Bulk Modulus (GPa) = 16.00617 38.57379 27.28998
# Shear Modulus (GPa) = -178.30459 18.95970 -79.67245
#
# Velocity S-wave (km/s) = -9.26615 3.02158 -6.19401
# Velocity P-wave (km/s) = 10.33316 5.54511 6.16547
#
# Compressibility (1/GPa) = 0.06247591
#
# Stress axis : x y z
#
# Youngs Moduli (GPa) = 26.77143 98.63044 26.77863
#
# Poissons Ratio (x) = 1.22536 -0.05213
# Poissons Ratio (y) = 0.33260 0.01881
# Poissons Ratio (z) = -0.05211 0.06929
#
# Static dielectric constant tensor:
#      x y z
#    x 1.726900 0.000000 0.000000 
#    y 0.000000 1.772540 0.000000 
#    z 0.000000 0.000000 1.796010 
# 
# From -- ./inp_files/30178.got.cif
#   From: 2010.05.17/outbox.cif.g08.bks.cpg/sg47_16_cif.got.tgz:30178.got - 2010.06.03 20:15:42.
