data_PCOD9382935
_publ_section_title
;
Structure prediction by ZEFSAII (Michael W. Deem and Ramdas Pophale) SiO2 
 PCOD9382935
Probable space group: P M M M
;
_chemical_formula_sum "Si O2"
_cell_formula_units_Z 48
_cell_length_a 8.178033
_cell_length_b 20.504168
_cell_length_c 22.599973
_cell_angle_alpha 90.000000
_cell_angle_beta 90.000000
_cell_angle_gamma 90.000000
_cell_volume 3789.648506
_symmetry_space_group_name_H-M "P M M M"
_symmetry_group_IT_number 47
_symmetry_cell_setting 'orthorhombic'
loop_
_space_group_symop_operation_xyz
x,y,z
-x,-y,z
x,-y,-z
-x,y,-z
-x,-y,-z
x,y,-z
-x,y,z
x,-y,z
loop_
_atom_site_type_symbol
_atom_site_label
_atom_site_fract_x
_atom_site_fract_y
_atom_site_fract_z
Si Si1 0.304471 0.846867 0.116777
Si Si2 0.696336 0.710166 0.068225
Si Si3 0.000000 0.079534 0.431426
Si Si4 0.196701 0.570517 0.930377
Si Si5 0.196814 0.924031 0.000000
Si Si6 0.193033 0.075460 0.769448
Si Si7 0.318329 0.079265 0.358340
O O1 0.500000 0.846309 0.124015
O O2 0.246037 0.772928 0.104539
O O3 0.261865 0.888248 0.058351
O O4 0.228421 0.880301 0.174176
O O5 0.500000 0.713935 0.065373
O O6 0.741418 0.639330 0.093687
O O7 0.758147 0.714861 0.000000
O O8 0.834738 0.101220 0.398012
O O9 0.000000 0.098865 0.500000
O O10 0.000000 0.000000 0.429593
O O11 0.252146 0.500000 0.905785
O O12 0.000000 0.571370 0.928038
O O13 0.244455 0.570730 0.000000
O O14 0.000000 0.920738 0.000000
O O15 0.245081 0.000000 0.000000
O O16 0.286477 0.096540 0.710161
O O17 0.000000 0.076044 0.755788
O O18 0.238549 0.000000 0.782944
O O19 0.500000 0.100541 0.377273
O O20 0.316365 0.000000 0.360275
#
# Coordination Sequence:
#
# PCOD9382935 Si02
#       7
#     8   8   4   8   4   8   8
#     4  11  21  32  43  56  72  92 120 155 197 240
#     4   9  17  29  40  52  72  92 112 142 183 230
#     4   9  16  26  40  60  84 103 121 149 184 226
#     4   8  14  24  38  56  73  88 109 134 164 212
#     4  11  23  35  43  53  68  87 116 155 199 246
#     4  10  19  31  44  57  73  94 126 164 196 234
#     4   9  16  27  42  58  77 101 126 153 188 227
#
# _framework density 12.666083
#
# number of rings (size 3 to 8) (size 9 to 14) (size 15 to 20)
#    0.000    2.500    1.667    2.250    0.000    5.667 
#    0.000    3.333    0.000    0.000    0.000    0.000 
#    0.000    0.000    0.000    0.000    0.000    0.000 
#
# Total GULP energy -267362.112884 kJ/mol
# GULP energy per Si atom -5570.044018 kJ/mol
# Density = 1.263725 g / cm^3
# Si number density = 12.666083 Si / 1000 Ang^3
#
#
#
# Elastic Constant Matrix: (Units=GPa)
#
#
# Indices 1 2 3 4 5 6 
#
# 1 49.2495 14.1464 26.8930 0.0000 0.0000 0.0000
# 2 14.1464 79.6752 23.5234 0.0000 0.0000 0.0000
# 3 26.8930 23.5234 62.2083 0.0000 0.0000 0.0000
# 4 0.0000 0.0000 0.0000 0.3657 0.0000 0.0000
# 5 0.0000 0.0000 0.0000 0.0000 8.0148 0.0000
# 6 0.0000 0.0000 0.0000 0.0000 0.0000 15.5719
#
#
#
# Elastic Compliance Matrix: (Units=1/GPa)
#
#
# Indices 1 2 3 4 5 6 
#
# 1 0.026738 -0.001502 -0.010991 0.000000 0.000000 0.000000
# 2 -0.001502 0.014213 -0.004725 0.000000 0.000000 0.000000
# 3 -0.010991 -0.004725 0.022613 0.000000 0.000000 0.000000
# 4 0.000000 0.000000 0.000000 2.734422 0.000000 0.000000
# 5 0.000000 0.000000 0.000000 0.000000 0.124768 0.000000
# 6 0.000000 0.000000 0.000000 0.000000 0.000000 0.064218
#
#
# Mechanical properties :
#
#
# Convention : Reuss Voigt Hill
#
# Bulk Modulus (GPa) = 34.33184 35.58428 34.95806
# Shear Modulus (GPa) = 1.64956 13.22850 7.43903
#
# Velocity S-wave (km/s) = 1.14244 3.23523 2.42610
# Velocity P-wave (km/s) = 5.37628 6.48928 5.95882
#
# Compressibility (1/GPa) = 0.02912748
#
# Stress axis : x y z
#
# Youngs Moduli (GPa) = 37.40009 70.35969 44.22218
#
# Poissons Ratio (x) = 0.10571 0.48604
# Poissons Ratio (y) = 0.05619 0.20894
# Poissons Ratio (z) = 0.41106 0.33244
#
# Static dielectric constant tensor:
#      x y z
#    x 1.448390 0.000000 0.000000 
#    y 0.000000 1.419700 0.000000 
#    z 0.000000 0.000000 1.393790 
# 
# From -- ./inp_files/30047.got.cif
#   From: 2010.05.17/outbox.cif.g08.bks.cpg/sg47_16_cif.got.tgz:30047.got - 2010.06.03 20:15:42.
