data_PCOD9382237
_publ_section_title
;
Structure prediction by ZEFSAII (Michael W. Deem and Ramdas Pophale) SiO2 
 PCOD9382237
Probable space group: P M M M
;
_chemical_formula_sum "Si O2"
_cell_formula_units_Z 64
_cell_length_a 17.797277
_cell_length_b 12.718911
_cell_length_c 16.297920
_cell_angle_alpha 90.000000
_cell_angle_beta 90.000000
_cell_angle_gamma 90.000000
_cell_volume 3689.229477
_symmetry_space_group_name_H-M "P M M M"
_symmetry_group_IT_number 47
_symmetry_cell_setting 'orthorhombic'
loop_
_space_group_symop_operation_xyz
x,y,z
-x,-y,z
x,-y,-z
-x,y,-z
-x,-y,-z
x,y,-z
-x,y,z
x,-y,z
loop_
_atom_site_type_symbol
_atom_site_label
_atom_site_fract_x
_atom_site_fract_y
_atom_site_fract_z
Si Si1 0.588716 0.379639 0.299606
Si Si2 0.584108 0.114954 0.902632
Si Si3 0.772997 0.120272 0.726281
Si Si4 0.841913 0.624561 0.905300
Si Si5 0.852464 0.374692 0.406994
Si Si6 0.699340 0.752802 0.405438
Si Si7 0.689490 0.292136 0.839200
Si Si8 0.087227 0.745793 0.749465
O O1 0.500000 0.359670 0.286578
O O2 0.596563 0.500000 0.329506
O O3 0.627031 0.296546 0.361012
O O4 0.637963 0.366164 0.217086
O O5 0.500000 0.129612 0.868317
O O6 0.634605 0.215177 0.887325
O O7 0.612330 0.000000 0.872494
O O8 0.578235 0.106396 0.000000
O O9 0.734386 0.145473 0.639070
O O10 0.733426 0.208336 0.782208
O O11 0.860044 0.153557 0.732003
O O12 0.762377 0.000000 0.750127
O O13 0.855818 0.500000 0.896026
O O14 0.753427 0.647980 0.889692
O O15 0.885360 0.687170 0.833106
O O16 0.860719 0.654289 0.000000
O O17 0.877689 0.344247 0.500000
O O18 0.853763 0.500000 0.402055
O O19 0.767156 0.332465 0.398054
O O20 0.897935 0.327190 0.330641
O O21 0.683942 0.771980 0.500000
O O22 0.000000 0.770755 0.756469
#
# Coordination Sequence:
#
# PCOD9382237 Si02
#       8
#     8   8   8   8   8   8   8   8
#     4  10  20  31  46  72 103 135 171 210 256 310
#     4   9  17  28  44  68  94 120 154 198 250 304
#     4   9  19  34  53  75  94 121 164 205 245 296
#     4  10  21  35  52  75 101 134 177 217 253 302
#     4   9  17  30  50  75 101 130 164 201 244 297
#     4   9  18  32  50  71  98 131 167 208 248 291
#     4  10  18  32  51  69  95 128 164 210 257 298
#     4  10  21  35  52  75 104 133 161 202 255 309
#
# _framework density 17.347795999999999
#
# number of rings (size 3 to 8) (size 9 to 14) (size 15 to 20)
#    0.000    2.500    0.000    3.375    0.000    3.000 
#    0.000    1.875    0.000    6.750    0.000   15.750 
#    0.000    0.000    0.000    0.000    0.000    0.000 
#
# Total GULP energy -356352.938775 kJ/mol
# GULP energy per Si atom -5568.014668 kJ/mol
# Density = 1.730831 g / cm^3
# Si number density = 17.347796 Si / 1000 Ang^3
#
#
#
# Elastic Constant Matrix: (Units=GPa)
#
#
# Indices 1 2 3 4 5 6 
#
# 1 91.5055 18.4935 21.6505 0.0000 0.0000 0.0000
# 2 18.4935 52.2341 10.6141 0.0000 0.0000 0.0000
# 3 21.6505 10.6141 77.2230 0.0000 0.0000 0.0000
# 4 0.0000 0.0000 0.0000 -3.0740 0.0000 0.0000
# 5 0.0000 0.0000 0.0000 0.0000 19.4521 0.0000
# 6 0.0000 0.0000 0.0000 0.0000 0.0000 552.0430
#
#
#
# Elastic Compliance Matrix: (Units=1/GPa)
#
#
# Indices 1 2 3 4 5 6 
#
# 1 0.012393 -0.003787 -0.002954 0.000000 0.000000 0.000000
# 2 -0.003787 0.020852 -0.001804 0.000000 0.000000 0.000000
# 3 -0.002954 -0.001804 0.014026 0.000000 0.000000 0.000000
# 4 0.000000 0.000000 0.000000 -0.325311 0.000000 0.000000
# 5 0.000000 0.000000 0.000000 0.000000 0.051408 0.000000
# 6 0.000000 0.000000 0.000000 0.000000 0.000000 0.001811
#
#
# Mechanical properties :
#
#
# Convention : Reuss Voigt Hill
#
# Bulk Modulus (GPa) = 33.13511 35.83095 34.48303
# Shear Modulus (GPa) = -25.29461 125.03120 49.86830
#
# Velocity S-wave (km/s) = -3.82263 8.49881 5.36736
# Velocity P-wave (km/s) = 0.58432 10.81691 7.63754
#
# Compressibility (1/GPa) = 0.03017946
#
# Stress axis : x y z
#
# Youngs Moduli (GPa) = 80.69303 47.95678 71.29795
#
# Poissons Ratio (x) = 0.18163 0.21061
# Poissons Ratio (y) = 0.30561 0.12864
# Poissons Ratio (z) = 0.23836 0.08652
#
# Static dielectric constant tensor:
#      x y z
#    x 1.603270 0.000000 0.000000 
#    y 0.000000 1.570360 0.000000 
#    z 0.000000 0.000000 1.627850 
# 
# From -- ./inp_files/17882.got.cif
#   From: 2010.05.17/outbox.cif.g08.bks.cpg/sg47_9_cif.got.tgz:17882.got - 2010.06.03 20:15:42.
