data_PCOD9382547
_publ_section_title
;
Structure prediction by ZEFSAII (Michael W. Deem and Ramdas Pophale) SiO2 
 PCOD9382547
Probable space group: P M M M
;
_chemical_formula_sum "Si O2"
_cell_formula_units_Z 64
_cell_length_a 14.624784
_cell_length_b 8.896265
_cell_length_c 29.990456
_cell_angle_alpha 90.000000
_cell_angle_beta 90.000000
_cell_angle_gamma 90.000000
_cell_volume 3901.936890
_symmetry_space_group_name_H-M "P M M M"
_symmetry_group_IT_number 47
_symmetry_cell_setting 'orthorhombic'
loop_
_space_group_symop_operation_xyz
x,y,z
-x,-y,z
x,-y,-z
-x,y,-z
-x,-y,-z
x,y,-z
-x,y,z
x,-y,z
loop_
_atom_site_type_symbol
_atom_site_label
_atom_site_fract_x
_atom_site_fract_y
_atom_site_fract_z
Si Si1 0.604610 0.681127 0.274548
Si Si2 0.108905 0.675238 0.682853
Si Si3 0.110620 0.821873 0.952068
Si Si4 0.609320 0.823781 0.369638
Si Si5 0.783679 0.680940 0.227359
Si Si6 0.720448 0.320644 0.450271
Si Si7 0.893610 0.821461 0.588746
Si Si8 0.106984 0.817953 0.145818
O O1 0.500000 0.728430 0.265341
O O2 0.606179 0.500000 0.277898
O O3 0.632759 0.746240 0.322620
O O4 0.678900 0.724588 0.237544
O O5 0.211349 0.500000 0.777503
O O6 0.160872 0.720404 0.727585
O O7 0.129956 0.773327 0.639455
O O8 0.000000 0.684452 0.690708
O O9 0.138751 0.763402 0.903459
O O10 0.000000 0.811839 0.951778
O O11 0.132330 0.000000 0.952592
O O12 0.142242 0.757794 0.000000
O O13 0.500000 0.806662 0.375304
O O14 0.660580 0.751055 0.411177
O O15 0.631127 0.000000 0.367243
O O16 0.868453 0.500000 0.326853
O O17 0.830552 0.755854 0.185036
O O18 0.689037 0.277486 0.500000
O O19 0.717305 0.500000 0.446500
O O20 0.823613 0.263729 0.442870
O O21 0.000000 0.781187 0.581295
O O22 0.883905 0.000000 0.583627
O O23 0.000000 0.774622 0.152388
O O24 0.109273 0.000000 0.145682
#
# Coordination Sequence:
#
# PCOD9382547 Si02
#       8
#     8   8   8   8   8   8   8   8
#     4   9  18  33  52  72  94 122 156 189 221 266
#     4   9  17  29  45  65  90 121 155 185 215 263
#     4   7  10  19  36  56  79 111 152 193 228 265
#     4  10  21  37  58  82 103 121 144 181 231 280
#     4  10  19  29  43  64  91 123 154 185 225 268
#     4  11  24  39  55  75  98 126 158 188 220 265
#     4  10  21  36  54  75  97 122 154 194 237 274
#     4   9  17  27  40  62  91 122 156 192 229 270
#
# _framework density 16.402111000000001
#
# number of rings (size 3 to 8) (size 9 to 14) (size 15 to 20)
#    0.000    2.625    0.000    3.375    0.000    5.750 
#    0.000    3.750    0.000    0.375    0.000    1.750 
#    0.000    0.500    0.000    6.250    0.000    0.250 
#
# Total GULP energy -356808.488098 kJ/mol
# GULP energy per Si atom -5575.132627 kJ/mol
# Density = 1.636478 g / cm^3
# Si number density = 16.402111 Si / 1000 Ang^3
#
#
#
# Elastic Constant Matrix: (Units=GPa)
#
#
# Indices 1 2 3 4 5 6 
#
# 1 57.3860 22.5062 59.7635 0.0000 0.0000 0.0000
# 2 22.5062 17.0615 26.4922 0.0000 0.0000 0.0000
# 3 59.7635 26.4922 116.0909 0.0000 0.0000 0.0000
# 4 0.0000 0.0000 0.0000 21.7860 0.0000 0.0000
# 5 0.0000 0.0000 0.0000 0.0000 16.4430 0.0000
# 6 0.0000 0.0000 0.0000 0.0000 0.0000 19.9062
#
#
#
# Elastic Compliance Matrix: (Units=1/GPa)
#
#
# Indices 1 2 3 4 5 6 
#
# 1 0.051333 -0.041324 -0.016996 0.000000 0.000000 0.000000
# 2 -0.041324 0.124044 -0.007034 0.000000 0.000000 0.000000
# 3 -0.016996 -0.007034 0.018968 0.000000 0.000000 0.000000
# 4 0.000000 0.000000 0.000000 0.045901 0.000000 0.000000
# 5 0.000000 0.000000 0.000000 0.000000 0.060816 0.000000
# 6 0.000000 0.000000 0.000000 0.000000 0.000000 0.050236
#
#
# Mechanical properties :
#
#
# Convention : Reuss Voigt Hill
#
# Bulk Modulus (GPa) = 15.71369 45.34024 30.52697
# Shear Modulus (GPa) = 9.93605 17.07881 13.50743
#
# Velocity S-wave (km/s) = 2.46393 3.23035 2.87281
# Velocity P-wave (km/s) = 4.20662 6.45109 5.44574
#
# Compressibility (1/GPa) = 0.06363878
#
# Stress axis : x y z
#
# Youngs Moduli (GPa) = 19.48081 8.06163 52.71913
#
# Poissons Ratio (x) = 0.33314 0.89600
# Poissons Ratio (y) = 0.80502 0.37081
# Poissons Ratio (z) = 0.33109 0.05670
#
# Static dielectric constant tensor:
#      x y z
#    x 1.561630 0.000000 0.000000 
#    y 0.000000 1.553520 0.000000 
#    z 0.000000 0.000000 1.557200 
# 
# From -- ./inp_files/22130.got.cif
#   From: 2010.05.17/outbox.cif.g08.bks.cpg/sg47_12_cif.got.tgz:22130.got - 2010.06.03 20:15:42.
