data_PCOD9382235
_publ_section_title
;
Structure prediction by ZEFSAII (Michael W. Deem and Ramdas Pophale) SiO2 
 PCOD9382235
Probable space group: P M M M
;
_chemical_formula_sum "Si O2"
_cell_formula_units_Z 46
_cell_length_a 13.778027
_cell_length_b 21.819169
_cell_length_c 7.570819
_cell_angle_alpha 90.000000
_cell_angle_beta 90.000000
_cell_angle_gamma 90.000000
_cell_volume 2275.978216
_symmetry_space_group_name_H-M "P M M M"
_symmetry_group_IT_number 47
_symmetry_cell_setting 'orthorhombic'
loop_
_space_group_symop_operation_xyz
x,y,z
-x,-y,z
x,-y,-z
-x,y,-z
-x,-y,-z
x,y,-z
-x,y,z
x,-y,z
loop_
_atom_site_type_symbol
_atom_site_label
_atom_site_fract_x
_atom_site_fract_y
_atom_site_fract_z
Si Si1 0.388432 0.000000 0.210703
Si Si2 0.893504 0.428356 0.715149
Si Si3 0.170002 0.229643 0.711640
Si Si4 0.680457 0.866350 0.706436
Si Si5 0.500000 0.213843 0.809836
Si Si6 0.288091 0.349385 0.713248
Si Si7 0.000000 0.751284 0.000000
Si Si8 0.500000 0.653459 0.699544
O O1 0.333790 0.938223 0.264937
O O2 0.500000 0.000000 0.279636
O O3 0.394308 0.000000 0.000000
O O4 0.894003 0.424900 0.500000
O O5 0.886574 0.500000 0.761479
O O6 0.800847 0.390990 0.779152
O O7 0.000000 0.405115 0.774921
O O8 0.144692 0.232457 0.500000
O O9 0.217008 0.163657 0.756295
O O10 0.255313 0.279537 0.741470
O O11 0.084231 0.245779 0.843230
O O12 0.669340 0.853227 0.500000
O O13 0.592307 0.830088 0.794382
O O14 0.500000 0.272341 0.684897
O O15 0.500000 0.244429 0.000000
O O16 0.292017 0.357307 0.500000
O O17 0.395829 0.363170 0.781529
O O18 0.500000 0.627730 0.500000
#
# Coordination Sequence:
#
# PCOD9382235 Si02
#       8
#     4   8   8   8   4   8   2   4
#     4  11  23  35  55  89 125 156 189 235 283 339
#     4   8  14  25  44  72 107 147 192 245 301 351
#     4  10  23  40  61  88 117 153 196 245 302 361
#     4  11  22  38  59  84 119 158 193 233 287 355
#     4  12  22  31  53  81 119 153 192 236 283 346
#     4   9  17  30  51  79 114 152 195 237 287 355
#     4  12  26  40  64  85 121 146 190 260 314 354
#     4  10  18  32  50  75 112 158 189 228 290 352
#
# _framework density 20.211089999999999
#
# number of rings (size 3 to 8) (size 9 to 14) (size 15 to 20)
#    0.000    2.000    2.609    2.348    3.652    0.348 
#    0.000    0.435    0.000    3.652    0.000    3.652 
#    0.000    0.696    0.000    0.000    0.000    0.000 
#
# Total GULP energy -256171.262682 kJ/mol
# GULP energy per Si atom -5568.940493 kJ/mol
# Density = 2.016509 g / cm^3
# Si number density = 20.211090 Si / 1000 Ang^3
#
#
#
# Elastic Constant Matrix: (Units=GPa)
#
#
# Indices 1 2 3 4 5 6 
#
# 1 179.3439 50.1702 28.3302 0.0000 0.0000 0.0000
# 2 50.1702 68.2758 -7.2589 0.0000 0.0000 0.0000
# 3 28.3302 -7.2589 75.1409 0.0000 0.0000 0.0000
# 4 0.0000 0.0000 0.0000 -17.6806 0.0000 0.0000
# 5 0.0000 0.0000 0.0000 0.0000 50.5189 0.0000
# 6 0.0000 0.0000 0.0000 0.0000 0.0000 -6.9535
#
#
#
# Elastic Compliance Matrix: (Units=1/GPa)
#
#
# Indices 1 2 3 4 5 6 
#
# 1 0.007859 -0.006153 -0.003558 0.000000 0.000000 0.000000
# 2 -0.006153 0.019616 0.004215 0.000000 0.000000 0.000000
# 3 -0.003558 0.004215 0.015057 0.000000 0.000000 0.000000
# 4 0.000000 0.000000 0.000000 -0.056559 0.000000 0.000000
# 5 0.000000 0.000000 0.000000 0.000000 0.019795 0.000000
# 6 0.000000 0.000000 0.000000 0.000000 0.000000 -0.143813
#
#
# Mechanical properties :
#
#
# Convention : Reuss Voigt Hill
#
# Bulk Modulus (GPa) = 31.70541 51.69373 41.69957
# Shear Modulus (GPa) = -42.90357 21.94492 -10.47933
#
# Velocity S-wave (km/s) = -4.61236 3.29870 -2.27952
# Velocity P-wave (km/s) = 3.55583 6.33569 3.70790
#
# Compressibility (1/GPa) = 0.03154036
#
# Stress axis : x y z
#
# Youngs Moduli (GPa) = 127.23950 50.97841 66.41512
#
# Poissons Ratio (x) = 0.31369 0.23628
# Poissons Ratio (y) = 0.78294 -0.27994
# Poissons Ratio (z) = 0.45266 -0.21487
#
# Static dielectric constant tensor:
#      x y z
#    x 1.734720 0.000000 0.000000 
#    y 0.000000 1.730150 0.000000 
#    z 0.000000 0.000000 1.763520 
# 
# From -- ./inp_files/4396.got.cif
#   From: 2010.05.17/outbox.cif.g08.bks.cpg/sg47_3_cif.got.tgz:4396.got - 2010.06.03 20:15:42.
