data_PCOD9382704
_publ_section_title
;
Structure prediction by ZEFSAII (Michael W. Deem and Ramdas Pophale) SiO2 
 PCOD9382704
Probable space group: P M M M
;
_chemical_formula_sum "Si O2"
_cell_formula_units_Z 44
_cell_length_a 8.056110
_cell_length_b 14.204395
_cell_length_c 22.355010
_cell_angle_alpha 90.000000
_cell_angle_beta 90.000000
_cell_angle_gamma 90.000000
_cell_volume 2558.132273
_symmetry_space_group_name_H-M "P M M M"
_symmetry_group_IT_number 47
_symmetry_cell_setting 'orthorhombic'
loop_
_space_group_symop_operation_xyz
x,y,z
-x,-y,z
x,-y,-z
-x,y,-z
-x,-y,-z
x,y,-z
-x,y,z
x,-y,z
loop_
_atom_site_type_symbol
_atom_site_label
_atom_site_fract_x
_atom_site_fract_y
_atom_site_fract_z
Si Si1 0.699300 0.209287 0.066153
Si Si2 0.691852 0.385472 0.500000
Si Si3 0.700554 0.893882 0.814486
Si Si4 0.201072 0.606732 0.131600
Si Si5 0.699965 0.392471 0.629822
Si Si6 0.802362 0.711147 0.748466
O O1 0.500000 0.199053 0.064943
O O2 0.761369 0.145130 0.121036
O O3 0.739641 0.316654 0.083837
O O4 0.763591 0.186231 0.000000
O O5 0.689154 0.500000 0.500000
O O6 0.500000 0.352778 0.500000
O O7 0.765404 0.359606 0.564624
O O8 0.500000 0.895204 0.816501
O O9 0.751006 0.816778 0.765634
O O10 0.758949 0.000000 0.803514
O O11 0.257118 0.500000 0.121232
O O12 0.258246 0.644954 0.196634
O O13 0.000000 0.607200 0.131335
O O14 0.500000 0.396797 0.624659
O O15 0.758711 0.500000 0.641140
O O16 0.741709 0.326695 0.685185
O O17 0.000000 0.705872 0.748629
#
# Coordination Sequence:
#
# PCOD9382704 Si02
#       6
#     8   4   8   8   8   8
#     4   9  18  31  46  66  89 110 137 177 224 270
#     4   7  12  24  41  63  92 125 158 187 213 246
#     4   9  18  33  51  68  86 110 143 183 226 274
#     4   9  18  31  44  59  84 119 153 181 211 252
#     4   9  16  27  45  68  95 127 159 187 215 251
#     4  10  19  30  45  66  92 119 149 186 226 267
#
# _framework density 17.200047999999999
#
# number of rings (size 3 to 8) (size 9 to 14) (size 15 to 20)
#    0.000    3.000    0.000    2.182    0.000    3.636 
#    0.000    4.091    0.000    1.636    0.000    5.727 
#    0.000    5.091    0.000    0.000    0.000    0.000 
#
# Total GULP energy -245132.933773 kJ/mol
# GULP energy per Si atom -5571.203040 kJ/mol
# Density = 1.716090 g / cm^3
# Si number density = 17.200048 Si / 1000 Ang^3
#
#
#
# Elastic Constant Matrix: (Units=GPa)
#
#
# Indices 1 2 3 4 5 6 
#
# 1 11.0798 5.5775 9.2070 0.0000 0.0000 0.0000
# 2 5.5775 94.7730 54.6015 0.0000 0.0000 0.0000
# 3 9.2070 54.6015 142.3961 0.0000 0.0000 0.0000
# 4 0.0000 0.0000 0.0000 12.3753 0.0000 0.0000
# 5 0.0000 0.0000 0.0000 0.0000 6.6954 0.0000
# 6 0.0000 0.0000 0.0000 0.0000 0.0000 8.9786
#
#
#
# Elastic Compliance Matrix: (Units=1/GPa)
#
#
# Indices 1 2 3 4 5 6 
#
# 1 0.095898 -0.002659 -0.005181 0.000000 0.000000 0.000000
# 2 -0.002659 0.013617 -0.005050 0.000000 0.000000 0.000000
# 3 -0.005181 -0.005050 0.009294 0.000000 0.000000 0.000000
# 4 0.000000 0.000000 0.000000 0.080806 0.000000 0.000000
# 5 0.000000 0.000000 0.000000 0.000000 0.149357 0.000000
# 6 0.000000 0.000000 0.000000 0.000000 0.000000 0.111376
#
#
# Mechanical properties :
#
#
# Convention : Reuss Voigt Hill
#
# Bulk Modulus (GPa) = 10.74914 43.00234 26.87574
# Shear Modulus (GPa) = 9.66860 17.53403 13.60132
#
# Velocity S-wave (km/s) = 2.37349 3.19630 2.81512
# Velocity P-wave (km/s) = 3.71138 6.21911 5.12112
#
# Compressibility (1/GPa) = 0.09303068
#
# Stress axis : x y z
#
# Youngs Moduli (GPa) = 10.42769 73.43646 107.59728
#
# Poissons Ratio (x) = 0.19525 0.55747
# Poissons Ratio (y) = 0.02773 0.54332
# Poissons Ratio (z) = 0.05403 0.37082
#
# Static dielectric constant tensor:
#      x y z
#    x 1.608410 0.000000 0.000000 
#    y 0.000000 1.564490 0.000000 
#    z 0.000000 0.000000 1.610750 
# 
# From -- ./inp_files/6810.got.cif
#   From: 2010.05.17/outbox.cif.g08.bks.cpg/sg47_4_cif.got.tgz:6810.got - 2010.06.03 20:15:42.
