data_PCOD9382765
_publ_section_title
;
Structure prediction by ZEFSAII (Michael W. Deem and Ramdas Pophale) SiO2 
 PCOD9382765
Probable space group: P M M M
;
_chemical_formula_sum "Si O2"
_cell_formula_units_Z 58
_cell_length_a 28.280821
_cell_length_b 7.689855
_cell_length_c 14.940861
_cell_angle_alpha 90.000000
_cell_angle_beta 90.000000
_cell_angle_gamma 90.000000
_cell_volume 3249.269913
_symmetry_space_group_name_H-M "P M M M"
_symmetry_group_IT_number 47
_symmetry_cell_setting 'orthorhombic'
loop_
_space_group_symop_operation_xyz
x,y,z
-x,-y,z
x,-y,-z
-x,y,-z
-x,-y,-z
x,y,-z
-x,y,z
x,-y,z
loop_
_atom_site_type_symbol
_atom_site_label
_atom_site_fract_x
_atom_site_fract_y
_atom_site_fract_z
Si Si1 0.500000 0.000000 0.338126
Si Si2 0.192048 0.289008 0.900455
Si Si3 0.144593 0.789100 0.397293
Si Si4 0.675201 0.796978 0.399318
Si Si5 0.236376 0.295799 0.280735
Si Si6 0.570231 0.696495 0.607395
Si Si7 0.918558 0.205615 0.098180
Si Si8 0.948242 0.787102 0.291019
O O1 0.540965 0.153777 0.344746
O O2 0.190621 0.500000 0.897235
O O3 0.223424 0.225322 0.817778
O O4 0.137961 0.226848 0.890418
O O5 0.208272 0.237451 0.000000
O O6 0.147140 0.731219 0.500000
O O7 0.189977 0.731393 0.341314
O O8 0.096307 0.729877 0.349587
O O9 0.144589 0.000000 0.396942
O O10 0.689319 0.737451 0.500000
O O11 0.718197 0.776802 0.331300
O O12 0.626244 0.706734 0.373617
O O13 0.663717 0.000000 0.405011
O O14 0.244943 0.500000 0.271094
O O15 0.564465 0.727200 0.500000
O O16 0.554419 0.500000 0.626553
O O17 0.941988 0.274131 0.188472
O O18 0.929313 0.000000 0.095184
O O19 0.931200 0.278940 0.000000
O O20 0.000000 0.736314 0.325083
O O21 0.946715 0.000000 0.289873
#
# Coordination Sequence:
#
# PCOD9382765 Si02
#       8
#     2   8   8   8   8   8   8   8
#     4  12  19  30  48  70 102 144 191 234 275 312
#     4   9  18  32  49  69  93 120 150 187 235 293
#     4  10  20  33  48  66  88 117 156 197 238 288
#     4  10  20  34  49  68  99 136 173 215 259 300
#     4  11  21  32  50  72  93 122 158 198 245 299
#     4  10  19  30  46  69  99 138 186 233 272 313
#     4   9  16  27  46  69  90 112 141 182 232 289
#     4   9  17  29  45  66  91 115 144 188 239 290
#
# _framework density 17.850163999999999
#
# number of rings (size 3 to 8) (size 9 to 14) (size 15 to 20)
#    0.000    2.207    2.069    2.069    0.000    4.414 
#    0.000    2.759    0.000    1.655    0.000    2.897 
#    0.000    0.000    0.000    1.241    0.000   10.690 
#
# Total GULP energy -323118.489364 kJ/mol
# GULP energy per Si atom -5571.008437 kJ/mol
# Density = 1.780954 g / cm^3
# Si number density = 17.850164 Si / 1000 Ang^3
#
#
#
# Elastic Constant Matrix: (Units=GPa)
#
#
# Indices 1 2 3 4 5 6 
#
# 1 98.4919 10.9721 37.1371 0.0000 0.0000 0.0000
# 2 10.9721 54.6886 4.8136 0.0000 0.0000 0.0000
# 3 37.1371 4.8136 80.9374 0.0000 0.0000 0.0000
# 4 0.0000 0.0000 0.0000 10.4931 0.0000 0.0000
# 5 0.0000 0.0000 0.0000 0.0000 7.7760 0.0000
# 6 0.0000 0.0000 0.0000 0.0000 0.0000 65.3261
#
#
#
# Elastic Compliance Matrix: (Units=1/GPa)
#
#
# Indices 1 2 3 4 5 6 
#
# 1 0.012494 -0.002013 -0.005613 0.000000 0.000000 0.000000
# 2 -0.002013 0.018706 -0.000189 0.000000 0.000000 0.000000
# 3 -0.005613 -0.000189 0.014942 0.000000 0.000000 0.000000
# 4 0.000000 0.000000 0.000000 0.095301 0.000000 0.000000
# 5 0.000000 0.000000 0.000000 0.000000 0.128600 0.000000
# 6 0.000000 0.000000 0.000000 0.000000 0.000000 0.015308
#
#
# Mechanical properties :
#
#
# Convention : Reuss Voigt Hill
#
# Bulk Modulus (GPa) = 32.77363 37.77372 35.27368
# Shear Modulus (GPa) = 16.06943 28.79873 22.43408
#
# Velocity S-wave (km/s) = 3.00365 4.02102 3.54898
# Velocity P-wave (km/s) = 5.51630 6.53955 6.04959
#
# Compressibility (1/GPa) = 0.03051234
#
# Stress axis : x y z
#
# Youngs Moduli (GPa) = 80.04041 53.45949 66.92607
#
# Poissons Ratio (x) = 0.10759 0.37565
# Poissons Ratio (y) = 0.16108 0.01265
# Poissons Ratio (z) = 0.44926 0.01011
#
# Static dielectric constant tensor:
#      x y z
#    x 1.595230 0.000000 0.000000 
#    y 0.000000 1.666070 0.000000 
#    z 0.000000 0.000000 1.623090 
# 
# From -- ./inp_files/25759.got.cif
#   From: 2010.05.17/outbox.cif.g08.bks.cpg/sg47_13_cif.got.tgz:25759.got - 2010.06.03 20:15:42.
