data_PCOD9382652
_publ_section_title
;
Structure prediction by ZEFSAII (Michael W. Deem and Ramdas Pophale) SiO2 
 PCOD9382652
Probable space group: P M M M
;
_chemical_formula_sum "Si O2"
_cell_formula_units_Z 44
_cell_length_a 12.879094
_cell_length_b 25.828894
_cell_length_c 8.985171
_cell_angle_alpha 90.000000
_cell_angle_beta 90.000000
_cell_angle_gamma 90.000000
_cell_volume 2988.941876
_symmetry_space_group_name_H-M "P M M M"
_symmetry_group_IT_number 47
_symmetry_cell_setting 'orthorhombic'
loop_
_space_group_symop_operation_xyz
x,y,z
-x,-y,z
x,-y,-z
-x,y,-z
-x,-y,-z
x,y,-z
-x,y,z
x,-y,z
loop_
_atom_site_type_symbol
_atom_site_label
_atom_site_fract_x
_atom_site_fract_y
_atom_site_fract_z
Si Si1 0.124744 0.775074 0.824604
Si Si2 0.126394 0.331624 0.326517
Si Si3 0.122433 0.444184 0.680874
Si Si4 0.000000 0.938203 0.176576
Si Si5 0.806518 0.120743 0.323077
Si Si6 0.378340 0.060738 0.822942
O O1 0.157112 0.718373 0.767285
O O2 0.179150 0.820970 0.735589
O O3 0.000000 0.779893 0.800330
O O4 0.143729 0.780506 0.000000
O O5 0.155550 0.324943 0.500000
O O6 0.164151 0.388096 0.270678
O O7 0.000000 0.333796 0.323144
O O8 0.127002 0.443161 0.500000
O O9 0.166975 0.500000 0.729842
O O10 0.000000 0.445077 0.719753
O O11 0.898726 0.912802 0.249345
O O12 0.000000 0.000000 0.197279
O O13 0.000000 0.927194 0.000000
O O14 0.815894 0.119076 0.500000
O O15 0.698633 0.096368 0.268915
O O16 0.500000 0.070489 0.793288
O O17 0.357891 0.000000 0.791182
O O18 0.360782 0.068250 0.000000
#
# Coordination Sequence:
#
# PCOD9382652 Si02
#       6
#     8   8   8   4   8   8
#     4  10  19  30  43  57  80 114 149 181 217 265
#     4   8  13  21  34  51  72  98 133 177 217 253
#     4   7   9  14  26  45  67  92 125 167 213 255
#     4  11  23  37  51  67  91 121 148 175 214 267
#     4  12  23  33  49  71  94 117 145 184 224 261
#     4   9  19  37  58  75  92 117 146 174 210 262
#
# _framework density 14.720928000000001
#
# number of rings (size 3 to 8) (size 9 to 14) (size 15 to 20)
#    0.000    2.636    0.909    5.182    0.000    4.364 
#    0.000    0.909    0.000    0.545    0.000    3.818 
#    0.000    0.000    0.000    0.000    0.000    0.909 
#
# Total GULP energy -245062.438102 kJ/mol
# GULP energy per Si atom -5569.600866 kJ/mol
# Density = 1.468742 g / cm^3
# Si number density = 14.720928 Si / 1000 Ang^3
#
#
#
# Elastic Constant Matrix: (Units=GPa)
#
#
# Indices 1 2 3 4 5 6 
#
# 1 31.1932 44.1181 31.7154 0.0000 0.0000 0.0000
# 2 44.1181 146.2468 71.6739 0.0000 0.0000 0.0000
# 3 31.7154 71.6739 68.5663 0.0000 0.0000 0.0000
# 4 0.0000 0.0000 0.0000 55.9957 0.0000 0.0000
# 5 0.0000 0.0000 0.0000 0.0000 9.2589 0.0000
# 6 0.0000 0.0000 0.0000 0.0000 0.0000 5.0059
#
#
#
# Elastic Compliance Matrix: (Units=1/GPa)
#
#
# Indices 1 2 3 4 5 6 
#
# 1 0.067397 -0.010362 -0.020343 0.000000 0.000000 0.000000
# 2 -0.010362 0.015613 -0.011528 0.000000 0.000000 0.000000
# 3 -0.020343 -0.011528 0.036045 0.000000 0.000000 0.000000
# 4 0.000000 0.000000 0.000000 0.017859 0.000000 0.000000
# 5 0.000000 0.000000 0.000000 0.000000 0.108004 0.000000
# 6 0.000000 0.000000 0.000000 0.000000 0.000000 0.199764
#
#
# Mechanical properties :
#
#
# Convention : Reuss Voigt Hill
#
# Bulk Modulus (GPa) = 28.91085 60.11345 44.51215
# Shear Modulus (GPa) = 9.24764 20.61869 14.93316
#
# Velocity S-wave (km/s) = 2.50910 3.74657 3.18845
# Velocity P-wave (km/s) = 5.29868 7.72268 6.62253
#
# Compressibility (1/GPa) = 0.03458909
#
# Stress axis : x y z
#
# Youngs Moduli (GPa) = 14.83741 64.04760 27.74301
#
# Poissons Ratio (x) = 0.66363 0.56439
# Poissons Ratio (y) = 0.15374 0.31983
# Poissons Ratio (z) = 0.30184 0.73836
#
# Static dielectric constant tensor:
#      x y z
#    x 1.455000 0.000000 0.000000 
#    y 0.000000 1.527870 0.000000 
#    z 0.000000 0.000000 1.486880 
# 
# From -- ./inp_files/4341.got.cif
#   From: 2010.05.17/outbox.cif.g08.bks.cpg/sg47_3_cif.got.tgz:4341.got - 2010.06.03 20:15:42.
