data_PCOD9382107
_publ_section_title
;
Structure prediction by ZEFSAII (Michael W. Deem and Ramdas Pophale) SiO2 
 PCOD9382107
Probable space group: P M M M
;
_chemical_formula_sum "Si O2"
_cell_formula_units_Z 52
_cell_length_a 29.471914
_cell_length_b 7.555004
_cell_length_c 12.189830
_cell_angle_alpha 90.000000
_cell_angle_beta 90.000000
_cell_angle_gamma 90.000000
_cell_volume 2714.192767
_symmetry_space_group_name_H-M "P M M M"
_symmetry_group_IT_number 47
_symmetry_cell_setting 'orthorhombic'
loop_
_space_group_symop_operation_xyz
x,y,z
-x,-y,z
x,-y,-z
-x,y,-z
-x,-y,-z
x,y,-z
-x,y,z
x,-y,z
loop_
_atom_site_type_symbol
_atom_site_label
_atom_site_fract_x
_atom_site_fract_y
_atom_site_fract_z
Si Si1 0.400330 0.710378 0.373311
Si Si2 0.688845 0.295303 0.270359
Si Si3 0.160103 0.215593 0.500000
Si Si4 0.265920 0.213392 0.500000
Si Si5 0.771544 0.286589 0.874411
Si Si6 0.500000 0.789400 0.624714
Si Si7 0.136853 0.212334 0.738850
Si Si8 0.949607 0.216032 0.873046
O O1 0.397688 0.780508 0.500000
O O2 0.392579 0.500000 0.381678
O O3 0.360976 0.783255 0.294327
O O4 0.451246 0.736071 0.329003
O O5 0.682539 0.500000 0.236868
O O6 0.711554 0.286687 0.390452
O O7 0.726039 0.218492 0.186553
O O8 0.213172 0.259614 0.500000
O O9 0.139635 0.279552 0.614410
O O10 0.157306 0.000000 0.500000
O O11 0.270453 0.000000 0.500000
O O12 0.768558 0.500000 0.876930
O O13 0.816410 0.245334 0.803999
O O14 0.775481 0.223644 0.000000
O O15 0.500000 0.715616 0.500000
O O16 0.500000 0.000000 0.619529
O O17 0.092903 0.280176 0.803133
O O18 0.132445 0.000000 0.732849
O O19 0.000000 0.270441 0.835378
O O20 0.949029 0.000000 0.871391
O O21 0.944358 0.268493 0.000000
#
# Coordination Sequence:
#
# PCOD9382107 Si02
#       8
#     8   8   4   4   8   4   8   8
#     4   9  16  27  43  62  86 119 155 186 218 267
#     4  10  19  32  48  67  93 126 160 188 226 281
#     4   9  18  29  42  67  97 120 151 191 228 270
#     4  11  19  29  45  67  96 123 152 194 232 266
#     4  10  21  34  48  69  96 122 152 194 235 272
#     4   9  17  27  39  61  92 121 148 184 231 272
#     4  10  18  31  49  68  93 125 155 189 232 280
#     4   8  14  25  43  67  90 115 154 199 236 272
#
# _framework density 19.158549000000001
#
# number of rings (size 3 to 8) (size 9 to 14) (size 15 to 20)
#    0.000    2.538    2.308    1.385    0.000    2.462 
#    0.000    0.769    0.000    2.769    0.000    2.692 
#    0.000    5.538    0.000    0.000    0.000    0.000 
#
# Total GULP energy -289922.003556 kJ/mol
# GULP energy per Si atom -5575.423145 kJ/mol
# Density = 1.911494 g / cm^3
# Si number density = 19.158549 Si / 1000 Ang^3
#
#
#
# Elastic Constant Matrix: (Units=GPa)
#
#
# Indices 1 2 3 4 5 6 
#
# 1 199.9191 3.3910 86.6270 0.0000 0.0000 0.0000
# 2 3.3910 48.1294 -2.2353 0.0000 0.0000 0.0000
# 3 86.6270 -2.2353 118.3385 0.0000 0.0000 0.0000
# 4 0.0000 0.0000 0.0000 -81.7677 0.0000 0.0000
# 5 0.0000 0.0000 0.0000 0.0000 12.2549 0.0000
# 6 0.0000 0.0000 0.0000 0.0000 0.0000 13.1808
#
#
#
# Elastic Compliance Matrix: (Units=1/GPa)
#
#
# Indices 1 2 3 4 5 6 
#
# 1 0.007354 -0.000769 -0.005398 0.000000 0.000000 0.000000
# 2 -0.000769 0.020876 0.000957 0.000000 0.000000 0.000000
# 3 -0.005398 0.000957 0.012420 0.000000 0.000000 0.000000
# 4 0.000000 0.000000 0.000000 -0.012230 0.000000 0.000000
# 5 0.000000 0.000000 0.000000 0.000000 0.081600 0.000000
# 6 0.000000 0.000000 0.000000 0.000000 0.000000 0.075868
#
#
# Mechanical properties :
#
#
# Convention : Reuss Voigt Hill
#
# Bulk Modulus (GPa) = 33.07904 60.21693 46.64799
# Shear Modulus (GPa) = 24.22671 7.30722 15.76697
#
# Velocity S-wave (km/s) = 3.55989 1.95508 2.87186
# Velocity P-wave (km/s) = 5.84812 6.04943 5.94963
#
# Compressibility (1/GPa) = 0.03023063
#
# Stress axis : x y z
#
# Youngs Moduli (GPa) = 135.98014 47.90204 80.51659
#
# Poissons Ratio (x) = 0.03683 0.43462
# Poissons Ratio (y) = 0.10455 -0.07707
# Poissons Ratio (z) = 0.73400 -0.04585
#
# Static dielectric constant tensor:
#      x y z
#    x 1.694210 0.000000 0.000000 
#    y 0.000000 1.727850 0.000000 
#    z 0.000000 0.000000 1.654470 
# 
# From -- ./inp_files/15541.got.cif
#   From: 2010.05.17/outbox.cif.g08.bks.cpg/sg47_8_cif.got.tgz:15541.got - 2010.06.03 20:15:42.
