data_PCOD9382827
_publ_section_title
;
Structure prediction by ZEFSAII (Michael W. Deem and Ramdas Pophale) SiO2 
 PCOD9382827
Probable space group: P M M M
;
_chemical_formula_sum "Si O2"
_cell_formula_units_Z 45
_cell_length_a 7.895691
_cell_length_b 21.967489
_cell_length_c 14.456877
_cell_angle_alpha 90.000000
_cell_angle_beta 90.000000
_cell_angle_gamma 90.000000
_cell_volume 2507.523705
_symmetry_space_group_name_H-M "P M M M"
_symmetry_group_IT_number 47
_symmetry_cell_setting 'orthorhombic'
loop_
_space_group_symop_operation_xyz
x,y,z
-x,-y,z
x,-y,-z
-x,y,-z
-x,-y,-z
x,y,-z
-x,y,z
x,-y,z
loop_
_atom_site_type_symbol
_atom_site_label
_atom_site_fract_x
_atom_site_fract_y
_atom_site_fract_z
Si Si1 0.296999 0.874287 0.224048
Si Si2 0.798762 0.316168 0.281702
Si Si3 0.500000 0.000000 0.000000
Si Si4 0.189356 0.000000 0.146880
Si Si5 0.205141 0.241577 0.894672
Si Si6 0.295864 0.430399 0.604392
Si Si7 0.298243 0.201931 0.397522
O O1 0.500000 0.882728 0.228464
O O2 0.210049 0.938002 0.204328
O O3 0.261097 0.824188 0.144332
O O4 0.233382 0.843688 0.319006
O O5 0.737004 0.291666 0.181457
O O6 0.756926 0.383418 0.316680
O O7 0.729258 0.269373 0.358004
O O8 0.000000 0.309742 0.280439
O O9 0.650998 0.000000 0.921433
O O10 0.000000 0.000000 0.105694
O O11 0.000000 0.242166 0.895986
O O12 0.264112 0.251381 0.000000
O O13 0.238400 0.412345 0.500000
O O14 0.500000 0.430650 0.602303
O O15 0.239331 0.500000 0.620558
O O16 0.226521 0.194700 0.500000
O O17 0.500000 0.192397 0.402293
#
# Coordination Sequence:
#
# PCOD9382827 Si02
#       7
#     8   8   1   4   8   8   8
#     4  10  20  36  54  78 110 138 175 224 265 316
#     4  10  19  30  47  74 103 129 163 213 262 303
#     4  12  26  44  60  86 106 144 190 220 262 342
#     4  12  25  41  60  83 114 144 176 226 280 326
#     4   9  19  34  51  71  98 134 172 209 257 314
#     4   9  18  32  49  69  96 131 166 198 241 304
#     4   9  18  33  54  76 102 142 182 214 256 310
#
# _framework density 17.945992
#
# number of rings (size 3 to 8) (size 9 to 14) (size 15 to 20)
#    0.000    2.311    0.889    2.267    1.244    4.978 
#    0.000    1.333    0.000    3.200    0.000    3.733 
#    0.000    0.000    0.000    0.000    0.000    0.000 
#
# Total GULP energy -250643.848803 kJ/mol
# GULP energy per Si atom -5569.863307 kJ/mol
# Density = 1.790515 g / cm^3
# Si number density = 17.945992 Si / 1000 Ang^3
#
#
#
# Elastic Constant Matrix: (Units=GPa)
#
#
# Indices 1 2 3 4 5 6 
#
# 1 48.4987 4.8365 16.8051 0.0000 0.0000 0.0000
# 2 4.8365 111.4517 70.8367 0.0000 0.0000 0.0000
# 3 16.8051 70.8367 145.4972 0.0000 0.0000 0.0000
# 4 0.0000 0.0000 0.0000 27.7373 0.0000 0.0000
# 5 0.0000 0.0000 0.0000 0.0000 12.0524 0.0000
# 6 0.0000 0.0000 0.0000 0.0000 0.0000 -46.8208
#
#
#
# Elastic Compliance Matrix: (Units=1/GPa)
#
#
# Indices 1 2 3 4 5 6 
#
# 1 0.021546 0.000936 -0.002945 0.000000 0.000000 0.000000
# 2 0.000936 0.013034 -0.006454 0.000000 0.000000 0.000000
# 3 -0.002945 -0.006454 0.010355 0.000000 0.000000 0.000000
# 4 0.000000 0.000000 0.000000 0.036053 0.000000 0.000000
# 5 0.000000 0.000000 0.000000 0.000000 0.082971 0.000000
# 6 0.000000 0.000000 0.000000 0.000000 0.000000 -0.021358
#
#
# Mechanical properties :
#
#
# Convention : Reuss Voigt Hill
#
# Bulk Modulus (GPa) = 35.69986 54.48935 45.09461
# Shear Modulus (GPa) = 29.61010 12.79173 21.20091
#
# Velocity S-wave (km/s) = 4.06637 2.67271 3.44084
# Velocity P-wave (km/s) = 6.47945 6.32087 6.40065
#
# Compressibility (1/GPa) = 0.02801131
#
# Stress axis : x y z
#
# Youngs Moduli (GPa) = 46.41227 76.72378 96.57017
#
# Poissons Ratio (x) = -0.07185 0.28435
# Poissons Ratio (y) = -0.04346 0.62324
# Poissons Ratio (z) = 0.13666 0.49516
#
# Static dielectric constant tensor:
#      x y z
#    x 1.646180 0.000000 0.000000 
#    y 0.000000 1.611570 0.000000 
#    z 0.000000 0.000000 1.638030 
# 
# From -- ./inp_files/21345.got.cif
#   From: 2010.05.17/outbox.cif.g08.bks.cpg/sg47_11_cif.got.tgz:21345.got - 2010.06.03 20:15:42.
