data_PCOD9382503
_publ_section_title
;
Structure prediction by ZEFSAII (Michael W. Deem and Ramdas Pophale) SiO2 
 PCOD9382503
Probable space group: P M M M
;
_chemical_formula_sum "Si O2"
_cell_formula_units_Z 48
_cell_length_a 7.638417
_cell_length_b 14.168473
_cell_length_c 24.878122
_cell_angle_alpha 90.000000
_cell_angle_beta 90.000000
_cell_angle_gamma 90.000000
_cell_volume 2692.427415
_symmetry_space_group_name_H-M "P M M M"
_symmetry_group_IT_number 47
_symmetry_cell_setting 'orthorhombic'
loop_
_space_group_symop_operation_xyz
x,y,z
-x,-y,z
x,-y,-z
-x,y,-z
-x,-y,-z
x,y,-z
-x,y,z
x,-y,z
loop_
_atom_site_type_symbol
_atom_site_label
_atom_site_fract_x
_atom_site_fract_y
_atom_site_fract_z
Si Si1 0.207004 0.800061 0.713004
Si Si2 0.704516 0.896367 0.605666
Si Si3 0.710045 0.886389 0.057824
Si Si4 0.711669 0.108936 0.174578
Si Si5 0.206605 0.396705 0.669716
Si Si6 0.712561 0.697903 0.439815
O O1 0.284802 0.871660 0.669033
O O2 0.235973 0.832313 0.773581
O O3 0.278502 0.695178 0.700536
O O4 0.000000 0.799401 0.702061
O O5 0.500000 0.900852 0.590759
O O6 0.775985 0.803742 0.575670
O O7 0.781567 0.000000 0.595067
O O8 0.500000 0.870703 0.056996
O O9 0.774863 0.853799 0.116257
O O10 0.734545 0.000000 0.058476
O O11 0.779731 0.851653 0.000000
O O12 0.500000 0.107242 0.172583
O O13 0.770256 0.000000 0.181054
O O14 0.282033 0.500000 0.681542
O O15 0.226783 0.371905 0.606825
O O16 0.000000 0.400600 0.682002
O O17 0.767009 0.673081 0.500000
O O18 0.500000 0.698742 0.438033
#
# Coordination Sequence:
#
# PCOD9382503 Si02
#       6
#     8   8   8   8   8   8
#     4  10  19  29  42  60  81 104 133 170 207 241
#     4   9  17  29  44  60  81 111 140 162 188 227
#     4   7  10  18  33  53  77 107 143 174 192 213
#     4   9  16  25  39  60  86 115 142 166 194 230
#     4   9  19  35  50  61  76 102 134 166 203 247
#     4   9  18  31  46  66  88 105 126 160 199 238
#
# _framework density 17.827779
#
# number of rings (size 3 to 8) (size 9 to 14) (size 15 to 20)
#    0.000    3.167    0.000    2.500    0.000    4.667 
#    0.000    3.333    0.000    0.500    0.000    7.000 
#    0.000    0.667    0.000    8.333    0.000    0.333 
#
# Total GULP energy -267312.264613 kJ/mol
# GULP energy per Si atom -5569.005513 kJ/mol
# Density = 1.778720 g / cm^3
# Si number density = 17.827779 Si / 1000 Ang^3
#
#
#
# Elastic Constant Matrix: (Units=GPa)
#
#
# Indices 1 2 3 4 5 6 
#
# 1 34.3760 -0.1746 -12.9906 0.0000 0.0000 0.0000
# 2 -0.1746 69.0651 9.1918 0.0000 0.0000 0.0000
# 3 -12.9906 9.1918 92.2150 0.0000 0.0000 0.0000
# 4 0.0000 0.0000 0.0000 8.2437 0.0000 0.0000
# 5 0.0000 0.0000 0.0000 0.0000 -142.7950 0.0000
# 6 0.0000 0.0000 0.0000 0.0000 0.0000 9.7500
#
#
#
# Elastic Compliance Matrix: (Units=1/GPa)
#
#
# Indices 1 2 3 4 5 6 
#
# 1 0.030743 -0.000505 0.004381 0.000000 0.000000 0.000000
# 2 -0.000505 0.014682 -0.001535 0.000000 0.000000 0.000000
# 3 0.004381 -0.001535 0.011614 0.000000 0.000000 0.000000
# 4 0.000000 0.000000 0.000000 0.121304 0.000000 0.000000
# 5 0.000000 0.000000 0.000000 0.000000 -0.007003 0.000000
# 6 0.000000 0.000000 0.000000 0.000000 0.000000 0.102564
#
#
# Mechanical properties :
#
#
# Convention : Reuss Voigt Hill
#
# Bulk Modulus (GPa) = 16.20169 20.85660 18.52915
# Shear Modulus (GPa) = 17.25349 -11.65162 2.80094
#
# Velocity S-wave (km/s) = 3.11430 -2.55927 1.25480
# Velocity P-wave (km/s) = 4.69462 1.72951 3.53770
#
# Compressibility (1/GPa) = 0.06172195
#
# Stress axis : x y z
#
# Youngs Moduli (GPa) = 32.52761 68.11037 86.10011
#
# Poissons Ratio (x) = 0.03442 -0.37723
# Poissons Ratio (y) = 0.01644 0.13213
# Poissons Ratio (z) = -0.14251 0.10453
#
# Static dielectric constant tensor:
#      x y z
#    x 1.675970 0.000000 0.000000 
#    y 0.000000 1.616990 0.000000 
#    z 0.000000 0.000000 1.633620 
# 
# From -- ./inp_files/7510.got.cif
#   From: 2010.05.17/outbox.cif.g08.bks.cpg/sg47_4_cif.got.tgz:7510.got - 2010.06.03 20:15:42.
