data_PCOD9382095
_publ_section_title
;
Structure prediction by ZEFSAII (Michael W. Deem and Ramdas Pophale) SiO2 
 PCOD9382095
Probable space group: P M M M
;
_chemical_formula_sum "Si O2"
_cell_formula_units_Z 52
_cell_length_a 9.730480
_cell_length_b 21.699862
_cell_length_c 15.962453
_cell_angle_alpha 90.000000
_cell_angle_beta 90.000000
_cell_angle_gamma 90.000000
_cell_volume 3370.473119
_symmetry_space_group_name_H-M "P M M M"
_symmetry_group_IT_number 47
_symmetry_cell_setting 'orthorhombic'
loop_
_space_group_symop_operation_xyz
x,y,z
-x,-y,z
x,-y,-z
-x,y,-z
-x,-y,-z
x,y,-z
-x,y,z
x,-y,z
loop_
_atom_site_type_symbol
_atom_site_label
_atom_site_fract_x
_atom_site_fract_y
_atom_site_fract_z
Si Si1 0.840242 0.350877 0.838272
Si Si2 0.664934 0.724000 0.500000
Si Si3 0.662076 0.166525 0.763236
Si Si4 0.843820 0.153321 0.500000
Si Si5 0.848806 0.789126 0.098498
Si Si6 0.833092 0.571776 0.000000
Si Si7 0.664312 0.698184 0.312516
Si Si8 0.840667 0.072137 0.333940
O O1 0.840982 0.283298 0.880529
O O2 0.749502 0.342907 0.754049
O O3 0.000000 0.366319 0.817753
O O4 0.788830 0.395861 0.912736
O O5 0.500000 0.733354 0.500000
O O6 0.739503 0.790054 0.500000
O O7 0.698854 0.691028 0.411290
O O8 0.500000 0.158552 0.763461
O O9 0.725751 0.178845 0.853770
O O10 0.692697 0.229706 0.710937
O O11 0.738636 0.107766 0.726563
O O12 0.828329 0.109201 0.420497
O O13 0.000000 0.178476 0.500000
O O14 0.000000 0.810344 0.129109
O O15 0.842072 0.797914 0.000000
O O16 0.796721 0.500000 0.000000
O O17 0.000000 0.577549 0.000000
O O18 0.500000 0.688452 0.301562
O O19 0.000000 0.077490 0.306451
O O20 0.809854 0.000000 0.343939
#
# Coordination Sequence:
#
# PCOD9382095 Si02
#       8
#     8   4   8   4   8   4   8   8
#     4   9  16  28  46  70  98 127 160 194 224 270
#     4  10  18  31  47  65  95 127 156 192 240 291
#     4  10  19  30  45  66  90 116 150 190 235 282
#     4  10  19  30  46  66  88 115 151 191 230 276
#     4   9  16  28  47  68  92 120 150 184 227 277
#     4   9  16  28  49  77 107 137 164 191 230 275
#     4   9  18  30  45  65  93 127 157 193 238 281
#     4  10  20  33  47  63  86 117 152 189 231 281
#
# _framework density 15.428101
#
# number of rings (size 3 to 8) (size 9 to 14) (size 15 to 20)
#    0.000    2.538    2.308    0.692    0.000    2.769 
#    0.000    0.385    0.000    2.769    0.000    3.769 
#    0.000    4.308    0.000    0.000    0.000    0.000 
#
# Total GULP energy -289509.995355 kJ/mol
# GULP energy per Si atom -5567.499911 kJ/mol
# Density = 1.539299 g / cm^3
# Si number density = 15.428101 Si / 1000 Ang^3
#
#
#
# Elastic Constant Matrix: (Units=GPa)
#
#
# Indices 1 2 3 4 5 6 
#
# 1 49.1804 36.1627 50.1303 0.0000 0.0000 0.0000
# 2 36.1627 54.4684 43.4175 0.0000 0.0000 0.0000
# 3 50.1303 43.4175 115.0434 0.0000 0.0000 0.0000
# 4 0.0000 0.0000 0.0000 -10.1735 0.0000 0.0000
# 5 0.0000 0.0000 0.0000 0.0000 22.7072 0.0000
# 6 0.0000 0.0000 0.0000 0.0000 0.0000 11.9789
#
#
#
# Elastic Compliance Matrix: (Units=1/GPa)
#
#
# Indices 1 2 3 4 5 6 
#
# 1 0.051208 -0.023186 -0.013563 0.000000 0.000000 0.000000
# 2 -0.023186 0.036757 -0.003769 0.000000 0.000000 0.000000
# 3 -0.013563 -0.003769 0.016025 0.000000 0.000000 0.000000
# 4 0.000000 0.000000 0.000000 -0.098295 0.000000 0.000000
# 5 0.000000 0.000000 0.000000 0.000000 0.044039 0.000000
# 6 0.000000 0.000000 0.000000 0.000000 0.000000 0.083480
#
#
# Mechanical properties :
#
#
# Convention : Reuss Voigt Hill
#
# Bulk Modulus (GPa) = 43.56705 53.12368 48.34537
# Shear Modulus (GPa) = 22.53255 10.83465 16.68360
#
# Velocity S-wave (km/s) = 3.82578 2.65291 3.29200
# Velocity P-wave (km/s) = 6.91488 6.62508 6.77153
#
# Compressibility (1/GPa) = 0.02295313
#
# Stress axis : x y z
#
# Youngs Moduli (GPa) = 19.52837 27.20552 62.40287
#
# Poissons Ratio (x) = 0.63080 0.84639
# Poissons Ratio (y) = 0.45279 0.23518
# Poissons Ratio (z) = 0.26487 0.10253
#
# Static dielectric constant tensor:
#      x y z
#    x 1.521400 0.000000 0.000000 
#    y 0.000000 1.484160 0.000000 
#    z 0.000000 0.000000 1.537010 
# 
# From -- ./inp_files/21831.got.cif
#   From: 2010.05.17/outbox.cif.g08.bks.cpg/sg47_11_cif.got.tgz:21831.got - 2010.06.03 20:15:42.
