data_PCOD9382707
_publ_section_title
;
Structure prediction by ZEFSAII (Michael W. Deem and Ramdas Pophale) SiO2 
 PCOD9382707
Probable space group: P M M M
;
_chemical_formula_sum "Si O2"
_cell_formula_units_Z 52
_cell_length_a 26.890045
_cell_length_b 9.069167
_cell_length_c 14.015366
_cell_angle_alpha 90.000000
_cell_angle_beta 90.000000
_cell_angle_gamma 90.000000
_cell_volume 3417.931634
_symmetry_space_group_name_H-M "P M M M"
_symmetry_group_IT_number 47
_symmetry_cell_setting 'orthorhombic'
loop_
_space_group_symop_operation_xyz
x,y,z
-x,-y,z
x,-y,-z
-x,y,-z
-x,-y,-z
x,y,-z
-x,y,z
x,-y,z
loop_
_atom_site_type_symbol
_atom_site_label
_atom_site_fract_x
_atom_site_fract_y
_atom_site_fract_z
Si Si1 0.799704 0.676419 0.889969
Si Si2 0.500000 0.669738 0.884244
Si Si3 0.397061 0.824046 0.113557
Si Si4 0.696222 0.675943 0.215150
Si Si5 0.748909 0.176930 0.389282
Si Si6 0.056893 0.677044 0.611947
Si Si7 0.148306 0.175717 0.283907
O O1 0.807100 0.500000 0.882254
O O2 0.743693 0.707032 0.853265
O O3 0.836622 0.758196 0.818273
O O4 0.805330 0.719667 0.000000
O O5 0.500000 0.500000 0.852032
O O6 0.550319 0.753533 0.856171
O O7 0.500000 0.668982 0.000000
O O8 0.352105 0.752483 0.171653
O O9 0.398163 0.000000 0.125887
O O10 0.390277 0.793899 0.000000
O O11 0.689558 0.500000 0.219667
O O12 0.711792 0.740470 0.317825
O O13 0.742796 0.216479 0.500000
O O14 0.804946 0.211403 0.353528
O O15 0.742358 0.000000 0.379599
O O16 0.064322 0.713366 0.500000
O O17 0.061311 0.500000 0.621007
O O18 0.098332 0.755125 0.674622
O O19 0.000000 0.717285 0.637011
O O20 0.144157 0.000000 0.278679
#
# Coordination Sequence:
#
# PCOD9382707 Si02
#       7
#     8   4   8   8   8   8   8
#     4   9  18  32  48  66  91 124 159 191 224 267
#     4   9  17  29  45  65  90 121 156 193 231 269
#     4  10  19  30  45  66  94 126 157 189 228 275
#     4  10  19  30  46  69  94 120 154 193 230 269
#     4   9  18  32  47  65  93 125 154 185 224 272
#     4   9  18  32  49  69  93 121 152 185 223 270
#     4  10  19  30  47  71  96 121 150 186 229 274
#
# _framework density 15.213879
#
# number of rings (size 3 to 8) (size 9 to 14) (size 15 to 20)
#    0.000    2.538    0.000    3.000    0.000    5.538 
#    0.000    0.769    0.000    0.462    0.000    3.769 
#    0.000    4.308    0.000    0.000    0.000    0.000 
#
# Total GULP energy -290007.193345 kJ/mol
# GULP energy per Si atom -5577.061410 kJ/mol
# Density = 1.517925 g / cm^3
# Si number density = 15.213879 Si / 1000 Ang^3
#
#
#
# Elastic Constant Matrix: (Units=GPa)
#
#
# Indices 1 2 3 4 5 6 
#
# 1 145.9603 71.6785 83.8152 0.0000 0.0000 0.0000
# 2 71.6785 61.6333 61.7095 0.0000 0.0000 0.0000
# 3 83.8152 61.7095 120.7597 0.0000 0.0000 0.0000
# 4 0.0000 0.0000 0.0000 22.0736 0.0000 0.0000
# 5 0.0000 0.0000 0.0000 0.0000 25.4649 0.0000
# 6 0.0000 0.0000 0.0000 0.0000 0.0000 28.8204
#
#
#
# Elastic Compliance Matrix: (Units=1/GPa)
#
#
# Indices 1 2 3 4 5 6 
#
# 1 0.016628 -0.015937 -0.003397 0.000000 0.000000 0.000000
# 2 -0.015937 0.048498 -0.013722 0.000000 0.000000 0.000000
# 3 -0.003397 -0.013722 0.017651 0.000000 0.000000 0.000000
# 4 0.000000 0.000000 0.000000 0.045303 0.000000 0.000000
# 5 0.000000 0.000000 0.000000 0.000000 0.039270 0.000000
# 6 0.000000 0.000000 0.000000 0.000000 0.000000 0.034698
#
#
# Mechanical properties :
#
#
# Convention : Reuss Voigt Hill
#
# Bulk Modulus (GPa) = 60.00466 84.75108 72.37787
# Shear Modulus (GPa) = 18.26716 22.68178 20.47447
#
# Velocity S-wave (km/s) = 3.46886 3.86536 3.67246
# Velocity P-wave (km/s) = 7.45455 8.70337 8.10305
#
# Compressibility (1/GPa) = 0.01666537
#
# Stress axis : x y z
#
# Youngs Moduli (GPa) = 60.13806 20.61921 56.65504
#
# Poissons Ratio (x) = 0.32861 0.19246
# Poissons Ratio (y) = 0.95844 0.77741
# Poissons Ratio (z) = 0.20430 0.28293
#
# Static dielectric constant tensor:
#      x y z
#    x 1.483560 0.000000 0.000000 
#    y 0.000000 1.502400 0.000000 
#    z 0.000000 0.000000 1.483420 
# 
# From -- ./inp_files/7696.got.cif
#   From: 2010.05.17/outbox.cif.g08.bks.cpg/sg47_4_cif.got.tgz:7696.got - 2010.06.03 20:15:42.
