data_PCOD9382063
_publ_section_title
;
Structure prediction by ZEFSAII (Michael W. Deem and Ramdas Pophale) SiO2 
 PCOD9382063
Probable space group: P M M M
;
_chemical_formula_sum "Si O2"
_cell_formula_units_Z 52
_cell_length_a 13.465248
_cell_length_b 9.371031
_cell_length_c 24.946985
_cell_angle_alpha 90.000000
_cell_angle_beta 90.000000
_cell_angle_gamma 90.000000
_cell_volume 3147.891805
_symmetry_space_group_name_H-M "P M M M"
_symmetry_group_IT_number 47
_symmetry_cell_setting 'orthorhombic'
loop_
_space_group_symop_operation_xyz
x,y,z
-x,-y,z
x,-y,-z
-x,y,-z
-x,-y,-z
x,y,-z
-x,y,z
x,-y,z
loop_
_atom_site_type_symbol
_atom_site_label
_atom_site_fract_x
_atom_site_fract_y
_atom_site_fract_z
Si Si1 0.385101 0.671149 0.936393
Si Si2 0.796414 0.172208 0.120939
Si Si3 0.197081 0.168796 0.562836
Si Si4 0.000000 0.173383 0.938327
Si Si5 0.118151 0.830485 0.236252
Si Si6 0.389155 0.661610 0.564793
Si Si7 0.882696 0.340150 0.340271
O O1 0.500000 0.709255 0.922719
O O2 0.375331 0.500000 0.929364
O O3 0.300705 0.752201 0.902915
O O4 0.371623 0.701194 0.000000
O O5 0.897395 0.217581 0.089896
O O6 0.819281 0.203690 0.183216
O O7 0.786722 0.000000 0.115284
O O8 0.178844 0.204511 0.500000
O O9 0.308084 0.220562 0.577528
O O10 0.131983 0.255521 0.604654
O O11 0.184961 0.000000 0.568816
O O12 0.000000 0.000000 0.936192
O O13 0.000000 0.218271 0.000000
O O14 0.154352 0.746069 0.288516
O O15 0.000000 0.801522 0.226153
O O16 0.125114 0.000000 0.246278
O O17 0.393697 0.658662 0.500000
O O18 0.500000 0.692258 0.584687
O O19 0.361154 0.500000 0.581332
O O20 0.841093 0.500000 0.343526
O O21 0.000000 0.350867 0.331824
#
# Coordination Sequence:
#
# PCOD9382063 Si02
#       7
#     8   8   8   4   8   8   8
#     4   9  19  35  51  69 100 142 182 218 258 302
#     4  10  18  30  51  78 103 132 169 209 253 302
#     4  10  20  32  48  72 100 129 161 199 247 301
#     4   9  16  26  43  73 111 139 158 191 244 299
#     4   9  17  32  52  73  99 128 160 199 249 307
#     4   8  14  26  45  68  94 124 155 187 227 279
#     4  10  21  35  51  71  95 127 168 209 249 295
#
# _framework density 16.518992000000001
#
# number of rings (size 3 to 8) (size 9 to 14) (size 15 to 20)
#    0.000    2.692    0.769    2.308    0.000    4.308 
#    0.000    4.231    0.000    2.308    0.000    4.308 
#    0.000    0.000    0.000    0.000    0.000    0.000 
#
# Total GULP energy -289557.424596 kJ/mol
# GULP energy per Si atom -5568.412011 kJ/mol
# Density = 1.648139 g / cm^3
# Si number density = 16.518992 Si / 1000 Ang^3
#
#
#
# Elastic Constant Matrix: (Units=GPa)
#
#
# Indices 1 2 3 4 5 6 
#
# 1 80.0767 40.4968 52.1525 0.0000 0.0000 0.0000
# 2 40.4968 64.1220 64.2113 0.0000 0.0000 0.0000
# 3 52.1525 64.2113 109.4834 0.0000 0.0000 0.0000
# 4 0.0000 0.0000 0.0000 20.9255 0.0000 0.0000
# 5 0.0000 0.0000 0.0000 0.0000 20.2567 0.0000
# 6 0.0000 0.0000 0.0000 0.0000 0.0000 26.8054
#
#
#
# Elastic Compliance Matrix: (Units=1/GPa)
#
#
# Indices 1 2 3 4 5 6 
#
# 1 0.019409 -0.007268 -0.004983 0.000000 0.000000 0.000000
# 2 -0.007268 0.040511 -0.020297 0.000000 0.000000 0.000000
# 3 -0.004983 -0.020297 0.023412 0.000000 0.000000 0.000000
# 4 0.000000 0.000000 0.000000 0.047789 0.000000 0.000000
# 5 0.000000 0.000000 0.000000 0.000000 0.049366 0.000000
# 6 0.000000 0.000000 0.000000 0.000000 0.000000 0.037306
#
#
# Mechanical properties :
#
#
# Convention : Reuss Voigt Hill
#
# Bulk Modulus (GPa) = 54.83910 63.04480 58.94195
# Shear Modulus (GPa) = 17.30300 20.05228 18.67764
#
# Velocity S-wave (km/s) = 3.23996 3.48788 3.36620
# Velocity P-wave (km/s) = 6.87504 7.38026 7.13212
#
# Compressibility (1/GPa) = 0.01823516
#
# Stress axis : x y z
#
# Youngs Moduli (GPa) = 51.52286 24.68457 42.71402
#
# Poissons Ratio (x) = 0.17941 0.21283
# Poissons Ratio (y) = 0.37448 0.86698
# Poissons Ratio (z) = 0.25672 0.50103
#
# Static dielectric constant tensor:
#      x y z
#    x 1.570240 0.000000 0.000000 
#    y 0.000000 1.561850 0.000000 
#    z 0.000000 0.000000 1.548040 
# 
# From -- ./inp_files/33598.got.cif
#   From: 2010.05.17/outbox.cif.g08.bks.cpg/sg47_17_cif.got.tgz:33598.got - 2010.06.03 20:15:42.
