data_PCOD9382429
_publ_section_title
;
Structure prediction by ZEFSAII (Michael W. Deem and Ramdas Pophale) SiO2 
 PCOD9382429
Probable space group: P M M M
;
_chemical_formula_sum "Si O2"
_cell_formula_units_Z 60
_cell_length_a 9.062251
_cell_length_b 19.243447
_cell_length_c 24.552099
_cell_angle_alpha 90.000000
_cell_angle_beta 90.000000
_cell_angle_gamma 90.000000
_cell_volume 4281.614687
_symmetry_space_group_name_H-M "P M M M"
_symmetry_group_IT_number 47
_symmetry_cell_setting 'orthorhombic'
loop_
_space_group_symop_operation_xyz
x,y,z
-x,-y,z
x,-y,-z
-x,y,-z
-x,-y,-z
x,y,-z
-x,y,z
x,-y,z
loop_
_atom_site_type_symbol
_atom_site_label
_atom_site_fract_x
_atom_site_fract_y
_atom_site_fract_z
Si Si1 0.823805 0.162932 0.770919
Si Si2 0.677206 0.714980 0.169245
Si Si3 0.677395 0.580214 0.113193
Si Si4 0.677185 0.202681 0.940257
Si Si5 0.171748 0.084214 0.439630
Si Si6 0.823242 0.080168 0.117906
Si Si7 0.168040 0.415549 0.000000
Si Si8 0.323924 0.082134 0.328021
O O1 0.758031 0.238390 0.785987
O O2 0.789319 0.113680 0.823080
O O3 0.752159 0.127953 0.718282
O O4 0.000000 0.166518 0.765302
O O5 0.500000 0.720946 0.176617
O O6 0.716699 0.634248 0.160885
O O7 0.717228 0.748994 0.110648
O O8 0.500000 0.583467 0.106474
O O9 0.718196 0.500000 0.124133
O O10 0.748525 0.602587 0.055724
O O11 0.500000 0.198472 0.940332
O O12 0.744693 0.127735 0.926672
O O13 0.725596 0.227315 0.000000
O O14 0.220071 0.108061 0.500000
O O15 0.267626 0.104762 0.387748
O O16 0.000000 0.103848 0.432052
O O17 0.176010 0.000000 0.440850
O O18 0.000000 0.084039 0.110714
O O19 0.778168 0.000000 0.116008
O O20 0.164579 0.500000 0.000000
O O21 0.000000 0.389986 0.000000
O O22 0.500000 0.087767 0.324631
O O23 0.284844 0.000000 0.320732
#
# Coordination Sequence:
#
# PCOD9382429 Si02
#       8
#     8   8   8   8   8   8   4   8
#     4  10  19  31  45  59  78 102 134 169 205 248
#     4   9  18  31  46  60  79 102 126 160 198 240
#     4   9  17  29  46  65  82 103 130 157 191 240
#     4   9  18  30  42  56  73  94 119 147 187 237
#     4   8  14  25  40  58  82 112 144 176 210 246
#     4   9  18  31  44  56  70  90 118 156 199 237
#     4   9  17  27  39  59  85 105 122 151 188 227
#     4  10  19  28  41  62  85 110 142 179 216 249
#
# _framework density 14.013405000000001
#
# number of rings (size 3 to 8) (size 9 to 14) (size 15 to 20)
#    0.000    2.867    0.000    1.800    0.933    4.267 
#    0.000    2.667    0.000    0.000    0.000    0.000 
#    0.000    0.000    0.000    0.000    0.000    0.667 
#
# Total GULP energy -334230.408966 kJ/mol
# GULP energy per Si atom -5570.506816 kJ/mol
# Density = 1.398151 g / cm^3
# Si number density = 14.013405 Si / 1000 Ang^3
#
#
#
# Elastic Constant Matrix: (Units=GPa)
#
#
# Indices 1 2 3 4 5 6 
#
# 1 26.3120 25.5093 35.5099 0.0000 0.0000 0.0000
# 2 25.5093 70.2921 32.0092 0.0000 0.0000 0.0000
# 3 35.5099 32.0092 88.1307 0.0000 0.0000 0.0000
# 4 0.0000 0.0000 0.0000 12.4589 0.0000 0.0000
# 5 0.0000 0.0000 0.0000 0.0000 20.5981 0.0000
# 6 0.0000 0.0000 0.0000 0.0000 0.0000 12.3633
#
#
#
# Elastic Compliance Matrix: (Units=1/GPa)
#
#
# Indices 1 2 3 4 5 6 
#
# 1 0.107608 -0.023134 -0.034956 0.000000 0.000000 0.000000
# 2 -0.023134 0.022019 0.001324 0.000000 0.000000 0.000000
# 3 -0.034956 0.001324 0.024950 0.000000 0.000000 0.000000
# 4 0.000000 0.000000 0.000000 0.080264 0.000000 0.000000
# 5 0.000000 0.000000 0.000000 0.000000 0.048548 0.000000
# 6 0.000000 0.000000 0.000000 0.000000 0.000000 0.080884
#
#
# Mechanical properties :
#
#
# Convention : Reuss Voigt Hill
#
# Bulk Modulus (GPa) = 24.36255 41.19904 32.78080
# Shear Modulus (GPa) = 10.17320 15.19783 12.68551
#
# Velocity S-wave (km/s) = 2.69729 3.29678 3.01199
# Velocity P-wave (km/s) = 5.20802 6.62987 5.96149
#
# Compressibility (1/GPa) = 0.04104660
#
# Stress axis : x y z
#
# Youngs Moduli (GPa) = 9.29295 45.41567 40.07952
#
# Poissons Ratio (x) = 1.05063 1.40101
# Poissons Ratio (y) = 0.21498 -0.05306
# Poissons Ratio (z) = 0.32484 -0.06012
#
# Static dielectric constant tensor:
#      x y z
#    x 1.469250 0.000000 0.000000 
#    y 0.000000 1.471690 0.000000 
#    z 0.000000 0.000000 1.451810 
# 
# From -- ./inp_files/32208.got.cif
#   From: 2010.05.17/outbox.cif.g08.bks.cpg/sg47_17_cif.got.tgz:32208.got - 2010.06.03 20:15:42.
