data_PCOD9382785
_publ_section_title
;
Structure prediction by ZEFSAII (Michael W. Deem and Ramdas Pophale) SiO2 
 PCOD9382785
Probable space group: P M M M
;
_chemical_formula_sum "Si O2"
_cell_formula_units_Z 60
_cell_length_a 17.219165
_cell_length_b 23.560384
_cell_length_c 9.177227
_cell_angle_alpha 90.000000
_cell_angle_beta 90.000000
_cell_angle_gamma 90.000000
_cell_volume 3723.110502
_symmetry_space_group_name_H-M "P M M M"
_symmetry_group_IT_number 47
_symmetry_cell_setting 'orthorhombic'
loop_
_space_group_symop_operation_xyz
x,y,z
-x,-y,z
x,-y,-z
-x,y,-z
-x,-y,-z
x,y,-z
-x,y,z
x,-y,z
loop_
_atom_site_type_symbol
_atom_site_label
_atom_site_fract_x
_atom_site_fract_y
_atom_site_fract_z
Si Si1 0.173703 0.260706 0.167981
Si Si2 0.660314 0.067533 0.172374
Si Si3 0.764269 0.565795 0.675177
Si Si4 0.328281 0.659988 0.832705
Si Si5 0.413526 0.756217 0.673776
Si Si6 0.264061 0.833974 0.674079
Si Si7 0.087947 0.641818 0.674339
Si Si8 0.500000 0.931371 0.665313
O O1 0.251345 0.299965 0.169798
O O2 0.196542 0.204533 0.256892
O O3 0.109802 0.299922 0.244864
O O4 0.155004 0.248289 0.000000
O O5 0.725265 0.105415 0.250129
O O6 0.578122 0.082604 0.248143
O O7 0.672341 0.000000 0.191752
O O8 0.656945 0.079306 0.000000
O O9 0.756109 0.569448 0.500000
O O10 0.762551 0.500000 0.717598
O O11 0.697723 0.603277 0.750100
O O12 0.847116 0.594936 0.712933
O O13 0.393021 0.697340 0.752654
O O14 0.348594 0.648938 0.000000
O O15 0.411186 0.747298 0.500000
O O16 0.500000 0.776238 0.713831
O O17 0.344825 0.800357 0.707024
O O18 0.256311 0.838357 0.500000
O O19 0.093709 0.650843 0.500000
O O20 0.000000 0.624119 0.708285
O O21 0.500000 0.907715 0.500000
O O22 0.500000 0.000000 0.654073
#
# Coordination Sequence:
#
# PCOD9382785 Si02
#       8
#     8   8   8   8   8   8   8   4
#     4   9  17  30  46  64  89 119 152 186 224 270
#     4  10  20  32  44  61  88 121 155 191 233 277
#     4   9  17  29  46  67  91 122 156 184 215 260
#     4   9  17  29  45  64  86 114 147 184 226 269
#     4   9  18  31  46  65  87 111 142 185 234 279
#     4  10  19  30  47  67  89 117 152 192 230 273
#     4   9  17  29  46  69  97 125 152 184 220 259
#     4   9  17  29  43  57  77 111 153 191 226 267
#
# _framework density 16.115556999999999
#
# number of rings (size 3 to 8) (size 9 to 14) (size 15 to 20)
#    0.000    2.733    0.000    1.800    0.933    6.400 
#    0.000    1.333    0.000    0.400    0.000    6.533 
#    0.000    0.533    0.000    5.600    0.000    2.400 
#
# Total GULP energy -334399.983668 kJ/mol
# GULP energy per Si atom -5573.333061 kJ/mol
# Density = 1.607888 g / cm^3
# Si number density = 16.115557 Si / 1000 Ang^3
#
#
#
# Elastic Constant Matrix: (Units=GPa)
#
#
# Indices 1 2 3 4 5 6 
#
# 1 13.7068 8.0412 7.6427 0.0000 0.0000 0.0000
# 2 8.0412 82.8656 44.6983 0.0000 0.0000 0.0000
# 3 7.6427 44.6983 54.8606 0.0000 0.0000 0.0000
# 4 0.0000 0.0000 0.0000 21.9025 0.0000 0.0000
# 5 0.0000 0.0000 0.0000 0.0000 15.1136 0.0000
# 6 0.0000 0.0000 0.0000 0.0000 0.0000 18.2351
#
#
#
# Elastic Compliance Matrix: (Units=1/GPa)
#
#
# Indices 1 2 3 4 5 6 
#
# 1 0.079547 -0.003107 -0.008550 0.000000 0.000000 0.000000
# 2 -0.003107 0.021651 -0.017208 0.000000 0.000000 0.000000
# 3 -0.008550 -0.017208 0.033439 0.000000 0.000000 0.000000
# 4 0.000000 0.000000 0.000000 0.045657 0.000000 0.000000
# 5 0.000000 0.000000 0.000000 0.000000 0.066165 0.000000
# 6 0.000000 0.000000 0.000000 0.000000 0.000000 0.054839
#
#
# Mechanical properties :
#
#
# Convention : Reuss Voigt Hill
#
# Bulk Modulus (GPa) = 13.00270 30.24416 21.62343
# Shear Modulus (GPa) = 12.99833 17.12028 15.05931
#
# Velocity S-wave (km/s) = 2.84310 3.26290 3.06021
# Velocity P-wave (km/s) = 4.34322 5.74484 5.09248
#
# Compressibility (1/GPa) = 0.07690709
#
# Stress axis : x y z
#
# Youngs Moduli (GPa) = 12.57124 46.18683 29.90494
#
# Poissons Ratio (x) = 0.14351 0.25569
# Poissons Ratio (y) = 0.03906 0.51459
# Poissons Ratio (z) = 0.10749 0.79477
#
# Static dielectric constant tensor:
#      x y z
#    x 1.528230 0.000000 0.000000 
#    y 0.000000 1.544180 0.000000 
#    z 0.000000 0.000000 1.537460 
# 
# From -- ./inp_files/9904.got.cif
#   From: 2010.05.17/outbox.cif.g08.bks.cpg/sg47_5_cif.got.tgz:9904.got - 2010.06.03 20:15:42.
