data_PCOD9382108
_publ_section_title
;
Structure prediction by ZEFSAII (Michael W. Deem and Ramdas Pophale) SiO2 
 PCOD9382108
Probable space group: P M M M
;
_chemical_formula_sum "Si O2"
_cell_formula_units_Z 40
_cell_length_a 19.856467
_cell_length_b 7.337465
_cell_length_c 13.077873
_cell_angle_alpha 90.000000
_cell_angle_beta 90.000000
_cell_angle_gamma 90.000000
_cell_volume 1905.395506
_symmetry_space_group_name_H-M "P M M M"
_symmetry_group_IT_number 47
_symmetry_cell_setting 'orthorhombic'
loop_
_space_group_symop_operation_xyz
x,y,z
-x,-y,z
x,-y,-z
-x,y,-z
-x,-y,-z
x,y,-z
-x,y,z
x,-y,z
loop_
_atom_site_type_symbol
_atom_site_label
_atom_site_fract_x
_atom_site_fract_y
_atom_site_fract_z
Si Si1 0.333713 0.287480 0.801586
Si Si2 0.922472 0.277086 0.723686
Si Si3 0.081896 0.710155 0.500000
Si Si4 0.576994 0.781715 0.000000
Si Si5 0.809376 0.277085 0.882379
Si Si6 0.577134 0.722292 0.616308
O O1 0.321946 0.500000 0.778793
O O2 0.261212 0.213188 0.834294
O O3 0.371700 0.211370 0.702577
O O4 0.382908 0.276577 0.899073
O O5 0.922696 0.500000 0.720370
O O6 0.899275 0.213426 0.610697
O O7 0.871822 0.221147 0.812208
O O8 0.000000 0.221933 0.740594
O O9 0.104842 0.500000 0.500000
O O10 0.000000 0.709983 0.500000
O O11 0.500000 0.715786 0.000000
O O12 0.575793 0.000000 0.000000
O O13 0.808396 0.500000 0.883343
O O14 0.814845 0.219425 0.000000
O O15 0.593588 0.776241 0.500000
O O16 0.500000 0.777524 0.638729
O O17 0.577232 0.500000 0.618375
#
# Coordination Sequence:
#
# PCOD9382108 Si02
#       6
#     8   8   4   4   8   8
#     4  10  18  31  49  68  94 125 152 186 233 280
#     4   8  13  21  33  50  76 112 149 182 219 262
#     4   7  10  18  30  44  68 106 148 181 212 260
#     4  11  23  35  49  71  94 117 154 198 229 265
#     4   9  16  25  36  54  82 113 148 186 217 258
#     4   8  14  25  42  65  90 114 144 182 222 270
#
# _framework density 20.993016999999998
#
# number of rings (size 3 to 8) (size 9 to 14) (size 15 to 20)
#    0.000    3.200    1.000    2.700    0.000    2.000 
#    1.800    2.000    0.000    0.600    0.000    2.800 
#    0.000    1.600    0.000    0.000    0.000    5.600 
#
# Total GULP energy -223171.892063 kJ/mol
# GULP energy per Si atom -5579.297302 kJ/mol
# Density = 2.094524 g / cm^3
# Si number density = 20.993017 Si / 1000 Ang^3
#
#
#
# Elastic Constant Matrix: (Units=GPa)
#
#
# Indices 1 2 3 4 5 6 
#
# 1 163.5152 2.0320 137.5081 0.0000 0.0000 0.0000
# 2 2.0320 80.2849 4.7582 0.0000 0.0000 0.0000
# 3 137.5081 4.7582 229.1134 0.0000 0.0000 0.0000
# 4 0.0000 0.0000 0.0000 -40.7571 0.0000 0.0000
# 5 0.0000 0.0000 0.0000 0.0000 2250.3478 0.0000
# 6 0.0000 0.0000 0.0000 0.0000 0.0000 13.7800
#
#
#
# Elastic Compliance Matrix: (Units=1/GPa)
#
#
# Indices 1 2 3 4 5 6 
#
# 1 0.012349 0.000127 -0.007414 0.000000 0.000000 0.000000
# 2 0.000127 0.012472 -0.000335 0.000000 0.000000 0.000000
# 3 -0.007414 -0.000335 0.008821 0.000000 0.000000 0.000000
# 4 0.000000 0.000000 0.000000 -0.024536 0.000000 0.000000
# 5 0.000000 0.000000 0.000000 0.000000 0.000444 0.000000
# 6 0.000000 0.000000 0.000000 0.000000 0.000000 0.072569
#
#
# Mechanical properties :
#
#
# Convention : Reuss Voigt Hill
#
# Bulk Modulus (GPa) = 54.35452 84.61224 69.48338
# Shear Modulus (GPa) = 48.31015 466.58183 257.44599
#
# Velocity S-wave (km/s) = 4.80234 14.92442 11.08604
# Velocity P-wave (km/s) = 7.52980 18.36782 14.03700
#
# Compressibility (1/GPa) = 0.01839773
#
# Stress axis : x y z
#
# Youngs Moduli (GPa) = 80.97785 80.17774 113.36016
#
# Poissons Ratio (x) = -0.01017 0.84048
# Poissons Ratio (y) = -0.01027 0.03799
# Poissons Ratio (z) = 0.60039 0.02687
#
# Static dielectric constant tensor:
#      x y z
#    x 1.709010 0.000000 0.000000 
#    y 0.000000 1.778080 0.000000 
#    z 0.000000 0.000000 1.729110 
# 
# From -- ./inp_files/18928.got.cif
#   From: 2010.05.17/outbox.cif.g08.bks.cpg/sg47_10_cif.got.tgz:18928.got - 2010.06.03 20:15:42.
