data_PCOD9382767
_publ_section_title
;
Structure prediction by ZEFSAII (Michael W. Deem and Ramdas Pophale) SiO2 
 PCOD9382767
Probable space group: P M M M
;
_chemical_formula_sum "Si O2"
_cell_formula_units_Z 44
_cell_length_a 33.199522
_cell_length_b 7.743475
_cell_length_c 9.265268
_cell_angle_alpha 90.000000
_cell_angle_beta 90.000000
_cell_angle_gamma 90.000000
_cell_volume 2381.912027
_symmetry_space_group_name_H-M "P M M M"
_symmetry_group_IT_number 47
_symmetry_cell_setting 'orthorhombic'
loop_
_space_group_symop_operation_xyz
x,y,z
-x,-y,z
x,-y,-z
-x,y,-z
-x,-y,-z
x,y,-z
-x,y,z
x,-y,z
loop_
_atom_site_type_symbol
_atom_site_label
_atom_site_fract_x
_atom_site_fract_y
_atom_site_fract_z
Si Si1 0.691791 0.500000 0.674838
Si Si2 0.158031 0.789067 0.666020
Si Si3 0.080119 0.792796 0.837550
Si Si4 0.605613 0.500000 0.175257
Si Si5 0.247506 0.802074 0.324374
Si Si6 0.545598 0.802746 0.175408
Si Si7 0.000000 0.294172 0.337402
O O1 0.687424 0.500000 0.500000
O O2 0.648842 0.500000 0.750910
O O3 0.718002 0.668238 0.716606
O O4 0.153286 0.732212 0.500000
O O5 0.120498 0.727613 0.759745
O O6 0.202661 0.742489 0.720541
O O7 0.157806 0.000000 0.664269
O O8 0.040183 0.758127 0.746502
O O9 0.084258 0.000000 0.845524
O O10 0.076042 0.725278 0.000000
O O11 0.579259 0.666794 0.219341
O O12 0.609495 0.500000 0.000000
O O13 0.245993 0.804834 0.500000
O O14 0.254505 0.000000 0.276777
O O15 0.500000 0.754929 0.220685
O O16 0.553552 0.000000 0.221075
O O17 0.545246 0.801654 0.000000
O O18 0.000000 0.500000 0.345539
O O19 0.000000 0.222679 0.500000
#
# Coordination Sequence:
#
# PCOD9382767 Si02
#       7
#     4   8   8   4   8   8   4
#     4  10  20  33  49  71  98 133 173 206 244 301
#     4   8  14  28  51  74  94 119 155 199 241 280
#     4  10  20  34  54  79 104 130 159 193 243 305
#     4  10  19  30  46  70 100 128 159 205 254 297
#     4   8  15  30  51  72  95 126 166 210 249 287
#     4   8  14  26  46  71  96 125 165 209 250 294
#     4  11  24  39  52  70  98 133 172 207 238 280
#
# _framework density 18.472553999999999
#
# number of rings (size 3 to 8) (size 9 to 14) (size 15 to 20)
#    0.000    3.000    0.000    3.000    0.000    4.727 
#    1.636    0.909    0.000    2.182    0.000    1.273 
#    0.000    0.000    0.000    0.000    0.000    0.000 
#
# Total GULP energy -245295.965872 kJ/mol
# GULP energy per Si atom -5574.908315 kJ/mol
# Density = 1.843051 g / cm^3
# Si number density = 18.472554 Si / 1000 Ang^3
#
#
#
# Elastic Constant Matrix: (Units=GPa)
#
#
# Indices 1 2 3 4 5 6 
#
# 1 214.2834 81.7287 67.6157 0.0000 0.0000 0.0000
# 2 81.7287 77.4088 28.6815 0.0000 0.0000 0.0000
# 3 67.6157 28.6815 63.7012 0.0000 0.0000 0.0000
# 4 0.0000 0.0000 0.0000 7.7166 0.0000 0.0000
# 5 0.0000 0.0000 0.0000 0.0000 38.8670 0.0000
# 6 0.0000 0.0000 0.0000 0.0000 0.0000 8.4720
#
#
#
# Elastic Compliance Matrix: (Units=1/GPa)
#
#
# Indices 1 2 3 4 5 6 
#
# 1 0.009830 -0.007816 -0.006914 0.000000 0.000000 0.000000
# 2 -0.007816 0.021720 -0.001483 0.000000 0.000000 0.000000
# 3 -0.006914 -0.001483 0.023705 0.000000 0.000000 0.000000
# 4 0.000000 0.000000 0.000000 0.129590 0.000000 0.000000
# 5 0.000000 0.000000 0.000000 0.000000 0.025729 0.000000
# 6 0.000000 0.000000 0.000000 0.000000 0.000000 0.118035
#
#
# Mechanical properties :
#
#
# Convention : Reuss Voigt Hill
#
# Bulk Modulus (GPa) = 43.80588 79.04946 61.42767
# Shear Modulus (GPa) = 13.56312 22.83563 18.19938
#
# Velocity S-wave (km/s) = 2.71261 3.51977 3.14221
# Velocity P-wave (km/s) = 5.79452 7.70741 6.81838
#
# Compressibility (1/GPa) = 0.02282798
#
# Stress axis : x y z
#
# Youngs Moduli (GPa) = 101.73238 46.03958 42.18455
#
# Poissons Ratio (x) = 0.35986 0.29168
# Poissons Ratio (y) = 0.79517 0.06256
# Poissons Ratio (z) = 0.70342 0.06828
#
# Static dielectric constant tensor:
#      x y z
#    x 1.617190 0.000000 0.000000 
#    y 0.000000 1.666140 0.000000 
#    z 0.000000 0.000000 1.634870 
# 
# From -- ./inp_files/13726.got.cif
#   From: 2010.05.17/outbox.cif.g08.bks.cpg/sg47_7_cif.got.tgz:13726.got - 2010.06.03 20:15:42.
