data_PCOD9382775
_publ_section_title
;
Structure prediction by ZEFSAII (Michael W. Deem and Ramdas Pophale) SiO2 
 PCOD9382775
Probable space group: P M M M
;
_chemical_formula_sum "Si O2"
_cell_formula_units_Z 52
_cell_length_a 12.033524
_cell_length_b 28.666813
_cell_length_c 8.765725
_cell_angle_alpha 90.000000
_cell_angle_beta 90.000000
_cell_angle_gamma 90.000000
_cell_volume 3023.848884
_symmetry_space_group_name_H-M "P M M M"
_symmetry_group_IT_number 47
_symmetry_cell_setting 'orthorhombic'
loop_
_space_group_symop_operation_xyz
x,y,z
-x,-y,z
x,-y,-z
-x,y,-z
-x,-y,-z
x,y,-z
-x,y,z
x,-y,z
loop_
_atom_site_type_symbol
_atom_site_label
_atom_site_fract_x
_atom_site_fract_y
_atom_site_fract_z
Si Si1 0.500000 0.758091 0.184783
Si Si2 0.867101 0.447448 0.180539
Si Si3 0.500000 0.650956 0.817371
Si Si4 0.634549 0.000000 0.174888
Si Si5 0.129020 0.729418 0.684228
Si Si6 0.369322 0.901078 0.682645
Si Si7 0.735052 0.637293 0.681500
Si Si8 0.725136 0.809515 0.183433
O O1 0.500000 0.704916 0.235098
O O2 0.611407 0.783690 0.234486
O O3 0.500000 0.758507 0.000000
O O4 0.832365 0.500000 0.225526
O O5 0.809994 0.406505 0.272947
O O6 0.000000 0.444727 0.198473
O O7 0.843060 0.441838 0.000000
O O8 0.614464 0.630636 0.755250
O O9 0.500000 0.649279 0.000000
O O10 0.665223 0.952269 0.259514
O O11 0.500000 0.000000 0.172765
O O12 0.673450 0.000000 0.000000
O O13 0.134967 0.731808 0.500000
O O14 0.205075 0.685442 0.734817
O O15 0.176430 0.777373 0.752883
O O16 0.000000 0.721832 0.726300
O O17 0.365968 0.899187 0.500000
O O18 0.500000 0.893407 0.729553
O O19 0.290901 0.861463 0.753173
O O20 0.723864 0.640407 0.500000
O O21 0.729852 0.810473 0.000000
#
# Coordination Sequence:
#
# PCOD9382775 Si02
#       8
#     4   8   4   4   8   8   8   8
#     4   9  18  31  49  73 103 135 173 217 258 303
#     4   9  19  37  60  84 109 140 180 223 267 317
#     4  11  21  37  56  78 108 146 183 218 261 317
#     4   9  17  29  45  67  98 137 176 217 261 306
#     4  10  22  38  53  74 107 142 175 214 262 314
#     4  10  19  30  46  71 103 139 175 213 262 318
#     4  11  22  36  56  83 112 142 177 219 268 320
#     4  11  20  33  52  76 104 136 178 221 261 310
#
# _framework density 17.196626999999999
#
# number of rings (size 3 to 8) (size 9 to 14) (size 15 to 20)
#    0.000    1.923    2.308    2.769    0.000    3.692 
#    0.000    1.154    0.000    2.308    0.000    0.538 
#    0.000    4.308    0.000    0.000    0.000    0.000 
#
# Total GULP energy -290155.606607 kJ/mol
# GULP energy per Si atom -5579.915512 kJ/mol
# Density = 1.715749 g / cm^3
# Si number density = 17.196627 Si / 1000 Ang^3
#
#
#
# Elastic Constant Matrix: (Units=GPa)
#
#
# Indices 1 2 3 4 5 6 
#
# 1 71.8244 30.3345 29.6678 0.0000 0.0000 0.0000
# 2 30.3345 104.2505 34.3905 0.0000 0.0000 0.0000
# 3 29.6678 34.3905 48.5887 0.0000 0.0000 0.0000
# 4 0.0000 0.0000 0.0000 31.5177 0.0000 0.0000
# 5 0.0000 0.0000 0.0000 0.0000 21.3522 0.0000
# 6 0.0000 0.0000 0.0000 0.0000 0.0000 20.5257
#
#
#
# Elastic Compliance Matrix: (Units=1/GPa)
#
#
# Indices 1 2 3 4 5 6 
#
# 1 0.019005 -0.002220 -0.010033 0.000000 0.000000 0.000000
# 2 -0.002220 0.012774 -0.007685 0.000000 0.000000 0.000000
# 3 -0.010033 -0.007685 0.032146 0.000000 0.000000 0.000000
# 4 0.000000 0.000000 0.000000 0.031728 0.000000 0.000000
# 5 0.000000 0.000000 0.000000 0.000000 0.046834 0.000000
# 6 0.000000 0.000000 0.000000 0.000000 0.000000 0.048719
#
#
# Mechanical properties :
#
#
# Convention : Reuss Voigt Hill
#
# Bulk Modulus (GPa) = 41.58321 45.93880 43.76100
# Shear Modulus (GPa) = 20.91193 23.36383 22.13788
#
# Velocity S-wave (km/s) = 3.49097 3.68996 3.59184
# Velocity P-wave (km/s) = 6.36260 6.70270 6.53486
#
# Compressibility (1/GPa) = 0.02404817
#
# Stress axis : x y z
#
# Youngs Moduli (GPa) = 52.61873 78.28651 31.10788
#
# Poissons Ratio (x) = 0.17382 0.31209
# Poissons Ratio (y) = 0.11683 0.23907
# Poissons Ratio (z) = 0.52790 0.60165
#
# Static dielectric constant tensor:
#      x y z
#    x 1.574670 0.000000 0.000000 
#    y 0.000000 1.579020 0.000000 
#    z 0.000000 0.000000 1.577360 
# 
# From -- ./inp_files/4592.got.cif
#   From: 2010.05.17/outbox.cif.g08.bks.cpg/sg47_3_cif.got.tgz:4592.got - 2010.06.03 20:15:42.
