data_PCOD9382070
_publ_section_title
;
Structure prediction by ZEFSAII (Michael W. Deem and Ramdas Pophale) SiO2 
 PCOD9382070
Probable space group: P M M M
;
_chemical_formula_sum "Si O2"
_cell_formula_units_Z 52
_cell_length_a 8.147394
_cell_length_b 18.527106
_cell_length_c 17.633712
_cell_angle_alpha 90.000000
_cell_angle_beta 90.000000
_cell_angle_gamma 90.000000
_cell_volume 2661.767074
_symmetry_space_group_name_H-M "P M M M"
_symmetry_group_IT_number 47
_symmetry_cell_setting 'orthorhombic'
loop_
_space_group_symop_operation_xyz
x,y,z
-x,-y,z
x,-y,-z
-x,y,-z
-x,-y,-z
x,y,-z
-x,y,z
x,-y,z
loop_
_atom_site_type_symbol
_atom_site_label
_atom_site_fract_x
_atom_site_fract_y
_atom_site_fract_z
Si Si1 0.803519 0.280811 0.414367
Si Si2 0.200931 0.000000 0.588118
Si Si3 0.803541 0.632600 0.834607
Si Si4 0.695879 0.799683 0.165750
Si Si5 0.807315 0.626502 0.000000
Si Si6 0.305751 0.420879 0.325718
Si Si7 0.698049 0.791028 0.000000
Si Si8 0.802014 0.857780 0.321731
O O1 0.738368 0.279883 0.500000
O O2 0.769229 0.355681 0.372954
O O3 0.739911 0.213807 0.364954
O O4 0.000000 0.272123 0.418337
O O5 0.254406 0.928852 0.633785
O O6 0.252927 0.000000 0.500000
O O7 0.000000 0.000000 0.587198
O O8 0.766885 0.718359 0.826506
O O9 0.727796 0.593055 0.762923
O O10 0.000000 0.623454 0.832718
O O11 0.740748 0.605440 0.917118
O O12 0.500000 0.793046 0.170215
O O13 0.739482 0.826291 0.080720
O O14 0.753750 0.849603 0.234189
O O15 0.785678 0.713291 0.000000
O O16 0.000000 0.607740 0.000000
O O17 0.500000 0.419697 0.338385
O O18 0.240958 0.500000 0.346961
O O19 0.500000 0.778588 0.000000
O O20 0.000000 0.857812 0.324753
#
# Coordination Sequence:
#
# PCOD9382070 Si02
#       8
#     8   4   8   8   4   8   4   8
#     4  10  21  37  58  82 106 135 176 223 270 324
#     4   9  18  34  57  84 115 148 180 217 265 323
#     4  10  18  32  53  78 106 139 179 223 270 321
#     4  10  18  30  51  78 110 144 180 221 266 317
#     4   8  16  28  47  75 105 134 171 220 270 317
#     4  11  24  39  54  75 106 144 183 224 272 323
#     4   8  16  28  44  72 106 142 180 217 259 312
#     4  10  19  33  56  85 113 143 180 219 263 319
#
# _framework density 19.535895
#
# number of rings (size 3 to 8) (size 9 to 14) (size 15 to 20)
#    0.000    2.231    1.538    1.846    0.000    4.923 
#    0.000    2.308    0.000    4.615    0.000    3.231 
#    0.000    0.000    0.000    0.000    0.000    0.000 
#
# Total GULP energy -290059.747973 kJ/mol
# GULP energy per Si atom -5578.072076 kJ/mol
# Density = 1.949143 g / cm^3
# Si number density = 19.535895 Si / 1000 Ang^3
#
#
#
# Elastic Constant Matrix: (Units=GPa)
#
#
# Indices 1 2 3 4 5 6 
#
# 1 12.1022 3.5296 3.6620 0.0000 0.0000 0.0000
# 2 3.5296 104.7685 63.8935 0.0000 0.0000 0.0000
# 3 3.6620 63.8935 147.4774 0.0000 0.0000 0.0000
# 4 0.0000 0.0000 0.0000 -5.6617 0.0000 0.0000
# 5 0.0000 0.0000 0.0000 0.0000 9.4823 0.0000
# 6 0.0000 0.0000 0.0000 0.0000 0.0000 30.5870
#
#
#
# Elastic Compliance Matrix: (Units=1/GPa)
#
#
# Indices 1 2 3 4 5 6 
#
# 1 0.083596 -0.002107 -0.001163 0.000000 0.000000 0.000000
# 2 -0.002107 0.013025 -0.005591 0.000000 0.000000 0.000000
# 3 -0.001163 -0.005591 0.009232 0.000000 0.000000 0.000000
# 4 0.000000 0.000000 0.000000 -0.176624 0.000000 0.000000
# 5 0.000000 0.000000 0.000000 0.000000 0.105460 0.000000
# 6 0.000000 0.000000 0.000000 0.000000 0.000000 0.032694
#
#
# Mechanical properties :
#
#
# Convention : Reuss Voigt Hill
#
# Bulk Modulus (GPa) = 11.34667 45.16873 28.25770
# Shear Modulus (GPa) = 43.67514 19.76571 31.72042
#
# Velocity S-wave (km/s) = 4.73338 3.18427 4.03389
# Velocity P-wave (km/s) = 5.97444 6.05727 6.01600
#
# Compressibility (1/GPa) = 0.08813156
#
# Stress axis : x y z
#
# Youngs Moduli (GPa) = 11.96228 76.77274 108.32150
#
# Poissons Ratio (x) = 0.16177 0.12597
# Poissons Ratio (y) = 0.02521 0.60561
# Poissons Ratio (z) = 0.01391 0.42923
#
# Static dielectric constant tensor:
#      x y z
#    x 1.696290 0.000000 0.000000 
#    y 0.000000 1.666620 0.000000 
#    z 0.000000 0.000000 1.717160 
# 
# From -- ./inp_files/26830.got.cif
#   From: 2010.05.17/outbox.cif.g08.bks.cpg/sg47_14_cif.got.tgz:26830.got - 2010.06.03 20:15:42.
