data_PCOD9382508
_publ_section_title
;
Structure prediction by ZEFSAII (Michael W. Deem and Ramdas Pophale) SiO2 
 PCOD9382508
Probable space group: P M M M
;
_chemical_formula_sum "Si O2"
_cell_formula_units_Z 64
_cell_length_a 15.526293
_cell_length_b 28.856655
_cell_length_c 7.439006
_cell_angle_alpha 90.000000
_cell_angle_beta 90.000000
_cell_angle_gamma 90.000000
_cell_volume 3332.949042
_symmetry_space_group_name_H-M "P M M M"
_symmetry_group_IT_number 47
_symmetry_cell_setting 'orthorhombic'
loop_
_space_group_symop_operation_xyz
x,y,z
-x,-y,z
x,-y,-z
-x,y,-z
-x,-y,-z
x,y,-z
-x,y,z
x,-y,z
loop_
_atom_site_type_symbol
_atom_site_label
_atom_site_fract_x
_atom_site_fract_y
_atom_site_fract_z
Si Si1 0.095981 0.759480 0.209403
Si Si2 0.097949 0.133253 0.282804
Si Si3 0.594261 0.924909 0.709089
Si Si4 0.219657 0.949501 0.280062
Si Si5 0.396205 0.549823 0.714417
Si Si6 0.598760 0.651058 0.716546
Si Si7 0.403836 0.183314 0.217467
Si Si8 0.278251 0.737263 0.786041
O O1 0.114771 0.814613 0.218584
O O2 0.180974 0.735121 0.286823
O O3 0.000000 0.752237 0.288298
O O4 0.089822 0.746378 0.000000
O O5 0.101591 0.134678 0.500000
O O6 0.164151 0.094331 0.219410
O O7 0.000000 0.121229 0.231069
O O8 0.591014 0.938754 0.500000
O O9 0.500000 0.935915 0.787872
O O10 0.681865 0.945598 0.784248
O O11 0.605175 0.869219 0.717405
O O12 0.221018 0.947445 0.500000
O O13 0.184091 0.000000 0.230803
O O14 0.379204 0.549223 0.500000
O O15 0.500000 0.549976 0.735444
O O16 0.364737 0.500000 0.786636
O O17 0.369546 0.600429 0.782850
O O18 0.594292 0.648267 0.500000
O O19 0.500000 0.659592 0.779439
O O20 0.663516 0.692101 0.760978
O O21 0.500000 0.199867 0.268292
O O22 0.331451 0.218428 0.284144
O O23 0.400751 0.181804 0.000000
O O24 0.270134 0.744546 0.000000
#
# Coordination Sequence:
#
# PCOD9382508 Si02
#       8
#     8   8   8   8   8   8   8   8
#     4   9  18  32  48  64  82 107 140 174 208 250
#     4   9  17  29  46  66  83 100 126 160 198 241
#     4   9  17  28  42  59  76  97 129 164 192 221
#     4   9  17  28  42  61  83 103 123 152 192 236
#     4   7  10  19  36  56  79 110 147 181 208 237
#     4   9  17  27  40  62  90 118 148 179 209 242
#     4   9  17  28  41  57  78 105 134 160 191 237
#     4  10  19  29  42  60  84 114 142 170 210 255
#
# _framework density 19.202214999999999
#
# number of rings (size 3 to 8) (size 9 to 14) (size 15 to 20)
#    0.000    3.125    0.000    2.250    0.000    2.250 
#    0.000    3.750    0.000    1.875    0.000    5.250 
#    0.000    0.500    0.000    6.250    0.000    0.250 
#
# Total GULP energy -356770.568644 kJ/mol
# GULP energy per Si atom -5574.540135 kJ/mol
# Density = 1.915851 g / cm^3
# Si number density = 19.202215 Si / 1000 Ang^3
#
#
#
# Elastic Constant Matrix: (Units=GPa)
#
#
# Indices 1 2 3 4 5 6 
#
# 1 114.6079 57.2774 5.7567 0.0000 0.0000 0.0000
# 2 57.2774 74.4865 -7.2203 0.0000 0.0000 0.0000
# 3 5.7567 -7.2203 59.0406 0.0000 0.0000 0.0000
# 4 0.0000 0.0000 0.0000 47.3794 0.0000 0.0000
# 5 0.0000 0.0000 0.0000 0.0000 2.9274 0.0000
# 6 0.0000 0.0000 0.0000 0.0000 0.0000 12.8538
#
#
#
# Elastic Compliance Matrix: (Units=1/GPa)
#
#
# Indices 1 2 3 4 5 6 
#
# 1 0.014626 -0.011522 -0.002835 0.000000 0.000000 0.000000
# 2 -0.011522 0.022663 0.003895 0.000000 0.000000 0.000000
# 3 -0.002835 0.003895 0.017690 0.000000 0.000000 0.000000
# 4 0.000000 0.000000 0.000000 0.021106 0.000000 0.000000
# 5 0.000000 0.000000 0.000000 0.000000 0.341595 0.000000
# 6 0.000000 0.000000 0.000000 0.000000 0.000000 0.077798
#
#
# Mechanical properties :
#
#
# Convention : Reuss Voigt Hill
#
# Bulk Modulus (GPa) = 29.36426 39.97361 34.66894
# Shear Modulus (GPa) = 9.47411 25.45354 17.46383
#
# Velocity S-wave (km/s) = 2.22364 3.64476 3.01901
# Velocity P-wave (km/s) = 4.68168 6.21086 5.49968
#
# Compressibility (1/GPa) = 0.03405500
#
# Stress axis : x y z
#
# Youngs Moduli (GPa) = 68.37163 44.12573 56.52829
#
# Poissons Ratio (x) = 0.50840 0.16026
# Poissons Ratio (y) = 0.78775 -0.22017
# Poissons Ratio (z) = 0.19384 -0.17186
#
# Static dielectric constant tensor:
#      x y z
#    x 1.692300 0.000000 0.000000 
#    y 0.000000 1.680530 0.000000 
#    z 0.000000 0.000000 1.738170 
# 
# From -- ./inp_files/8313.got.cif
#   From: 2010.05.17/outbox.cif.g08.bks.cpg/sg47_5_cif.got.tgz:8313.got - 2010.06.03 20:15:42.
