data_PCOD9382457
_publ_section_title
;
Structure prediction by ZEFSAII (Michael W. Deem and Ramdas Pophale) SiO2 
 PCOD9382457
Probable space group: P M M M
;
_chemical_formula_sum "Si O2"
_cell_formula_units_Z 60
_cell_length_a 19.584555
_cell_length_b 21.609096
_cell_length_c 8.736811
_cell_angle_alpha 90.000000
_cell_angle_beta 90.000000
_cell_angle_gamma 90.000000
_cell_volume 3697.457985
_symmetry_space_group_name_H-M "P M M M"
_symmetry_group_IT_number 47
_symmetry_cell_setting 'orthorhombic'
loop_
_space_group_symop_operation_xyz
x,y,z
-x,-y,z
x,-y,-z
-x,y,-z
-x,-y,-z
x,y,-z
-x,y,z
x,-y,z
loop_
_atom_site_type_symbol
_atom_site_label
_atom_site_fract_x
_atom_site_fract_y
_atom_site_fract_z
Si Si1 0.210785 0.930257 0.186643
Si Si2 0.579943 0.500000 0.683696
Si Si3 0.578544 0.744850 0.317171
Si Si4 0.076574 0.858628 0.184105
Si Si5 0.076522 0.720654 0.317118
Si Si6 0.784561 0.688817 0.816435
Si Si7 0.702398 0.813313 0.184745
Si Si8 0.647848 0.622891 0.183802
O O1 0.136303 0.904790 0.232445
O O2 0.265214 0.878258 0.233587
O O3 0.223299 0.000000 0.240189
O O4 0.211583 0.931256 0.000000
O O5 0.500000 0.500000 0.731381
O O6 0.581623 0.500000 0.500000
O O7 0.617891 0.439324 0.745839
O O8 0.584452 0.738517 0.500000
O O9 0.500000 0.757373 0.278373
O O10 0.630107 0.797079 0.258048
O O11 0.603107 0.680975 0.240357
O O12 0.084847 0.790970 0.256913
O O13 0.000000 0.881075 0.219295
O O14 0.081811 0.850953 0.000000
O O15 0.078589 0.720960 0.500000
O O16 0.140804 0.682601 0.254705
O O17 0.000000 0.700190 0.268585
O O18 0.753116 0.756333 0.774766
O O19 0.726158 0.639510 0.771769
O O20 0.790853 0.687672 0.000000
O O21 0.696284 0.812570 0.000000
O O22 0.645180 0.619908 0.000000
#
# Coordination Sequence:
#
# PCOD9382457 Si02
#       8
#     8   4   8   8   8   8   8   8
#     4   9  16  27  44  66  91 118 154 200 244 289
#     4  11  23  37  53  77 112 147 174 197 225 270
#     4  10  20  33  50  73  98 123 155 196 241 287
#     4   9  16  27  43  62  88 122 157 194 238 287
#     4  10  19  28  42  67  96 126 160 199 244 291
#     4   9  17  31  49  70  95 124 162 204 243 284
#     4   9  17  30  47  68  92 119 154 196 244 293
#     4  10  21  35  53  77 104 135 169 201 234 276
#
# _framework density 16.227364999999999
#
# number of rings (size 3 to 8) (size 9 to 14) (size 15 to 20)
#    0.000    2.467    1.333    2.600    0.000    6.933 
#    0.000    1.333    0.000    2.000    0.000    5.133 
#    0.000    3.733    0.000    0.000    0.000    0.000 
#
# Total GULP energy -334499.870917 kJ/mol
# GULP energy per Si atom -5574.997849 kJ/mol
# Density = 1.619043 g / cm^3
# Si number density = 16.227365 Si / 1000 Ang^3
#
#
#
# Elastic Constant Matrix: (Units=GPa)
#
#
# Indices 1 2 3 4 5 6 
#
# 1 167.7767 82.1580 43.0150 0.0000 0.0000 0.0000
# 2 82.1580 103.4753 27.8755 0.0000 0.0000 0.0000
# 3 43.0150 27.8755 23.4754 0.0000 0.0000 0.0000
# 4 0.0000 0.0000 0.0000 6.3470 0.0000 0.0000
# 5 0.0000 0.0000 0.0000 0.0000 17.7720 0.0000
# 6 0.0000 0.0000 0.0000 0.0000 0.0000 22.3068
#
#
#
# Elastic Compliance Matrix: (Units=1/GPa)
#
#
# Indices 1 2 3 4 5 6 
#
# 1 0.013292 -0.005870 -0.017385 0.000000 0.000000 0.000000
# 2 -0.005870 0.016802 -0.009195 0.000000 0.000000 0.000000
# 3 -0.017385 -0.009195 0.085372 0.000000 0.000000 0.000000
# 4 0.000000 0.000000 0.000000 0.157555 0.000000 0.000000
# 5 0.000000 0.000000 0.000000 0.000000 0.056268 0.000000
# 6 0.000000 0.000000 0.000000 0.000000 0.000000 0.044829
#
#
# Mechanical properties :
#
#
# Convention : Reuss Voigt Hill
#
# Bulk Modulus (GPa) = 19.77641 66.75826 43.26734
# Shear Modulus (GPa) = 10.96792 18.73042 14.84917
#
# Velocity S-wave (km/s) = 2.60261 3.40111 3.02829
# Velocity P-wave (km/s) = 4.60923 7.52675 6.24087
#
# Compressibility (1/GPa) = 0.05056529
#
# Stress axis : x y z
#
# Youngs Moduli (GPa) = 75.23197 59.51594 11.71344
#
# Poissons Ratio (x) = 0.34938 0.20364
# Poissons Ratio (y) = 0.44164 0.10770
# Poissons Ratio (z) = 1.30792 0.54725
#
# Static dielectric constant tensor:
#      x y z
#    x 1.563360 0.000000 0.000000 
#    y 0.000000 1.521710 0.000000 
#    z 0.000000 0.000000 1.544870 
# 
# From -- ./inp_files/10012.got.cif
#   From: 2010.05.17/outbox.cif.g08.bks.cpg/sg47_6_cif.got.tgz:10012.got - 2010.06.03 20:15:42.
