data_PCOD9382347
_publ_section_title
;
Structure prediction by ZEFSAII (Michael W. Deem and Ramdas Pophale) SiO2 
 PCOD9382347
Probable space group: P M M M
;
_chemical_formula_sum "Si O2"
_cell_formula_units_Z 40
_cell_length_a 25.120695
_cell_length_b 7.639465
_cell_length_c 10.502213
_cell_angle_alpha 90.000000
_cell_angle_beta 90.000000
_cell_angle_gamma 90.000000
_cell_volume 2015.465731
_symmetry_space_group_name_H-M "P M M M"
_symmetry_group_IT_number 47
_symmetry_cell_setting 'orthorhombic'
loop_
_space_group_symop_operation_xyz
x,y,z
-x,-y,z
x,-y,-z
-x,y,-z
-x,-y,-z
x,y,-z
-x,y,z
x,-y,z
loop_
_atom_site_type_symbol
_atom_site_label
_atom_site_fract_x
_atom_site_fract_y
_atom_site_fract_z
Si Si1 0.125399 0.792591 0.245153
Si Si2 0.234230 0.786417 0.647965
Si Si3 0.061359 0.215154 0.000000
Si Si4 0.439801 0.289848 0.857051
Si Si5 0.646705 0.209733 0.644038
Si Si6 0.938937 0.709916 0.500000
O O1 0.184872 0.721692 0.268666
O O2 0.092542 0.723724 0.125429
O O3 0.092043 0.769148 0.374244
O O4 0.131282 0.000000 0.223121
O O5 0.224852 0.739372 0.500000
O O6 0.293935 0.727589 0.681624
O O7 0.233733 0.000000 0.652888
O O8 0.000000 0.271030 0.000000
O O9 0.060601 0.000000 0.000000
O O10 0.500000 0.226826 0.828702
O O11 0.442193 0.500000 0.862914
O O12 0.397748 0.247702 0.748124
O O13 0.425181 0.227448 0.000000
O O14 0.634661 0.274150 0.500000
O O15 0.650266 0.000000 0.635561
O O16 0.939640 0.500000 0.500000
O O17 0.000000 0.773225 0.500000
#
# Coordination Sequence:
#
# PCOD9382347 Si02
#       6
#     8   8   4   8   8   4
#     4  10  18  33  56  76  98 133 172 209 252 303
#     4   8  14  28  50  75 100 127 163 207 251 296
#     4   9  18  30  47  77 107 125 158 213 258 296
#     4   9  19  36  54  72 100 138 177 215 251 289
#     4   9  18  32  51  77 107 133 162 207 260 308
#     4  11  23  35  49  75 105 131 168 215 256 299
#
# _framework density 19.846530000000001
#
# number of rings (size 3 to 8) (size 9 to 14) (size 15 to 20)
#    0.000    2.800    1.000    2.700    0.000    3.200 
#    1.800    4.500    0.000    1.800    0.000    0.000 
#    0.000    0.000    0.000    0.000    0.000    0.000 
#
# Total GULP energy -223090.259665 kJ/mol
# GULP energy per Si atom -5577.256492 kJ/mol
# Density = 1.980136 g / cm^3
# Si number density = 19.846530 Si / 1000 Ang^3
#
#
#
# Elastic Constant Matrix: (Units=GPa)
#
#
# Indices 1 2 3 4 5 6 
#
# 1 213.3368 6.1132 139.0302 0.0000 0.0000 0.0000
# 2 6.1132 35.6291 -0.7557 0.0000 0.0000 0.0000
# 3 139.0302 -0.7557 169.3503 0.0000 0.0000 0.0000
# 4 0.0000 0.0000 0.0000 -43.4856 0.0000 0.0000
# 5 0.0000 0.0000 0.0000 0.0000 44.0870 0.0000
# 6 0.0000 0.0000 0.0000 0.0000 0.0000 57.7760
#
#
#
# Elastic Compliance Matrix: (Units=1/GPa)
#
#
# Indices 1 2 3 4 5 6 
#
# 1 0.010212 -0.001930 -0.008392 0.000000 0.000000 0.000000
# 2 -0.001930 0.028434 0.001711 0.000000 0.000000 0.000000
# 3 -0.008392 0.001711 0.012802 0.000000 0.000000 0.000000
# 4 0.000000 0.000000 0.000000 -0.022996 0.000000 0.000000
# 5 0.000000 0.000000 0.000000 0.000000 0.022682 0.000000
# 6 0.000000 0.000000 0.000000 0.000000 0.000000 0.017308
#
#
# Mechanical properties :
#
#
# Convention : Reuss Voigt Hill
#
# Bulk Modulus (GPa) = 29.21689 78.56572 53.89131
# Shear Modulus (GPa) = 51.50736 29.93740 40.72238
#
# Velocity S-wave (km/s) = 5.09992 3.88808 4.53466
# Velocity P-wave (km/s) = 7.03081 7.73491 7.39125
#
# Compressibility (1/GPa) = 0.03422678
#
# Stress axis : x y z
#
# Youngs Moduli (GPa) = 97.92557 35.16865 78.11165
#
# Poissons Ratio (x) = 0.06788 0.65552
# Poissons Ratio (y) = 0.18901 -0.13368
# Poissons Ratio (z) = 0.82181 -0.06019
#
# Static dielectric constant tensor:
#      x y z
#    x 1.705140 0.000000 0.000000 
#    y 0.000000 1.742160 0.000000 
#    z 0.000000 0.000000 1.662900 
# 
# From -- ./inp_files/13048.got.cif
#   From: 2010.05.17/outbox.cif.g08.bks.cpg/sg47_7_cif.got.tgz:13048.got - 2010.06.03 20:15:42.
