data_PCOD9382385
_publ_section_title
;
Structure prediction by ZEFSAII (Michael W. Deem and Ramdas Pophale) SiO2 
 PCOD9382385
Probable space group: P M M M
;
_chemical_formula_sum "Si O2"
_cell_formula_units_Z 48
_cell_length_a 24.206117
_cell_length_b 13.865510
_cell_length_c 9.435407
_cell_angle_alpha 90.000000
_cell_angle_beta 90.000000
_cell_angle_gamma 90.000000
_cell_volume 3166.807136
_symmetry_space_group_name_H-M "P M M M"
_symmetry_group_IT_number 47
_symmetry_cell_setting 'orthorhombic'
loop_
_space_group_symop_operation_xyz
x,y,z
-x,-y,z
x,-y,-z
-x,y,-z
-x,-y,-z
x,y,-z
-x,y,z
x,-y,z
loop_
_atom_site_type_symbol
_atom_site_label
_atom_site_fract_x
_atom_site_fract_y
_atom_site_fract_z
Si Si1 0.107174 0.111412 0.332245
Si Si2 0.561671 0.117080 0.664579
Si Si3 0.329980 0.115910 0.167004
Si Si4 0.161219 0.390069 0.668281
Si Si5 0.772932 0.799331 0.333197
Si Si6 0.063314 0.291979 0.168365
O O1 0.095891 0.127331 0.500000
O O2 0.172112 0.135839 0.310841
O O3 0.073795 0.187303 0.238512
O O4 0.095971 0.000000 0.299091
O O5 0.570034 0.144284 0.500000
O O6 0.500000 0.148886 0.708866
O O7 0.612728 0.148380 0.760424
O O8 0.561155 0.000000 0.668795
O O9 0.277827 0.165187 0.240898
O O10 0.325256 0.000000 0.187428
O O11 0.330902 0.134829 0.000000
O O12 0.148904 0.379857 0.500000
O O13 0.178021 0.500000 0.695257
O O14 0.207303 0.309500 0.700218
O O15 0.107010 0.362079 0.756532
O O16 0.758840 0.805361 0.500000
O O17 0.000000 0.321434 0.192397
O O18 0.073220 0.287849 0.000000
#
# Coordination Sequence:
#
# PCOD9382385 Si02
#       6
#     8   8   8   8   8   8
#     4   9  18  32  49  67  87 116 153 188 220 254
#     4   8  14  25  40  57  80 115 157 193 221 249
#     4  10  19  27  38  61  92 124 154 182 213 250
#     4   9  19  36  55  71  86 108 141 182 227 270
#     4   9  17  30  47  65  86 111 141 179 220 262
#     4  10  21  34  47  67  94 119 143 174 215 266
#
# _framework density 15.157223
#
# number of rings (size 3 to 8) (size 9 to 14) (size 15 to 20)
#    0.000    2.833    0.000    3.000    0.000    7.333 
#    0.000    5.000    0.000    0.000    0.000    0.000 
#    0.000    0.667    0.000    7.667    0.000    2.500 
#
# Total GULP energy -267491.831775 kJ/mol
# GULP energy per Si atom -5572.746495 kJ/mol
# Density = 1.512272 g / cm^3
# Si number density = 15.157223 Si / 1000 Ang^3
#
#
#
# Elastic Constant Matrix: (Units=GPa)
#
#
# Indices 1 2 3 4 5 6 
#
# 1 93.0781 12.8403 64.6784 0.0000 0.0000 0.0000
# 2 12.8403 42.9483 24.6318 0.0000 0.0000 0.0000
# 3 64.6784 24.6318 65.4996 0.0000 0.0000 0.0000
# 4 0.0000 0.0000 0.0000 11.5785 0.0000 0.0000
# 5 0.0000 0.0000 0.0000 0.0000 135.3083 0.0000
# 6 0.0000 0.0000 0.0000 0.0000 0.0000 9.0501
#
#
#
# Elastic Compliance Matrix: (Units=1/GPa)
#
#
# Indices 1 2 3 4 5 6 
#
# 1 0.039531 0.013476 -0.044103 0.000000 0.000000 0.000000
# 2 0.013476 0.034280 -0.026198 0.000000 0.000000 0.000000
# 3 -0.044103 -0.026198 0.068670 0.000000 0.000000 0.000000
# 4 0.000000 0.000000 0.000000 0.086367 0.000000 0.000000
# 5 0.000000 0.000000 0.000000 0.000000 0.007391 0.000000
# 6 0.000000 0.000000 0.000000 0.000000 0.000000 0.110496
#
#
# Mechanical properties :
#
#
# Convention : Reuss Voigt Hill
#
# Bulk Modulus (GPa) = 34.68656 45.09187 39.88922
# Shear Modulus (GPa) = 10.63839 37.81241 24.22540
#
# Velocity S-wave (km/s) = 2.65216 5.00010 4.00218
# Velocity P-wave (km/s) = 5.68443 7.94661 6.90874
#
# Compressibility (1/GPa) = 0.02882961
#
# Stress axis : x y z
#
# Youngs Moduli (GPa) = 25.29642 29.17137 14.56248
#
# Poissons Ratio (x) = -0.39310 0.64225
# Poissons Ratio (y) = -0.34088 0.38151
# Poissons Ratio (z) = 1.11565 0.76423
#
# Static dielectric constant tensor:
#      x y z
#    x 1.494310 0.000000 0.000000 
#    y 0.000000 1.494890 0.000000 
#    z 0.000000 0.000000 1.500380 
# 
# From -- ./inp_files/6812.got.cif
#   From: 2010.05.17/outbox.cif.g08.bks.cpg/sg47_4_cif.got.tgz:6812.got - 2010.06.03 20:15:42.
