data_PCOD9382013
_publ_section_title
;
Structure prediction by ZEFSAII (Michael W. Deem and Ramdas Pophale) SiO2 
 PCOD9382013
Probable space group: P M M M
;
_chemical_formula_sum "Si O2"
_cell_formula_units_Z 44
_cell_length_a 27.920819
_cell_length_b 10.245503
_cell_length_c 8.749013
_cell_angle_alpha 90.000000
_cell_angle_beta 90.000000
_cell_angle_gamma 90.000000
_cell_volume 2502.767461
_symmetry_space_group_name_H-M "P M M M"
_symmetry_group_IT_number 47
_symmetry_cell_setting 'orthorhombic'
loop_
_space_group_symop_operation_xyz
x,y,z
-x,-y,z
x,-y,-z
-x,y,-z
-x,-y,-z
x,y,-z
-x,y,z
x,-y,z
loop_
_atom_site_type_symbol
_atom_site_label
_atom_site_fract_x
_atom_site_fract_y
_atom_site_fract_z
Si Si1 0.000000 0.847292 0.186556
Si Si2 0.712859 0.346993 0.817435
Si Si3 0.444859 0.000000 0.686438
Si Si4 0.445357 0.500000 0.313843
Si Si5 0.813413 0.658166 0.325126
Si Si6 0.915504 0.651599 0.184231
Si Si7 0.384042 0.250380 0.684826
O O1 0.954291 0.759269 0.234078
O O2 0.000000 0.000000 0.236313
O O3 0.000000 0.850306 0.000000
O O4 0.706266 0.500000 0.770178
O O5 0.764289 0.300616 0.755594
O O6 0.668723 0.265348 0.752241
O O7 0.713086 0.343206 0.000000
O O8 0.414322 0.125168 0.732840
O O9 0.500000 0.000000 0.739243
O O10 0.446865 0.000000 0.500000
O O11 0.500000 0.500000 0.259723
O O12 0.447060 0.500000 0.500000
O O13 0.415577 0.625762 0.266952
O O14 0.814426 0.702990 0.500000
O O15 0.812059 0.500000 0.324830
O O16 0.862766 0.690925 0.240929
O O17 0.925583 0.500000 0.234039
O O18 0.915933 0.648939 0.000000
O O19 0.380298 0.250340 0.500000
#
# Coordination Sequence:
#
# PCOD9382013 Si02
#       7
#     4   8   4   4   8   8   8
#     4   9  17  29  48  73 102 136 170 203 240 288
#     4  10  19  31  49  74 103 131 162 204 253 300
#     4   9  18  32  51  75 101 129 163 204 247 292
#     4   9  16  26  45  73  99 125 161 200 237 284
#     4   9  17  29  48  74 102 129 162 205 252 297
#     4   9  16  28  48  74 101 130 167 207 244 283
#     4  10  18  30  50  74 100 129 163 203 246 292
#
# _framework density 17.580539000000002
#
# number of rings (size 3 to 8) (size 9 to 14) (size 15 to 20)
#    0.000    2.636    0.909    1.909    0.000    6.182 
#    0.000    0.909    2.000    6.545    0.000    0.000 
#    0.000    0.000    0.000    0.000    0.000    0.000 
#
# Total GULP energy -245196.607823 kJ/mol
# GULP energy per Si atom -5572.650178 kJ/mol
# Density = 1.754052 g / cm^3
# Si number density = 17.580539 Si / 1000 Ang^3
#
#
#
# Elastic Constant Matrix: (Units=GPa)
#
#
# Indices 1 2 3 4 5 6 
#
# 1 201.9686 90.0903 33.5087 0.0000 0.0000 0.0000
# 2 90.0903 119.3740 22.2203 0.0000 0.0000 0.0000
# 3 33.5087 22.2203 18.4693 0.0000 0.0000 0.0000
# 4 0.0000 0.0000 0.0000 3.7069 0.0000 0.0000
# 5 0.0000 0.0000 0.0000 0.0000 28.0057 0.0000
# 6 0.0000 0.0000 0.0000 0.0000 0.0000 23.1485
#
#
#
# Elastic Compliance Matrix: (Units=1/GPa)
#
#
# Indices 1 2 3 4 5 6 
#
# 1 0.008739 -0.004696 -0.010206 0.000000 0.000000 0.000000
# 2 -0.004696 0.013317 -0.007503 0.000000 0.000000 0.000000
# 3 -0.010206 -0.007503 0.081687 0.000000 0.000000 0.000000
# 4 0.000000 0.000000 0.000000 0.269765 0.000000 0.000000
# 5 0.000000 0.000000 0.000000 0.000000 0.035707 0.000000
# 6 0.000000 0.000000 0.000000 0.000000 0.000000 0.043199
#
#
# Mechanical properties :
#
#
# Convention : Reuss Voigt Hill
#
# Bulk Modulus (GPa) = 16.96797 70.16116 43.56457
# Shear Modulus (GPa) = 9.67365 23.90507 16.78936
#
# Velocity S-wave (km/s) = 2.34828 3.69147 3.09365
# Velocity P-wave (km/s) = 4.12615 7.62656 6.13145
#
# Compressibility (1/GPa) = 0.05893457
#
# Stress axis : x y z
#
# Youngs Moduli (GPa) = 114.42923 75.09049 12.24185
#
# Poissons Ratio (x) = 0.35259 0.12494
# Poissons Ratio (y) = 0.53730 0.09185
# Poissons Ratio (z) = 1.16786 0.56339
#
# Static dielectric constant tensor:
#      x y z
#    x 1.586510 0.000000 0.000000 
#    y 0.000000 1.514250 0.000000 
#    z 0.000000 0.000000 1.598290 
# 
# From -- ./inp_files/13704.got.cif
#   From: 2010.05.17/outbox.cif.g08.bks.cpg/sg47_7_cif.got.tgz:13704.got - 2010.06.03 20:15:42.
