data_PCOD9382510
_publ_section_title
;
Structure prediction by ZEFSAII (Michael W. Deem and Ramdas Pophale) SiO2 
 PCOD9382510
Probable space group: P M M M
;
_chemical_formula_sum "Si O2"
_cell_formula_units_Z 56
_cell_length_a 14.216316
_cell_length_b 30.258558
_cell_length_c 8.479348
_cell_angle_alpha 90.000000
_cell_angle_beta 90.000000
_cell_angle_gamma 90.000000
_cell_volume 3647.520617
_symmetry_space_group_name_H-M "P M M M"
_symmetry_group_IT_number 47
_symmetry_cell_setting 'orthorhombic'
loop_
_space_group_symop_operation_xyz
x,y,z
-x,-y,z
x,-y,-z
-x,y,-z
-x,-y,-z
x,y,-z
-x,y,z
x,-y,z
loop_
_atom_site_type_symbol
_atom_site_label
_atom_site_fract_x
_atom_site_fract_y
_atom_site_fract_z
Si Si1 0.890399 0.642376 0.312465
Si Si2 0.886534 0.548215 0.186750
Si Si3 0.390692 0.049433 0.307663
Si Si4 0.210542 0.727996 0.813352
Si Si5 0.894246 0.813776 0.690435
Si Si6 0.289187 0.137173 0.692231
Si Si7 0.606980 0.227068 0.690673
O O1 0.889564 0.647932 0.500000
O O2 0.855639 0.593100 0.270017
O O3 0.827861 0.680393 0.236294
O O4 0.000000 0.646520 0.258748
O O5 0.851736 0.500000 0.243446
O O6 0.000000 0.547319 0.204643
O O7 0.867059 0.551400 0.000000
O O8 0.388153 0.049639 0.500000
O O9 0.500000 0.056334 0.263861
O O10 0.327546 0.090144 0.251755
O O11 0.362278 0.000000 0.256854
O O12 0.143584 0.765678 0.739015
O O13 0.315576 0.738970 0.754106
O O14 0.207586 0.732533 0.000000
O O15 0.895711 0.815103 0.500000
O O16 0.815339 0.848796 0.744067
O O17 0.000000 0.821422 0.748343
O O18 0.288891 0.135935 0.500000
O O19 0.357457 0.177882 0.736652
O O20 0.609264 0.228729 0.500000
O O21 0.500000 0.234726 0.742611
#
# Coordination Sequence:
#
# PCOD9382510 Si02
#       7
#     8   8   8   8   8   8   8
#     4  10  19  29  42  60  84 115 149 182 212 246
#     4   8  14  25  40  58  82 112 144 177 214 254
#     4   8  12  17  28  50  79 106 130 160 201 249
#     4  11  21  30  42  61  85 110 137 172 213 254
#     4   9  17  29  43  57  76 105 141 177 210 247
#     4   8  13  22  37  56  77 104 137 167 198 241
#     4   9  17  30  47  63  81 108 139 169 203 247
#
# _framework density 15.352895
#
# number of rings (size 3 to 8) (size 9 to 14) (size 15 to 20)
#    0.000    3.000    0.000    4.286    0.000    5.143 
#    0.000    1.429    0.000    0.429    0.000    3.000 
#    0.000    9.714    0.000   42.571    0.000   37.143 
#
# Total GULP energy -311841.223270 kJ/mol
# GULP energy per Si atom -5568.593273 kJ/mol
# Density = 1.531795 g / cm^3
# Si number density = 15.352895 Si / 1000 Ang^3
#
#
#
# Elastic Constant Matrix: (Units=GPa)
#
#
# Indices 1 2 3 4 5 6 
#
# 1 104.5159 64.7850 14.1668 0.0000 0.0000 0.0000
# 2 64.7850 118.8553 11.8661 0.0000 0.0000 0.0000
# 3 14.1668 11.8661 6.9855 0.0000 0.0000 0.0000
# 4 0.0000 0.0000 0.0000 -63.6573 0.0000 0.0000
# 5 0.0000 0.0000 0.0000 0.0000 6.4044 0.0000
# 6 0.0000 0.0000 0.0000 0.0000 0.0000 19.2814
#
#
#
# Elastic Compliance Matrix: (Units=1/GPa)
#
#
# Indices 1 2 3 4 5 6 
#
# 1 0.016953 -0.006994 -0.022500 0.000000 0.000000 0.000000
# 2 -0.006994 0.013018 -0.007928 0.000000 0.000000 0.000000
# 3 -0.022500 -0.007928 0.202251 0.000000 0.000000 0.000000
# 4 0.000000 0.000000 0.000000 -0.015709 0.000000 0.000000
# 5 0.000000 0.000000 0.000000 0.000000 0.156142 0.000000
# 6 0.000000 0.000000 0.000000 0.000000 0.000000 0.051863
#
#
# Mechanical properties :
#
#
# Convention : Reuss Voigt Hill
#
# Bulk Modulus (GPa) = 6.35416 45.77695 26.06555
# Shear Modulus (GPa) = 9.06087 1.70830 5.38459
#
# Velocity S-wave (km/s) = 2.43198 1.05599 1.87479
# Velocity P-wave (km/s) = 3.46898 5.60072 4.65842
#
# Compressibility (1/GPa) = 0.15737719
#
# Stress axis : x y z
#
# Youngs Moduli (GPa) = 58.98532 76.81925 4.94434
#
# Poissons Ratio (x) = 0.53731 0.11125
# Poissons Ratio (y) = 0.41257 0.03920
# Poissons Ratio (z) = 1.32720 0.60899
#
# Static dielectric constant tensor:
#      x y z
#    x 1.504320 0.000000 0.000000 
#    y 0.000000 1.569600 0.000000 
#    z 0.000000 0.000000 1.525750 
# 
# From -- ./inp_files/8169.got.cif
#   From: 2010.05.17/outbox.cif.g08.bks.cpg/sg47_5_cif.got.tgz:8169.got - 2010.06.03 20:15:42.
