data_PCOD9382902
_publ_section_title
;
Structure prediction by ZEFSAII (Michael W. Deem and Ramdas Pophale) SiO2 
 PCOD9382902
Probable space group: P M M M
;
_chemical_formula_sum "Si O2"
_cell_formula_units_Z 44
_cell_length_a 32.327814
_cell_length_b 7.537749
_cell_length_c 8.189617
_cell_angle_alpha 90.000000
_cell_angle_beta 90.000000
_cell_angle_gamma 90.000000
_cell_volume 1995.637252
_symmetry_space_group_name_H-M "P M M M"
_symmetry_group_IT_number 47
_symmetry_cell_setting 'orthorhombic'
loop_
_space_group_symop_operation_xyz
x,y,z
-x,-y,z
x,-y,-z
-x,y,-z
-x,-y,-z
x,y,-z
-x,y,z
x,-y,z
loop_
_atom_site_type_symbol
_atom_site_label
_atom_site_fract_x
_atom_site_fract_y
_atom_site_fract_z
Si Si1 0.633199 0.714669 0.817081
Si Si2 0.000000 0.207035 0.304112
Si Si3 0.092023 0.292922 0.312943
Si Si4 0.544959 0.715600 0.692223
Si Si5 0.858990 0.713608 0.000000
Si Si6 0.237998 0.786965 0.000000
Si Si7 0.718836 0.791236 0.675309
O O1 0.632433 0.500000 0.812262
O O2 0.587081 0.777830 0.774700
O O3 0.669574 0.774331 0.699083
O O4 0.644219 0.771774 0.000000
O O5 0.955722 0.281989 0.253439
O O6 0.000000 0.230810 0.500000
O O7 0.000000 0.000000 0.264640
O O8 0.095043 0.218210 0.500000
O O9 0.102574 0.500000 0.327927
O O10 0.120161 0.217041 0.167728
O O11 0.546962 0.758202 0.500000
O O12 0.500000 0.776082 0.755604
O O13 0.544910 0.500000 0.704852
O O14 0.810506 0.751128 0.000000
O O15 0.865257 0.500000 0.000000
O O16 0.259233 0.715074 0.164524
O O17 0.244534 0.000000 0.000000
O O18 0.730985 0.714016 0.500000
O O19 0.728852 0.000000 0.671211
#
# Coordination Sequence:
#
# PCOD9382902 Si02
#       7
#     8   4   8   8   4   4   8
#     4  10  19  30  49  78 107 134 169 214 260 307
#     4   9  17  30  51  80 111 143 184 229 263 298
#     4   9  18  34  54  76 107 146 181 215 261 311
#     4   8  14  25  41  64  98 137 172 207 250 301
#     4  10  22  37  55  80 107 137 177 220 260 316
#     4  10  22  40  57  77 105 133 167 215 266 321
#     4  10  21  38  59  79 101 135 174 212 263 322
#
# _framework density 22.048096000000001
#
# number of rings (size 3 to 8) (size 9 to 14) (size 15 to 20)
#    0.000    2.636    0.909    1.364    0.000    5.091 
#    0.000    3.636    0.000    0.545    0.000    3.818 
#    0.000    0.000    0.000    0.000    0.000    0.000 
#
# Total GULP energy -245479.545995 kJ/mol
# GULP energy per Si atom -5579.080591 kJ/mol
# Density = 2.199791 g / cm^3
# Si number density = 22.048096 Si / 1000 Ang^3
#
#
#
# Elastic Constant Matrix: (Units=GPa)
#
#
# Indices 1 2 3 4 5 6 
#
# 1 142.7581 -15.8797 82.0860 0.0000 0.0000 0.0000
# 2 -15.8797 59.3329 16.1095 0.0000 0.0000 0.0000
# 3 82.0860 16.1095 168.3843 0.0000 0.0000 0.0000
# 4 0.0000 0.0000 0.0000 -1.9069 0.0000 0.0000
# 5 0.0000 0.0000 0.0000 0.0000 91.1271 0.0000
# 6 0.0000 0.0000 0.0000 0.0000 0.0000 25.3927
#
#
#
# Elastic Compliance Matrix: (Units=1/GPa)
#
#
# Indices 1 2 3 4 5 6 
#
# 1 0.010753 0.004416 -0.005665 0.000000 0.000000 0.000000
# 2 0.004416 0.019117 -0.003982 0.000000 0.000000 0.000000
# 3 -0.005665 -0.003982 0.009081 0.000000 0.000000 0.000000
# 4 0.000000 0.000000 0.000000 -0.524413 0.000000 0.000000
# 5 0.000000 0.000000 0.000000 0.000000 0.010974 0.000000
# 6 0.000000 0.000000 0.000000 0.000000 0.000000 0.039381
#
#
# Mechanical properties :
#
#
# Convention : Reuss Voigt Hill
#
# Bulk Modulus (GPa) = 35.09915 59.45635 47.27775
# Shear Modulus (GPa) = -12.04387 42.13321 15.04467
#
# Velocity S-wave (km/s) = -2.33974 4.37620 2.61503
# Velocity P-wave (km/s) = 2.94189 7.24983 5.53240
#
# Compressibility (1/GPa) = 0.02849072
#
# Stress axis : x y z
#
# Youngs Moduli (GPa) = 92.99553 52.30949 110.11796
#
# Poissons Ratio (x) = -0.23100 0.62377
# Poissons Ratio (y) = -0.41066 0.43846
# Poissons Ratio (z) = 0.52678 0.20828
#
# Static dielectric constant tensor:
#      x y z
#    x 1.773470 0.000000 0.000000 
#    y 0.000000 1.829660 0.000000 
#    z 0.000000 0.000000 1.832790 
# 
# From -- ./inp_files/13699.got.cif
#   From: 2010.05.17/outbox.cif.g08.bks.cpg/sg47_7_cif.got.tgz:13699.got - 2010.06.03 20:15:42.
