data_PCOD9382854
_publ_section_title
;
Structure prediction by ZEFSAII (Michael W. Deem and Ramdas Pophale) SiO2 
 PCOD9382854
Probable space group: P M M M
;
_chemical_formula_sum "Si O2"
_cell_formula_units_Z 64
_cell_length_a 9.040089
_cell_length_b 14.638603
_cell_length_c 28.741447
_cell_angle_alpha 90.000000
_cell_angle_beta 90.000000
_cell_angle_gamma 90.000000
_cell_volume 3803.478521
_symmetry_space_group_name_H-M "P M M M"
_symmetry_group_IT_number 47
_symmetry_cell_setting 'orthorhombic'
loop_
_space_group_symop_operation_xyz
x,y,z
-x,-y,z
x,-y,-z
-x,y,-z
-x,-y,-z
x,y,-z
-x,y,z
x,-y,z
loop_
_atom_site_type_symbol
_atom_site_label
_atom_site_fract_x
_atom_site_fract_y
_atom_site_fract_z
Si Si1 0.324375 0.894394 0.055197
Si Si2 0.175929 0.775757 0.867265
Si Si3 0.678117 0.605050 0.446427
Si Si4 0.176954 0.105193 0.313509
Si Si5 0.177332 0.717538 0.634934
Si Si6 0.325931 0.109042 0.785444
Si Si7 0.675993 0.392950 0.825526
Si Si8 0.172905 0.391225 0.728069
O O1 0.500000 0.883218 0.064518
O O2 0.233195 0.824959 0.086301
O O3 0.286647 0.000000 0.066654
O O4 0.301539 0.882075 0.000000
O O5 0.239391 0.835450 0.824466
O O6 0.243155 0.675045 0.860539
O O7 0.000000 0.773052 0.865579
O O8 0.720900 0.624019 0.500000
O O9 0.500000 0.608769 0.444041
O O10 0.722376 0.500000 0.435663
O O11 0.746622 0.673866 0.409596
O O12 0.215464 0.177774 0.353244
O O13 0.260222 0.128007 0.265611
O O14 0.000000 0.112817 0.305078
O O15 0.209726 0.000000 0.325539
O O16 0.218098 0.661165 0.681541
O O17 0.000000 0.710205 0.629599
O O18 0.500000 0.131186 0.787334
O O19 0.309640 0.000000 0.793512
O O20 0.500000 0.381572 0.828362
O O21 0.711636 0.500000 0.833118
O O22 0.731908 0.369032 0.773491
O O23 0.183618 0.500000 0.720037
O O24 0.000000 0.369267 0.737657
#
# Coordination Sequence:
#
# PCOD9382854 Si02
#       8
#     8   8   8   8   8   8   8   8
#     4   9  19  37  59  81 106 135 166 204 251 300
#     4  12  23  33  51  77 105 138 172 207 251 302
#     4   9  19  35  52  71  96 123 151 190 244 300
#     4   9  18  32  48  69 101 136 167 202 245 290
#     4  10  19  30  48  73  97 126 164 200 237 286
#     4  10  20  33  50  74 104 136 172 212 249 290
#     4  10  21  36  53  73  99 134 176 217 253 292
#     4   9  17  29  45  69 102 132 159 198 247 296
#
# _framework density 16.826702000000001
#
# number of rings (size 3 to 8) (size 9 to 14) (size 15 to 20)
#    0.000    2.250    0.000    4.125    0.000    6.500 
#    0.000    2.500    0.000    0.750    0.000    5.250 
#    0.000    0.000    0.000    0.000    0.000    0.000 
#
# Total GULP energy -357313.818530 kJ/mol
# GULP energy per Si atom -5583.028415 kJ/mol
# Density = 1.678840 g / cm^3
# Si number density = 16.826702 Si / 1000 Ang^3
#
#
#
# Elastic Constant Matrix: (Units=GPa)
#
#
# Indices 1 2 3 4 5 6 
#
# 1 68.7547 58.2609 53.3601 0.0000 0.0000 0.0000
# 2 58.2609 92.8732 69.5253 0.0000 0.0000 0.0000
# 3 53.3601 69.5253 80.0174 0.0000 0.0000 0.0000
# 4 0.0000 0.0000 0.0000 32.8720 0.0000 0.0000
# 5 0.0000 0.0000 0.0000 0.0000 35.0666 0.0000
# 6 0.0000 0.0000 0.0000 0.0000 0.0000 22.8245
#
#
#
# Elastic Compliance Matrix: (Units=1/GPa)
#
#
# Indices 1 2 3 4 5 6 
#
# 1 0.034709 -0.012720 -0.012094 0.000000 0.000000 0.000000
# 2 -0.012720 0.035465 -0.022332 0.000000 0.000000 0.000000
# 3 -0.012094 -0.022332 0.039966 0.000000 0.000000 0.000000
# 4 0.000000 0.000000 0.000000 0.030421 0.000000 0.000000
# 5 0.000000 0.000000 0.000000 0.000000 0.028517 0.000000
# 6 0.000000 0.000000 0.000000 0.000000 0.000000 0.043813
#
#
# Mechanical properties :
#
#
# Convention : Reuss Voigt Hill
#
# Bulk Modulus (GPa) = 63.09986 67.10421 65.10204
# Shear Modulus (GPa) = 16.00181 22.18589 19.09385
#
# Velocity S-wave (km/s) = 3.08714 3.63505 3.37224
# Velocity P-wave (km/s) = 7.09144 7.58843 7.34414
#
# Compressibility (1/GPa) = 0.01584790
#
# Stress axis : x y z
#
# Youngs Moduli (GPa) = 28.81099 28.19705 25.02135
#
# Poissons Ratio (x) = 0.35867 0.30260
# Poissons Ratio (y) = 0.36648 0.55878
# Poissons Ratio (z) = 0.34843 0.62970
#
# Static dielectric constant tensor:
#      x y z
#    x 1.561720 0.000000 0.000000 
#    y 0.000000 1.587300 0.000000 
#    z 0.000000 0.000000 1.536720 
# 
# From -- ./inp_files/32153.got.cif
#   From: 2010.05.17/outbox.cif.g08.bks.cpg/sg47_17_cif.got.tgz:32153.got - 2010.06.03 20:15:42.
