data_PCOD9382583
_publ_section_title
;
Structure prediction by ZEFSAII (Michael W. Deem and Ramdas Pophale) SiO2 
 PCOD9382583
Probable space group: P M M M
;
_chemical_formula_sum "Si O2"
_cell_formula_units_Z 52
_cell_length_a 27.063829
_cell_length_b 14.042915
_cell_length_c 9.209249
_cell_angle_alpha 90.000000
_cell_angle_beta 90.000000
_cell_angle_gamma 90.000000
_cell_volume 3500.021591
_symmetry_space_group_name_H-M "P M M M"
_symmetry_group_IT_number 47
_symmetry_cell_setting 'orthorhombic'
loop_
_space_group_symop_operation_xyz
x,y,z
-x,-y,z
x,-y,-z
-x,y,-z
-x,-y,-z
x,y,-z
-x,y,z
x,-y,z
loop_
_atom_site_type_symbol
_atom_site_label
_atom_site_fract_x
_atom_site_fract_y
_atom_site_fract_z
Si Si1 0.853390 0.790920 0.672757
Si Si2 0.297952 0.713953 0.825724
Si Si3 0.791771 0.609609 0.326506
Si Si4 0.056182 0.111133 0.825412
Si Si5 0.500000 0.615706 0.332994
Si Si6 0.749559 0.110433 0.325911
Si Si7 0.399890 0.388175 0.173740
O O1 0.861617 0.797078 0.500000
O O2 0.835277 0.684086 0.708457
O O3 0.901707 0.825393 0.754666
O O4 0.805874 0.857283 0.707595
O O5 0.256493 0.643950 0.759482
O O6 0.285949 0.816777 0.757516
O O7 0.351883 0.673307 0.787935
O O8 0.293616 0.716780 0.000000
O O9 0.782171 0.619358 0.500000
O O10 0.803456 0.500000 0.295798
O O11 0.000000 0.136904 0.782549
O O12 0.064009 0.000000 0.785621
O O13 0.059005 0.117069 0.000000
O O14 0.500000 0.500000 0.329322
O O15 0.500000 0.646092 0.500000
O O16 0.550232 0.644703 0.252549
O O17 0.743333 0.122350 0.500000
O O18 0.742107 0.000000 0.289407
O O19 0.391052 0.500000 0.209887
O O20 0.407050 0.383232 0.000000
#
# Coordination Sequence:
#
# PCOD9382583 Si02
#       7
#     8   8   8   8   4   8   8
#     4   9  17  29  46  67  87 110 144 181 215 254
#     4  10  19  29  44  68  93 117 149 185 219 259
#     4   9  18  32  47  63  88 121 151 180 217 259
#     4   9  18  31  45  63  88 115 141 172 215 265
#     4   9  17  27  41  63  86 111 148 187 217 252
#     4   9  18  32  47  64  90 121 149 179 218 263
#     4   9  17  29  43  60  88 122 148 175 216 261
#
# _framework density 14.857051
#
# number of rings (size 3 to 8) (size 9 to 14) (size 15 to 20)
#    0.000    2.846    0.000    3.000    0.000    7.077 
#    0.000    2.308    0.000    0.462    0.000    3.769 
#    0.000    4.308    0.000    0.000    0.000    0.000 
#
# Total GULP energy -289761.112691 kJ/mol
# GULP energy per Si atom -5572.329090 kJ/mol
# Density = 1.482324 g / cm^3
# Si number density = 14.857051 Si / 1000 Ang^3
#
#
#
# Elastic Constant Matrix: (Units=GPa)
#
#
# Indices 1 2 3 4 5 6 
#
# 1 147.8802 80.4521 61.3489 0.0000 0.0000 0.0000
# 2 80.4521 114.1533 45.8382 0.0000 0.0000 0.0000
# 3 61.3489 45.8382 37.8868 0.0000 0.0000 0.0000
# 4 0.0000 0.0000 0.0000 21.9886 0.0000 0.0000
# 5 0.0000 0.0000 0.0000 0.0000 76.0003 0.0000
# 6 0.0000 0.0000 0.0000 0.0000 0.0000 21.9184
#
#
#
# Elastic Compliance Matrix: (Units=1/GPa)
#
#
# Indices 1 2 3 4 5 6 
#
# 1 0.020886 -0.002216 -0.031139 0.000000 0.000000 0.000000
# 2 -0.002216 0.017272 -0.017309 0.000000 0.000000 0.000000
# 3 -0.031139 -0.017309 0.097758 0.000000 0.000000 0.000000
# 4 0.000000 0.000000 0.000000 0.045478 0.000000 0.000000
# 5 0.000000 0.000000 0.000000 0.000000 0.013158 0.000000
# 6 0.000000 0.000000 0.000000 0.000000 0.000000 0.045624
#
#
# Mechanical properties :
#
#
# Convention : Reuss Voigt Hill
#
# Bulk Modulus (GPa) = 28.91118 75.02210 51.96664
# Shear Modulus (GPa) = 14.16299 31.46686 22.81493
#
# Velocity S-wave (km/s) = 3.09088 4.60714 3.92296
# Velocity P-wave (km/s) = 5.67802 8.88294 7.45474
#
# Compressibility (1/GPa) = 0.03458870
#
# Stress axis : x y z
#
# Youngs Moduli (GPa) = 47.87915 57.89594 10.22937
#
# Poissons Ratio (x) = 0.12830 0.31853
# Poissons Ratio (y) = 0.10611 0.17706
# Poissons Ratio (z) = 1.49089 1.00211
#
# Static dielectric constant tensor:
#      x y z
#    x 1.469980 0.000000 0.000000 
#    y 0.000000 1.485980 0.000000 
#    z 0.000000 0.000000 1.495710 
# 
# From -- ./inp_files/7695.got.cif
#   From: 2010.05.17/outbox.cif.g08.bks.cpg/sg47_4_cif.got.tgz:7695.got - 2010.06.03 20:15:42.
