data_PCOD9382543
_publ_section_title
;
Structure prediction by ZEFSAII (Michael W. Deem and Ramdas Pophale) SiO2 
 PCOD9382543
Probable space group: P M M M
;
_chemical_formula_sum "Si O2"
_cell_formula_units_Z 56
_cell_length_a 8.001142
_cell_length_b 14.112602
_cell_length_c 31.698510
_cell_angle_alpha 90.000000
_cell_angle_beta 90.000000
_cell_angle_gamma 90.000000
_cell_volume 3579.298517
_symmetry_space_group_name_H-M "P M M M"
_symmetry_group_IT_number 47
_symmetry_cell_setting 'orthorhombic'
loop_
_space_group_symop_operation_xyz
x,y,z
-x,-y,z
x,-y,-z
-x,y,-z
-x,-y,-z
x,y,-z
-x,y,z
x,-y,z
loop_
_atom_site_type_symbol
_atom_site_label
_atom_site_fract_x
_atom_site_fract_y
_atom_site_fract_z
Si Si1 0.298229 0.106231 0.218487
Si Si2 0.296715 0.795674 0.305922
Si Si3 0.500000 0.115060 0.451770
Si Si4 0.301157 0.608395 0.000000
Si Si5 0.810118 0.886444 0.393178
Si Si6 0.699679 0.394447 0.737507
Si Si7 0.198974 0.703557 0.176291
Si Si8 0.200941 0.390869 0.090657
O O1 0.500000 0.106254 0.217617
O O2 0.249966 0.139304 0.265726
O O3 0.239639 0.187668 0.186784
O O4 0.238555 0.000000 0.209661
O O5 0.500000 0.797479 0.309275
O O6 0.221838 0.834776 0.348896
O O7 0.240832 0.689452 0.293313
O O8 0.500000 0.148863 0.500000
O O9 0.333497 0.142852 0.426154
O O10 0.500000 0.000000 0.452988
O O11 0.246504 0.650140 0.044787
O O12 0.231965 0.500000 0.000000
O O13 0.500000 0.604202 0.000000
O O14 0.000000 0.868902 0.407862
O O15 0.792613 0.000000 0.386486
O O16 0.500000 0.398482 0.731966
O O17 0.768683 0.500000 0.730943
O O18 0.731257 0.358812 0.785112
O O19 0.262276 0.667402 0.131078
O O20 0.000000 0.691826 0.177036
O O21 0.263245 0.500000 0.093089
O O22 0.000000 0.394122 0.092737
#
# Coordination Sequence:
#
# PCOD9382543 Si02
#       8
#     8   8   4   4   8   8   8   8
#     4   9  18  31  46  63  86 118 152 186 223 260
#     4   9  16  28  45  63  88 121 154 190 228 266
#     4   9  18  32  48  66  93 127 157 191 234 275
#     4   9  17  27  41  63  84 103 134 177 217 252
#     4  10  19  29  45  69  94 123 158 192 229 275
#     4   9  18  31  45  62  88 123 157 187 221 261
#     4  10  19  29  43  64  88 116 149 182 218 262
#     4   9  17  29  43  59  84 116 143 169 210 264
#
# _framework density 15.645524
#
# number of rings (size 3 to 8) (size 9 to 14) (size 15 to 20)
#    0.000    2.714    0.714    2.357    0.000    6.286 
#    0.000    2.857    0.000    0.000    0.000    0.500 
#    0.000    5.143    0.000    1.286    0.000    0.143 
#
# Total GULP energy -312021.648189 kJ/mol
# GULP energy per Si atom -5571.815146 kJ/mol
# Density = 1.560991 g / cm^3
# Si number density = 15.645524 Si / 1000 Ang^3
#
#
#
# Elastic Constant Matrix: (Units=GPa)
#
#
# Indices 1 2 3 4 5 6 
#
# 1 42.6572 20.5205 36.5761 0.0000 0.0000 0.0000
# 2 20.5205 75.4496 43.0131 0.0000 0.0000 0.0000
# 3 36.5761 43.0131 129.2676 0.0000 0.0000 0.0000
# 4 0.0000 0.0000 0.0000 19.3910 0.0000 0.0000
# 5 0.0000 0.0000 0.0000 0.0000 26.3968 0.0000
# 6 0.0000 0.0000 0.0000 0.0000 0.0000 13.7206
#
#
#
# Elastic Compliance Matrix: (Units=1/GPa)
#
#
# Indices 1 2 3 4 5 6 
#
# 1 0.032085 -0.004382 -0.007620 0.000000 0.000000 0.000000
# 2 -0.004382 0.016955 -0.004402 0.000000 0.000000 0.000000
# 3 -0.007620 -0.004402 0.011357 0.000000 0.000000 0.000000
# 4 0.000000 0.000000 0.000000 0.051570 0.000000 0.000000
# 5 0.000000 0.000000 0.000000 0.000000 0.037883 0.000000
# 6 0.000000 0.000000 0.000000 0.000000 0.000000 0.072883
#
#
# Mechanical properties :
#
#
# Convention : Reuss Voigt Hill
#
# Bulk Modulus (GPa) = 36.24727 49.73263 42.98995
# Shear Modulus (GPa) = 18.88665 21.71934 20.30299
#
# Velocity S-wave (km/s) = 3.47819 3.72992 3.60625
# Velocity P-wave (km/s) = 6.27284 7.09971 6.69904
#
# Compressibility (1/GPa) = 0.02758829
#
# Stress axis : x y z
#
# Youngs Moduli (GPa) = 31.16758 58.97913 88.05377
#
# Poissons Ratio (x) = 0.25845 0.67099
# Poissons Ratio (y) = 0.13658 0.38760
# Poissons Ratio (z) = 0.23750 0.25962
#
# Static dielectric constant tensor:
#      x y z
#    x 1.556900 0.000000 0.000000 
#    y 0.000000 1.523320 0.000000 
#    z 0.000000 0.000000 1.511060 
# 
# From -- ./inp_files/34400.got.cif
#   From: 2010.05.17/outbox.cif.g08.bks.cpg/sg47_18_cif.got.tgz:34400.got - 2010.06.03 20:15:42.
