data_PCOD9382294
_publ_section_title
;
Structure prediction by ZEFSAII (Michael W. Deem and Ramdas Pophale) SiO2 
 PCOD9382294
Probable space group: P M M M
;
_chemical_formula_sum "Si O2"
_cell_formula_units_Z 64
_cell_length_a 24.546863
_cell_length_b 15.427810
_cell_length_c 9.324764
_cell_angle_alpha 90.000000
_cell_angle_beta 90.000000
_cell_angle_gamma 90.000000
_cell_volume 3531.328582
_symmetry_space_group_name_H-M "P M M M"
_symmetry_group_IT_number 47
_symmetry_cell_setting 'orthorhombic'
loop_
_space_group_symop_operation_xyz
x,y,z
-x,-y,z
x,-y,-z
-x,y,-z
-x,-y,-z
x,y,-z
-x,y,z
x,-y,z
loop_
_atom_site_type_symbol
_atom_site_label
_atom_site_fract_x
_atom_site_fract_y
_atom_site_fract_z
Si Si1 0.330266 0.351599 0.663978
Si Si2 0.210473 0.403794 0.674678
Si Si3 0.937231 0.098343 0.325680
Si Si4 0.338244 0.148374 0.660973
Si Si5 0.760925 0.097743 0.833252
Si Si6 0.560340 0.604660 0.166053
Si Si7 0.841503 0.224320 0.326612
Si Si8 0.437120 0.895347 0.839626
O O1 0.337654 0.382759 0.500000
O O2 0.273537 0.390742 0.721778
O O3 0.321415 0.248606 0.660047
O O4 0.385757 0.368228 0.749428
O O5 0.212071 0.401237 0.500000
O O6 0.191803 0.500000 0.717747
O O7 0.172532 0.322856 0.718977
O O8 0.936523 0.097829 0.500000
O O9 0.897277 0.176007 0.280389
O O10 0.000000 0.111451 0.281265
O O11 0.920573 0.000000 0.281073
O O12 0.332225 0.113735 0.500000
O O13 0.300247 0.100123 0.773769
O O14 0.399457 0.142233 0.717077
O O15 0.794841 0.163262 0.736998
O O16 0.782266 0.000000 0.818564
O O17 0.762532 0.122185 0.000000
O O18 0.500000 0.633375 0.219637
O O19 0.559701 0.500000 0.167643
O O20 0.564741 0.632706 0.000000
O O21 0.839686 0.222523 0.500000
O O22 0.500000 0.870341 0.823805
O O23 0.434438 0.000000 0.833440
O O24 0.418871 0.868900 0.000000
#
# Coordination Sequence:
#
# PCOD9382294 Si02
#       8
#     8   8   8   8   8   8   8   8
#     4  10  20  34  50  70  97 127 164 209 259 315
#     4   9  17  31  51  74 102 136 174 218 268 316
#     4   8  14  25  45  77 113 146 181 221 263 305
#     4  11  22  35  51  73  99 127 167 214 255 305
#     4  11  23  36  51  74 106 140 170 207 261 319
#     4   9  19  35  52  71  95 122 157 204 258 317
#     4  10  18  32  54  79 106 139 182 224 259 301
#     4   9  19  36  54  70  92 126 166 205 253 315
#
# _framework density 18.123491000000001
#
# number of rings (size 3 to 8) (size 9 to 14) (size 15 to 20)
#    0.000    2.375    1.250    3.000    0.000    6.000 
#    0.000    3.750    0.000    1.125    0.000    4.375 
#    0.000    0.000    0.000    1.125    0.000    1.375 
#
# Total GULP energy -356752.023672 kJ/mol
# GULP energy per Si atom -5574.250370 kJ/mol
# Density = 1.808224 g / cm^3
# Si number density = 18.123491 Si / 1000 Ang^3
#
#
#
# Elastic Constant Matrix: (Units=GPa)
#
#
# Indices 1 2 3 4 5 6 
#
# 1 102.5537 50.8656 22.8183 0.0000 0.0000 0.0000
# 2 50.8656 99.1527 18.6312 0.0000 0.0000 0.0000
# 3 22.8183 18.6312 19.2336 0.0000 0.0000 0.0000
# 4 0.0000 0.0000 0.0000 -102.2983 0.0000 0.0000
# 5 0.0000 0.0000 0.0000 0.0000 -2.3632 0.0000
# 6 0.0000 0.0000 0.0000 0.0000 0.0000 27.6650
#
#
#
# Elastic Compliance Matrix: (Units=1/GPa)
#
#
# Indices 1 2 3 4 5 6 
#
# 1 0.015318 -0.005432 -0.012911 0.000000 0.000000 0.000000
# 2 -0.005432 0.014256 -0.007365 0.000000 0.000000 0.000000
# 3 -0.012911 -0.007365 0.074444 0.000000 0.000000 0.000000
# 4 0.000000 0.000000 0.000000 -0.009775 0.000000 0.000000
# 5 0.000000 0.000000 0.000000 0.000000 -0.423163 0.000000
# 6 0.000000 0.000000 0.000000 0.000000 0.000000 0.036147
#
#
# Mechanical properties :
#
#
# Convention : Reuss Voigt Hill
#
# Bulk Modulus (GPa) = 19.01070 45.06335 32.03702
# Shear Modulus (GPa) = -22.33903 -6.82429 -14.58166
#
# Velocity S-wave (km/s) = -3.51465 -1.94258 -2.83958
# Velocity P-wave (km/s) = 2.44091 4.45950 2.63904
#
# Compressibility (1/GPa) = 0.05260197
#
# Stress axis : x y z
#
# Youngs Moduli (GPa) = 65.28284 70.14564 13.43291
#
# Poissons Ratio (x) = 0.38104 0.17343
# Poissons Ratio (y) = 0.35463 0.09893
# Poissons Ratio (z) = 0.84286 0.51662
#
# Static dielectric constant tensor:
#      x y z
#    x 1.638420 0.000000 0.000000 
#    y 0.000000 1.658010 0.000000 
#    z 0.000000 0.000000 1.608050 
# 
# From -- ./inp_files/7873.got.cif
#   From: 2010.05.17/outbox.cif.g08.bks.cpg/sg47_4_cif.got.tgz:7873.got - 2010.06.03 20:15:42.
