data_PCOD9382345
_publ_section_title
;
Structure prediction by ZEFSAII (Michael W. Deem and Ramdas Pophale) SiO2 
 PCOD9382345
Probable space group: P M M M
;
_chemical_formula_sum "Si O2"
_cell_formula_units_Z 45
_cell_length_a 7.713462
_cell_length_b 12.484661
_cell_length_c 23.460322
_cell_angle_alpha 90.000000
_cell_angle_beta 90.000000
_cell_angle_gamma 90.000000
_cell_volume 2259.228028
_symmetry_space_group_name_H-M "P M M M"
_symmetry_group_IT_number 47
_symmetry_cell_setting 'orthorhombic'
loop_
_space_group_symop_operation_xyz
x,y,z
-x,-y,z
x,-y,-z
-x,y,-z
-x,-y,-z
x,y,-z
-x,y,z
x,-y,z
loop_
_atom_site_type_symbol
_atom_site_label
_atom_site_fract_x
_atom_site_fract_y
_atom_site_fract_z
Si Si1 0.788409 0.122210 0.435006
Si Si2 0.301163 0.500000 0.708907
Si Si3 0.212134 0.877567 0.775747
Si Si4 0.203696 0.273964 0.874556
Si Si5 0.310673 0.221356 0.000000
Si Si6 0.800816 0.500000 0.163781
Si Si7 0.500000 0.000000 0.000000
Si Si8 0.209591 0.731737 0.668507
O O1 0.733877 0.144631 0.500000
O O2 0.729692 0.207494 0.388348
O O3 0.000000 0.123122 0.434639
O O4 0.736908 0.000000 0.420372
O O5 0.500000 0.500000 0.726793
O O6 0.196049 0.500000 0.767814
O O7 0.265255 0.609057 0.674945
O O8 0.271940 0.821396 0.834355
O O9 0.265092 0.801496 0.723390
O O10 0.000000 0.881558 0.774893
O O11 0.271922 0.000000 0.770352
O O12 0.222130 0.251668 0.941047
O O13 0.280243 0.389039 0.857431
O O14 0.000000 0.279218 0.860181
O O15 0.500000 0.276177 0.000000
O O16 0.352165 0.095251 0.000000
O O17 0.000000 0.500000 0.142266
O O18 0.000000 0.732412 0.668293
#
# Coordination Sequence:
#
# PCOD9382345 Si02
#       8
#     8   4   8   8   4   4   1   8
#     4   8  14  26  50  86 119 143 174 224 281 329
#     4  12  24  36  52  76 110 147 188 230 275 324
#     4   9  17  28  50  83 109 131 170 223 272 320
#     4  10  20  36  59  84 109 138 181 230 271 322
#     4  10  23  40  56  76 108 150 184 213 269 326
#     4  10  20  39  63  85 110 140 179 225 279 332
#     4   8  24  44  58  70 116 164 182 216 260 348
#     4  10  18  33  55  78 109 146 183 224 272 326
#
# _framework density 19.918309000000001
#
# number of rings (size 3 to 8) (size 9 to 14) (size 15 to 20)
#    0.267    2.133    1.778    2.133    1.244    3.200 
#    0.000    2.667    0.000    5.333    0.000    1.244 
#    0.000    0.000    0.000    0.000    0.000    0.000 
#
# Total GULP energy -250724.373125 kJ/mol
# GULP energy per Si atom -5571.652736 kJ/mol
# Density = 1.987297 g / cm^3
# Si number density = 19.918309 Si / 1000 Ang^3
#
#
#
# Elastic Constant Matrix: (Units=GPa)
#
#
# Indices 1 2 3 4 5 6 
#
# 1 30.8428 5.1617 -7.5798 0.0000 0.0000 0.0000
# 2 5.1617 203.3246 101.5111 0.0000 0.0000 0.0000
# 3 -7.5798 101.5111 133.8269 0.0000 0.0000 0.0000
# 4 0.0000 0.0000 0.0000 11.6449 0.0000 0.0000
# 5 0.0000 0.0000 0.0000 0.0000 -31.3729 0.0000
# 6 0.0000 0.0000 0.0000 0.0000 0.0000 -6.5749
#
#
#
# Elastic Compliance Matrix: (Units=1/GPa)
#
#
# Indices 1 2 3 4 5 6 
#
# 1 0.033932 -0.002931 0.004145 0.000000 0.000000 0.000000
# 2 -0.002931 0.008169 -0.006363 0.000000 0.000000 0.000000
# 3 0.004145 -0.006363 0.012533 0.000000 0.000000 0.000000
# 4 0.000000 0.000000 0.000000 0.085875 0.000000 0.000000
# 5 0.000000 0.000000 0.000000 0.000000 -0.031875 0.000000
# 6 0.000000 0.000000 0.000000 0.000000 0.000000 -0.152094
#
#
# Mechanical properties :
#
#
# Convention : Reuss Voigt Hill
#
# Bulk Modulus (GPa) = 22.55443 62.90892 42.73167
# Shear Modulus (GPa) = -271.97464 12.66618 -129.65423
#
# Velocity S-wave (km/s) = -11.69793 2.52445 -8.07678
# Velocity P-wave (km/s) = 13.08080 6.33634 8.09191
#
# Compressibility (1/GPa) = 0.04433719
#
# Stress axis : x y z
#
# Youngs Moduli (GPa) = 29.47108 122.41142 79.78792
#
# Poissons Ratio (x) = 0.35876 -0.33071
# Poissons Ratio (y) = 0.08637 0.50765
# Poissons Ratio (z) = -0.12215 0.77884
#
# Static dielectric constant tensor:
#      x y z
#    x 1.744200 0.000000 0.000000 
#    y 0.000000 1.692150 0.000000 
#    z 0.000000 0.000000 1.687780 
# 
# From -- ./inp_files/31897.got.cif
#   From: 2010.05.17/outbox.cif.g08.bks.cpg/sg47_16_cif.got.tgz:31897.got - 2010.06.03 20:15:42.
