data_PCOD9382141
_publ_section_title
;
Structure prediction by ZEFSAII (Michael W. Deem and Ramdas Pophale) SiO2 
 PCOD9382141
Probable space group: P M M M
;
_chemical_formula_sum "Si O2"
_cell_formula_units_Z 52
_cell_length_a 23.823615
_cell_length_b 7.628612
_cell_length_c 15.291886
_cell_angle_alpha 90.000000
_cell_angle_beta 90.000000
_cell_angle_gamma 90.000000
_cell_volume 2779.164416
_symmetry_space_group_name_H-M "P M M M"
_symmetry_group_IT_number 47
_symmetry_cell_setting 'orthorhombic'
loop_
_space_group_symop_operation_xyz
x,y,z
-x,-y,z
x,-y,-z
-x,y,-z
-x,-y,-z
x,y,-z
-x,y,z
x,-y,z
loop_
_atom_site_type_symbol
_atom_site_label
_atom_site_fract_x
_atom_site_fract_y
_atom_site_fract_z
Si Si1 0.566189 0.289097 0.093036
Si Si2 0.000000 0.789979 0.398900
Si Si3 0.108993 0.291351 0.717218
Si Si4 0.789747 0.709430 0.600134
Si Si5 0.664564 0.211711 0.400176
Si Si6 0.563785 0.205647 0.715682
Si Si7 0.934267 0.713819 0.902573
O O1 0.500000 0.242986 0.091520
O O2 0.569816 0.500000 0.095338
O O3 0.586372 0.220093 0.185303
O O4 0.590651 0.228859 0.000000
O O5 0.054671 0.733533 0.344337
O O6 0.000000 0.725646 0.500000
O O7 0.000000 0.000000 0.402079
O O8 0.117272 0.500000 0.727298
O O9 0.162761 0.219811 0.665014
O O10 0.097313 0.222893 0.815362
O O11 0.794520 0.778490 0.500000
O O12 0.797648 0.500000 0.594535
O O13 0.726523 0.741116 0.632793
O O14 0.661485 0.273593 0.500000
O O15 0.611323 0.281030 0.346978
O O16 0.661735 0.000000 0.400074
O O17 0.500000 0.280026 0.710698
O O18 0.558567 0.000000 0.695145
O O19 0.932439 0.500000 0.902072
O O20 0.000000 0.761931 0.894115
O O21 0.914948 0.769606 0.000000
#
# Coordination Sequence:
#
# PCOD9382141 Si02
#       7
#     8   4   8   8   8   8   8
#     4   8  14  25  41  62  89 119 147 176 217 270
#     4  11  23  33  42  65 100 128 149 183 232 277
#     4  10  18  31  51  71  91 121 157 190 227 269
#     4   9  18  31  47  67  88 114 154 198 231 266
#     4   9  18  32  48  65  88 121 156 187 226 276
#     4   9  17  28  44  68  93 116 148 190 232 274
#     4   8  13  23  43  71  96 116 145 186 226 263
#
# _framework density 18.710661000000002
#
# number of rings (size 3 to 8) (size 9 to 14) (size 15 to 20)
#    0.000    3.000    0.769    1.615    0.000    3.077 
#    0.000    4.615    0.000    1.846    0.000    6.462 
#    0.000    0.000    0.000    0.000    0.000    0.000 
#
# Total GULP energy -289597.914813 kJ/mol
# GULP energy per Si atom -5569.190669 kJ/mol
# Density = 1.866807 g / cm^3
# Si number density = 18.710661 Si / 1000 Ang^3
#
#
#
# Elastic Constant Matrix: (Units=GPa)
#
#
# Indices 1 2 3 4 5 6 
#
# 1 124.9976 -0.7596 93.1745 0.0000 0.0000 0.0000
# 2 -0.7596 33.1779 2.1937 0.0000 0.0000 0.0000
# 3 93.1745 2.1937 146.9099 0.0000 0.0000 0.0000
# 4 0.0000 0.0000 0.0000 11.2751 0.0000 0.0000
# 5 0.0000 0.0000 0.0000 0.0000 3.4474 0.0000
# 6 0.0000 0.0000 0.0000 0.0000 0.0000 14.2435
#
#
#
# Elastic Compliance Matrix: (Units=1/GPa)
#
#
# Indices 1 2 3 4 5 6 
#
# 1 0.015206 0.000987 -0.009659 0.000000 0.000000 0.000000
# 2 0.000987 0.030234 -0.001077 0.000000 0.000000 0.000000
# 3 -0.009659 -0.001077 0.012949 0.000000 0.000000 0.000000
# 4 0.000000 0.000000 0.000000 0.088691 0.000000 0.000000
# 5 0.000000 0.000000 0.000000 0.000000 0.290075 0.000000
# 6 0.000000 0.000000 0.000000 0.000000 0.000000 0.070208
#
#
# Mechanical properties :
#
#
# Convention : Reuss Voigt Hill
#
# Bulk Modulus (GPa) = 25.71324 54.92252 40.31788
# Shear Modulus (GPa) = 9.26227 19.82498 14.54363
#
# Velocity S-wave (km/s) = 2.22733 3.25861 2.79102
# Velocity P-wave (km/s) = 4.51521 6.60117 5.65520
#
# Compressibility (1/GPa) = 0.03889047
#
# Stress axis : x y z
#
# Youngs Moduli (GPa) = 65.76409 33.07498 77.22706
#
# Poissons Ratio (x) = -0.03264 0.74592
# Poissons Ratio (y) = -0.06489 0.08320
# Poissons Ratio (z) = 0.63520 0.03563
#
# Static dielectric constant tensor:
#      x y z
#    x 1.626630 0.000000 0.000000 
#    y 0.000000 1.700830 0.000000 
#    z 0.000000 0.000000 1.680640 
# 
# From -- ./inp_files/25418.got.cif
#   From: 2010.05.17/outbox.cif.g08.bks.cpg/sg47_13_cif.got.tgz:25418.got - 2010.06.03 20:15:42.
