data_PCOD9382474
_publ_section_title
;
Structure prediction by ZEFSAII (Michael W. Deem and Ramdas Pophale) SiO2 
 PCOD9382474
Probable space group: P M M M
;
_chemical_formula_sum "Si O2"
_cell_formula_units_Z 60
_cell_length_a 19.987451
_cell_length_b 29.304662
_cell_length_c 9.137322
_cell_angle_alpha 90.000000
_cell_angle_beta 90.000000
_cell_angle_gamma 90.000000
_cell_volume 5351.962459
_symmetry_space_group_name_H-M "P M M M"
_symmetry_group_IT_number 47
_symmetry_cell_setting 'orthorhombic'
loop_
_space_group_symop_operation_xyz
x,y,z
-x,-y,z
x,-y,-z
-x,y,-z
-x,-y,-z
x,y,-z
-x,y,z
x,-y,z
loop_
_atom_site_type_symbol
_atom_site_label
_atom_site_fract_x
_atom_site_fract_y
_atom_site_fract_z
Si Si1 0.081220 0.733583 0.832388
Si Si2 0.289787 0.945352 0.673819
Si Si3 0.918375 0.642059 0.668623
Si Si4 0.079623 0.827617 0.325407
Si Si5 0.918742 0.449403 0.171051
Si Si6 0.075999 0.000000 0.822568
Si Si7 0.841456 0.090123 0.823555
Si Si8 0.574499 0.944663 0.170130
O O1 0.103752 0.686105 0.760511
O O2 0.098500 0.777881 0.737244
O O3 0.000000 0.731955 0.834560
O O4 0.103869 0.738075 0.000000
O O5 0.283925 0.938882 0.500000
O O6 0.232024 0.918714 0.759269
O O7 0.362981 0.930913 0.731199
O O8 0.282265 0.000000 0.703716
O O9 0.898515 0.646207 0.500000
O O10 0.895666 0.594102 0.737351
O O11 0.000000 0.641818 0.672611
O O12 0.089064 0.829364 0.500000
O O13 0.122493 0.866095 0.244764
O O14 0.000000 0.834595 0.295872
O O15 0.896886 0.500000 0.220827
O O16 0.000000 0.449413 0.177533
O O17 0.901169 0.444104 0.000000
O O18 0.115223 0.954491 0.779844
O O19 0.000000 0.000000 0.767983
O O20 0.073869 0.000000 0.000000
O O21 0.839805 0.093046 0.000000
O O22 0.500000 0.929176 0.215720
O O23 0.573212 0.000000 0.173885
O O24 0.584955 0.931784 0.000000
#
# Coordination Sequence:
#
# PCOD9382474 Si02
#       8
#     8   8   8   8   8   4   8   8
#     4   9  16  26  39  51  61  76  99 125 154 191
#     4  10  19  29  41  57  78  97 113 133 158 189
#     4   9  15  21  30  44  60  76  94 119 151 184
#     4  10  20  32  43  55  70  84 101 132 172 207
#     4   8  13  20  28  38  54  76  99 120 142 173
#     4   9  18  30  43  57  68  81 106 137 163 192
#     4  11  20  31  45  57  71  90 112 136 161 195
#     4   8  14  25  41  59  77  96 117 136 152 175
#
# _framework density 11.210841
#
# number of rings (size 3 to 8) (size 9 to 14) (size 15 to 20)
#    0.000    2.733    0.667    3.200    0.000    5.600 
#    0.000    2.667    0.000    1.600    0.000    0.000 
#    0.000    0.000    0.000    0.000    0.000    0.000 
#
# Total GULP energy -334091.229791 kJ/mol
# GULP energy per Si atom -5568.187163 kJ/mol
# Density = 1.118532 g / cm^3
# Si number density = 11.210841 Si / 1000 Ang^3
#
#
#
# Elastic Constant Matrix: (Units=GPa)
#
#
# Indices 1 2 3 4 5 6 
#
# 1 51.0137 27.3561 31.2762 0.0000 0.0000 0.0000
# 2 27.3561 82.7059 44.1564 0.0000 0.0000 0.0000
# 3 31.2762 44.1564 67.3804 0.0000 0.0000 0.0000
# 4 0.0000 0.0000 0.0000 16.8047 0.0000 0.0000
# 5 0.0000 0.0000 0.0000 0.0000 11.8948 0.0000
# 6 0.0000 0.0000 0.0000 0.0000 0.0000 0.4534
#
#
#
# Elastic Compliance Matrix: (Units=1/GPa)
#
#
# Indices 1 2 3 4 5 6 
#
# 1 0.028073 -0.003582 -0.010684 0.000000 0.000000 0.000000
# 2 -0.003582 0.019055 -0.010825 0.000000 0.000000 0.000000
# 3 -0.010684 -0.010825 0.026894 0.000000 0.000000 0.000000
# 4 0.000000 0.000000 0.000000 0.059507 0.000000 0.000000
# 5 0.000000 0.000000 0.000000 0.000000 0.084071 0.000000
# 6 0.000000 0.000000 0.000000 0.000000 0.000000 2.205592
#
#
# Mechanical properties :
#
#
# Convention : Reuss Voigt Hill
#
# Bulk Modulus (GPa) = 41.94275 45.18639 43.56457
# Shear Modulus (GPa) = 2.01506 12.38465 7.19985
#
# Velocity S-wave (km/s) = 1.34213 3.32731 2.53696
# Velocity P-wave (km/s) = 6.31630 7.42663 6.89386
#
# Compressibility (1/GPa) = 0.02384202
#
# Stress axis : x y z
#
# Youngs Moduli (GPa) = 35.62092 52.47950 37.18289
#
# Poissons Ratio (x) = 0.18796 0.39725
# Poissons Ratio (y) = 0.12758 0.40250
# Poissons Ratio (z) = 0.38057 0.56808
#
# Static dielectric constant tensor:
#      x y z
#    x 1.339780 0.000000 0.000000 
#    y 0.000000 1.357620 0.000000 
#    z 0.000000 0.000000 1.372400 
# 
# From -- ./inp_files/11986.got.cif
#   From: 2010.05.17/outbox.cif.g08.bks.cpg/sg47_6_cif.got.tgz:11986.got - 2010.06.03 20:15:42.
