data_PCOD9382084
_publ_section_title
;
Structure prediction by ZEFSAII (Michael W. Deem and Ramdas Pophale) SiO2 
 PCOD9382084
Probable space group: P M M M
;
_chemical_formula_sum "Si O2"
_cell_formula_units_Z 64
_cell_length_a 25.451460
_cell_length_b 8.523608
_cell_length_c 15.902335
_cell_angle_alpha 90.000000
_cell_angle_beta 90.000000
_cell_angle_gamma 90.000000
_cell_volume 3449.825013
_symmetry_space_group_name_H-M "P M M M"
_symmetry_group_IT_number 47
_symmetry_cell_setting 'orthorhombic'
loop_
_space_group_symop_operation_xyz
x,y,z
-x,-y,z
x,-y,-z
-x,y,-z
-x,-y,-z
x,y,-z
-x,y,z
x,-y,z
loop_
_atom_site_type_symbol
_atom_site_label
_atom_site_fract_x
_atom_site_fract_y
_atom_site_fract_z
Si Si1 0.148165 0.811798 0.778555
Si Si2 0.061137 0.310688 0.903967
Si Si3 0.289733 0.814430 0.630798
Si Si4 0.401637 0.686006 0.591606
Si Si5 0.361872 0.311595 0.907552
Si Si6 0.170507 0.809617 0.409061
Si Si7 0.261520 0.687410 0.189753
Si Si8 0.441114 0.812982 0.767772
O O1 0.099050 0.761326 0.834447
O O2 0.145954 0.758080 0.680157
O O3 0.201463 0.740556 0.817787
O O4 0.153064 0.000000 0.778016
O O5 0.064764 0.500000 0.899942
O O6 0.000000 0.268287 0.890592
O O7 0.075356 0.264075 0.000000
O O8 0.339466 0.722926 0.595980
O O9 0.232546 0.770088 0.595305
O O10 0.284717 0.776649 0.729369
O O11 0.297501 0.000000 0.616869
O O12 0.421314 0.740322 0.500000
O O13 0.409710 0.500000 0.597528
O O14 0.426986 0.764450 0.672858
O O15 0.366277 0.500000 0.908146
O O16 0.301132 0.275765 0.885780
O O17 0.399103 0.251547 0.833745
O O18 0.376202 0.250974 0.000000
O O19 0.149459 0.754578 0.500000
O O20 0.167390 0.000000 0.409020
O O21 0.263155 0.500000 0.204864
O O22 0.500000 0.756392 0.787925
O O23 0.440081 0.000000 0.772579
#
# Coordination Sequence:
#
# PCOD9382084 Si02
#       8
#     8   8   8   8   8   8   8   8
#     4  10  20  32  52  84 116 148 187 232 279 325
#     4   9  19  37  59  80 105 143 189 234 285 344
#     4  10  18  30  52  80 110 144 183 227 274 322
#     4  11  23  37  56  83 112 144 182 224 274 333
#     4  10  22  40  62  86 111 144 184 224 273 335
#     4   8  15  28  46  72 109 149 184 218 260 312
#     4  10  19  33  54  80 115 153 185 220 268 328
#     4  11  25  43  62  83 108 140 180 231 286 337
#
# _framework density 18.551666000000001
#
# number of rings (size 3 to 8) (size 9 to 14) (size 15 to 20)
#    0.000    2.125    1.250    3.375    0.000    4.750 
#    0.000    4.375    0.000    7.875    0.000    2.625 
#    0.000    0.000    0.000    0.000    0.000    0.000 
#
# Total GULP energy -357052.106294 kJ/mol
# GULP energy per Si atom -5578.939161 kJ/mol
# Density = 1.850944 g / cm^3
# Si number density = 18.551666 Si / 1000 Ang^3
#
#
#
# Elastic Constant Matrix: (Units=GPa)
#
#
# Indices 1 2 3 4 5 6 
#
# 1 83.4307 15.7088 66.7040 0.0000 0.0000 0.0000
# 2 15.7088 18.2875 23.5378 0.0000 0.0000 0.0000
# 3 66.7040 23.5378 140.2339 0.0000 0.0000 0.0000
# 4 0.0000 0.0000 0.0000 -4.8055 0.0000 0.0000
# 5 0.0000 0.0000 0.0000 0.0000 -6.3826 0.0000
# 6 0.0000 0.0000 0.0000 0.0000 0.0000 27.0160
#
#
#
# Elastic Compliance Matrix: (Units=1/GPa)
#
#
# Indices 1 2 3 4 5 6 
#
# 1 0.019888 -0.006260 -0.008409 0.000000 0.000000 0.000000
# 2 -0.006260 0.071722 -0.009061 0.000000 0.000000 0.000000
# 3 -0.008409 -0.009061 0.012652 0.000000 0.000000 0.000000
# 4 0.000000 0.000000 0.000000 -0.208094 0.000000 0.000000
# 5 0.000000 0.000000 0.000000 0.000000 -0.156675 0.000000
# 6 0.000000 0.000000 0.000000 0.000000 0.000000 0.037015
#
#
# Mechanical properties :
#
#
# Convention : Reuss Voigt Hill
#
# Bulk Modulus (GPa) = 17.60519 50.42813 34.01666
# Shear Modulus (GPa) = -31.82692 12.23232 -9.79730
#
# Velocity S-wave (km/s) = -4.14645 2.57060 -2.30056
# Velocity P-wave (km/s) = 3.66247 6.00435 3.36441
#
# Compressibility (1/GPa) = 0.05680144
#
# Stress axis : x y z
#
# Youngs Moduli (GPa) = 50.28164 13.94282 79.04092
#
# Poissons Ratio (x) = 0.08728 0.66467
# Poissons Ratio (y) = 0.31477 0.71615
# Poissons Ratio (z) = 0.42283 0.12633
#
# Static dielectric constant tensor:
#      x y z
#    x 1.626880 0.000000 0.000000 
#    y 0.000000 1.631000 0.000000 
#    z 0.000000 0.000000 1.676850 
# 
# From -- ./inp_files/25600.got.cif
#   From: 2010.05.17/outbox.cif.g08.bks.cpg/sg47_13_cif.got.tgz:25600.got - 2010.06.03 20:15:42.
