data_PCOD9382766
_publ_section_title
;
Structure prediction by ZEFSAII (Michael W. Deem and Ramdas Pophale) SiO2 
 PCOD9382766
Probable space group: P M M M
;
_chemical_formula_sum "Si O2"
_cell_formula_units_Z 44
_cell_length_a 33.819876
_cell_length_b 7.761441
_cell_length_c 8.883710
_cell_angle_alpha 90.000000
_cell_angle_beta 90.000000
_cell_angle_gamma 90.000000
_cell_volume 2331.893675
_symmetry_space_group_name_H-M "P M M M"
_symmetry_group_IT_number 47
_symmetry_cell_setting 'orthorhombic'
loop_
_space_group_symop_operation_xyz
x,y,z
-x,-y,z
x,-y,-z
-x,y,-z
-x,-y,-z
x,y,-z
-x,y,z
x,-y,z
loop_
_atom_site_type_symbol
_atom_site_label
_atom_site_fract_x
_atom_site_fract_y
_atom_site_fract_z
Si Si1 0.689835 0.500000 0.682159
Si Si2 0.164123 0.789502 0.672560
Si Si3 0.084520 0.793408 0.829540
Si Si4 0.602833 0.500000 0.182610
Si Si5 0.251164 0.801684 0.316181
Si Si6 0.544856 0.803242 0.183180
Si Si7 0.000000 0.295709 0.172189
O O1 0.687185 0.500000 0.500000
O O2 0.646483 0.500000 0.751245
O O3 0.715043 0.668401 0.728096
O O4 0.162290 0.732665 0.500000
O O5 0.124511 0.728600 0.753434
O O6 0.207340 0.743412 0.735750
O O7 0.163961 0.000000 0.673055
O O8 0.041874 0.755863 0.756502
O O9 0.087842 0.000000 0.835343
O O10 0.082913 0.725034 0.000000
O O11 0.577554 0.666944 0.231360
O O12 0.604867 0.500000 0.000000
O O13 0.249367 0.802055 0.500000
O O14 0.258253 0.000000 0.269666
O O15 0.500000 0.756339 0.229457
O O16 0.552751 0.000000 0.230559
O O17 0.544782 0.801819 0.000000
O O18 0.000000 0.500000 0.162002
O O19 0.000000 0.220862 0.000000
#
# Coordination Sequence:
#
# PCOD9382766 Si02
#       7
#     4   8   8   4   8   8   4
#     4  10  20  33  49  69  92 125 165 192 223 281
#     4   8  14  27  47  67  85 106 135 175 222 263
#     4   9  16  27  45  66  84 106 140 176 207 248
#     4  10  19  30  46  70 100 126 153 197 244 275
#     4   8  15  30  50  68  88 117 154 193 228 270
#     4   8  14  26  46  71  96 125 163 200 233 275
#     4   9  17  29  42  57  84 118 144 163 196 252
#
# _framework density 18.868784999999999
#
# number of rings (size 3 to 8) (size 9 to 14) (size 15 to 20)
#    0.000    3.364    0.000    2.182    0.000    2.909 
#    1.636    1.364    0.000    4.909    0.000    1.273 
#    0.000    0.000    0.000    0.000    0.000    0.000 
#
# Total GULP energy -245007.210666 kJ/mol
# GULP energy per Si atom -5568.345697 kJ/mol
# Density = 1.882584 g / cm^3
# Si number density = 18.868785 Si / 1000 Ang^3
#
#
#
# Elastic Constant Matrix: (Units=GPa)
#
#
# Indices 1 2 3 4 5 6 
#
# 1 229.8087 90.4618 33.6399 0.0000 0.0000 0.0000
# 2 90.4618 82.8136 14.5692 0.0000 0.0000 0.0000
# 3 33.6399 14.5692 6.6204 0.0000 0.0000 0.0000
# 4 0.0000 0.0000 0.0000 5.9241 0.0000 0.0000
# 5 0.0000 0.0000 0.0000 0.0000 33.3765 0.0000
# 6 0.0000 0.0000 0.0000 0.0000 0.0000 11.0197
#
#
#
# Elastic Compliance Matrix: (Units=1/GPa)
#
#
# Indices 1 2 3 4 5 6 
#
# 1 0.018672 -0.006046 -0.081571 0.000000 0.000000 0.000000
# 2 -0.006046 0.021661 -0.016950 0.000000 0.000000 0.000000
# 3 -0.081571 -0.016950 0.602826 0.000000 0.000000 0.000000
# 4 0.000000 0.000000 0.000000 0.168802 0.000000 0.000000
# 5 0.000000 0.000000 0.000000 0.000000 0.029961 0.000000
# 6 0.000000 0.000000 0.000000 0.000000 0.000000 0.090746
#
#
# Mechanical properties :
#
#
# Convention : Reuss Voigt Hill
#
# Bulk Modulus (GPa) = 2.30400 66.28717 34.29559
# Shear Modulus (GPa) = 3.88658 22.10219 12.99438
#
# Velocity S-wave (km/s) = 1.43676 3.42623 2.62710
# Velocity P-wave (km/s) = 1.99401 7.13154 5.23617
#
# Compressibility (1/GPa) = 0.43402711
#
# Stress axis : x y z
#
# Youngs Moduli (GPa) = 53.55692 46.16574 1.65885
#
# Poissons Ratio (x) = 0.27910 0.13531
# Poissons Ratio (y) = 0.32378 0.02812
# Poissons Ratio (z) = 4.36869 0.78249
#
# Static dielectric constant tensor:
#      x y z
#    x 1.665240 0.000000 0.000000 
#    y 0.000000 1.671390 0.000000 
#    z 0.000000 0.000000 1.659410 
# 
# From -- ./inp_files/13728.got.cif
#   From: 2010.05.17/outbox.cif.g08.bks.cpg/sg47_7_cif.got.tgz:13728.got - 2010.06.03 20:15:42.
