data_PCOD9382134
_publ_section_title
;
Structure prediction by ZEFSAII (Michael W. Deem and Ramdas Pophale) SiO2 
 PCOD9382134
Probable space group: P M M M
;
_chemical_formula_sum "Si O2"
_cell_formula_units_Z 52
_cell_length_a 29.054450
_cell_length_b 8.529012
_cell_length_c 12.124716
_cell_angle_alpha 90.000000
_cell_angle_beta 90.000000
_cell_angle_gamma 90.000000
_cell_volume 3004.574375
_symmetry_space_group_name_H-M "P M M M"
_symmetry_group_IT_number 47
_symmetry_cell_setting 'orthorhombic'
loop_
_space_group_symop_operation_xyz
x,y,z
-x,-y,z
x,-y,-z
-x,y,-z
-x,-y,-z
x,y,-z
-x,y,z
x,-y,z
loop_
_atom_site_type_symbol
_atom_site_label
_atom_site_fract_x
_atom_site_fract_y
_atom_site_fract_z
Si Si1 0.858145 0.689119 0.275595
Si Si2 0.596717 0.188966 0.127453
Si Si3 0.500000 0.313174 0.129474
Si Si4 0.686642 0.188075 0.261754
Si Si5 0.947343 0.811130 0.373369
Si Si6 0.190984 0.690422 0.500000
Si Si7 0.702531 0.688185 0.500000
Si Si8 0.774469 0.689828 0.873253
O O1 0.859475 0.500000 0.274830
O O2 0.909958 0.749626 0.287207
O O3 0.833754 0.743314 0.389022
O O4 0.823916 0.738516 0.177512
O O5 0.548183 0.249172 0.174805
O O6 0.641757 0.240073 0.193415
O O7 0.595495 0.000000 0.127519
O O8 0.600727 0.242207 0.000000
O O9 0.500000 0.500000 0.134651
O O10 0.500000 0.263623 0.000000
O O11 0.682392 0.247310 0.386564
O O12 0.732940 0.251417 0.203646
O O13 0.688621 0.000000 0.260380
O O14 0.936694 0.758162 0.500000
O O15 0.000000 0.763483 0.349656
O O16 0.945873 0.000000 0.374047
O O17 0.189875 0.500000 0.500000
O O18 0.243875 0.737568 0.500000
O O19 0.700392 0.500000 0.500000
O O20 0.773270 0.500000 0.871025
O O21 0.768781 0.741584 0.000000
#
# Coordination Sequence:
#
# PCOD9382134 Si02
#       8
#     8   8   4   8   8   4   4   8
#     4  10  18  31  50  72  98 129 166 208 250 301
#     4   9  18  33  52  74 105 142 173 208 259 310
#     4   9  17  29  49  78 105 130 171 221 259 301
#     4  11  22  35  53  79 108 138 176 217 256 305
#     4   9  18  31  46  69 100 128 157 200 255 309
#     4   9  16  29  48  70  96 127 166 207 248 296
#     4  11  21  37  55  73 105 143 176 211 258 309
#     4  10  21  36  53  74 103 140 176 211 257 308
#
# _framework density 17.306943
#
# number of rings (size 3 to 8) (size 9 to 14) (size 15 to 20)
#    0.000    2.231    2.308    1.846    0.000    4.000 
#    0.000    2.308    0.000    0.923    0.000    6.462 
#    0.000    0.000    0.000    0.000    0.000    0.000 
#
# Total GULP energy -289950.281194 kJ/mol
# GULP energy per Si atom -5575.966946 kJ/mol
# Density = 1.726755 g / cm^3
# Si number density = 17.306943 Si / 1000 Ang^3
#
#
#
# Elastic Constant Matrix: (Units=GPa)
#
#
# Indices 1 2 3 4 5 6 
#
# 1 144.7429 22.9902 57.2936 0.0000 0.0000 0.0000
# 2 22.9902 12.4756 18.2583 0.0000 0.0000 0.0000
# 3 57.2936 18.2583 101.5210 0.0000 0.0000 0.0000
# 4 0.0000 0.0000 0.0000 17.9922 0.0000 0.0000
# 5 0.0000 0.0000 0.0000 0.0000 25.0903 0.0000
# 6 0.0000 0.0000 0.0000 0.0000 0.0000 29.8419
#
#
#
# Elastic Compliance Matrix: (Units=1/GPa)
#
#
# Indices 1 2 3 4 5 6 
#
# 1 0.010537 -0.014543 -0.003331 0.000000 0.000000 0.000000
# 2 -0.014543 0.128863 -0.014968 0.000000 0.000000 0.000000
# 3 -0.003331 -0.014968 0.014422 0.000000 0.000000 0.000000
# 4 0.000000 0.000000 0.000000 0.055580 0.000000 0.000000
# 5 0.000000 0.000000 0.000000 0.000000 0.039856 0.000000
# 6 0.000000 0.000000 0.000000 0.000000 0.000000 0.033510
#
#
# Mechanical properties :
#
#
# Convention : Reuss Voigt Hill
#
# Bulk Modulus (GPa) = 11.34593 50.64709 30.99651
# Shear Modulus (GPa) = 13.23339 25.26470 19.24904
#
# Velocity S-wave (km/s) = 2.76819 3.82488 3.33861
# Velocity P-wave (km/s) = 4.09721 6.98812 5.72804
#
# Compressibility (1/GPa) = 0.08813733
#
# Stress axis : x y z
#
# Youngs Moduli (GPa) = 94.90067 7.76019 69.33760
#
# Poissons Ratio (x) = 0.11286 0.23098
# Poissons Ratio (y) = 1.38014 1.03787
# Poissons Ratio (z) = 0.31614 0.11616
#
# Static dielectric constant tensor:
#      x y z
#    x 1.597640 0.000000 0.000000 
#    y 0.000000 1.593010 0.000000 
#    z 0.000000 0.000000 1.582860 
# 
# From -- ./inp_files/19913.got.cif
#   From: 2010.05.17/outbox.cif.g08.bks.cpg/sg47_10_cif.got.tgz:19913.got - 2010.06.03 20:15:42.
