data_PCOD9382483
_publ_section_title
;
Structure prediction by ZEFSAII (Michael W. Deem and Ramdas Pophale) SiO2 
 PCOD9382483
Probable space group: P M M M
;
_chemical_formula_sum "Si O2"
_cell_formula_units_Z 64
_cell_length_a 15.011053
_cell_length_b 32.073706
_cell_length_c 7.781972
_cell_angle_alpha 90.000000
_cell_angle_beta 90.000000
_cell_angle_gamma 90.000000
_cell_volume 3746.709023
_symmetry_space_group_name_H-M "P M M M"
_symmetry_group_IT_number 47
_symmetry_cell_setting 'orthorhombic'
loop_
_space_group_symop_operation_xyz
x,y,z
-x,-y,z
x,-y,-z
-x,y,-z
-x,-y,-z
x,y,-z
-x,y,z
x,-y,z
loop_
_atom_site_type_symbol
_atom_site_label
_atom_site_fract_x
_atom_site_fract_y
_atom_site_fract_z
Si Si1 0.216679 0.625372 0.789100
Si Si2 0.899799 0.296322 0.796225
Si Si3 0.895619 0.955059 0.707013
Si Si4 0.102236 0.136159 0.202618
Si Si5 0.401477 0.758042 0.294993
Si Si6 0.598830 0.660805 0.208024
Si Si7 0.787293 0.783890 0.298415
Si Si8 0.897929 0.452704 0.790350
O O1 0.158183 0.664970 0.729864
O O2 0.318180 0.633119 0.733737
O O3 0.170074 0.582740 0.732467
O O4 0.216615 0.625294 0.000000
O O5 0.848356 0.252970 0.774560
O O6 0.000000 0.294491 0.724429
O O7 0.907399 0.303440 0.000000
O O8 0.892674 0.954710 0.500000
O O9 0.860866 0.910531 0.767920
O O10 0.000000 0.955142 0.758907
O O11 0.857679 0.000000 0.764852
O O12 0.164773 0.172020 0.275086
O O13 0.000000 0.138357 0.272573
O O14 0.096634 0.143202 0.000000
O O15 0.405633 0.765086 0.500000
O O16 0.500000 0.768763 0.224156
O O17 0.387587 0.708700 0.264159
O O18 0.313441 0.781091 0.226694
O O19 0.500000 0.647791 0.266150
O O20 0.599039 0.660807 0.000000
O O21 0.780868 0.775085 0.500000
O O22 0.877060 0.500000 0.735619
O O23 0.000000 0.443006 0.739465
O O24 0.897050 0.452583 0.000000
#
# Coordination Sequence:
#
# PCOD9382483 Si02
#       8
#     8   8   8   8   8   8   8   8
#     4   9  15  24  38  56  79 106 136 172 210 248
#     4  10  19  29  41  58  82 112 143 173 206 247
#     4   8  14  26  44  64  86 114 150 191 229 260
#     4  10  20  31  43  61  88 123 157 185 214 252
#     4   9  18  32  47  62  81 106 139 179 219 257
#     4   9  16  26  42  62  81 103 133 169 210 257
#     4  11  21  31  44  61  84 114 144 176 215 258
#     4   8  13  21  34  53  77 106 139 171 204 246
#
# _framework density 17.081658000000001
#
# number of rings (size 3 to 8) (size 9 to 14) (size 15 to 20)
#    0.000    2.750    1.250    2.250    0.000    4.750 
#    0.000    1.250    0.000    0.375    0.000    2.625 
#    0.000    2.500    0.000   15.750    0.000   11.375 
#
# Total GULP energy -356580.365085 kJ/mol
# GULP energy per Si atom -5571.568204 kJ/mol
# Density = 1.704278 g / cm^3
# Si number density = 17.081658 Si / 1000 Ang^3
#
#
#
# Elastic Constant Matrix: (Units=GPa)
#
#
# Indices 1 2 3 4 5 6 
#
# 1 141.0913 75.6542 4.0536 0.0000 0.0000 0.0000
# 2 75.6542 104.6554 -8.8123 0.0000 0.0000 0.0000
# 3 4.0536 -8.8123 18.5885 0.0000 0.0000 0.0000
# 4 0.0000 0.0000 0.0000 32.5563 0.0000 0.0000
# 5 0.0000 0.0000 0.0000 0.0000 8.1944 0.0000
# 6 0.0000 0.0000 0.0000 0.0000 0.0000 5.2387
#
#
#
# Elastic Compliance Matrix: (Units=1/GPa)
#
#
# Indices 1 2 3 4 5 6 
#
# 1 0.012451 -0.009613 -0.007273 0.000000 0.000000 0.000000
# 2 -0.009613 0.017375 0.010333 0.000000 0.000000 0.000000
# 3 -0.007273 0.010333 0.060281 0.000000 0.000000 0.000000
# 4 0.000000 0.000000 0.000000 0.030716 0.000000 0.000000
# 5 0.000000 0.000000 0.000000 0.000000 0.122034 0.000000
# 6 0.000000 0.000000 0.000000 0.000000 0.000000 0.190888
#
#
# Mechanical properties :
#
#
# Convention : Reuss Voigt Hill
#
# Bulk Modulus (GPa) = 12.98670 45.12515 29.05592
# Shear Modulus (GPa) = 10.58159 22.09386 16.33773
#
# Velocity S-wave (km/s) = 2.49162 3.60032 3.09601
# Velocity P-wave (km/s) = 3.98708 6.61497 5.46144
#
# Compressibility (1/GPa) = 0.07700183
#
# Stress axis : x y z
#
# Youngs Moduli (GPa) = 80.31326 57.55545 16.58885
#
# Poissons Ratio (x) = 0.55329 0.12064
# Poissons Ratio (y) = 0.77207 -0.17142
# Poissons Ratio (z) = 0.58409 -0.59473
#
# Static dielectric constant tensor:
#      x y z
#    x 1.606420 0.000000 0.000000 
#    y 0.000000 1.564950 0.000000 
#    z 0.000000 0.000000 1.639830 
# 
# From -- ./inp_files/8240.got.cif
#   From: 2010.05.17/outbox.cif.g08.bks.cpg/sg47_5_cif.got.tgz:8240.got - 2010.06.03 20:15:42.
