data_PCOD9382253
_publ_section_title
;
Structure prediction by ZEFSAII (Michael W. Deem and Ramdas Pophale) SiO2 
 PCOD9382253
Probable space group: P M M M
;
_chemical_formula_sum "Si O2"
_cell_formula_units_Z 52
_cell_length_a 12.971237
_cell_length_b 19.146839
_cell_length_c 13.015844
_cell_angle_alpha 90.000000
_cell_angle_beta 90.000000
_cell_angle_gamma 90.000000
_cell_volume 3232.591411
_symmetry_space_group_name_H-M "P M M M"
_symmetry_group_IT_number 47
_symmetry_cell_setting 'orthorhombic'
loop_
_space_group_symop_operation_xyz
x,y,z
-x,-y,z
x,-y,-z
-x,y,-z
-x,-y,-z
x,y,-z
-x,y,z
x,-y,z
loop_
_atom_site_type_symbol
_atom_site_label
_atom_site_fract_x
_atom_site_fract_y
_atom_site_fract_z
Si Si1 0.124183 0.579906 0.616356
Si Si2 0.617664 0.874120 0.743405
Si Si3 0.615740 0.732808 0.877823
Si Si4 0.189471 0.157601 0.379170
Si Si5 0.000000 0.781658 0.121559
Si Si6 0.000000 0.084164 0.733429
Si Si7 0.816602 0.705318 0.238002
Si Si8 0.625569 0.000000 0.115232
O O1 0.158672 0.599013 0.500000
O O2 0.157559 0.500000 0.636636
O O3 0.156761 0.634992 0.701746
O O4 0.000000 0.579969 0.614615
O O5 0.500000 0.888772 0.711275
O O6 0.615965 0.805061 0.813919
O O7 0.696943 0.869374 0.650570
O O8 0.656610 0.933237 0.820568
O O9 0.500000 0.702373 0.865736
O O10 0.711109 0.694112 0.825096
O O11 0.631708 0.744069 0.000000
O O12 0.173623 0.163605 0.500000
O O13 0.186632 0.233248 0.323979
O O14 0.101576 0.107722 0.330737
O O15 0.000000 0.859591 0.172125
O O16 0.097879 0.736931 0.161164
O O17 0.000000 0.787877 0.000000
O O18 0.000000 0.000000 0.754094
O O19 0.500000 0.000000 0.110024
O O20 0.665442 0.000000 0.000000
#
# Coordination Sequence:
#
# PCOD9382253 Si02
#       8
#     8   8   8   8   4   4   8   4
#     4   9  17  30  52  81 108 134 164 200 245 294
#     4   9  18  31  48  71  96 119 155 205 255 302
#     4   9  17  30  49  71  96 131 172 208 243 288
#     4  10  21  34  51  71  95 129 166 203 245 294
#     4  10  20  34  54  77  99 128 161 206 264 304
#     4  10  23  39  52  66  91 126 177 214 241 289
#     4  10  18  32  52  77 106 130 162 205 245 298
#     4   9  16  28  47  68  91 118 149 194 250 299
#
# _framework density 16.086165999999999
#
# number of rings (size 3 to 8) (size 9 to 14) (size 15 to 20)
#    0.000    2.538    0.769    2.077    1.077    2.923 
#    0.000    0.769    0.000    5.538    0.000    2.154 
#    0.000    0.000    0.000    0.000    0.000    0.000 
#
# Total GULP energy -289478.453924 kJ/mol
# GULP energy per Si atom -5566.893345 kJ/mol
# Density = 1.604955 g / cm^3
# Si number density = 16.086166 Si / 1000 Ang^3
#
#
#
# Elastic Constant Matrix: (Units=GPa)
#
#
# Indices 1 2 3 4 5 6 
#
# 1 91.2005 38.3728 57.1703 0.0000 0.0000 0.0000
# 2 38.3728 64.3982 40.5057 0.0000 0.0000 0.0000
# 3 57.1703 40.5057 118.3267 0.0000 0.0000 0.0000
# 4 0.0000 0.0000 0.0000 42.7766 0.0000 0.0000
# 5 0.0000 0.0000 0.0000 0.0000 23.3886 0.0000
# 6 0.0000 0.0000 0.0000 0.0000 0.0000 4.6067
#
#
#
# Elastic Compliance Matrix: (Units=1/GPa)
#
#
# Indices 1 2 3 4 5 6 
#
# 1 0.017673 -0.006576 -0.006288 0.000000 0.000000 0.000000
# 2 -0.006576 0.022236 -0.004435 0.000000 0.000000 0.000000
# 3 -0.006288 -0.004435 0.013007 0.000000 0.000000 0.000000
# 4 0.000000 0.000000 0.000000 0.023377 0.000000 0.000000
# 5 0.000000 0.000000 0.000000 0.000000 0.042756 0.000000
# 6 0.000000 0.000000 0.000000 0.000000 0.000000 0.217074
#
#
# Mechanical properties :
#
#
# Convention : Reuss Voigt Hill
#
# Bulk Modulus (GPa) = 54.58602 60.66923 57.62763
# Shear Modulus (GPa) = 13.26867 23.34618 18.30742
#
# Velocity S-wave (km/s) = 2.87514 3.81375 3.37721
# Velocity P-wave (km/s) = 6.71037 7.56241 7.14909
#
# Compressibility (1/GPa) = 0.01831971
#
# Stress axis : x y z
#
# Youngs Moduli (GPa) = 56.58234 44.97181 76.87995
#
# Poissons Ratio (x) = 0.29573 0.48341
# Poissons Ratio (y) = 0.37208 0.34094
# Poissons Ratio (z) = 0.35578 0.19944
#
# Static dielectric constant tensor:
#      x y z
#    x 1.568550 0.000000 0.000000 
#    y 0.000000 1.527570 0.000000 
#    z 0.000000 0.000000 1.517700 
# 
# From -- ./inp_files/17839.got.cif
#   From: 2010.05.17/outbox.cif.g08.bks.cpg/sg47_9_cif.got.tgz:17839.got - 2010.06.03 20:15:42.
