data_PCOD9382477
_publ_section_title
;
Structure prediction by ZEFSAII (Michael W. Deem and Ramdas Pophale) SiO2 
 PCOD9382477
Probable space group: P M M M
;
_chemical_formula_sum "Si O2"
_cell_formula_units_Z 48
_cell_length_a 8.971049
_cell_length_b 21.460750
_cell_length_c 20.127611
_cell_angle_alpha 90.000000
_cell_angle_beta 90.000000
_cell_angle_gamma 90.000000
_cell_volume 3875.077160
_symmetry_space_group_name_H-M "P M M M"
_symmetry_group_IT_number 47
_symmetry_cell_setting 'orthorhombic'
loop_
_space_group_symop_operation_xyz
x,y,z
-x,-y,z
x,-y,-z
-x,y,-z
-x,-y,-z
x,y,-z
-x,y,z
x,-y,z
loop_
_atom_site_type_symbol
_atom_site_label
_atom_site_fract_x
_atom_site_fract_y
_atom_site_fract_z
Si Si1 0.325766 0.075525 0.926538
Si Si2 0.681895 0.500000 0.423203
Si Si3 0.318871 0.000000 0.575883
Si Si4 0.177477 0.073969 0.210281
Si Si5 0.672836 0.635426 0.580806
Si Si6 0.177607 0.764484 0.578325
Si Si7 0.320853 0.877450 0.342111
O O1 0.500000 0.092076 0.918273
O O2 0.232272 0.094912 0.862538
O O3 0.318887 0.000000 0.927779
O O4 0.275847 0.096998 0.000000
O O5 0.500000 0.500000 0.424141
O O6 0.732560 0.500000 0.500000
O O7 0.725514 0.432711 0.394298
O O8 0.273282 0.062074 0.614730
O O9 0.500000 0.000000 0.574595
O O10 0.265819 0.000000 0.500000
O O11 0.257697 0.111417 0.268646
O O12 0.000000 0.079721 0.215708
O O13 0.215617 0.000000 0.217611
O O14 0.674335 0.631656 0.500000
O O15 0.500000 0.644851 0.600226
O O16 0.769074 0.695373 0.598688
O O17 0.217355 0.772957 0.500000
O O18 0.257178 0.816528 0.622283
O O19 0.000000 0.769749 0.584152
O O20 0.500000 0.875276 0.340658
#
# Coordination Sequence:
#
# PCOD9382477 Si02
#       7
#     8   4   4   8   8   8   8
#     4   8  14  25  41  59  77  96 118 142 169 207
#     4   7  10  18  35  57  75  89 111 143 174 207
#     4   9  18  30  43  57  66  77 110 159 201 234
#     4  10  19  29  41  57  78  97 115 144 185 230
#     4   8  13  23  39  56  72  92 117 144 176 216
#     4  10  20  31  40  53  74  96 119 152 194 235
#     4  11  20  31  45  56  69  91 122 159 193 230
#
# _framework density 12.386849
#
# number of rings (size 3 to 8) (size 9 to 14) (size 15 to 20)
#    0.000    2.833    0.833    3.500    0.000    2.667 
#    0.000    2.083    0.000    4.500    0.000    0.000 
#    0.000    0.000    0.000    0.000    0.000    0.000 
#
# Total GULP energy -267205.069248 kJ/mol
# GULP energy per Si atom -5566.772276 kJ/mol
# Density = 1.235866 g / cm^3
# Si number density = 12.386849 Si / 1000 Ang^3
#
#
#
# Elastic Constant Matrix: (Units=GPa)
#
#
# Indices 1 2 3 4 5 6 
#
# 1 39.6442 33.0294 34.4277 0.0000 0.0000 0.0000
# 2 33.0294 87.5791 40.9852 0.0000 0.0000 0.0000
# 3 34.4277 40.9852 79.4421 0.0000 0.0000 0.0000
# 4 0.0000 0.0000 0.0000 1.2937 0.0000 0.0000
# 5 0.0000 0.0000 0.0000 0.0000 15.4246 0.0000
# 6 0.0000 0.0000 0.0000 0.0000 0.0000 9.9506
#
#
#
# Elastic Compliance Matrix: (Units=1/GPa)
#
#
# Indices 1 2 3 4 5 6 
#
# 1 0.047135 -0.010832 -0.014838 0.000000 0.000000 0.000000
# 2 -0.010832 0.017542 -0.004356 0.000000 0.000000 0.000000
# 3 -0.014838 -0.004356 0.021265 0.000000 0.000000 0.000000
# 4 0.000000 0.000000 0.000000 0.772953 0.000000 0.000000
# 5 0.000000 0.000000 0.000000 0.000000 0.064832 0.000000
# 6 0.000000 0.000000 0.000000 0.000000 0.000000 0.100497
#
#
# Mechanical properties :
#
#
# Convention : Reuss Voigt Hill
#
# Bulk Modulus (GPa) = 38.62542 47.06111 42.84327
# Shear Modulus (GPa) = 4.57495 11.88198 8.22847
#
# Velocity S-wave (km/s) = 1.92391 3.10052 2.58018
# Velocity P-wave (km/s) = 6.01544 7.13393 6.59843
#
# Compressibility (1/GPa) = 0.02588969
#
# Stress axis : x y z
#
# Youngs Moduli (GPa) = 21.21552 57.00626 47.02469
#
# Poissons Ratio (x) = 0.61752 0.69777
# Poissons Ratio (y) = 0.22982 0.20482
# Poissons Ratio (z) = 0.31480 0.24830
#
# Static dielectric constant tensor:
#      x y z
#    x 1.408020 0.000000 0.000000 
#    y 0.000000 1.405240 0.000000 
#    z 0.000000 0.000000 1.393490 
# 
# From -- ./inp_files/11715.got.cif
#   From: 2010.05.17/outbox.cif.g08.bks.cpg/sg47_6_cif.got.tgz:11715.got - 2010.06.03 20:15:42.
