data_PCOD9382443
_publ_section_title
;
Structure prediction by ZEFSAII (Michael W. Deem and Ramdas Pophale) SiO2 
 PCOD9382443
Probable space group: P M M M
;
_chemical_formula_sum "Si O2"
_cell_formula_units_Z 56
_cell_length_a 8.905456
_cell_length_b 19.632943
_cell_length_c 19.103459
_cell_angle_alpha 90.000000
_cell_angle_beta 90.000000
_cell_angle_gamma 90.000000
_cell_volume 3340.054694
_symmetry_space_group_name_H-M "P M M M"
_symmetry_group_IT_number 47
_symmetry_cell_setting 'orthorhombic'
loop_
_space_group_symop_operation_xyz
x,y,z
-x,-y,z
x,-y,-z
-x,y,-z
-x,-y,-z
x,y,-z
-x,y,z
x,-y,z
loop_
_atom_site_type_symbol
_atom_site_label
_atom_site_fract_x
_atom_site_fract_y
_atom_site_fract_z
Si Si1 0.680922 0.648086 0.579445
Si Si2 0.680832 0.297435 0.790037
Si Si3 0.320228 0.923409 0.162546
Si Si4 0.820326 0.578004 0.713134
Si Si5 0.320881 0.212565 0.651079
Si Si6 0.179307 0.923950 0.683198
Si Si7 0.317003 0.790128 0.079145
O O1 0.722214 0.631300 0.500000
O O2 0.500000 0.641994 0.586866
O O3 0.757657 0.601569 0.637723
O O4 0.718510 0.726770 0.597696
O O5 0.500000 0.304706 0.789614
O O6 0.753745 0.368584 0.768558
O O7 0.717107 0.243822 0.727782
O O8 0.729322 0.266206 0.864009
O O9 0.500000 0.916435 0.174070
O O10 0.241448 0.916973 0.237612
O O11 0.273398 0.863814 0.110086
O O12 0.292215 0.000000 0.135664
O O13 0.776997 0.500000 0.727210
O O14 0.000000 0.582908 0.712751
O O15 0.500000 0.202693 0.649057
O O16 0.242714 0.140326 0.641280
O O17 0.000000 0.920989 0.684391
O O18 0.224657 0.000000 0.658550
O O19 0.500000 0.789169 0.077922
O O20 0.264084 0.779622 0.000000
#
# Coordination Sequence:
#
# PCOD9382443 Si02
#       7
#     8   8   8   8   8   8   8
#     4   9  19  35  54  77 104 131 157 187 228 281
#     4   9  17  31  50  72  96 124 161 201 241 286
#     4   9  16  27  43  63  91 126 161 198 243 291
#     4  10  21  35  52  76 103 130 159 192 230 273
#     4   9  16  29  49  70  92 121 159 199 238 280
#     4  10  19  28  41  64  92 123 162 206 246 282
#     4   9  16  27  45  70  98 125 158 204 251 290
#
# _framework density 16.766193000000001
#
# number of rings (size 3 to 8) (size 9 to 14) (size 15 to 20)
#    0.000    2.714    1.429    1.714    0.000    5.143 
#    0.000    2.857    0.000    2.571    0.000    8.000 
#    0.000    0.000    0.000    0.000    0.000    0.000 
#
# Total GULP energy -312102.897731 kJ/mol
# GULP energy per Si atom -5573.266031 kJ/mol
# Density = 1.672803 g / cm^3
# Si number density = 16.766193 Si / 1000 Ang^3
#
#
#
# Elastic Constant Matrix: (Units=GPa)
#
#
# Indices 1 2 3 4 5 6 
#
# 1 14.8923 34.3395 9.7447 0.0000 0.0000 0.0000
# 2 34.3395 136.0777 29.3684 0.0000 0.0000 0.0000
# 3 9.7447 29.3684 42.5769 0.0000 0.0000 0.0000
# 4 0.0000 0.0000 0.0000 14.1904 0.0000 0.0000
# 5 0.0000 0.0000 0.0000 0.0000 5.3400 0.0000
# 6 0.0000 0.0000 0.0000 0.0000 0.0000 20.6106
#
#
#
# Elastic Compliance Matrix: (Units=1/GPa)
#
#
# Indices 1 2 3 4 5 6 
#
# 1 0.164572 -0.039243 -0.010597 0.000000 0.000000 0.000000
# 2 -0.039243 0.017992 -0.003429 0.000000 0.000000 0.000000
# 3 -0.010597 -0.003429 0.028277 0.000000 0.000000 0.000000
# 4 0.000000 0.000000 0.000000 0.070470 0.000000 0.000000
# 5 0.000000 0.000000 0.000000 0.000000 0.187267 0.000000
# 6 0.000000 0.000000 0.000000 0.000000 0.000000 0.048519
#
#
# Mechanical properties :
#
#
# Convention : Reuss Voigt Hill
#
# Bulk Modulus (GPa) = 9.58744 37.82800 23.70772
# Shear Modulus (GPa) = 7.59415 16.03449 11.81432
#
# Velocity S-wave (km/s) = 2.13056 3.09586 2.65741
# Velocity P-wave (km/s) = 3.43265 5.94896 4.85661
#
# Compressibility (1/GPa) = 0.10430312
#
# Stress axis : x y z
#
# Youngs Moduli (GPa) = 6.07639 55.58119 35.36408
#
# Poissons Ratio (x) = 2.18116 0.37476
# Poissons Ratio (y) = 0.23845 0.12125
# Poissons Ratio (z) = 0.06439 0.19056
#
# Static dielectric constant tensor:
#      x y z
#    x 1.559980 0.000000 0.000000 
#    y 0.000000 1.577780 0.000000 
#    z 0.000000 0.000000 1.551910 
# 
# From -- ./inp_files/11480.got.cif
#   From: 2010.05.17/outbox.cif.g08.bks.cpg/sg47_6_cif.got.tgz:11480.got - 2010.06.03 20:15:42.
