data_PCOD9382421
_publ_section_title
;
Structure prediction by ZEFSAII (Michael W. Deem and Ramdas Pophale) SiO2 
 PCOD9382421
Probable space group: P M M M
;
_chemical_formula_sum "Si O2"
_cell_formula_units_Z 56
_cell_length_a 14.123110
_cell_length_b 30.037243
_cell_length_c 8.923991
_cell_angle_alpha 90.000000
_cell_angle_beta 90.000000
_cell_angle_gamma 90.000000
_cell_volume 3785.729099
_symmetry_space_group_name_H-M "P M M M"
_symmetry_group_IT_number 47
_symmetry_cell_setting 'orthorhombic'
loop_
_space_group_symop_operation_xyz
x,y,z
-x,-y,z
x,-y,-z
-x,y,-z
-x,-y,-z
x,y,-z
-x,y,z
x,-y,z
loop_
_atom_site_type_symbol
_atom_site_label
_atom_site_fract_x
_atom_site_fract_y
_atom_site_fract_z
Si Si1 0.388595 0.641252 0.821237
Si Si2 0.283776 0.275440 0.320724
Si Si3 0.109622 0.950074 0.817457
Si Si4 0.109280 0.227754 0.180470
Si Si5 0.391761 0.815348 0.680304
Si Si6 0.781811 0.137234 0.819524
Si Si7 0.614708 0.450911 0.675304
O O1 0.500000 0.646563 0.778099
O O2 0.327229 0.679915 0.746958
O O3 0.355942 0.592424 0.766872
O O4 0.382903 0.644093 0.000000
O O5 0.279755 0.278550 0.500000
O O6 0.181365 0.262216 0.255905
O O7 0.352246 0.233768 0.280482
O O8 0.174991 0.909530 0.766781
O O9 0.000000 0.942856 0.773677
O O10 0.137959 0.000000 0.770166
O O11 0.110917 0.949614 0.000000
O O12 0.147622 0.178189 0.218207
O O13 0.000000 0.232946 0.225074
O O14 0.115095 0.232220 0.000000
O O15 0.388547 0.818919 0.500000
O O16 0.500000 0.820630 0.729645
O O17 0.319181 0.850299 0.750847
O O18 0.774242 0.136105 0.000000
O O19 0.639739 0.445856 0.500000
O O20 0.500000 0.451801 0.682825
O O21 0.647605 0.500000 0.726798
#
# Coordination Sequence:
#
# PCOD9382421 Si02
#       7
#     8   8   8   8   8   8   8
#     4  10  19  28  40  60  86 115 145 178 215 253
#     4  10  19  30  44  61  82 109 142 177 210 248
#     4   8  13  22  39  64  90 111 131 160 201 248
#     4   9  17  29  44  62  86 112 135 165 207 252
#     4   9  18  31  44  58  79 109 142 174 209 247
#     4   9  16  26  43  66  86 106 136 170 203 242
#     4   8  14  25  40  57  79 110 146 179 211 249
#
# _framework density 14.792395000000001
#
# number of rings (size 3 to 8) (size 9 to 14) (size 15 to 20)
#    0.000    3.000    0.000    2.571    0.000    4.571 
#    0.000    1.429    0.000    2.143    0.000    4.000 
#    0.000    0.571    0.000    6.000    0.000    2.857 
#
# Total GULP energy -311886.610362 kJ/mol
# GULP energy per Si atom -5569.403756 kJ/mol
# Density = 1.475873 g / cm^3
# Si number density = 14.792395 Si / 1000 Ang^3
#
#
#
# Elastic Constant Matrix: (Units=GPa)
#
#
# Indices 1 2 3 4 5 6 
#
# 1 112.6095 74.8392 32.8205 0.0000 0.0000 0.0000
# 2 74.8392 139.5423 38.4615 0.0000 0.0000 0.0000
# 3 32.8205 38.4615 19.9398 0.0000 0.0000 0.0000
# 4 0.0000 0.0000 0.0000 18.2228 0.0000 0.0000
# 5 0.0000 0.0000 0.0000 0.0000 16.7062 0.0000
# 6 0.0000 0.0000 0.0000 0.0000 0.0000 21.4290
#
#
#
# Elastic Compliance Matrix: (Units=1/GPa)
#
#
# Indices 1 2 3 4 5 6 
#
# 1 0.017683 -0.003120 -0.023087 0.000000 0.000000 0.000000
# 2 -0.003120 0.015852 -0.025440 0.000000 0.000000 0.000000
# 3 -0.023087 -0.025440 0.137223 0.000000 0.000000 0.000000
# 4 0.000000 0.000000 0.000000 0.054876 0.000000 0.000000
# 5 0.000000 0.000000 0.000000 0.000000 0.059858 0.000000
# 6 0.000000 0.000000 0.000000 0.000000 0.000000 0.046666
#
#
# Mechanical properties :
#
#
# Convention : Reuss Voigt Hill
#
# Bulk Modulus (GPa) = 14.82303 62.70378 38.76340
# Shear Modulus (GPa) = 10.91847 19.66963 15.29405
#
# Velocity S-wave (km/s) = 2.71977 3.65048 3.21894
# Velocity P-wave (km/s) = 4.46154 7.76204 6.33066
#
# Compressibility (1/GPa) = 0.06746260
#
# Stress axis : x y z
#
# Youngs Moduli (GPa) = 56.55246 63.08466 7.28741
#
# Poissons Ratio (x) = 0.19684 0.16824
# Poissons Ratio (y) = 0.17646 0.18539
# Poissons Ratio (z) = 1.30562 1.60489
#
# Static dielectric constant tensor:
#      x y z
#    x 1.467680 0.000000 0.000000 
#    y 0.000000 1.492670 0.000000 
#    z 0.000000 0.000000 1.495230 
# 
# From -- ./inp_files/8147.got.cif
#   From: 2010.05.17/outbox.cif.g08.bks.cpg/sg47_5_cif.got.tgz:8147.got - 2010.06.03 20:15:42.
