data_PCOD9382862
_publ_section_title
;
Structure prediction by ZEFSAII (Michael W. Deem and Ramdas Pophale) SiO2 
 PCOD9382862
Probable space group: P M M M
;
_chemical_formula_sum "Si O2"
_cell_formula_units_Z 64
_cell_length_a 21.219782
_cell_length_b 8.640142
_cell_length_c 18.209477
_cell_angle_alpha 90.000000
_cell_angle_beta 90.000000
_cell_angle_gamma 90.000000
_cell_volume 3338.560652
_symmetry_space_group_name_H-M "P M M M"
_symmetry_group_IT_number 47
_symmetry_cell_setting 'orthorhombic'
loop_
_space_group_symop_operation_xyz
x,y,z
-x,-y,z
x,-y,-z
-x,y,-z
-x,-y,-z
x,y,-z
-x,y,z
x,-y,z
loop_
_atom_site_type_symbol
_atom_site_label
_atom_site_fract_x
_atom_site_fract_y
_atom_site_fract_z
Si Si1 0.070691 0.683795 0.132441
Si Si2 0.298831 0.315389 0.368928
Si Si3 0.568974 0.817418 0.619030
Si Si4 0.199427 0.813861 0.919706
Si Si5 0.567024 0.816018 0.796926
Si Si6 0.072667 0.181211 0.293548
Si Si7 0.296097 0.811544 0.796170
Si Si8 0.838703 0.686464 0.418787
O O1 0.073300 0.500000 0.121984
O O2 0.127741 0.761716 0.090128
O O3 0.079958 0.724298 0.218332
O O4 0.000000 0.737703 0.112200
O O5 0.302598 0.500000 0.364368
O O6 0.364784 0.257088 0.403031
O O7 0.289699 0.248733 0.286654
O O8 0.235115 0.272932 0.411328
O O9 0.500000 0.758373 0.593236
O O10 0.568397 0.801388 0.708112
O O11 0.571262 0.000000 0.602354
O O12 0.241996 0.758511 0.851701
O O13 0.201705 0.000000 0.917726
O O14 0.222873 0.762947 0.000000
O O15 0.500000 0.748880 0.822638
O O16 0.634587 0.758581 0.823700
O O17 0.565661 0.000000 0.812237
O O18 0.120705 0.236401 0.355180
O O19 0.000000 0.200635 0.318256
O O20 0.082835 0.000000 0.276771
O O21 0.295800 0.000000 0.793003
O O22 0.861373 0.730409 0.500000
O O23 0.843380 0.500000 0.411523
#
# Coordination Sequence:
#
# PCOD9382862 Si02
#       8
#     8   8   8   8   8   8   8   8
#     4  10  21  37  57  79 102 130 165 204 248 303
#     4  10  19  30  48  74 100 127 166 214 255 294
#     4   8  14  26  45  69  97 128 161 200 251 307
#     4  10  21  35  51  73 102 136 172 212 257 300
#     4   7  10  19  38  63  88 116 152 192 234 282
#     4  10  21  37  58  83 107 130 162 208 258 305
#     4   9  17  30  48  69  96 130 166 204 248 300
#     4  10  22  38  53  72 103 142 178 210 248 299
#
# _framework density 19.169938999999999
#
# number of rings (size 3 to 8) (size 9 to 14) (size 15 to 20)
#    0.000    2.750    0.000    3.375    0.000    6.250 
#    0.000    2.500    0.000    0.750    0.000    5.250 
#    0.000    0.000    0.000    7.375    0.000    9.125 
#
# Total GULP energy -356731.208592 kJ/mol
# GULP energy per Si atom -5573.925134 kJ/mol
# Density = 1.912631 g / cm^3
# Si number density = 19.169939 Si / 1000 Ang^3
#
#
#
# Elastic Constant Matrix: (Units=GPa)
#
#
# Indices 1 2 3 4 5 6 
#
# 1 81.0731 10.7670 22.2646 0.0000 0.0000 0.0000
# 2 10.7670 8.9018 2.1983 0.0000 0.0000 0.0000
# 3 22.2646 2.1983 41.3884 0.0000 0.0000 0.0000
# 4 0.0000 0.0000 0.0000 12.2493 0.0000 0.0000
# 5 0.0000 0.0000 0.0000 0.0000 -17.7489 0.0000
# 6 0.0000 0.0000 0.0000 0.0000 0.0000 23.4695
#
#
#
# Elastic Compliance Matrix: (Units=1/GPa)
#
#
# Indices 1 2 3 4 5 6 
#
# 1 0.017053 -0.018605 -0.008186 0.000000 0.000000 0.000000
# 2 -0.018605 0.134128 0.002884 0.000000 0.000000 0.000000
# 3 -0.008186 0.002884 0.028412 0.000000 0.000000 0.000000
# 4 0.000000 0.000000 0.000000 0.081637 0.000000 0.000000
# 5 0.000000 0.000000 0.000000 0.000000 -0.056342 0.000000
# 6 0.000000 0.000000 0.000000 0.000000 0.000000 0.042609
#
#
# Mechanical properties :
#
#
# Convention : Reuss Voigt Hill
#
# Bulk Modulus (GPa) = 7.58837 22.42480 15.00659
# Shear Modulus (GPa) = 14.73897 10.00288 12.37092
#
# Velocity S-wave (km/s) = 2.77584 2.28677 2.54309
# Velocity P-wave (km/s) = 3.77369 4.32386 4.05811
#
# Compressibility (1/GPa) = 0.13178059
#
# Stress axis : x y z
#
# Youngs Moduli (GPa) = 58.63939 7.45555 35.19700
#
# Poissons Ratio (x) = 0.13871 0.28811
# Poissons Ratio (y) = 1.09100 -0.10152
# Poissons Ratio (z) = 0.48000 -0.02151
#
# Static dielectric constant tensor:
#      x y z
#    x 1.712430 0.000000 0.000000 
#    y 0.000000 1.651240 0.000000 
#    z 0.000000 0.000000 1.648560 
# 
# From -- ./inp_files/28767.got.cif
#   From: 2010.05.17/outbox.cif.g08.bks.cpg/sg47_15_cif.got.tgz:28767.got - 2010.06.03 20:15:42.
