data_PCOD9382750
_publ_section_title
;
Structure prediction by ZEFSAII (Michael W. Deem and Ramdas Pophale) SiO2 
 PCOD9382750
Probable space group: P M M M
;
_chemical_formula_sum "Si O2"
_cell_formula_units_Z 64
_cell_length_a 29.667992
_cell_length_b 9.135231
_cell_length_c 14.543324
_cell_angle_alpha 90.000000
_cell_angle_beta 90.000000
_cell_angle_gamma 90.000000
_cell_volume 3941.589265
_symmetry_space_group_name_H-M "P M M M"
_symmetry_group_IT_number 47
_symmetry_cell_setting 'orthorhombic'
loop_
_space_group_symop_operation_xyz
x,y,z
-x,-y,z
x,-y,-z
-x,y,-z
-x,-y,-z
x,y,-z
-x,y,z
x,-y,z
loop_
_atom_site_type_symbol
_atom_site_label
_atom_site_fract_x
_atom_site_fract_y
_atom_site_fract_z
Si Si1 0.358554 0.823838 0.392966
Si Si2 0.050358 0.323783 0.792177
Si Si3 0.450397 0.671108 0.388569
Si Si4 0.726908 0.176523 0.729541
Si Si5 0.813491 0.173477 0.607688
Si Si6 0.907813 0.675591 0.396206
Si Si7 0.133773 0.169039 0.110553
Si Si8 0.771926 0.674161 0.108391
O O1 0.350712 0.778916 0.500000
O O2 0.406304 0.759638 0.360319
O O3 0.317504 0.779768 0.327127
O O4 0.360736 0.000000 0.392744
O O5 0.054667 0.500000 0.802533
O O6 0.057448 0.288264 0.684285
O O7 0.090247 0.245267 0.846369
O O8 0.000000 0.281648 0.821969
O O9 0.451069 0.678786 0.500000
O O10 0.500000 0.723168 0.356936
O O11 0.445948 0.500000 0.364144
O O12 0.770716 0.214827 0.668358
O O13 0.734442 0.254168 0.826700
O O14 0.726287 0.000000 0.740616
O O15 0.803284 0.199435 0.500000
O O16 0.859299 0.258149 0.629700
O O17 0.821381 0.000000 0.619263
O O18 0.919295 0.725408 0.500000
O O19 0.903969 0.500000 0.398465
O O20 0.179886 0.253599 0.133602
O O21 0.137337 0.000000 0.140592
O O22 0.129631 0.171955 0.000000
O O23 0.774161 0.500000 0.121805
O O24 0.764221 0.702950 0.000000
#
# Coordination Sequence:
#
# PCOD9382750 Si02
#       8
#     8   8   8   8   8   8   8   8
#     4   9  17  28  42  64  96 131 165 199 235 276
#     4  10  21  35  51  72  96 121 148 180 221 266
#     4   8  14  25  40  58  84 122 167 210 246 277
#     4  10  19  30  46  68  95 126 156 188 228 272
#     4   9  17  29  45  65  90 120 151 181 216 260
#     4   9  18  32  48  66  89 117 150 185 217 253
#     4  10  21  37  56  75  94 117 145 179 222 272
#     4  10  21  36  53  72  93 118 150 188 228 271
#
# _framework density 16.237105
#
# number of rings (size 3 to 8) (size 9 to 14) (size 15 to 20)
#    0.000    2.625    0.000    2.250    0.000    7.500 
#    0.000    3.750    0.000    3.750    0.000    2.625 
#    0.000    0.500    0.000    5.500    0.000    4.250 
#
# Total GULP energy -356838.660971 kJ/mol
# GULP energy per Si atom -5575.604078 kJ/mol
# Density = 1.620015 g / cm^3
# Si number density = 16.237105 Si / 1000 Ang^3
#
#
#
# Elastic Constant Matrix: (Units=GPa)
#
#
# Indices 1 2 3 4 5 6 
#
# 1 108.3462 38.8352 56.4668 0.0000 0.0000 0.0000
# 2 38.8352 29.9509 31.7529 0.0000 0.0000 0.0000
# 3 56.4668 31.7529 55.9531 0.0000 0.0000 0.0000
# 4 0.0000 0.0000 0.0000 21.7104 0.0000 0.0000
# 5 0.0000 0.0000 0.0000 0.0000 18.6549 0.0000
# 6 0.0000 0.0000 0.0000 0.0000 0.0000 27.0971
#
#
#
# Elastic Compliance Matrix: (Units=1/GPa)
#
#
# Indices 1 2 3 4 5 6 
#
# 1 0.021054 -0.011983 -0.014447 0.000000 0.000000 0.000000
# 2 -0.011983 0.090633 -0.039340 0.000000 0.000000 0.000000
# 3 -0.014447 -0.039340 0.054777 0.000000 0.000000 0.000000
# 4 0.000000 0.000000 0.000000 0.046061 0.000000 0.000000
# 5 0.000000 0.000000 0.000000 0.000000 0.053605 0.000000
# 6 0.000000 0.000000 0.000000 0.000000 0.000000 0.036904
#
#
# Mechanical properties :
#
#
# Convention : Reuss Voigt Hill
#
# Bulk Modulus (GPa) = 28.63426 49.81778 39.22602
# Shear Modulus (GPa) = 11.20530 17.97218 14.58874
#
# Velocity S-wave (km/s) = 2.62983 3.33056 3.00072
# Velocity P-wave (km/s) = 5.18601 6.74820 6.01801
#
# Compressibility (1/GPa) = 0.03492320
#
# Stress axis : x y z
#
# Youngs Moduli (GPa) = 47.49605 11.03352 18.25575
#
# Poissons Ratio (x) = 0.13222 0.26375
# Poissons Ratio (y) = 0.56915 0.71818
# Poissons Ratio (z) = 0.68619 0.43406
#
# Static dielectric constant tensor:
#      x y z
#    x 1.529590 0.000000 0.000000 
#    y 0.000000 1.542330 0.000000 
#    z 0.000000 0.000000 1.560810 
# 
# From -- ./inp_files/25852.got.cif
#   From: 2010.05.17/outbox.cif.g08.bks.cpg/sg47_13_cif.got.tgz:25852.got - 2010.06.03 20:15:42.
