data_PCOD9382497
_publ_section_title
;
Structure prediction by ZEFSAII (Michael W. Deem and Ramdas Pophale) SiO2 
 PCOD9382497
Probable space group: P M M M
;
_chemical_formula_sum "Si O2"
_cell_formula_units_Z 36
_cell_length_a 8.954254
_cell_length_b 21.212593
_cell_length_c 12.126916
_cell_angle_alpha 90.000000
_cell_angle_beta 90.000000
_cell_angle_gamma 90.000000
_cell_volume 2303.422148
_symmetry_space_group_name_H-M "P M M M"
_symmetry_group_IT_number 47
_symmetry_cell_setting 'orthorhombic'
loop_
_space_group_symop_operation_xyz
x,y,z
-x,-y,z
x,-y,-z
-x,y,-z
-x,-y,-z
x,y,-z
-x,y,z
x,-y,z
loop_
_atom_site_type_symbol
_atom_site_label
_atom_site_fract_x
_atom_site_fract_y
_atom_site_fract_z
Si Si1 0.831130 0.426008 0.500000
Si Si2 0.178559 0.261427 0.630931
Si Si3 0.320881 0.617931 0.722035
Si Si4 0.318315 0.500000 0.126670
Si Si5 0.670715 0.128833 0.633670
Si Si6 0.172658 0.000000 0.365441
O O1 0.849635 0.500000 0.500000
O O2 0.737146 0.409043 0.606597
O O3 0.000000 0.397628 0.500000
O O4 0.220226 0.273810 0.500000
O O5 0.248792 0.312569 0.714362
O O6 0.238212 0.191963 0.659461
O O7 0.000000 0.263262 0.636714
O O8 0.500000 0.623235 0.726123
O O9 0.273116 0.564934 0.811493
O O10 0.500000 0.500000 0.128977
O O11 0.269168 0.500000 0.000000
O O12 0.667949 0.125646 0.500000
O O13 0.500000 0.133674 0.671786
O O14 0.746406 0.063954 0.671646
O O15 0.176347 0.000000 0.500000
O O16 0.000000 0.000000 0.332693
#
# Coordination Sequence:
#
# PCOD9382497 Si02
#       6
#     4   8   8   4   8   4
#     4  11  21  31  45  67  95 118 139 178 229 277
#     4  10  19  29  41  61  90 120 145 182 232 277
#     4  11  20  31  50  70  89 116 150 188 227 276
#     4   9  20  37  53  70  90 115 150 191 232 273
#     4   9  16  25  37  54  78 111 152 192 221 259
#     4   9  15  23  35  51  75 111 152 189 224 263
#
# _framework density 15.628919
#
# number of rings (size 3 to 8) (size 9 to 14) (size 15 to 20)
#    0.000    2.111    2.222    2.667    0.000    5.333 
#    0.000    0.000    0.000    5.333    0.000    0.000 
#    0.000    0.000    0.000    1.000    0.000   20.778 
#
# Total GULP energy -200461.361635 kJ/mol
# GULP energy per Si atom -5568.371157 kJ/mol
# Density = 1.559335 g / cm^3
# Si number density = 15.628919 Si / 1000 Ang^3
#
#
#
# Elastic Constant Matrix: (Units=GPa)
#
#
# Indices 1 2 3 4 5 6 
#
# 1 84.6236 62.9865 18.5966 0.0000 0.0000 0.0000
# 2 62.9865 167.7939 39.5938 0.0000 0.0000 0.0000
# 3 18.5966 39.5938 58.8104 0.0000 0.0000 0.0000
# 4 0.0000 0.0000 0.0000 4.9165 0.0000 0.0000
# 5 0.0000 0.0000 0.0000 0.0000 7.9449 0.0000
# 6 0.0000 0.0000 0.0000 0.0000 0.0000 31.4712
#
#
#
# Elastic Compliance Matrix: (Units=1/GPa)
#
#
# Indices 1 2 3 4 5 6 
#
# 1 0.016475 -0.005891 -0.001244 0.000000 0.000000 0.000000
# 2 -0.005891 0.009192 -0.004325 0.000000 0.000000 0.000000
# 3 -0.001244 -0.004325 0.020309 0.000000 0.000000 0.000000
# 4 0.000000 0.000000 0.000000 0.203398 0.000000 0.000000
# 5 0.000000 0.000000 0.000000 0.000000 0.125867 0.000000
# 6 0.000000 0.000000 0.000000 0.000000 0.000000 0.031775
#
#
# Mechanical properties :
#
#
# Convention : Reuss Voigt Hill
#
# Bulk Modulus (GPa) = 43.37284 61.50906 52.44095
# Shear Modulus (GPa) = 11.42541 21.53659 16.48100
#
# Velocity S-wave (km/s) = 2.70671 3.71616 3.25086
# Velocity P-wave (km/s) = 6.13028 7.60622 6.90778
#
# Compressibility (1/GPa) = 0.02305591
#
# Stress axis : x y z
#
# Youngs Moduli (GPa) = 60.69790 108.79368 49.23891
#
# Poissons Ratio (x) = 0.64090 0.06123
# Poissons Ratio (y) = 0.35757 0.21298
# Poissons Ratio (z) = 0.07548 0.47059
#
# Static dielectric constant tensor:
#      x y z
#    x 1.528840 0.000000 0.000000 
#    y 0.000000 1.566150 0.000000 
#    z 0.000000 0.000000 1.487570 
# 
# From -- ./inp_files/3988.got.cif
#   From: 2010.05.17/outbox.cif.g08.bks.cpg/sg47_2_cif.got.tgz:3988.got - 2010.06.03 20:15:42.
