data_PCOD9382341
_publ_section_title
;
Structure prediction by ZEFSAII (Michael W. Deem and Ramdas Pophale) SiO2 
 PCOD9382341
Probable space group: P M M M
;
_chemical_formula_sum "Si O2"
_cell_formula_units_Z 48
_cell_length_a 17.555099
_cell_length_b 7.607226
_cell_length_c 15.699626
_cell_angle_alpha 90.000000
_cell_angle_beta 90.000000
_cell_angle_gamma 90.000000
_cell_volume 2096.616061
_symmetry_space_group_name_H-M "P M M M"
_symmetry_group_IT_number 47
_symmetry_cell_setting 'orthorhombic'
loop_
_space_group_symop_operation_xyz
x,y,z
-x,-y,z
x,-y,-z
-x,y,-z
-x,-y,-z
x,y,-z
-x,y,z
x,-y,z
loop_
_atom_site_type_symbol
_atom_site_label
_atom_site_fract_x
_atom_site_fract_y
_atom_site_fract_z
Si Si1 0.585560 0.785060 0.859399
Si Si2 0.196525 0.208803 0.596549
Si Si3 0.000000 0.284096 0.900674
Si Si4 0.349989 0.798971 0.680694
Si Si5 0.500000 0.303371 0.598862
Si Si6 0.131784 0.702865 0.226065
Si Si7 0.748731 0.212062 0.089814
O O1 0.500000 0.724260 0.880589
O O2 0.613389 0.723666 0.766531
O O3 0.659984 0.738403 0.912485
O O4 0.581201 0.000000 0.859917
O O5 0.178806 0.275563 0.500000
O O6 0.277137 0.281460 0.633127
O O7 0.139250 0.230768 0.676923
O O8 0.205677 0.000000 0.586963
O O9 0.928374 0.223576 0.842842
O O10 0.000000 0.500000 0.904162
O O11 0.000000 0.226095 0.000000
O O12 0.423207 0.796465 0.621406
O O13 0.327710 0.000000 0.702642
O O14 0.500000 0.500000 0.638200
O O15 0.500000 0.325246 0.500000
O O16 0.112149 0.500000 0.235450
O O17 0.211162 0.721339 0.175033
O O18 0.753205 0.000000 0.093002
O O19 0.785239 0.271633 0.000000
#
# Coordination Sequence:
#
# PCOD9382341 Si02
#       7
#     8   8   4   8   4   8   8
#     4   9  16  29  51  77 105 140 187 239 284 331
#     4  10  21  38  60  85 116 154 195 240 288 344
#     4   9  20  40  64  91 122 156 193 231 280 347
#     4  10  18  33  55  74  98 142 195 239 283 343
#     4  11  23  33  43  69 108 141 180 244 306 346
#     4  11  22  38  63  90 119 153 190 239 292 348
#     4  10  20  35  57  84 115 150 191 241 293 348
#
# _framework density 22.894033
#
# number of rings (size 3 to 8) (size 9 to 14) (size 15 to 20)
#    0.000    2.000    2.500    1.750    0.000    3.667 
#    0.000    3.750    0.000    5.500    0.000    1.167 
#    0.000    0.000    0.000    0.000    0.000    0.000 
#
# Total GULP energy -267439.850123 kJ/mol
# GULP energy per Si atom -5571.663544 kJ/mol
# Density = 2.284193 g / cm^3
# Si number density = 22.894033 Si / 1000 Ang^3
#
#
#
# Elastic Constant Matrix: (Units=GPa)
#
#
# Indices 1 2 3 4 5 6 
#
# 1 106.1606 -5.1631 52.5126 0.0000 0.0000 0.0000
# 2 -5.1631 46.8838 2.3761 0.0000 0.0000 0.0000
# 3 52.5126 2.3761 191.6649 0.0000 0.0000 0.0000
# 4 0.0000 0.0000 0.0000 2.2131 0.0000 0.0000
# 5 0.0000 0.0000 0.0000 0.0000 11.2473 0.0000
# 6 0.0000 0.0000 0.0000 0.0000 0.0000 13.8251
#
#
#
# Elastic Compliance Matrix: (Units=1/GPa)
#
#
# Indices 1 2 3 4 5 6 
#
# 1 0.010983 0.001363 -0.003026 0.000000 0.000000 0.000000
# 2 0.001363 0.021512 -0.000640 0.000000 0.000000 0.000000
# 3 -0.003026 -0.000640 0.006054 0.000000 0.000000 0.000000
# 4 0.000000 0.000000 0.000000 0.451857 0.000000 0.000000
# 5 0.000000 0.000000 0.000000 0.000000 0.088910 0.000000
# 6 0.000000 0.000000 0.000000 0.000000 0.000000 0.072332
#
#
# Mechanical properties :
#
#
# Convention : Reuss Voigt Hill
#
# Bulk Modulus (GPa) = 29.46147 49.35117 39.40632
# Shear Modulus (GPa) = 7.48986 25.12267 16.30626
#
# Velocity S-wave (km/s) = 1.81070 3.31621 2.67170
# Velocity P-wave (km/s) = 4.15549 6.02214 5.17370
#
# Compressibility (1/GPa) = 0.03394263
#
# Stress axis : x y z
#
# Youngs Moduli (GPa) = 91.05163 46.48602 165.16817
#
# Poissons Ratio (x) = -0.06335 0.49979
# Poissons Ratio (y) = -0.12409 0.10572
# Poissons Ratio (z) = 0.27552 0.02975
#
# Static dielectric constant tensor:
#      x y z
#    x 1.934300 0.000000 0.000000 
#    y 0.000000 1.923710 0.000000 
#    z 0.000000 0.000000 1.894870 
# 
# From -- ./inp_files/24454.got.cif
#   From: 2010.05.17/outbox.cif.g08.bks.cpg/sg47_13_cif.got.tgz:24454.got - 2010.06.03 20:15:42.
