data_PCOD9382722
_publ_section_title
;
Structure prediction by ZEFSAII (Michael W. Deem and Ramdas Pophale) SiO2 
 PCOD9382722
Probable space group: P M M M
;
_chemical_formula_sum "Si O2"
_cell_formula_units_Z 46
_cell_length_a 8.355534
_cell_length_b 25.579318
_cell_length_c 12.143107
_cell_angle_alpha 90.000000
_cell_angle_beta 90.000000
_cell_angle_gamma 90.000000
_cell_volume 2595.332431
_symmetry_space_group_name_H-M "P M M M"
_symmetry_group_IT_number 47
_symmetry_cell_setting 'orthorhombic'
loop_
_space_group_symop_operation_xyz
x,y,z
-x,-y,z
x,-y,-z
-x,y,-z
-x,-y,-z
x,y,-z
-x,y,z
x,-y,z
loop_
_atom_site_type_symbol
_atom_site_label
_atom_site_fract_x
_atom_site_fract_y
_atom_site_fract_z
Si Si1 0.691374 0.439439 0.000000
Si Si2 0.710210 0.000000 0.500000
Si Si3 0.310578 0.185106 0.631846
Si Si4 0.191584 0.399920 0.233094
Si Si5 0.812810 0.924181 0.692613
Si Si6 0.195356 0.500000 0.626191
Si Si7 0.306579 0.697174 0.373255
Si Si8 0.307667 0.000000 0.872077
O O1 0.748387 0.410521 0.889927
O O2 0.750916 0.500000 0.000000
O O3 0.500000 0.440972 0.000000
O O4 0.717416 0.954569 0.596633
O O5 0.291535 0.179774 0.500000
O O6 0.500000 0.180882 0.656121
O O7 0.221254 0.137134 0.687676
O O8 0.255824 0.243957 0.658991
O O9 0.248057 0.448462 0.308773
O O10 0.248235 0.346716 0.289966
O O11 0.000000 0.400555 0.231854
O O12 0.000000 0.934681 0.670150
O O13 0.762031 0.950252 0.807016
O O14 0.249336 0.500000 0.500000
O O15 0.000000 0.500000 0.625476
O O16 0.253414 0.686780 0.500000
O O17 0.500000 0.697409 0.374848
O O18 0.500000 0.000000 0.862347
O O19 0.264505 0.000000 0.000000
#
# Coordination Sequence:
#
# PCOD9382722 Si02
#       8
#     4   2   8   8   8   4   8   4
#     4  11  23  39  59  81 109 145 185 226 279 338
#     4  10  19  30  45  80 121 146 167 210 273 322
#     4   9  18  33  53  79 112 149 185 219 264 322
#     4  11  21  35  57  82 112 144 184 230 274 325
#     4  11  20  32  53  81 115 144 176 223 272 322
#     4   9  18  31  49  78 114 145 170 211 270 325
#     4   9  19  36  56  80 114 151 185 224 270 325
#     4  10  22  39  56  75 102 140 184 224 268 325
#
# _framework density 17.724125999999998
#
# number of rings (size 3 to 8) (size 9 to 14) (size 15 to 20)
#    0.000    2.000    1.739    4.435    0.000    2.783 
#    0.000    3.043    1.913    2.087    0.000    0.000 
#    0.000    0.000    0.000    0.000    0.000    0.000 
#
# Total GULP energy -256266.145422 kJ/mol
# GULP energy per Si atom -5571.003161 kJ/mol
# Density = 1.768379 g / cm^3
# Si number density = 17.724126 Si / 1000 Ang^3
#
#
#
# Elastic Constant Matrix: (Units=GPa)
#
#
# Indices 1 2 3 4 5 6 
#
# 1 26.4110 28.9304 19.3750 0.0000 0.0000 0.0000
# 2 28.9304 171.6119 81.9534 0.0000 0.0000 0.0000
# 3 19.3750 81.9534 136.9024 0.0000 0.0000 0.0000
# 4 0.0000 0.0000 0.0000 15.4465 0.0000 0.0000
# 5 0.0000 0.0000 0.0000 0.0000 -53.9895 0.0000
# 6 0.0000 0.0000 0.0000 0.0000 0.0000 0.7923
#
#
#
# Elastic Compliance Matrix: (Units=1/GPa)
#
#
# Indices 1 2 3 4 5 6 
#
# 1 0.047130 -0.006665 -0.002680 0.000000 0.000000 0.000000
# 2 -0.006665 0.009102 -0.004506 0.000000 0.000000 0.000000
# 3 -0.002680 -0.004506 0.010381 0.000000 0.000000 0.000000
# 4 0.000000 0.000000 0.000000 0.064739 0.000000 0.000000
# 5 0.000000 0.000000 0.000000 0.000000 -0.018522 0.000000
# 6 0.000000 0.000000 0.000000 0.000000 0.000000 1.262097
#
#
# Mechanical properties :
#
#
# Convention : Reuss Voigt Hill
#
# Bulk Modulus (GPa) = 25.69929 66.16031 45.92980
# Shear Modulus (GPa) = 3.53207 6.09432 4.81320
#
# Velocity S-wave (km/s) = 1.41320 1.85631 1.64970
# Velocity P-wave (km/s) = 4.14656 6.48100 5.44046
#
# Compressibility (1/GPa) = 0.03891158
#
# Stress axis : x y z
#
# Youngs Moduli (GPa) = 21.21779 109.86087 96.33035
#
# Poissons Ratio (x) = 0.73227 0.25816
# Poissons Ratio (y) = 0.14142 0.43403
# Poissons Ratio (z) = 0.05686 0.49499
#
# Static dielectric constant tensor:
#      x y z
#    x 1.637410 0.000000 0.000000 
#    y 0.000000 1.610630 0.000000 
#    z 0.000000 0.000000 1.570070 
# 
# From -- ./inp_files/15358.got.cif
#   From: 2010.05.17/outbox.cif.g08.bks.cpg/sg47_8_cif.got.tgz:15358.got - 2010.06.03 20:15:42.
