data_PCOD9382397
_publ_section_title
;
Structure prediction by ZEFSAII (Michael W. Deem and Ramdas Pophale) SiO2 
 PCOD9382397
Probable space group: P M M M
;
_chemical_formula_sum "Si O2"
_cell_formula_units_Z 56
_cell_length_a 14.296088
_cell_length_b 7.601530
_cell_length_c 30.425899
_cell_angle_alpha 90.000000
_cell_angle_beta 90.000000
_cell_angle_gamma 90.000000
_cell_volume 3306.447611
_symmetry_space_group_name_H-M "P M M M"
_symmetry_group_IT_number 47
_symmetry_cell_setting 'orthorhombic'
loop_
_space_group_symop_operation_xyz
x,y,z
-x,-y,z
x,-y,-z
-x,y,-z
-x,-y,-z
x,y,-z
-x,y,z
x,-y,z
loop_
_atom_site_type_symbol
_atom_site_label
_atom_site_fract_x
_atom_site_fract_y
_atom_site_fract_z
Si Si1 0.896132 0.209793 0.274391
Si Si2 0.607578 0.287788 0.142855
Si Si3 0.387151 0.710144 0.952723
Si Si4 0.792209 0.287064 0.363375
Si Si5 0.603302 0.293427 0.679788
Si Si6 0.706195 0.208425 0.766942
Si Si7 0.891699 0.285405 0.450837
O O1 0.864385 0.240026 0.324637
O O2 0.809866 0.278205 0.244861
O O3 0.000000 0.282057 0.266363
O O4 0.900687 0.000000 0.267366
O O5 0.500000 0.226723 0.149665
O O6 0.603752 0.500000 0.140287
O O7 0.643358 0.222657 0.095115
O O8 0.671036 0.241827 0.184134
O O9 0.500000 0.730404 0.952236
O O10 0.368950 0.500000 0.953444
O O11 0.353586 0.781734 0.000000
O O12 0.788287 0.500000 0.364539
O O13 0.690265 0.220022 0.348207
O O14 0.828222 0.224635 0.410541
O O15 0.500000 0.216597 0.673314
O O16 0.597970 0.500000 0.668959
O O17 0.634442 0.281197 0.730664
O O18 0.707782 0.000000 0.759650
O O19 0.863405 0.229562 0.500000
O O20 0.890158 0.500000 0.450557
O O21 0.000000 0.233977 0.443925
#
# Coordination Sequence:
#
# PCOD9382397 Si02
#       7
#     8   8   8   8   8   8   8
#     4   9  18  31  43  55  75 101 125 153 192 232
#     4   9  16  25  38  56  79 106 131 156 187 219
#     4   7  10  18  33  52  72  96 128 159 182 211
#     4   9  16  26  42  61  77  97 128 159 183 216
#     4   9  17  28  40  54  75 102 129 158 190 219
#     4  10  19  28  39  56  76  99 128 158 188 225
#     4   8  13  21  35  57  81  99 117 148 190 230
#
# _framework density 16.936606000000001
#
# number of rings (size 3 to 8) (size 9 to 14) (size 15 to 20)
#    0.000    3.286    0.000    3.000    0.000    3.714 
#    0.000    0.000    0.000    1.286    0.000    7.000 
#    0.000    0.571    0.000   14.286    0.000    8.000 
#
# Total GULP energy -311788.711448 kJ/mol
# GULP energy per Si atom -5567.655562 kJ/mol
# Density = 1.689806 g / cm^3
# Si number density = 16.936606 Si / 1000 Ang^3
#
#
#
# Elastic Constant Matrix: (Units=GPa)
#
#
# Indices 1 2 3 4 5 6 
#
# 1 100.7787 2.0794 64.1136 0.0000 0.0000 0.0000
# 2 2.0794 34.8110 -7.1736 0.0000 0.0000 0.0000
# 3 64.1136 -7.1736 150.0978 0.0000 0.0000 0.0000
# 4 0.0000 0.0000 0.0000 -42.7325 0.0000 0.0000
# 5 0.0000 0.0000 0.0000 0.0000 19.0343 0.0000
# 6 0.0000 0.0000 0.0000 0.0000 0.0000 9.3026
#
#
#
# Elastic Compliance Matrix: (Units=1/GPa)
#
#
# Indices 1 2 3 4 5 6 
#
# 1 0.013769 -0.002055 -0.005980 0.000000 0.000000 0.000000
# 2 -0.002055 0.029319 0.002279 0.000000 0.000000 0.000000
# 3 -0.005980 0.002279 0.009325 0.000000 0.000000 0.000000
# 4 0.000000 0.000000 0.000000 -0.023401 0.000000 0.000000
# 5 0.000000 0.000000 0.000000 0.000000 0.052537 0.000000
# 6 0.000000 0.000000 0.000000 0.000000 0.000000 0.107497
#
#
# Mechanical properties :
#
#
# Convention : Reuss Voigt Hill
#
# Bulk Modulus (GPa) = 24.44836 44.85848 34.65342
# Shear Modulus (GPa) = 23.34364 12.23209 17.78787
#
# Velocity S-wave (km/s) = 3.71657 2.69035 3.24429
# Velocity P-wave (km/s) = 5.73443 6.01616 5.87699
#
# Compressibility (1/GPa) = 0.04090253
#
# Stress axis : x y z
#
# Youngs Moduli (GPa) = 72.62525 34.10774 107.23350
#
# Poissons Ratio (x) = 0.07008 0.64122
# Poissons Ratio (y) = 0.14923 -0.24437
# Poissons Ratio (z) = 0.43428 -0.07773
#
# Static dielectric constant tensor:
#      x y z
#    x 1.578050 0.000000 0.000000 
#    y 0.000000 1.634800 0.000000 
#    z 0.000000 0.000000 1.591470 
# 
# From -- ./inp_files/8131.got.cif
#   From: 2010.05.17/outbox.cif.g08.bks.cpg/sg47_5_cif.got.tgz:8131.got - 2010.06.03 20:15:42.
