data_PCOD9382922
_publ_section_title
;
Structure prediction by ZEFSAII (Michael W. Deem and Ramdas Pophale) SiO2 
 PCOD9382922
Probable space group: P M M M
;
_chemical_formula_sum "Si O2"
_cell_formula_units_Z 29
_cell_length_a 21.822200
_cell_length_b 8.186052
_cell_length_c 7.622506
_cell_angle_alpha 90.000000
_cell_angle_beta 90.000000
_cell_angle_gamma 90.000000
_cell_volume 1361.666665
_symmetry_space_group_name_H-M "P M M M"
_symmetry_group_IT_number 47
_symmetry_cell_setting 'orthorhombic'
loop_
_space_group_symop_operation_xyz
x,y,z
-x,-y,z
x,-y,-z
-x,y,-z
-x,-y,-z
x,y,-z
-x,y,z
x,-y,z
loop_
_atom_site_type_symbol
_atom_site_label
_atom_site_fract_x
_atom_site_fract_y
_atom_site_fract_z
Si Si1 0.897507 0.500000 0.192846
Si Si2 0.824767 0.820472 0.705184
Si Si3 0.000000 0.500000 0.500000
Si Si4 0.433473 0.192621 0.786928
Si Si5 0.302338 0.684637 0.787396
O O1 0.856063 0.336676 0.208882
O O2 0.946588 0.500000 0.346711
O O3 0.925714 0.500000 0.000000
O O4 0.841003 0.815512 0.500000
O O5 0.751599 0.800117 0.722623
O O6 0.842680 0.000000 0.774618
O O7 0.500000 0.255982 0.726090
O O8 0.370786 0.273517 0.725304
O O9 0.430727 0.000000 0.746427
O O10 0.433611 0.207012 0.000000
O O11 0.287055 0.500000 0.735273
O O12 0.302504 0.693675 0.000000
#
# Coordination Sequence:
#
# PCOD9382922 Si02
#       5
#     4   8   1   8   8
#     4  12  25  47  77 108 142 184 225 267 324 385
#     4  11  23  41  66  96 135 179 224 279 336 390
#     4  12  26  52  78 110 156 182 220 268 314 382
#     4   8  14  25  41  65 104 154 207 267 332 396
#     4  10  19  30  50  83 118 157 213 275 335 401
#
# _framework density 21.297432000000001
#
# number of rings (size 3 to 8) (size 9 to 14) (size 15 to 20)
#    0.000    1.931    2.759    2.690    0.000    3.862 
#    0.000    4.138    0.000    2.483    0.000    5.793 
#    0.000    0.000    0.000    0.000    0.000    0.000 
#
# Total GULP energy -161674.797323 kJ/mol
# GULP energy per Si atom -5574.993011 kJ/mol
# Density = 2.124896 g / cm^3
# Si number density = 21.297432 Si / 1000 Ang^3
#
#
#
# Elastic Constant Matrix: (Units=GPa)
#
#
# Indices 1 2 3 4 5 6 
#
# 1 121.4464 47.8869 25.3456 0.0000 0.0000 0.0000
# 2 47.8869 129.2307 26.0878 0.0000 0.0000 0.0000
# 3 25.3456 26.0878 90.9998 0.0000 0.0000 0.0000
# 4 0.0000 0.0000 0.0000 1.3363 0.0000 0.0000
# 5 0.0000 0.0000 0.0000 0.0000 23.6620 0.0000
# 6 0.0000 0.0000 0.0000 0.0000 0.0000 -16.4401
#
#
#
# Elastic Compliance Matrix: (Units=1/GPa)
#
#
# Indices 1 2 3 4 5 6 
#
# 1 0.009917 -0.003309 -0.001814 0.000000 0.000000 0.000000
# 2 -0.003309 0.009317 -0.001750 0.000000 0.000000 0.000000
# 3 -0.001814 -0.001750 0.011996 0.000000 0.000000 0.000000
# 4 0.000000 0.000000 0.000000 0.748331 0.000000 0.000000
# 5 0.000000 0.000000 0.000000 0.000000 0.042262 0.000000
# 6 0.000000 0.000000 0.000000 0.000000 0.000000 -0.060827
#
#
# Mechanical properties :
#
#
# Convention : Reuss Voigt Hill
#
# Bulk Modulus (GPa) = 57.18702 60.03529 58.61115
# Shear Modulus (GPa) = 6.40558 17.86874 12.13716
#
# Velocity S-wave (km/s) = 1.73615 2.89971 2.38982
# Velocity P-wave (km/s) = 5.56137 6.28182 5.93254
#
# Compressibility (1/GPa) = 0.01748649
#
# Stress axis : x y z
#
# Youngs Moduli (GPa) = 100.83443 107.32670 83.36298
#
# Poissons Ratio (x) = 0.35512 0.15119
# Poissons Ratio (y) = 0.33364 0.14585
# Poissons Ratio (z) = 0.18288 0.18777
#
# Static dielectric constant tensor:
#      x y z
#    x 1.744050 0.000000 0.000000 
#    y 0.000000 1.761510 0.000000 
#    z 0.000000 0.000000 1.801080 
# 
# From -- ./inp_files/10293.got.cif
#   From: 2010.05.17/outbox.cif.g08.bks.cpg/sg47_6_cif.got.tgz:10293.got - 2010.06.03 20:15:42.
