data_PCOD9382663
_publ_section_title
;
Structure prediction by ZEFSAII (Michael W. Deem and Ramdas Pophale) SiO2 
 PCOD9382663
Probable space group: P M M M
;
_chemical_formula_sum "Si O2"
_cell_formula_units_Z 44
_cell_length_a 9.035538
_cell_length_b 18.509658
_cell_length_c 19.784768
_cell_angle_alpha 90.000000
_cell_angle_beta 90.000000
_cell_angle_gamma 90.000000
_cell_volume 3308.897949
_symmetry_space_group_name_H-M "P M M M"
_symmetry_group_IT_number 47
_symmetry_cell_setting 'orthorhombic'
loop_
_space_group_symop_operation_xyz
x,y,z
-x,-y,z
x,-y,-z
-x,y,-z
-x,-y,-z
x,y,-z
-x,y,z
x,-y,z
loop_
_atom_site_type_symbol
_atom_site_label
_atom_site_fract_x
_atom_site_fract_y
_atom_site_fract_z
Si Si1 0.674556 0.413086 0.213118
Si Si2 0.325120 0.772070 0.418970
Si Si3 0.672806 0.500000 0.580987
Si Si4 0.823360 0.636602 0.652021
Si Si5 0.827731 0.919706 0.418038
Si Si6 0.172405 0.412379 0.075091
O O1 0.500000 0.400280 0.220971
O O2 0.699269 0.500000 0.219744
O O3 0.765372 0.374125 0.271808
O O4 0.730242 0.390162 0.138903
O O5 0.299473 0.764908 0.500000
O O6 0.500000 0.763626 0.407339
O O7 0.235751 0.710508 0.380229
O O8 0.270121 0.851620 0.397419
O O9 0.500000 0.500000 0.602030
O O10 0.678705 0.500000 0.500000
O O11 0.752141 0.570588 0.610050
O O12 0.000000 0.632948 0.649379
O O13 0.823504 0.920982 0.500000
O O14 0.000000 0.909138 0.399059
O O15 0.780433 0.000000 0.395124
O O16 0.177082 0.500000 0.074024
O O17 0.000000 0.392355 0.084738
O O18 0.220010 0.387943 0.000000
#
# Coordination Sequence:
#
# PCOD9382663 Si02
#       6
#     8   8   4   8   8   8
#     4  10  19  30  44  59  79 104 132 169 208 246
#     4  10  20  32  45  61  82 106 133 170 212 251
#     4  11  23  37  49  59  74  97 130 175 221 257
#     4  12  23  33  46  60  77 104 138 174 211 252
#     4   8  14  26  44  64  84 104 127 158 197 243
#     4   8  14  25  41  60  81 102 126 159 197 238
#
# _framework density 13.297478
#
# number of rings (size 3 to 8) (size 9 to 14) (size 15 to 20)
#    0.000    2.273    0.909    4.636    0.000    5.455 
#    0.000    3.636    0.000    0.000    0.000    0.000 
#    0.000    0.000    0.000    0.000    0.000    0.909 
#
# Total GULP energy -245286.419540 kJ/mol
# GULP energy per Si atom -5574.691353 kJ/mol
# Density = 1.326721 g / cm^3
# Si number density = 13.297478 Si / 1000 Ang^3
#
#
#
# Elastic Constant Matrix: (Units=GPa)
#
#
# Indices 1 2 3 4 5 6 
#
# 1 102.5985 53.5293 54.6422 0.0000 0.0000 0.0000
# 2 53.5293 78.3376 35.2026 0.0000 0.0000 0.0000
# 3 54.6422 35.2026 70.4716 0.0000 0.0000 0.0000
# 4 0.0000 0.0000 0.0000 -1.2468 0.0000 0.0000
# 5 0.0000 0.0000 0.0000 0.0000 20.7409 0.0000
# 6 0.0000 0.0000 0.0000 0.0000 0.0000 15.9452
#
#
#
# Elastic Compliance Matrix: (Units=1/GPa)
#
#
# Indices 1 2 3 4 5 6 
#
# 1 0.020449 -0.008830 -0.011445 0.000000 0.000000 0.000000
# 2 -0.008830 0.020273 -0.003280 0.000000 0.000000 0.000000
# 3 -0.011445 -0.003280 0.024703 0.000000 0.000000 0.000000
# 4 0.000000 0.000000 0.000000 -0.802060 0.000000 0.000000
# 5 0.000000 0.000000 0.000000 0.000000 0.048214 0.000000
# 6 0.000000 0.000000 0.000000 0.000000 0.000000 0.062715
#
#
# Mechanical properties :
#
#
# Convention : Reuss Voigt Hill
#
# Bulk Modulus (GPa) = 54.60189 59.79511 57.19850
# Shear Modulus (GPa) = -8.73376 14.29010 2.77817
#
# Velocity S-wave (km/s) = -2.56559 3.28174 1.44699
# Velocity P-wave (km/s) = 5.68987 7.70874 6.77493
#
# Compressibility (1/GPa) = 0.01831438
#
# Stress axis : x y z
#
# Youngs Moduli (GPa) = 48.90192 49.32640 40.48122
#
# Poissons Ratio (x) = 0.43556 0.46330
# Poissons Ratio (y) = 0.43181 0.13279
# Poissons Ratio (z) = 0.55968 0.16180
#
# Static dielectric constant tensor:
#      x y z
#    x 1.440800 0.000000 0.000000 
#    y 0.000000 1.421680 0.000000 
#    z 0.000000 0.000000 1.434190 
# 
# From -- ./inp_files/26654.got.cif
#   From: 2010.05.17/outbox.cif.g08.bks.cpg/sg47_14_cif.got.tgz:26654.got - 2010.06.03 20:15:42.
