data_PCOD9382960
_publ_section_title
;
Structure prediction by ZEFSAII (Michael W. Deem and Ramdas Pophale) SiO2 
 PCOD9382960
Probable space group: P M M M
;
_chemical_formula_sum "Si O2"
_cell_formula_units_Z 48
_cell_length_a 17.070293
_cell_length_b 9.166056
_cell_length_c 24.077134
_cell_angle_alpha 90.000000
_cell_angle_beta 90.000000
_cell_angle_gamma 90.000000
_cell_volume 3767.283224
_symmetry_space_group_name_H-M "P M M M"
_symmetry_group_IT_number 47
_symmetry_cell_setting 'orthorhombic'
loop_
_space_group_symop_operation_xyz
x,y,z
-x,-y,z
x,-y,-z
-x,y,-z
-x,-y,-z
x,y,-z
-x,y,z
x,-y,z
loop_
_atom_site_type_symbol
_atom_site_label
_atom_site_fract_x
_atom_site_fract_y
_atom_site_fract_z
Si Si1 0.160883 0.827373 0.067082
Si Si2 0.681104 0.675609 0.898241
Si Si3 0.595383 0.167942 0.672114
Si Si4 0.408768 0.674399 0.784965
Si Si5 0.000000 0.668447 0.067410
Si Si6 0.595134 0.670777 0.561302
Si Si7 0.593877 0.171324 0.000000
O O1 0.232963 0.743740 0.094963
O O2 0.078584 0.754127 0.083644
O O3 0.161762 0.000000 0.079146
O O4 0.169419 0.811435 0.000000
O O5 0.683042 0.500000 0.905206
O O6 0.642671 0.709679 0.838701
O O7 0.628722 0.748558 0.946258
O O8 0.500000 0.174106 0.671144
O O9 0.618812 0.250126 0.728314
O O10 0.623066 0.242328 0.615085
O O11 0.618769 0.000000 0.674060
O O12 0.500000 0.715895 0.795062
O O13 0.407084 0.500000 0.777087
O O14 0.000000 0.500000 0.086167
O O15 0.000000 0.666181 0.000000
O O16 0.620778 0.723050 0.500000
O O17 0.500000 0.678725 0.561387
O O18 0.615124 0.500000 0.566452
O O19 0.500000 0.179535 0.000000
O O20 0.617154 0.000000 0.000000
#
# Coordination Sequence:
#
# PCOD9382960 Si02
#       7
#     8   8   8   8   4   8   4
#     4  10  19  31  46  64  86 105 122 147 188 235
#     4  11  21  32  47  62  77  98 129 164 196 233
#     4   9  16  24  35  51  69  90 117 152 192 230
#     4   9  18  31  43  54  70  96 130 165 199 233
#     4   9  17  29  47  67  85 103 125 147 175 220
#     4   8  13  21  33  48  66  89 115 144 182 226
#     4  11  23  35  45  58  77 100 125 159 205 247
#
# _framework density 12.741277999999999
#
# number of rings (size 3 to 8) (size 9 to 14) (size 15 to 20)
#    0.000    2.500    0.833    3.000    0.000    6.667 
#    0.000    3.333    0.000    0.000    0.000    0.000 
#    0.000    0.000    0.000    0.000    0.000    0.000 
#
# Total GULP energy -267456.903845 kJ/mol
# GULP energy per Si atom -5572.018830 kJ/mol
# Density = 1.271228 g / cm^3
# Si number density = 12.741278 Si / 1000 Ang^3
#
#
#
# Elastic Constant Matrix: (Units=GPa)
#
#
# Indices 1 2 3 4 5 6 
#
# 1 64.2094 41.1780 41.7558 0.0000 0.0000 0.0000
# 2 41.1780 79.0196 65.6095 0.0000 0.0000 0.0000
# 3 41.7558 65.6095 117.6686 0.0000 0.0000 0.0000
# 4 0.0000 0.0000 0.0000 4.3283 0.0000 0.0000
# 5 0.0000 0.0000 0.0000 0.0000 0.8832 0.0000
# 6 0.0000 0.0000 0.0000 0.0000 0.0000 16.6803
#
#
#
# Elastic Compliance Matrix: (Units=1/GPa)
#
#
# Indices 1 2 3 4 5 6 
#
# 1 0.023898 -0.010078 -0.002861 0.000000 0.000000 0.000000
# 2 -0.010078 0.027814 -0.011932 0.000000 0.000000 0.000000
# 3 -0.002861 -0.011932 0.016167 0.000000 0.000000 0.000000
# 4 0.000000 0.000000 0.000000 0.231035 0.000000 0.000000
# 5 0.000000 0.000000 0.000000 0.000000 1.132242 0.000000
# 6 0.000000 0.000000 0.000000 0.000000 0.000000 0.059951
#
#
# Mechanical properties :
#
#
# Convention : Reuss Voigt Hill
#
# Bulk Modulus (GPa) = 55.13839 61.99825 58.56832
# Shear Modulus (GPa) = 3.23228 11.86864 7.55046
#
# Velocity S-wave (km/s) = 1.59448 3.05538 2.43698
# Velocity P-wave (km/s) = 6.83807 7.82382 7.34749
#
# Compressibility (1/GPa) = 0.01813618
#
# Stress axis : x y z
#
# Youngs Moduli (GPa) = 41.84517 35.95307 61.85438
#
# Poissons Ratio (x) = 0.36232 0.17698
# Poissons Ratio (y) = 0.42170 0.73807
# Poissons Ratio (z) = 0.11973 0.42900
#
# Static dielectric constant tensor:
#      x y z
#    x 1.390550 0.000000 0.000000 
#    y 0.000000 1.424810 0.000000 
#    z 0.000000 0.000000 1.409060 
# 
# From -- ./inp_files/31229.got.cif
#   From: 2010.05.17/outbox.cif.g08.bks.cpg/sg47_16_cif.got.tgz:31229.got - 2010.06.03 20:15:42.
