data_PCOD9382989
_publ_section_title
;
Structure prediction by ZEFSAII (Michael W. Deem and Ramdas Pophale) SiO2 
 PCOD9382989
Probable space group: P M M M
;
_chemical_formula_sum "Si O2"
_cell_formula_units_Z 48
_cell_length_a 7.323848
_cell_length_b 23.932559
_cell_length_c 12.418070
_cell_angle_alpha 90.000000
_cell_angle_beta 90.000000
_cell_angle_gamma 90.000000
_cell_volume 2176.619743
_symmetry_space_group_name_H-M "P M M M"
_symmetry_group_IT_number 47
_symmetry_cell_setting 'orthorhombic'
loop_
_space_group_symop_operation_xyz
x,y,z
-x,-y,z
x,-y,-z
-x,y,-z
-x,-y,-z
x,y,-z
-x,y,z
x,-y,z
loop_
_atom_site_type_symbol
_atom_site_label
_atom_site_fract_x
_atom_site_fract_y
_atom_site_fract_z
Si Si1 0.778124 0.394657 0.500000
Si Si2 0.722177 0.934457 0.500000
Si Si3 0.723431 0.000000 0.123590
Si Si4 0.217014 0.770918 0.267118
Si Si5 0.777396 0.437606 0.267438
Si Si6 0.222405 0.264232 0.500000
Si Si7 0.776834 0.332750 0.876208
Si Si8 0.282508 0.103326 0.732299
O O1 0.719388 0.423500 0.389434
O O2 0.726902 0.329520 0.500000
O O3 0.000000 0.396213 0.500000
O O4 0.500000 0.932199 0.500000
O O5 0.786638 0.906098 0.610404
O O6 0.771128 0.000000 0.500000
O O7 0.783951 0.054951 0.188395
O O8 0.500000 0.000000 0.123148
O O9 0.781831 0.000000 0.000000
O O10 0.287051 0.763462 0.389234
O O11 0.284752 0.722165 0.188831
O O12 0.248087 0.833910 0.229694
O O13 0.000000 0.762552 0.273177
O O14 0.720175 0.500000 0.236617
O O15 0.719733 0.388271 0.187831
O O16 0.000000 0.436997 0.267617
O O17 0.000000 0.261858 0.500000
O O18 0.000000 0.332558 0.876213
O O19 0.718696 0.332483 0.000000
O O20 0.500000 0.096121 0.726608
#
# Coordination Sequence:
#
# PCOD9382989 Si02
#       8
#     4   4   4   8   8   4   8   8
#     4   9  13  21  36  55  80 113 151 187 226 273
#     4   9  15  28  51  74  93 117 148 181 224 277
#     4   9  18  33  52  72  93 119 152 188 226 269
#     4  10  19  31  47  67  93 124 155 185 223 272
#     4   9  15  22  35  56  82 114 152 192 230 269
#     4   9  15  26  44  62  86 122 156 183 220 273
#     4   9  17  28  40  56  83 121 158 187 223 274
#     4  10  19  32  52  74  94 118 150 188 228 269
#
# _framework density 22.052541999999999
#
# number of rings (size 3 to 8) (size 9 to 14) (size 15 to 20)
#    0.000    2.667    2.500    0.750    0.000    2.000 
#    0.000    2.083    0.000    1.000    0.000    0.000 
#    0.000    0.667    0.000    3.000    0.000    3.333 
#
# Total GULP energy -268227.699763 kJ/mol
# GULP energy per Si atom -5588.077078 kJ/mol
# Density = 2.200235 g / cm^3
# Si number density = 22.052542 Si / 1000 Ang^3
#
#
#
# Elastic Constant Matrix: (Units=GPa)
#
#
# Indices 1 2 3 4 5 6 
#
# 1 86.8870 -1.8933 9.1816 0.0000 0.0000 0.0000
# 2 -1.8933 228.6642 123.4595 0.0000 0.0000 0.0000
# 3 9.1816 123.4595 200.6494 0.0000 0.0000 0.0000
# 4 0.0000 0.0000 0.0000 3.3068 0.0000 0.0000
# 5 0.0000 0.0000 0.0000 0.0000 -17.8341 0.0000
# 6 0.0000 0.0000 0.0000 0.0000 0.0000 9.4340
#
#
#
# Elastic Compliance Matrix: (Units=1/GPa)
#
#
# Indices 1 2 3 4 5 6 
#
# 1 0.011615 0.000574 -0.000885 0.000000 0.000000 0.000000
# 2 0.000574 0.006577 -0.004073 0.000000 0.000000 0.000000
# 3 -0.000885 -0.004073 0.007531 0.000000 0.000000 0.000000
# 4 0.000000 0.000000 0.000000 0.302406 0.000000 0.000000
# 5 0.000000 0.000000 0.000000 0.000000 -0.056072 0.000000
# 6 0.000000 0.000000 0.000000 0.000000 0.000000 0.105999
#
#
# Mechanical properties :
#
#
# Convention : Reuss Voigt Hill
#
# Bulk Modulus (GPa) = 58.97990 86.41068 72.69529
# Shear Modulus (GPa) = 12.73966 24.67821 18.70893
#
# Velocity S-wave (km/s) = 2.40614 3.34887 2.91586
# Velocity P-wave (km/s) = 5.87559 7.36358 6.66126
#
# Compressibility (1/GPa) = 0.01695493
#
# Stress axis : x y z
#
# Youngs Moduli (GPa) = 86.09426 152.04172 132.79314
#
# Poissons Ratio (x) = -0.08723 0.11746
# Poissons Ratio (y) = -0.04940 0.54089
# Poissons Ratio (z) = 0.07615 0.61929
#
# Static dielectric constant tensor:
#      x y z
#    x 1.876800 0.000000 0.000000 
#    y 0.000000 1.768890 0.000000 
#    z 0.000000 0.000000 1.762300 
# 
# From -- ./inp_files/16685.got.cif
#   From: 2010.05.17/outbox.cif.g08.bks.cpg/sg47_9_cif.got.tgz:16685.got - 2010.06.03 20:15:42.
