data_PCOD9382295
_publ_section_title
;
Structure prediction by ZEFSAII (Michael W. Deem and Ramdas Pophale) SiO2 
 PCOD9382295
Probable space group: P M M M
;
_chemical_formula_sum "Si O2"
_cell_formula_units_Z 40
_cell_length_a 21.751948
_cell_length_b 7.790124
_cell_length_c 11.291485
_cell_angle_alpha 90.000000
_cell_angle_beta 90.000000
_cell_angle_gamma 90.000000
_cell_volume 1913.346336
_symmetry_space_group_name_H-M "P M M M"
_symmetry_group_IT_number 47
_symmetry_cell_setting 'orthorhombic'
loop_
_space_group_symop_operation_xyz
x,y,z
-x,-y,z
x,-y,-z
-x,y,-z
-x,-y,-z
x,y,-z
-x,y,z
x,-y,z
loop_
_atom_site_type_symbol
_atom_site_label
_atom_site_fract_x
_atom_site_fract_y
_atom_site_fract_z
Si Si1 0.368298 0.299352 0.257134
Si Si2 0.130398 0.800894 0.769218
Si Si3 0.000000 0.700798 0.866719
Si Si4 0.648756 0.710828 0.000000
Si Si5 0.207884 0.292845 0.000000
Si Si6 0.427627 0.291763 0.500000
Si Si7 0.243538 0.791136 0.634078
O O1 0.385787 0.500000 0.253702
O O2 0.380201 0.229993 0.124855
O O3 0.398931 0.224709 0.376436
O O4 0.295315 0.283527 0.280175
O O5 0.175410 0.728637 0.668248
O O6 0.062228 0.738849 0.796237
O O7 0.123584 0.000000 0.742594
O O8 0.171041 0.774361 0.886835
O O9 0.000000 0.500000 0.884169
O O10 0.000000 0.782115 0.000000
O O11 0.647427 0.500000 0.000000
O O12 0.720905 0.760284 0.000000
O O13 0.205223 0.500000 0.000000
O O14 0.417714 0.500000 0.500000
O O15 0.500000 0.259973 0.500000
O O16 0.259073 0.742998 0.500000
O O17 0.245646 0.000000 0.643283
#
# Coordination Sequence:
#
# PCOD9382295 Si02
#       7
#     8   8   4   4   4   4   8
#     4  10  18  32  54  79 109 145 183 222 270 323
#     4  11  22  35  53  77 105 138 175 218 270 328
#     4  11  23  37  54  75 103 141 180 221 269 324
#     4   9  18  29  47  80 114 139 172 224 279 324
#     4  11  19  30  50  76 109 137 168 221 272 320
#     4   9  18  32  53  81 111 146 191 232 261 307
#     4  10  21  36  54  79 109 136 174 224 272 320
#
# _framework density 20.905781000000001
#
# number of rings (size 3 to 8) (size 9 to 14) (size 15 to 20)
#    0.000    1.800    4.000    1.200    0.000    1.200 
#    0.000    1.500    0.000    7.200    0.000    0.000 
#    0.000    1.600    0.000    0.000    0.000    0.000 
#
# Total GULP energy -223123.561238 kJ/mol
# GULP energy per Si atom -5578.089031 kJ/mol
# Density = 2.085820 g / cm^3
# Si number density = 20.905781 Si / 1000 Ang^3
#
#
#
# Elastic Constant Matrix: (Units=GPa)
#
#
# Indices 1 2 3 4 5 6 
#
# 1 75.6994 -2.1175 43.0284 0.0000 0.0000 0.0000
# 2 -2.1175 21.8726 -4.5390 0.0000 0.0000 0.0000
# 3 43.0284 -4.5390 160.4754 0.0000 0.0000 0.0000
# 4 0.0000 0.0000 0.0000 6.4428 0.0000 0.0000
# 5 0.0000 0.0000 0.0000 0.0000 39.2941 0.0000
# 6 0.0000 0.0000 0.0000 0.0000 0.0000 31.5004
#
#
#
# Elastic Compliance Matrix: (Units=1/GPa)
#
#
# Indices 1 2 3 4 5 6 
#
# 1 0.015595 0.000646 -0.004163 0.000000 0.000000 0.000000
# 2 0.000646 0.046016 0.001128 0.000000 0.000000 0.000000
# 3 -0.004163 0.001128 0.007380 0.000000 0.000000 0.000000
# 4 0.000000 0.000000 0.000000 0.155211 0.000000 0.000000
# 5 0.000000 0.000000 0.000000 0.000000 0.025449 0.000000
# 6 0.000000 0.000000 0.000000 0.000000 0.000000 0.031746
#
#
# Mechanical properties :
#
#
# Convention : Reuss Voigt Hill
#
# Bulk Modulus (GPa) = 15.57331 36.75458 26.16394
# Shear Modulus (GPa) = 16.25603 30.22582 23.24093
#
# Velocity S-wave (km/s) = 2.79155 3.80651 3.33783
# Velocity P-wave (km/s) = 4.22561 6.07771 5.23423
#
# Compressibility (1/GPa) = 0.06421242
#
# Stress axis : x y z
#
# Youngs Moduli (GPa) = 64.12492 21.73155 135.50757
#
# Poissons Ratio (x) = -0.01403 0.56413
# Poissons Ratio (y) = -0.04141 -0.15291
# Poissons Ratio (z) = 0.26696 -0.02452
#
# Static dielectric constant tensor:
#      x y z
#    x 1.771060 0.000000 0.000000 
#    y 0.000000 1.755070 0.000000 
#    z 0.000000 0.000000 1.808520 
# 
# From -- ./inp_files/18997.got.cif
#   From: 2010.05.17/outbox.cif.g08.bks.cpg/sg47_10_cif.got.tgz:18997.got - 2010.06.03 20:15:42.
