data_PCOD9382701
_publ_section_title
;
Structure prediction by ZEFSAII (Michael W. Deem and Ramdas Pophale) SiO2 
 PCOD9382701
Probable space group: P M M M
;
_chemical_formula_sum "Si O2"
_cell_formula_units_Z 36
_cell_length_a 8.898095
_cell_length_b 21.146246
_cell_length_c 11.766396
_cell_angle_alpha 90.000000
_cell_angle_beta 90.000000
_cell_angle_gamma 90.000000
_cell_volume 2213.980436
_symmetry_space_group_name_H-M "P M M M"
_symmetry_group_IT_number 47
_symmetry_cell_setting 'orthorhombic'
loop_
_space_group_symop_operation_xyz
x,y,z
-x,-y,z
x,-y,-z
-x,y,-z
-x,-y,-z
x,y,-z
-x,y,z
x,-y,z
loop_
_atom_site_type_symbol
_atom_site_label
_atom_site_fract_x
_atom_site_fract_y
_atom_site_fract_z
Si Si1 0.670187 0.074130 0.500000
Si Si2 0.828325 0.629797 0.362249
Si Si3 0.325514 0.000000 0.864045
Si Si4 0.320429 0.236820 0.364736
Si Si5 0.820794 0.884302 0.731280
Si Si6 0.326194 0.500000 0.361323
O O1 0.500000 0.102390 0.500000
O O2 0.765227 0.090680 0.390286
O O3 0.650664 0.000000 0.500000
O O4 0.831008 0.626527 0.500000
O O5 0.735414 0.692810 0.335799
O O6 0.754507 0.564281 0.322920
O O7 0.000000 0.635534 0.323114
O O8 0.247449 0.935872 0.818085
O O9 0.500000 0.000000 0.824728
O O10 0.321899 0.000000 0.000000
O O11 0.278957 0.224953 0.500000
O O12 0.500000 0.233077 0.357734
O O13 0.246452 0.186551 0.278292
O O14 0.000000 0.882632 0.742036
O O15 0.500000 0.500000 0.327926
O O16 0.321929 0.500000 0.500000
#
# Coordination Sequence:
#
# PCOD9382701 Si02
#       6
#     4   8   4   8   8   4
#     4  11  21  33  51  73 100 127 156 191 236 292
#     4   9  16  25  37  55  82 115 156 200 238 276
#     4  11  25  44  61  74  93 125 163 199 240 293
#     4  10  19  30  45  65  94 127 158 195 240 291
#     4  12  23  34  53  76 100 125 156 200 247 291
#     4   9  15  23  35  51  75 113 160 197 232 277
#
# _framework density 16.260306
#
# number of rings (size 3 to 8) (size 9 to 14) (size 15 to 20)
#    0.000    1.667    2.222    4.333    0.000    6.222 
#    0.000    0.000    0.000    0.000    0.000    0.000 
#    0.000    0.000    0.000    1.000    0.000   18.556 
#
# Total GULP energy -200640.662849 kJ/mol
# GULP energy per Si atom -5573.351746 kJ/mol
# Density = 1.622330 g / cm^3
# Si number density = 16.260306 Si / 1000 Ang^3
#
#
#
# Elastic Constant Matrix: (Units=GPa)
#
#
# Indices 1 2 3 4 5 6 
#
# 1 143.8788 78.4420 20.5604 0.0000 0.0000 0.0000
# 2 78.4420 164.7785 23.3554 0.0000 0.0000 0.0000
# 3 20.5604 23.3554 32.0515 0.0000 0.0000 0.0000
# 4 0.0000 0.0000 0.0000 2.0921 0.0000 0.0000
# 5 0.0000 0.0000 0.0000 0.0000 16.8442 0.0000
# 6 0.0000 0.0000 0.0000 0.0000 0.0000 38.6332
#
#
#
# Elastic Compliance Matrix: (Units=1/GPa)
#
#
# Indices 1 2 3 4 5 6 
#
# 1 0.009668 -0.004152 -0.003176 0.000000 0.000000 0.000000
# 2 -0.004152 0.008551 -0.003567 0.000000 0.000000 0.000000
# 3 -0.003176 -0.003567 0.035837 0.000000 0.000000 0.000000
# 4 0.000000 0.000000 0.000000 0.477985 0.000000 0.000000
# 5 0.000000 0.000000 0.000000 0.000000 0.059368 0.000000
# 6 0.000000 0.000000 0.000000 0.000000 0.000000 0.025884
#
#
# Mechanical properties :
#
#
# Convention : Reuss Voigt Hill
#
# Bulk Modulus (GPa) = 30.99420 65.04716 48.02068
# Shear Modulus (GPa) = 7.69421 26.07062 16.88242
#
# Velocity S-wave (km/s) = 2.17765 4.00850 3.22570
# Velocity P-wave (km/s) = 5.04237 7.84313 6.59318
#
# Compressibility (1/GPa) = 0.03226410
#
# Stress axis : x y z
#
# Youngs Moduli (GPa) = 103.43486 116.94511 27.90435
#
# Poissons Ratio (x) = 0.48558 0.08863
# Poissons Ratio (y) = 0.42948 0.09955
# Poissons Ratio (z) = 0.32853 0.41719
#
# Static dielectric constant tensor:
#      x y z
#    x 1.551170 0.000000 0.000000 
#    y 0.000000 1.591080 0.000000 
#    z 0.000000 0.000000 1.513860 
# 
# From -- ./inp_files/15054.got.cif
#   From: 2010.05.17/outbox.cif.g08.bks.cpg/sg47_8_cif.got.tgz:15054.got - 2010.06.03 20:15:42.
