data_PCOD9382441
_publ_section_title
;
Structure prediction by ZEFSAII (Michael W. Deem and Ramdas Pophale) SiO2 
 PCOD9382441
Probable space group: P M M M
;
_chemical_formula_sum "Si O2"
_cell_formula_units_Z 64
_cell_length_a 9.139802
_cell_length_b 24.547912
_cell_length_c 19.263477
_cell_angle_alpha 90.000000
_cell_angle_beta 90.000000
_cell_angle_gamma 90.000000
_cell_volume 4322.012553
_symmetry_space_group_name_H-M "P M M M"
_symmetry_group_IT_number 47
_symmetry_cell_setting 'orthorhombic'
loop_
_space_group_symop_operation_xyz
x,y,z
-x,-y,z
x,-y,-z
-x,y,-z
-x,-y,-z
x,y,-z
-x,y,z
x,-y,z
loop_
_atom_site_type_symbol
_atom_site_label
_atom_site_fract_x
_atom_site_fract_y
_atom_site_fract_z
Si Si1 0.325137 0.610221 0.078928
Si Si2 0.670591 0.939458 0.915758
Si Si3 0.837140 0.560694 0.416974
Si Si4 0.672069 0.331926 0.419959
Si Si5 0.171285 0.829594 0.083669
Si Si6 0.824382 0.438853 0.787798
Si Si7 0.825304 0.324519 0.281661
Si Si8 0.325803 0.274632 0.148336
O O1 0.500000 0.601359 0.084323
O O2 0.244435 0.575559 0.137614
O O3 0.298035 0.673727 0.097574
O O4 0.279693 0.598461 0.000000
O O5 0.500000 0.932125 0.896796
O O6 0.765575 0.888095 0.893005
O O7 0.718262 0.000000 0.892597
O O8 0.676027 0.939996 0.000000
O O9 0.850893 0.556314 0.500000
O O10 0.810554 0.500000 0.389897
O O11 0.710492 0.604310 0.409161
O O12 0.000000 0.578903 0.391397
O O13 0.714910 0.318333 0.500000
O O14 0.500000 0.321900 0.412588
O O15 0.763651 0.306986 0.356661
O O16 0.259633 0.780128 0.117046
O O17 0.000000 0.825121 0.100057
O O18 0.187383 0.826648 0.000000
O O19 0.778290 0.500000 0.767137
O O20 0.787174 0.388094 0.737234
O O21 0.000000 0.438707 0.793337
O O22 0.750280 0.290024 0.220788
O O23 0.000000 0.319073 0.278948
O O24 0.500000 0.269992 0.157118
#
# Coordination Sequence:
#
# PCOD9382441 Si02
#       8
#     8   8   8   8   8   8   8   8
#     4   9  18  31  46  64  83 103 130 167 210 253
#     4   8  14  25  40  58  83 117 155 191 225 259
#     4   8  14  25  40  57  77 100 124 150 183 225
#     4  10  20  32  46  65  86 105 128 159 196 243
#     4  10  19  28  41  64  91 118 151 190 227 261
#     4   9  19  34  48  62  80 103 131 162 201 252
#     4  10  20  34  50  65  83 107 135 169 209 254
#     4  10  19  32  48  63  83 111 143 178 218 262
#
# _framework density 14.807916000000001
#
# number of rings (size 3 to 8) (size 9 to 14) (size 15 to 20)
#    0.000    2.750    0.000    2.625    0.000    4.750 
#    0.000    5.000    0.000    0.000    0.000    0.000 
#    0.000    0.000    0.000    0.000    0.000    0.625 
#
# Total GULP energy -356521.860895 kJ/mol
# GULP energy per Si atom -5570.654076 kJ/mol
# Density = 1.477421 g / cm^3
# Si number density = 14.807916 Si / 1000 Ang^3
#
#
#
# Elastic Constant Matrix: (Units=GPa)
#
#
# Indices 1 2 3 4 5 6 
#
# 1 51.4946 32.1734 34.8114 0.0000 0.0000 0.0000
# 2 32.1734 64.8859 17.4324 0.0000 0.0000 0.0000
# 3 34.8114 17.4324 89.4580 0.0000 0.0000 0.0000
# 4 0.0000 0.0000 0.0000 6.5150 0.0000 0.0000
# 5 0.0000 0.0000 0.0000 0.0000 21.5069 0.0000
# 6 0.0000 0.0000 0.0000 0.0000 0.0000 20.5638
#
#
#
# Elastic Compliance Matrix: (Units=1/GPa)
#
#
# Indices 1 2 3 4 5 6 
#
# 1 0.036411 -0.015035 -0.011239 0.000000 0.000000 0.000000
# 2 -0.015035 0.022471 0.001472 0.000000 0.000000 0.000000
# 3 -0.011239 0.001472 0.015265 0.000000 0.000000 0.000000
# 4 0.000000 0.000000 0.000000 0.153492 0.000000 0.000000
# 5 0.000000 0.000000 0.000000 0.000000 0.046497 0.000000
# 6 0.000000 0.000000 0.000000 0.000000 0.000000 0.048629
#
#
# Mechanical properties :
#
#
# Convention : Reuss Voigt Hill
#
# Bulk Modulus (GPa) = 40.74463 41.63030 41.18746
# Shear Modulus (GPa) = 13.13888 17.81189 15.47538
#
# Velocity S-wave (km/s) = 2.98197 3.47199 3.23627
# Velocity P-wave (km/s) = 6.27944 6.65188 6.46834
#
# Compressibility (1/GPa) = 0.02454311
#
# Stress axis : x y z
#
# Youngs Moduli (GPa) = 27.46431 44.50146 65.50856
#
# Poissons Ratio (x) = 0.66907 0.73625
# Poissons Ratio (y) = 0.41292 -0.09641
# Poissons Ratio (z) = 0.30867 -0.06549
#
# Static dielectric constant tensor:
#      x y z
#    x 1.494670 0.000000 0.000000 
#    y 0.000000 1.489620 0.000000 
#    z 0.000000 0.000000 1.515010 
# 
# From -- ./inp_files/27112.got.cif
#   From: 2010.05.17/outbox.cif.g08.bks.cpg/sg47_14_cif.got.tgz:27112.got - 2010.06.03 20:15:42.
