data_PCOD9382919
_publ_section_title
;
Structure prediction by ZEFSAII (Michael W. Deem and Ramdas Pophale) SiO2 
 PCOD9382919
Probable space group: P M M M
;
_chemical_formula_sum "Si O2"
_cell_formula_units_Z 64
_cell_length_a 15.447226
_cell_length_b 22.025084
_cell_length_c 9.987536
_cell_angle_alpha 90.000000
_cell_angle_beta 90.000000
_cell_angle_gamma 90.000000
_cell_volume 3398.023920
_symmetry_space_group_name_H-M "P M M M"
_symmetry_group_IT_number 47
_symmetry_cell_setting 'orthorhombic'
loop_
_space_group_symop_operation_xyz
x,y,z
-x,-y,z
x,-y,-z
-x,y,-z
-x,-y,-z
x,y,-z
-x,y,z
x,-y,z
loop_
_atom_site_type_symbol
_atom_site_label
_atom_site_fract_x
_atom_site_fract_y
_atom_site_fract_z
Si Si1 0.245969 0.752647 0.650282
Si Si2 0.251292 0.606233 0.653268
Si Si3 0.601107 0.158425 0.658737
Si Si4 0.286074 0.073040 0.840932
Si Si5 0.906701 0.073074 0.159645
Si Si6 0.098978 0.400872 0.847831
Si Si7 0.096368 0.253168 0.847109
Si Si8 0.598585 0.572930 0.148465
O O1 0.221602 0.771955 0.500000
O O2 0.248335 0.679587 0.651275
O O3 0.338650 0.782359 0.680759
O O4 0.172557 0.770196 0.755167
O O5 0.251253 0.584810 0.500000
O O6 0.169656 0.581499 0.738217
O O7 0.336974 0.590474 0.735000
O O8 0.607424 0.143074 0.500000
O O9 0.500000 0.168398 0.688992
O O10 0.643243 0.106952 0.751737
O O11 0.188888 0.091594 0.793142
O O12 0.293380 0.000000 0.828960
O O13 0.294295 0.087352 0.000000
O O14 0.000000 0.095572 0.213455
O O15 0.907727 0.000000 0.174942
O O16 0.907059 0.084727 0.000000
O O17 0.099240 0.326968 0.848702
O O18 0.000000 0.419815 0.818936
O O19 0.120815 0.420443 0.000000
O O20 0.000000 0.236835 0.800745
O O21 0.106824 0.232760 0.000000
O O22 0.500000 0.594210 0.169722
O O23 0.596279 0.500000 0.143898
O O24 0.627721 0.594312 0.000000
#
# Coordination Sequence:
#
# PCOD9382919 Si02
#       8
#     8   8   8   8   8   8   8   8
#     4   9  19  34  50  71 100 134 169 203 243 292
#     4  10  19  30  50  79 105 131 165 207 254 299
#     4  10  22  39  54  67  91 130 170 206 246 293
#     4   9  18  33  54  79 102 123 154 200 248 291
#     4   7  10  20  42  71  99 124 148 176 219 279
#     4   8  14  26  45  69  99 136 173 205 240 287
#     4   8  14  26  46  72 100 129 162 201 242 285
#     4   9  19  36  55  74  99 132 168 206 250 302
#
# _framework density 18.834475999999999
#
# number of rings (size 3 to 8) (size 9 to 14) (size 15 to 20)
#    0.000    3.250    0.000    2.625    0.000    3.250 
#    0.000    6.250    0.000    3.000    0.000    4.375 
#    0.000    0.000    0.000    0.000    0.000    0.000 
#
# Total GULP energy -356564.394050 kJ/mol
# GULP energy per Si atom -5571.318657 kJ/mol
# Density = 1.879161 g / cm^3
# Si number density = 18.834476 Si / 1000 Ang^3
#
#
#
# Elastic Constant Matrix: (Units=GPa)
#
#
# Indices 1 2 3 4 5 6 
#
# 1 169.8296 12.5873 99.4532 0.0000 0.0000 0.0000
# 2 12.5873 28.3378 15.5235 0.0000 0.0000 0.0000
# 3 99.4532 15.5235 110.7158 0.0000 0.0000 0.0000
# 4 0.0000 0.0000 0.0000 8.9614 0.0000 0.0000
# 5 0.0000 0.0000 0.0000 0.0000 -4.4850 0.0000
# 6 0.0000 0.0000 0.0000 0.0000 0.0000 48.3271
#
#
#
# Elastic Compliance Matrix: (Units=1/GPa)
#
#
# Indices 1 2 3 4 5 6 
#
# 1 0.012434 0.000645 -0.011260 0.000000 0.000000 0.000000
# 2 0.000645 0.038258 -0.005943 0.000000 0.000000 0.000000
# 3 -0.011260 -0.005943 0.019980 0.000000 0.000000 0.000000
# 4 0.000000 0.000000 0.000000 0.111589 0.000000 0.000000
# 5 0.000000 0.000000 0.000000 0.000000 -0.222966 0.000000
# 6 0.000000 0.000000 0.000000 0.000000 0.000000 0.020692
#
#
# Mechanical properties :
#
#
# Convention : Reuss Voigt Hill
#
# Bulk Modulus (GPa) = 26.62737 62.66791 44.64764
# Shear Modulus (GPa) = 195.14034 22.64867 108.89451
#
# Velocity S-wave (km/s) = 10.18985 3.47149 7.61197
# Velocity P-wave (km/s) = 12.35363 7.02947 10.05052
#
# Compressibility (1/GPa) = 0.03755534
#
# Stress axis : x y z
#
# Youngs Moduli (GPa) = 80.42302 26.13841 50.05043
#
# Poissons Ratio (x) = -0.01686 0.56356
# Poissons Ratio (y) = -0.05187 0.29747
# Poissons Ratio (z) = 0.90555 0.15535
#
# Static dielectric constant tensor:
#      x y z
#    x 1.658900 0.000000 0.000000 
#    y 0.000000 1.693520 0.000000 
#    z 0.000000 0.000000 1.636010 
# 
# From -- ./inp_files/7819.got.cif
#   From: 2010.05.17/outbox.cif.g08.bks.cpg/sg47_4_cif.got.tgz:7819.got - 2010.06.03 20:15:42.
