data_PCOD9382490
_publ_section_title
;
Structure prediction by ZEFSAII (Michael W. Deem and Ramdas Pophale) SiO2 
 PCOD9382490
Probable space group: P M M M
;
_chemical_formula_sum "Si O2"
_cell_formula_units_Z 48
_cell_length_a 17.826822
_cell_length_b 7.380872
_cell_length_c 16.179477
_cell_angle_alpha 90.000000
_cell_angle_beta 90.000000
_cell_angle_gamma 90.000000
_cell_volume 2128.854995
_symmetry_space_group_name_H-M "P M M M"
_symmetry_group_IT_number 47
_symmetry_cell_setting 'orthorhombic'
loop_
_space_group_symop_operation_xyz
x,y,z
-x,-y,z
x,-y,-z
-x,y,-z
-x,-y,-z
x,y,-z
-x,y,z
x,-y,z
loop_
_atom_site_type_symbol
_atom_site_label
_atom_site_fract_x
_atom_site_fract_y
_atom_site_fract_z
Si Si1 0.000000 0.779619 0.201382
Si Si2 0.830661 0.278648 0.590922
Si Si3 0.586192 0.781048 0.593190
Si Si4 0.695882 0.704660 0.092217
Si Si5 0.867306 0.784365 0.090074
Si Si6 0.000000 0.706957 0.389270
Si Si7 0.711963 0.709561 0.725598
O O1 0.924876 0.717880 0.156892
O O2 0.000000 0.710398 0.291994
O O3 0.000000 0.000000 0.199218
O O4 0.798155 0.229827 0.500000
O O5 0.831146 0.500000 0.595023
O O6 0.782134 0.215824 0.670578
O O7 0.917658 0.216249 0.589912
O O8 0.606266 0.721814 0.500000
O O9 0.500000 0.727118 0.608791
O O10 0.643121 0.715326 0.662074
O O11 0.588557 0.000000 0.593978
O O12 0.664518 0.500000 0.093410
O O13 0.786151 0.698845 0.090465
O O14 0.686067 0.787453 0.184790
O O15 0.674921 0.782242 0.000000
O O16 0.855173 0.000000 0.101173
O O17 0.902251 0.758555 0.000000
O O18 0.000000 0.500000 0.417904
O O19 0.731200 0.500000 0.743453
#
# Coordination Sequence:
#
# PCOD9382490 Si02
#       7
#     4   8   8   8   8   4   8
#     4  10  19  29  41  59  85 114 148 199 257 302
#     4   9  17  29  46  69  95 123 161 209 251 286
#     4   9  19  36  56  79 108 137 162 195 246 303
#     4   9  18  32  48  69 100 132 161 200 248 291
#     4   9  17  29  44  61  83 116 159 204 251 302
#     4  10  19  31  47  63  85 124 167 200 237 291
#     4  10  19  31  51  78 104 132 169 209 247 293
#
# _framework density 22.547332000000001
#
# number of rings (size 3 to 8) (size 9 to 14) (size 15 to 20)
#    0.000    2.667    0.000    2.500    0.000    6.000 
#    0.000    1.667    0.000    5.000    0.000    3.500 
#    0.000    0.000    0.000    0.000    0.000    0.000 
#
# Total GULP energy -267542.562305 kJ/mol
# GULP energy per Si atom -5573.803381 kJ/mol
# Density = 2.249601 g / cm^3
# Si number density = 22.547332 Si / 1000 Ang^3
#
#
#
# Elastic Constant Matrix: (Units=GPa)
#
#
# Indices 1 2 3 4 5 6 
#
# 1 76.5622 -3.3817 58.1596 0.0000 0.0000 0.0000
# 2 -3.3817 74.7068 11.6483 0.0000 0.0000 0.0000
# 3 58.1596 11.6483 198.8331 0.0000 0.0000 0.0000
# 4 0.0000 0.0000 0.0000 5.2107 0.0000 0.0000
# 5 0.0000 0.0000 0.0000 0.0000 16.0148 0.0000
# 6 0.0000 0.0000 0.0000 0.0000 0.0000 -2.3856
#
#
#
# Elastic Compliance Matrix: (Units=1/GPa)
#
#
# Indices 1 2 3 4 5 6 
#
# 1 0.016970 0.001556 -0.005055 0.000000 0.000000 0.000000
# 2 0.001556 0.013652 -0.001255 0.000000 0.000000 0.000000
# 3 -0.005055 -0.001255 0.006581 0.000000 0.000000 0.000000
# 4 0.000000 0.000000 0.000000 0.191913 0.000000 0.000000
# 5 0.000000 0.000000 0.000000 0.000000 0.062442 0.000000
# 6 0.000000 0.000000 0.000000 0.000000 0.000000 -0.419182
#
#
# Mechanical properties :
#
#
# Convention : Reuss Voigt Hill
#
# Bulk Modulus (GPa) = 36.10635 53.66160 44.88397
# Shear Modulus (GPa) = -45.92026 22.67970 -11.62028
#
# Velocity S-wave (km/s) = -4.51778 3.17499 -2.27265
# Velocity P-wave (km/s) = 3.34148 6.10671 3.61431
#
# Compressibility (1/GPa) = 0.02769596
#
# Stress axis : x y z
#
# Youngs Moduli (GPa) = 58.92762 73.25044 151.94177
#
# Poissons Ratio (x) = -0.11400 0.76806
# Poissons Ratio (y) = -0.09171 0.19069
# Poissons Ratio (z) = 0.29788 0.09193
#
# Static dielectric constant tensor:
#      x y z
#    x 1.781070 0.000000 0.000000 
#    y 0.000000 1.875120 0.000000 
#    z 0.000000 0.000000 1.893430 
# 
# From -- ./inp_files/24504.got.cif
#   From: 2010.05.17/outbox.cif.g08.bks.cpg/sg47_13_cif.got.tgz:24504.got - 2010.06.03 20:15:42.
