data_PCOD9382999
_publ_section_title
;
Structure prediction by ZEFSAII (Michael W. Deem and Ramdas Pophale) SiO2 
 PCOD9382999
Probable space group: P M M M
;
_chemical_formula_sum "Si O2"
_cell_formula_units_Z 52
_cell_length_a 13.402936
_cell_length_b 7.719821
_cell_length_c 26.683232
_cell_angle_alpha 90.000000
_cell_angle_beta 90.000000
_cell_angle_gamma 90.000000
_cell_volume 2760.867768
_symmetry_space_group_name_H-M "P M M M"
_symmetry_group_IT_number 47
_symmetry_cell_setting 'orthorhombic'
loop_
_space_group_symop_operation_xyz
x,y,z
-x,-y,z
x,-y,-z
-x,y,-z
-x,-y,-z
x,y,-z
-x,y,z
x,-y,z
loop_
_atom_site_type_symbol
_atom_site_label
_atom_site_fract_x
_atom_site_fract_y
_atom_site_fract_z
Si Si1 0.500000 0.792140 0.213642
Si Si2 0.614136 0.793389 0.500000
Si Si3 0.307357 0.292906 0.608489
Si Si4 0.112056 0.791001 0.778971
Si Si5 0.111951 0.291794 0.663097
Si Si6 0.385882 0.708812 0.056326
Si Si7 0.300430 0.206445 0.159975
Si Si8 0.500000 0.709311 0.330688
O O1 0.600452 0.723210 0.187526
O O2 0.500000 0.756056 0.272535
O O3 0.500000 0.000000 0.206651
O O4 0.500000 0.724127 0.500000
O O5 0.669831 0.739213 0.550498
O O6 0.608289 0.000000 0.500000
O O7 0.305181 0.500000 0.615922
O O8 0.201621 0.224654 0.628584
O O9 0.400840 0.225720 0.641080
O O10 0.135034 0.746632 0.721236
O O11 0.199156 0.724877 0.815216
O O12 0.000000 0.726303 0.790075
O O13 0.109127 0.000000 0.782661
O O14 0.107952 0.500000 0.657586
O O15 0.000000 0.224511 0.652449
O O16 0.500000 0.768312 0.066798
O O17 0.387888 0.500000 0.055836
O O18 0.314542 0.764220 0.101041
O O19 0.359294 0.766832 0.000000
O O20 0.299538 0.000000 0.168392
O O21 0.500000 0.500000 0.334384
#
# Coordination Sequence:
#
# PCOD9382999 Si02
#       8
#     4   4   8   8   8   8   8   4
#     4  10  20  30  42  68 102 129 151 191 246 289
#     4  11  23  37  54  77 100 126 165 206 245 292
#     4  10  20  35  54  74  99 131 163 200 243 290
#     4   9  18  32  50  72 100 135 169 200 239 287
#     4   9  18  33  53  77 102 129 165 204 241 286
#     4   9  18  32  49  70  96 127 163 203 249 298
#     4  10  19  31  47  70 100 130 163 201 242 291
#     4  10  20  31  47  71  96 126 164 194 230 289
#
# _framework density 18.834658000000001
#
# number of rings (size 3 to 8) (size 9 to 14) (size 15 to 20)
#    0.000    2.385    1.538    1.615    0.000    3.077 
#    0.000    1.154    0.000    2.769    0.000    3.231 
#    0.000    0.000    0.000    0.000    0.000    0.000 
#
# Total GULP energy -290166.141857 kJ/mol
# GULP energy per Si atom -5580.118113 kJ/mol
# Density = 1.879179 g / cm^3
# Si number density = 18.834658 Si / 1000 Ang^3
#
#
#
# Elastic Constant Matrix: (Units=GPa)
#
#
# Indices 1 2 3 4 5 6 
#
# 1 174.0143 10.8807 115.6165 0.0000 0.0000 0.0000
# 2 10.8807 26.1042 -10.3623 0.0000 0.0000 0.0000
# 3 115.6165 -10.3623 147.2043 0.0000 0.0000 0.0000
# 4 0.0000 0.0000 0.0000 29.3592 0.0000 0.0000
# 5 0.0000 0.0000 0.0000 0.0000 31.2946 0.0000
# 6 0.0000 0.0000 0.0000 0.0000 0.0000 -1.3593
#
#
#
# Elastic Compliance Matrix: (Units=1/GPa)
#
#
# Indices 1 2 3 4 5 6 
#
# 1 0.014503 -0.010871 -0.012156 0.000000 0.000000 0.000000
# 2 -0.010871 0.047557 0.011886 0.000000 0.000000 0.000000
# 3 -0.012156 0.011886 0.017178 0.000000 0.000000 0.000000
# 4 0.000000 0.000000 0.000000 0.034061 0.000000 0.000000
# 5 0.000000 0.000000 0.000000 0.000000 0.031954 0.000000
# 6 0.000000 0.000000 0.000000 0.000000 0.000000 -0.735677
#
#
# Mechanical properties :
#
#
# Convention : Reuss Voigt Hill
#
# Bulk Modulus (GPa) = 17.55748 64.39919 40.97834
# Shear Modulus (GPa) = -9.10488 27.27143 9.08328
#
# Velocity S-wave (km/s) = -2.20105 3.80931 2.19843
# Velocity P-wave (km/s) = 1.69784 7.32215 5.31491
#
# Compressibility (1/GPa) = 0.05695577
#
# Stress axis : x y z
#
# Youngs Moduli (GPa) = 68.95136 21.02728 58.21555
#
# Poissons Ratio (x) = 0.22858 0.70767
# Poissons Ratio (y) = 0.74954 -0.69193
# Poissons Ratio (z) = 0.83818 -0.24992
#
# Static dielectric constant tensor:
#      x y z
#    x 1.678020 0.000000 0.000000 
#    y 0.000000 1.680450 0.000000 
#    z 0.000000 0.000000 1.618180 
# 
# From -- ./inp_files/33612.got.cif
#   From: 2010.05.17/outbox.cif.g08.bks.cpg/sg47_17_cif.got.tgz:33612.got - 2010.06.03 20:15:42.
