data_PCOD9382333
_publ_section_title
;
Structure prediction by ZEFSAII (Michael W. Deem and Ramdas Pophale) SiO2 
 PCOD9382333
Probable space group: P M M M
;
_chemical_formula_sum "Si O2"
_cell_formula_units_Z 48
_cell_length_a 13.639769
_cell_length_b 16.106147
_cell_length_c 12.163184
_cell_angle_alpha 90.000000
_cell_angle_beta 90.000000
_cell_angle_gamma 90.000000
_cell_volume 2672.058429
_symmetry_space_group_name_H-M "P M M M"
_symmetry_group_IT_number 47
_symmetry_cell_setting 'orthorhombic'
loop_
_space_group_symop_operation_xyz
x,y,z
-x,-y,z
x,-y,-z
-x,y,-z
-x,-y,-z
x,y,-z
-x,y,z
x,-y,z
loop_
_atom_site_type_symbol
_atom_site_label
_atom_site_fract_x
_atom_site_fract_y
_atom_site_fract_z
Si Si1 0.792279 0.902785 0.131010
Si Si2 0.684798 0.407440 0.000000
Si Si3 0.386347 0.901191 0.500000
Si Si4 0.316286 0.663994 0.242981
Si Si5 0.897831 0.359370 0.000000
Si Si6 0.617518 0.500000 0.370146
Si Si7 0.612346 0.843107 0.734105
Si Si8 0.890441 0.255606 0.777113
O O1 0.683041 0.878840 0.171954
O O2 0.861825 0.839690 0.197839
O O3 0.810987 0.000000 0.151821
O O4 0.801753 0.888030 0.000000
O O5 0.666255 0.359542 0.114175
O O6 0.802338 0.413936 0.000000
O O7 0.640567 0.500000 0.000000
O O8 0.500000 0.872105 0.500000
O O9 0.345145 0.870784 0.384324
O O10 0.385022 0.000000 0.500000
O O11 0.340525 0.582472 0.312449
O O12 0.383273 0.743661 0.265085
O O13 0.205704 0.697356 0.270414
O O14 0.895791 0.300329 0.105004
O O15 0.000000 0.406309 0.000000
O O16 0.500000 0.500000 0.356318
O O17 0.639303 0.500000 0.500000
O O18 0.500000 0.872406 0.745050
O O19 0.000000 0.262816 0.726532
#
# Coordination Sequence:
#
# PCOD9382333 Si02
#       8
#     8   4   4   8   4   4   8   8
#     4  10  20  32  48  76 114 149 183 226 280 345
#     4  10  18  33  52  73 110 145 179 230 274 328
#     4   9  18  34  56  79 100 128 179 241 286 326
#     4  10  21  37  57  82 114 147 188 230 281 335
#     4   8  14  25  45  72  99 132 172 217 271 317
#     4  11  24  41  62  86 115 147 187 235 281 328
#     4  10  21  35  54  76 105 144 190 236 285 340
#     4   9  17  32  54  77 106 144 184 226 273 327
#
# _framework density 17.963678999999999
#
# number of rings (size 3 to 8) (size 9 to 14) (size 15 to 20)
#    0.000    2.333    1.667    1.000    4.667    1.833 
#    0.000    3.750    0.000    1.000    0.000    0.000 
#    0.000    6.333    0.000    0.000    0.000    0.000 
#
# Total GULP energy -267233.017459 kJ/mol
# GULP energy per Si atom -5567.354530 kJ/mol
# Density = 1.792279 g / cm^3
# Si number density = 17.963679 Si / 1000 Ang^3
#
#
#
# Elastic Constant Matrix: (Units=GPa)
#
#
# Indices 1 2 3 4 5 6 
#
# 1 69.7833 17.1043 17.5205 0.0000 0.0000 0.0000
# 2 17.1043 113.4023 37.9418 0.0000 0.0000 0.0000
# 3 17.5205 37.9418 62.0171 0.0000 0.0000 0.0000
# 4 0.0000 0.0000 0.0000 31.0538 0.0000 0.0000
# 5 0.0000 0.0000 0.0000 0.0000 -1.1074 0.0000
# 6 0.0000 0.0000 0.0000 0.0000 0.0000 2.6877
#
#
#
# Elastic Compliance Matrix: (Units=1/GPa)
#
#
# Indices 1 2 3 4 5 6 
#
# 1 0.015532 -0.001100 -0.003715 0.000000 0.000000 0.000000
# 2 -0.001100 0.011166 -0.006520 0.000000 0.000000 0.000000
# 3 -0.003715 -0.006520 0.021163 0.000000 0.000000 0.000000
# 4 0.000000 0.000000 0.000000 0.032202 0.000000 0.000000
# 5 0.000000 0.000000 0.000000 0.000000 -0.902983 0.000000
# 6 0.000000 0.000000 0.000000 0.000000 0.000000 0.372067
#
#
# Mechanical properties :
#
#
# Convention : Reuss Voigt Hill
#
# Bulk Modulus (GPa) = 39.69730 43.37066 41.53398
# Shear Modulus (GPa) = -11.91087 18.03587 3.06250
#
# Velocity S-wave (km/s) = -2.57777 3.17206 1.30711
# Velocity P-wave (km/s) = 3.64510 6.13286 5.04473
#
# Compressibility (1/GPa) = 0.02519063
#
# Stress axis : x y z
#
# Youngs Moduli (GPa) = 64.38147 89.56078 47.25147
#
# Poissons Ratio (x) = 0.09849 0.17555
# Poissons Ratio (y) = 0.07080 0.30810
# Poissons Ratio (z) = 0.23920 0.58397
#
# Static dielectric constant tensor:
#      x y z
#    x 1.663360 0.000000 0.000000 
#    y 0.000000 1.604450 0.000000 
#    z 0.000000 0.000000 1.619430 
# 
# From -- ./inp_files/17621.got.cif
#   From: 2010.05.17/outbox.cif.g08.bks.cpg/sg47_9_cif.got.tgz:17621.got - 2010.06.03 20:15:42.
