data_PCOD9382762
_publ_section_title
;
Structure prediction by ZEFSAII (Michael W. Deem and Ramdas Pophale) SiO2 
 PCOD9382762
Probable space group: P M M M
;
_chemical_formula_sum "Si O2"
_cell_formula_units_Z 64
_cell_length_a 8.649468
_cell_length_b 19.639117
_cell_length_c 24.343801
_cell_angle_alpha 90.000000
_cell_angle_beta 90.000000
_cell_angle_gamma 90.000000
_cell_volume 4135.230696
_symmetry_space_group_name_H-M "P M M M"
_symmetry_group_IT_number 47
_symmetry_cell_setting 'orthorhombic'
loop_
_space_group_symop_operation_xyz
x,y,z
-x,-y,z
x,-y,-z
-x,y,-z
-x,-y,-z
x,y,-z
-x,y,z
x,-y,z
loop_
_atom_site_type_symbol
_atom_site_label
_atom_site_fract_x
_atom_site_fract_y
_atom_site_fract_z
Si Si1 0.813596 0.921671 0.936516
Si Si2 0.814889 0.422855 0.617245
Si Si3 0.314975 0.838362 0.163366
Si Si4 0.312733 0.791354 0.332170
Si Si5 0.312110 0.076844 0.271057
Si Si6 0.816124 0.285952 0.774319
Si Si7 0.315043 0.577210 0.259247
Si Si8 0.686745 0.709772 0.438362
O O1 0.740652 0.870003 0.893545
O O2 0.000000 0.918304 0.932847
O O3 0.767880 0.000000 0.923677
O O4 0.771054 0.908208 0.000000
O O5 0.775780 0.500000 0.599337
O O6 0.749511 0.414220 0.678861
O O7 0.746029 0.364511 0.579106
O O8 0.000000 0.416669 0.619127
O O9 0.500000 0.833311 0.164656
O O10 0.266950 0.889931 0.212694
O O11 0.244854 0.765303 0.179084
O O12 0.500000 0.787708 0.329278
O O13 0.266245 0.868617 0.317517
O O14 0.247671 0.744817 0.283144
O O15 0.262812 0.762234 0.390853
O O16 0.500000 0.074336 0.271336
O O17 0.254528 0.000000 0.277589
O O18 0.754106 0.362730 0.777368
O O19 0.000000 0.285588 0.773294
O O20 0.500000 0.583609 0.261204
O O21 0.275682 0.500000 0.241755
O O22 0.737944 0.727055 0.500000
O O23 0.500000 0.708779 0.437746
#
# Coordination Sequence:
#
# PCOD9382762 Si02
#       8
#     8   8   8   8   8   8   8   8
#     4   9  18  32  48  68 100 140 175 207 244 283
#     4  10  20  32  46  65  87 112 144 184 227 270
#     4  10  19  30  46  69  97 128 165 204 237 275
#     4   9  17  30  46  63  86 114 147 186 230 281
#     4   8  14  25  43  66  88 112 144 186 233 274
#     4  11  20  30  47  69  94 122 153 192 238 282
#     4  10  19  31  48  68  92 122 152 183 224 278
#     4  10  20  32  46  62  83 115 152 188 227 276
#
# _framework density 15.476766
#
# number of rings (size 3 to 8) (size 9 to 14) (size 15 to 20)
#    0.000    2.375    1.250    3.750    0.000    3.000 
#    0.000    1.875    0.000    3.750    0.000    2.625 
#    0.000    0.500    0.000   10.875    0.000    8.500 
#
# Total GULP energy -356865.176428 kJ/mol
# GULP energy per Si atom -5576.018382 kJ/mol
# Density = 1.544154 g / cm^3
# Si number density = 15.476766 Si / 1000 Ang^3
#
#
#
# Elastic Constant Matrix: (Units=GPa)
#
#
# Indices 1 2 3 4 5 6 
#
# 1 26.4015 27.2974 23.7299 0.0000 0.0000 0.0000
# 2 27.2974 122.0317 61.2398 0.0000 0.0000 0.0000
# 3 23.7299 61.2398 88.8118 0.0000 0.0000 0.0000
# 4 0.0000 0.0000 0.0000 26.9131 0.0000 0.0000
# 5 0.0000 0.0000 0.0000 0.0000 -13.8246 0.0000
# 6 0.0000 0.0000 0.0000 0.0000 0.0000 16.6856
#
#
#
# Elastic Compliance Matrix: (Units=1/GPa)
#
#
# Indices 1 2 3 4 5 6 
#
# 1 0.053871 -0.007381 -0.009304 0.000000 0.000000 0.000000
# 2 -0.007381 0.013542 -0.007366 0.000000 0.000000 0.000000
# 3 -0.009304 -0.007366 0.018825 0.000000 0.000000 0.000000
# 4 0.000000 0.000000 0.000000 0.037157 0.000000 0.000000
# 5 0.000000 0.000000 0.000000 0.000000 -0.072335 0.000000
# 6 0.000000 0.000000 0.000000 0.000000 0.000000 0.059932
#
#
# Mechanical properties :
#
#
# Convention : Reuss Voigt Hill
#
# Bulk Modulus (GPa) = 26.22222 51.30881 38.76551
# Shear Modulus (GPa) = 29.10256 14.28667 21.69462
#
# Velocity S-wave (km/s) = 4.34107 3.04156 3.74806
# Velocity P-wave (km/s) = 6.48893 6.74973 6.62062
#
# Compressibility (1/GPa) = 0.03813560
#
# Stress axis : x y z
#
# Youngs Moduli (GPa) = 18.56276 73.84409 53.12157
#
# Poissons Ratio (x) = 0.54507 0.49426
# Poissons Ratio (y) = 0.13702 0.39127
# Poissons Ratio (z) = 0.17271 0.54391
#
# Static dielectric constant tensor:
#      x y z
#    x 1.520630 0.000000 0.000000 
#    y 0.000000 1.530510 0.000000 
#    z 0.000000 0.000000 1.496530 
# 
# From -- ./inp_files/32223.got.cif
#   From: 2010.05.17/outbox.cif.g08.bks.cpg/sg47_17_cif.got.tgz:32223.got - 2010.06.03 20:15:42.
