data_PCOD9382286
_publ_section_title
;
Structure prediction by ZEFSAII (Michael W. Deem and Ramdas Pophale) SiO2 
 PCOD9382286
Probable space group: P M M M
;
_chemical_formula_sum "Si O2"
_cell_formula_units_Z 64
_cell_length_a 7.578075
_cell_length_b 20.734191
_cell_length_c 20.708804
_cell_angle_alpha 90.000000
_cell_angle_beta 90.000000
_cell_angle_gamma 90.000000
_cell_volume 3253.876098
_symmetry_space_group_name_H-M "P M M M"
_symmetry_group_IT_number 47
_symmetry_cell_setting 'orthorhombic'
loop_
_space_group_symop_operation_xyz
x,y,z
-x,-y,z
x,-y,-z
-x,y,-z
-x,-y,-z
x,y,-z
-x,y,z
x,-y,z
loop_
_atom_site_type_symbol
_atom_site_label
_atom_site_fract_x
_atom_site_fract_y
_atom_site_fract_z
Si Si1 0.789430 0.289645 0.248898
Si Si2 0.215687 0.927365 0.574390
Si Si3 0.786502 0.884915 0.929641
Si Si4 0.293180 0.928965 0.212621
Si Si5 0.785956 0.259109 0.104528
Si Si6 0.203789 0.170479 0.319722
Si Si7 0.712501 0.429984 0.212090
Si Si8 0.705818 0.599331 0.068721
O O1 0.725130 0.266104 0.178658
O O2 0.718031 0.240277 0.302242
O O3 0.758551 0.366004 0.251821
O O4 0.000000 0.280735 0.247835
O O5 0.265250 0.915410 0.500000
O O6 0.282261 0.873839 0.624077
O O7 0.000000 0.927738 0.576692
O O8 0.272201 0.000000 0.592307
O O9 0.726301 0.918834 0.864151
O O10 0.733259 0.809719 0.923435
O O11 0.000000 0.887345 0.928641
O O12 0.728542 0.909942 0.000000
O O13 0.500000 0.927019 0.228001
O O14 0.207014 0.872379 0.254296
O O15 0.222609 0.000000 0.229769
O O16 0.717658 0.323095 0.070499
O O17 0.000000 0.261762 0.102192
O O18 0.000000 0.180994 0.338394
O O19 0.500000 0.430099 0.208480
O O20 0.770298 0.500000 0.236966
O O21 0.780395 0.422206 0.138014
O O22 0.500000 0.580346 0.068879
O O23 0.782812 0.577417 0.000000
#
# Coordination Sequence:
#
# PCOD9382286 Si02
#       8
#     8   8   8   8   8   8   8   8
#     4   9  17  29  47  69  91 116 151 192 233 274
#     4   8  14  25  45  77 111 137 162 194 232 274
#     4  10  20  34  51  67  84 112 153 200 250 303
#     4  11  24  37  48  66  93 123 157 201 249 292
#     4   9  16  29  45  62  84 108 139 184 233 280
#     4  10  18  32  54  76  98 128 165 200 233 277
#     4   9  18  31  45  62  87 119 151 186 234 288
#     4   9  17  27  40  60  83 108 141 179 223 280
#
# _framework density 19.668851
#
# number of rings (size 3 to 8) (size 9 to 14) (size 15 to 20)
#    0.000    2.625    1.250    1.500    0.000    4.250 
#    0.000    2.500    0.000    0.375    0.000    5.250 
#    0.000    0.500    0.000    6.250    0.000    1.000 
#
# Total GULP energy -357026.343012 kJ/mol
# GULP energy per Si atom -5578.536610 kJ/mol
# Density = 1.962408 g / cm^3
# Si number density = 19.668851 Si / 1000 Ang^3
#
#
#
# Elastic Constant Matrix: (Units=GPa)
#
#
# Indices 1 2 3 4 5 6 
#
# 1 45.3490 0.4103 -0.3467 0.0000 0.0000 0.0000
# 2 0.4103 142.9271 59.0768 0.0000 0.0000 0.0000
# 3 -0.3467 59.0768 86.9807 0.0000 0.0000 0.0000
# 4 0.0000 0.0000 0.0000 27.2063 0.0000 0.0000
# 5 0.0000 0.0000 0.0000 0.0000 -4.5291 0.0000
# 6 0.0000 0.0000 0.0000 0.0000 0.0000 12.6668
#
#
#
# Elastic Compliance Matrix: (Units=1/GPa)
#
#
# Indices 1 2 3 4 5 6 
#
# 1 0.022054 -0.000139 0.000182 0.000000 0.000000 0.000000
# 2 -0.000139 0.009728 -0.006608 0.000000 0.000000 0.000000
# 3 0.000182 -0.006608 0.015986 0.000000 0.000000 0.000000
# 4 0.000000 0.000000 0.000000 0.036756 0.000000 0.000000
# 5 0.000000 0.000000 0.000000 0.000000 -0.220794 0.000000
# 6 0.000000 0.000000 0.000000 0.000000 0.000000 0.078946
#
#
# Mechanical properties :
#
#
# Convention : Reuss Voigt Hill
#
# Bulk Modulus (GPa) = 28.86936 43.72638 36.29787
# Shear Modulus (GPa) = -153.14650 21.47655 -65.83498
#
# Velocity S-wave (km/s) = -8.83354 3.30799 -5.79175
# Velocity P-wave (km/s) = 9.45158 6.07206 5.12165
#
# Compressibility (1/GPa) = 0.03463880
#
# Stress axis : x y z
#
# Youngs Moduli (GPa) = 45.34352 102.79322 62.55624
#
# Poissons Ratio (x) = 0.01424 -0.01138
# Poissons Ratio (y) = 0.00628 0.41337
# Poissons Ratio (z) = -0.00825 0.67925
#
# Static dielectric constant tensor:
#      x y z
#    x 1.744630 0.000000 0.000000 
#    y 0.000000 1.721590 0.000000 
#    z 0.000000 0.000000 1.686910 
# 
# From -- ./inp_files/11875.got.cif
#   From: 2010.05.17/outbox.cif.g08.bks.cpg/sg47_6_cif.got.tgz:11875.got - 2010.06.03 20:15:42.
