data_PCOD9382586
_publ_section_title
;
Structure prediction by ZEFSAII (Michael W. Deem and Ramdas Pophale) SiO2 
 PCOD9382586
Probable space group: P M M M
;
_chemical_formula_sum "Si O2"
_cell_formula_units_Z 64
_cell_length_a 19.522975
_cell_length_b 24.114419
_cell_length_c 9.136553
_cell_angle_alpha 90.000000
_cell_angle_beta 90.000000
_cell_angle_gamma 90.000000
_cell_volume 4301.353925
_symmetry_space_group_name_H-M "P M M M"
_symmetry_group_IT_number 47
_symmetry_cell_setting 'orthorhombic'
loop_
_space_group_symop_operation_xyz
x,y,z
-x,-y,z
x,-y,-z
-x,y,-z
-x,-y,-z
x,y,-z
-x,y,z
x,-y,z
loop_
_atom_site_type_symbol
_atom_site_label
_atom_site_fract_x
_atom_site_fract_y
_atom_site_fract_z
Si Si1 0.077386 0.767053 0.825357
Si Si2 0.578684 0.774267 0.675957
Si Si3 0.579660 0.435539 0.824407
Si Si4 0.218794 0.279004 0.826647
Si Si5 0.698668 0.834884 0.826156
Si Si6 0.339869 0.662220 0.674820
Si Si7 0.791976 0.062952 0.824419
Si Si8 0.077965 0.886792 0.325184
O O1 0.139018 0.725888 0.785957
O O2 0.085281 0.824805 0.739896
O O3 0.000000 0.746383 0.799739
O O4 0.084444 0.778589 0.000000
O O5 0.580884 0.778593 0.500000
O O6 0.500000 0.778548 0.723831
O O7 0.628655 0.819820 0.745118
O O8 0.610427 0.714116 0.714855
O O9 0.500000 0.424129 0.785970
O O10 0.593532 0.500000 0.788807
O O11 0.629016 0.392926 0.744322
O O12 0.585862 0.429435 0.000000
O O13 0.250655 0.217504 0.802196
O O14 0.265706 0.321314 0.737756
O O15 0.224653 0.290864 0.000000
O O16 0.736892 0.890733 0.777910
O O17 0.686112 0.838383 0.000000
O O18 0.337771 0.658172 0.500000
O O19 0.863864 0.076108 0.747655
O O20 0.770344 0.000000 0.793740
O O21 0.800789 0.068932 0.000000
O O22 0.086072 0.885538 0.500000
O O23 0.000000 0.905228 0.291988
#
# Coordination Sequence:
#
# PCOD9382586 Si02
#       8
#     8   8   8   8   8   8   8   8
#     4   9  16  28  47  67  89 119 153 186 222 267
#     4   9  18  31  46  66  91 117 143 176 220 266
#     4   9  18  32  48  66  92 128 165 196 226 261
#     4   9  16  28  45  65  90 118 149 186 226 267
#     4   9  17  30  46  66  86 107 140 179 223 270
#     4  10  19  29  44  68  96 124 154 189 225 262
#     4  10  20  34  50  65  83 110 146 186 224 268
#     4  10  20  31  44  64  90 117 145 180 220 264
#
# _framework density 14.879035999999999
#
# number of rings (size 3 to 8) (size 9 to 14) (size 15 to 20)
#    0.000    2.625    1.250    1.500    0.000    4.000 
#    0.000    1.875    0.000    0.375    0.000    2.625 
#    0.000    0.500    0.000    5.750    0.000    1.625 
#
# Total GULP energy -356714.221980 kJ/mol
# GULP energy per Si atom -5573.659718 kJ/mol
# Density = 1.484517 g / cm^3
# Si number density = 14.879036 Si / 1000 Ang^3
#
#
#
# Elastic Constant Matrix: (Units=GPa)
#
#
# Indices 1 2 3 4 5 6 
#
# 1 107.7384 53.6871 36.3400 0.0000 0.0000 0.0000
# 2 53.6871 84.9120 34.6701 0.0000 0.0000 0.0000
# 3 36.3400 34.6701 24.0648 0.0000 0.0000 0.0000
# 4 0.0000 0.0000 0.0000 12.2831 0.0000 0.0000
# 5 0.0000 0.0000 0.0000 0.0000 21.3960 0.0000
# 6 0.0000 0.0000 0.0000 0.0000 0.0000 26.2882
#
#
#
# Elastic Compliance Matrix: (Units=1/GPa)
#
#
# Indices 1 2 3 4 5 6 
#
# 1 0.018936 -0.000721 -0.027555 0.000000 0.000000 0.000000
# 2 -0.000721 0.028629 -0.040157 0.000000 0.000000 0.000000
# 3 -0.027555 -0.040157 0.141020 0.000000 0.000000 0.000000
# 4 0.000000 0.000000 0.000000 0.081413 0.000000 0.000000
# 5 0.000000 0.000000 0.000000 0.000000 0.046738 0.000000
# 6 0.000000 0.000000 0.000000 0.000000 0.000000 0.038040
#
#
# Mechanical properties :
#
#
# Convention : Reuss Voigt Hill
#
# Bulk Modulus (GPa) = 19.33582 51.78997 35.56289
# Shear Modulus (GPa) = 9.82547 18.12798 13.97673
#
# Velocity S-wave (km/s) = 2.57253 3.49428 3.06822
# Velocity P-wave (km/s) = 4.67412 7.15283 6.04195
#
# Compressibility (1/GPa) = 0.05171750
#
# Stress axis : x y z
#
# Youngs Moduli (GPa) = 52.81084 34.92915 7.09120
#
# Poissons Ratio (x) = 0.02520 0.19540
# Poissons Ratio (y) = 0.03809 0.28476
# Poissons Ratio (z) = 1.45521 1.40265
#
# Static dielectric constant tensor:
#      x y z
#    x 1.497660 0.000000 0.000000 
#    y 0.000000 1.470750 0.000000 
#    z 0.000000 0.000000 1.493080 
# 
# From -- ./inp_files/11804.got.cif
#   From: 2010.05.17/outbox.cif.g08.bks.cpg/sg47_6_cif.got.tgz:11804.got - 2010.06.03 20:15:42.
