data_PCOD9382611
_publ_section_title
;
Structure prediction by ZEFSAII (Michael W. Deem and Ramdas Pophale) SiO2 
 PCOD9382611
Probable space group: P M M M
;
_chemical_formula_sum "Si O2"
_cell_formula_units_Z 60
_cell_length_a 19.497103
_cell_length_b 21.436422
_cell_length_c 8.880153
_cell_angle_alpha 90.000000
_cell_angle_beta 90.000000
_cell_angle_gamma 90.000000
_cell_volume 3711.443320
_symmetry_space_group_name_H-M "P M M M"
_symmetry_group_IT_number 47
_symmetry_cell_setting 'orthorhombic'
loop_
_space_group_symop_operation_xyz
x,y,z
-x,-y,z
x,-y,-z
-x,y,-z
-x,-y,-z
x,y,-z
-x,y,z
x,-y,z
loop_
_atom_site_type_symbol
_atom_site_label
_atom_site_fract_x
_atom_site_fract_y
_atom_site_fract_z
Si Si1 0.577833 0.257041 0.179514
Si Si2 0.922994 0.854714 0.320689
Si Si3 0.712764 0.814146 0.179300
Si Si4 0.922489 0.717599 0.820121
Si Si5 0.212404 0.928649 0.318444
Si Si6 0.419552 0.500000 0.180599
Si Si7 0.783969 0.692638 0.319829
Si Si8 0.646945 0.622762 0.320232
O O1 0.500000 0.239937 0.216499
O O2 0.633904 0.203946 0.210772
O O3 0.601160 0.318768 0.266959
O O4 0.581542 0.270487 0.000000
O O5 0.916843 0.841559 0.500000
O O6 0.915732 0.789403 0.234309
O O7 0.863384 0.902646 0.279777
O O8 0.000000 0.878917 0.293492
O O9 0.735266 0.879872 0.246274
O O10 0.757154 0.758533 0.253500
O O11 0.723888 0.813061 0.000000
O O12 0.859414 0.681138 0.745664
O O13 0.000000 0.697419 0.777501
O O14 0.916634 0.715127 0.000000
O O15 0.218539 0.926405 0.500000
O O16 0.221372 0.000000 0.269940
O O17 0.500000 0.500000 0.226956
O O18 0.381454 0.438966 0.242636
O O19 0.417663 0.500000 0.000000
O O20 0.787082 0.697646 0.500000
O O21 0.725322 0.642073 0.280290
O O22 0.643099 0.616118 0.500000
#
# Coordination Sequence:
#
# PCOD9382611 Si02
#       8
#     8   8   8   8   8   4   8   8
#     4   9  18  33  52  74  99 125 157 198 244 294
#     4   9  17  29  45  64  89 123 159 195 239 291
#     4  10  19  31  49  70  92 121 156 198 247 293
#     4  10  19  29  45  71 100 128 160 202 249 292
#     4  10  20  32  46  65  91 124 161 200 243 296
#     4  11  23  37  53  75 108 147 178 201 233 282
#     4  10  19  32  50  72  99 130 165 203 244 290
#     4  10  21  34  51  77 106 136 170 205 237 278
#
# _framework density 16.166217
#
# number of rings (size 3 to 8) (size 9 to 14) (size 15 to 20)
#    0.000    2.200    1.333    2.200    0.000    5.867 
#    0.000    1.333    0.000    0.400    0.000    6.067 
#    0.000    3.733    0.000    0.000    0.000    0.000 
#
# Total GULP energy -334662.185002 kJ/mol
# GULP energy per Si atom -5577.703083 kJ/mol
# Density = 1.612942 g / cm^3
# Si number density = 16.166217 Si / 1000 Ang^3
#
#
#
# Elastic Constant Matrix: (Units=GPa)
#
#
# Indices 1 2 3 4 5 6 
#
# 1 158.3529 70.3214 55.1253 0.0000 0.0000 0.0000
# 2 70.3214 94.8152 38.3183 0.0000 0.0000 0.0000
# 3 55.1253 38.3183 41.7570 0.0000 0.0000 0.0000
# 4 0.0000 0.0000 0.0000 98.4966 0.0000 0.0000
# 5 0.0000 0.0000 0.0000 0.0000 26.2169 0.0000
# 6 0.0000 0.0000 0.0000 0.0000 0.0000 21.0512
#
#
#
# Elastic Compliance Matrix: (Units=1/GPa)
#
#
# Indices 1 2 3 4 5 6 
#
# 1 0.012650 -0.004185 -0.012860 0.000000 0.000000 0.000000
# 2 -0.004185 0.018148 -0.011129 0.000000 0.000000 0.000000
# 3 -0.012860 -0.011129 0.051137 0.000000 0.000000 0.000000
# 4 0.000000 0.000000 0.000000 0.010153 0.000000 0.000000
# 5 0.000000 0.000000 0.000000 0.000000 0.038143 0.000000
# 6 0.000000 0.000000 0.000000 0.000000 0.000000 0.047503
#
#
# Mechanical properties :
#
#
# Convention : Reuss Voigt Hill
#
# Bulk Modulus (GPa) = 39.08018 69.16166 54.12092
# Shear Modulus (GPa) = 20.60909 37.89694 29.25302
#
# Velocity S-wave (km/s) = 3.57434 4.84695 4.25845
# Velocity P-wave (km/s) = 6.42347 8.61385 7.59801
#
# Compressibility (1/GPa) = 0.02558842
#
# Stress axis : x y z
#
# Youngs Moduli (GPa) = 79.05004 55.10117 19.55537
#
# Poissons Ratio (x) = 0.23061 0.25147
# Poissons Ratio (y) = 0.33084 0.21763
# Poissons Ratio (z) = 1.01655 0.61321
#
# Static dielectric constant tensor:
#      x y z
#    x 1.571000 0.000000 0.000000 
#    y 0.000000 1.503930 0.000000 
#    z 0.000000 0.000000 1.542820 
# 
# From -- ./inp_files/10067.got.cif
#   From: 2010.05.17/outbox.cif.g08.bks.cpg/sg47_6_cif.got.tgz:10067.got - 2010.06.03 20:15:42.
