data_PCOD9382997
_publ_section_title
;
Structure prediction by ZEFSAII (Michael W. Deem and Ramdas Pophale) SiO2 
 PCOD9382997
Probable space group: P M M M
;
_chemical_formula_sum "Si O2"
_cell_formula_units_Z 48
_cell_length_a 9.135753
_cell_length_b 30.576391
_cell_length_c 10.409053
_cell_angle_alpha 90.000000
_cell_angle_beta 90.000000
_cell_angle_gamma 90.000000
_cell_volume 2907.647751
_symmetry_space_group_name_H-M "P M M M"
_symmetry_group_IT_number 47
_symmetry_cell_setting 'orthorhombic'
loop_
_space_group_symop_operation_xyz
x,y,z
-x,-y,z
x,-y,-z
-x,y,-z
-x,-y,-z
x,y,-z
-x,y,z
x,-y,z
loop_
_atom_site_type_symbol
_atom_site_label
_atom_site_fract_x
_atom_site_fract_y
_atom_site_fract_z
Si Si1 0.677511 0.449875 0.500000
Si Si2 0.831424 0.136084 0.156817
Si Si3 0.829119 0.552378 0.000000
Si Si4 0.826743 0.686452 0.845377
Si Si5 0.671025 0.951524 0.843865
Si Si6 0.332073 0.776077 0.843756
Si Si7 0.676482 0.599108 0.238564
O O1 0.731216 0.500000 0.500000
O O2 0.500000 0.451812 0.500000
O O3 0.719105 0.423748 0.627806
O O4 0.762567 0.090165 0.200529
O O5 0.739665 0.178355 0.198918
O O6 0.000000 0.140066 0.195083
O O7 0.827502 0.135823 0.000000
O O8 0.747387 0.571337 0.123759
O O9 0.823695 0.500000 0.000000
O O10 0.000000 0.566290 0.000000
O O11 0.762265 0.733665 0.808179
O O12 0.740446 0.647709 0.775828
O O13 0.000000 0.684133 0.820973
O O14 0.805203 0.681082 0.000000
O O15 0.500000 0.946476 0.809922
O O16 0.720913 0.000000 0.801921
O O17 0.677344 0.951512 0.000000
O O18 0.500000 0.772084 0.801337
O O19 0.332874 0.777098 0.000000
O O20 0.500000 0.599692 0.227515
#
# Coordination Sequence:
#
# PCOD9382997 Si02
#       7
#     4   8   4   8   8   8   8
#     4   9  20  38  57  79 105 131 163 203 240 277
#     4   9  15  21  29  43  64  90 122 163 217 271
#     4  11  23  37  53  77 107 133 161 199 240 281
#     4  10  19  31  47  68  97 123 148 187 235 281
#     4   8  13  20  28  37  52  79 118 164 212 261
#     4   9  16  25  38  55  76 103 138 175 217 271
#     4  11  21  35  57  79 101 130 165 200 238 285
#
# _framework density 16.508188000000001
#
# number of rings (size 3 to 8) (size 9 to 14) (size 15 to 20)
#    0.000    2.500    0.833    3.250    0.000    6.333 
#    0.000    3.333    0.000    3.000    0.000    0.000 
#    0.000    0.000    0.000    0.000    0.000    0.000 
#
# Total GULP energy -267548.701075 kJ/mol
# GULP energy per Si atom -5573.931272 kJ/mol
# Density = 1.647061 g / cm^3
# Si number density = 16.508188 Si / 1000 Ang^3
#
#
#
# Elastic Constant Matrix: (Units=GPa)
#
#
# Indices 1 2 3 4 5 6 
#
# 1 107.0070 77.9126 33.5310 0.0000 0.0000 0.0000
# 2 77.9126 161.8055 41.7111 0.0000 0.0000 0.0000
# 3 33.5310 41.7111 56.4028 0.0000 0.0000 0.0000
# 4 0.0000 0.0000 0.0000 -66.5338 0.0000 0.0000
# 5 0.0000 0.0000 0.0000 0.0000 -0.0541 0.0000
# 6 0.0000 0.0000 0.0000 0.0000 0.0000 30.5146
#
#
#
# Elastic Compliance Matrix: (Units=1/GPa)
#
#
# Indices 1 2 3 4 5 6 
#
# 1 0.015260 -0.006189 -0.004495 0.000000 0.000000 0.000000
# 2 -0.006189 0.010146 -0.003824 0.000000 0.000000 0.000000
# 3 -0.004495 -0.003824 0.023230 0.000000 0.000000 0.000000
# 4 0.000000 0.000000 0.000000 -0.015030 0.000000 0.000000
# 5 0.000000 0.000000 0.000000 0.000000-18.488458 0.000000
# 6 0.000000 0.000000 0.000000 0.000000 0.000000 0.032771
#
#
# Mechanical properties :
#
#
# Convention : Reuss Voigt Hill
#
# Bulk Modulus (GPa) = 50.96880 70.16943 60.56912
# Shear Modulus (GPa) = -0.27194 4.25606 1.99206
#
# Velocity S-wave (km/s) = -0.40631 1.60740 1.09970
# Velocity P-wave (km/s) = 5.54272 6.78551 6.19536
#
# Compressibility (1/GPa) = 0.01961985
#
# Stress axis : x y z
#
# Youngs Moduli (GPa) = 65.52997 98.55800 43.04848
#
# Poissons Ratio (x) = 0.61001 0.19350
# Poissons Ratio (y) = 0.40559 0.16461
# Poissons Ratio (z) = 0.29455 0.37687
#
# Static dielectric constant tensor:
#      x y z
#    x 1.551330 0.000000 0.000000 
#    y 0.000000 1.565780 0.000000 
#    z 0.000000 0.000000 1.529880 
# 
# From -- ./inp_files/2726.got.cif
#   From: 2010.05.17/outbox.cif.g08.bks.cpg/sg47_2_cif.got.tgz:2726.got - 2010.06.03 20:15:42.
