data_PCOD9382154
_publ_section_title
;
Structure prediction by ZEFSAII (Michael W. Deem and Ramdas Pophale) SiO2 
 PCOD9382154
Probable space group: P M M M
;
_chemical_formula_sum "Si O2"
_cell_formula_units_Z 40
_cell_length_a 12.945877
_cell_length_b 7.647643
_cell_length_c 19.955082
_cell_angle_alpha 90.000000
_cell_angle_beta 90.000000
_cell_angle_gamma 90.000000
_cell_volume 1975.661786
_symmetry_space_group_name_H-M "P M M M"
_symmetry_group_IT_number 47
_symmetry_cell_setting 'orthorhombic'
loop_
_space_group_symop_operation_xyz
x,y,z
-x,-y,z
x,-y,-z
-x,y,-z
-x,-y,-z
x,y,-z
-x,y,z
x,-y,z
loop_
_atom_site_type_symbol
_atom_site_label
_atom_site_fract_x
_atom_site_fract_y
_atom_site_fract_z
Si Si1 0.500000 0.785525 0.923391
Si Si2 0.225661 0.791976 0.576280
Si Si3 0.308681 0.791668 0.165700
Si Si4 0.000000 0.291692 0.576581
Si Si5 0.882513 0.289599 0.075189
Si Si6 0.619933 0.214437 0.310545
O O1 0.601395 0.725966 0.883629
O O2 0.500000 0.000000 0.923913
O O3 0.500000 0.727704 0.000000
O O4 0.229580 0.720141 0.500000
O O5 0.110285 0.763775 0.605328
O O6 0.312968 0.724204 0.626242
O O7 0.240224 0.000000 0.571264
O O8 0.198766 0.759669 0.131740
O O9 0.328204 0.726364 0.240877
O O10 0.322465 0.000000 0.169512
O O11 0.000000 0.500000 0.574301
O O12 0.000000 0.220740 0.500000
O O13 0.885122 0.500000 0.073056
O O14 0.000000 0.228813 0.087597
O O15 0.851263 0.228858 0.000000
O O16 0.500000 0.266577 0.312875
O O17 0.621265 0.000000 0.311373
#
# Coordination Sequence:
#
# PCOD9382154 Si02
#       6
#     4   8   8   4   8   8
#     4   9  16  26  45  73  98 122 156 197 241 287
#     4   9  17  30  51  77 102 131 168 206 244 292
#     4  10  18  31  51  74 100 130 164 204 246 291
#     4   9  17  31  51  73  99 129 162 205 252 293
#     4   9  19  36  54  71  97 132 164 200 250 300
#     4   9  17  31  50  73 103 134 163 202 252 295
#
# _framework density 20.246381
#
# number of rings (size 3 to 8) (size 9 to 14) (size 15 to 20)
#    0.000    2.800    1.000    1.500    0.000    3.200 
#    1.800    4.500    0.000    3.600    0.000    2.800 
#    0.000    0.000    0.000    0.000    0.000    0.000 
#
# Total GULP energy -223094.457935 kJ/mol
# GULP energy per Si atom -5577.361448 kJ/mol
# Density = 2.020030 g / cm^3
# Si number density = 20.246381 Si / 1000 Ang^3
#
#
#
# Elastic Constant Matrix: (Units=GPa)
#
#
# Indices 1 2 3 4 5 6 
#
# 1 162.9047 -2.9718 109.4246 0.0000 0.0000 0.0000
# 2 -2.9718 35.3155 8.1565 0.0000 0.0000 0.0000
# 3 109.4246 8.1565 151.0628 0.0000 0.0000 0.0000
# 4 0.0000 0.0000 0.0000 1.2620 0.0000 0.0000
# 5 0.0000 0.0000 0.0000 0.0000 23.3701 0.0000
# 6 0.0000 0.0000 0.0000 0.0000 0.0000 26.7109
#
#
#
# Elastic Compliance Matrix: (Units=1/GPa)
#
#
# Indices 1 2 3 4 5 6 
#
# 1 0.012288 0.003129 -0.009070 0.000000 0.000000 0.000000
# 2 0.003129 0.029470 -0.003858 0.000000 0.000000 0.000000
# 3 -0.009070 -0.003858 0.013398 0.000000 0.000000 0.000000
# 4 0.000000 0.000000 0.000000 0.792394 0.000000 0.000000
# 5 0.000000 0.000000 0.000000 0.000000 0.042790 0.000000
# 6 0.000000 0.000000 0.000000 0.000000 0.000000 0.037438
#
#
# Mechanical properties :
#
#
# Convention : Reuss Voigt Hill
#
# Bulk Modulus (GPa) = 28.12234 64.27796 46.20015
# Shear Modulus (GPa) = 5.21252 25.91351 15.56302
#
# Velocity S-wave (km/s) = 1.60628 3.58146 2.77552
# Velocity P-wave (km/s) = 4.16658 6.99423 5.75672
#
# Compressibility (1/GPa) = 0.03555892
#
# Stress axis : x y z
#
# Youngs Moduli (GPa) = 81.38019 33.93234 74.63801
#
# Poissons Ratio (x) = -0.10617 0.67696
# Poissons Ratio (y) = -0.25463 0.28793
# Poissons Ratio (z) = 0.73811 0.13090
#
# Static dielectric constant tensor:
#      x y z
#    x 1.705260 0.000000 0.000000 
#    y 0.000000 1.748690 0.000000 
#    z 0.000000 0.000000 1.714830 
# 
# From -- ./inp_files/10690.got.cif
#   From: 2010.05.17/outbox.cif.g08.bks.cpg/sg47_6_cif.got.tgz:10690.got - 2010.06.03 20:15:42.
