data_PCOD9382468
_publ_section_title
;
Structure prediction by ZEFSAII (Michael W. Deem and Ramdas Pophale) SiO2 
 PCOD9382468
Probable space group: P M M M
;
_chemical_formula_sum "Si O2"
_cell_formula_units_Z 48
_cell_length_a 22.636418
_cell_length_b 20.279582
_cell_length_c 8.196058
_cell_angle_alpha 90.000000
_cell_angle_beta 90.000000
_cell_angle_gamma 90.000000
_cell_volume 3762.458576
_symmetry_space_group_name_H-M "P M M M"
_symmetry_group_IT_number 47
_symmetry_cell_setting 'orthorhombic'
loop_
_space_group_symop_operation_xyz
x,y,z
-x,-y,z
x,-y,-z
-x,y,-z
-x,-y,-z
x,y,-z
-x,y,z
x,-y,z
loop_
_atom_site_type_symbol
_atom_site_label
_atom_site_fract_x
_atom_site_fract_y
_atom_site_fract_z
Si Si1 0.570341 0.571528 0.695746
Si Si2 0.859189 0.919900 0.681215
Si Si3 0.431307 0.713643 0.806438
Si Si4 0.268313 0.076152 0.807920
Si Si5 0.931480 0.919592 0.000000
Si Si6 0.500000 0.076054 0.699122
Si Si7 0.382220 0.848372 0.693150
O O1 0.576635 0.574499 0.500000
O O2 0.500000 0.570509 0.731649
O O3 0.594185 0.500000 0.751488
O O4 0.591982 0.640180 0.768980
O O5 0.877987 0.898075 0.500000
O O6 0.790662 0.903070 0.712927
O O7 0.898370 0.897543 0.834745
O O8 0.861641 0.000000 0.682695
O O9 0.500000 0.718089 0.747322
O O10 0.393834 0.771616 0.726409
O O11 0.431830 0.723521 0.000000
O O12 0.324081 0.121965 0.774331
O O13 0.282697 0.000000 0.762230
O O14 0.253838 0.076419 0.000000
O O15 0.000000 0.900291 0.000000
O O16 0.929400 0.000000 0.000000
O O17 0.500000 0.077696 0.500000
O O18 0.559101 0.113358 0.753629
O O19 0.500000 0.000000 0.750014
O O20 0.377153 0.859714 0.500000
#
# Coordination Sequence:
#
# PCOD9382468 Si02
#       7
#     8   8   8   8   4   4   8
#     4   8  14  25  41  58  73  90 113 138 169 218
#     4   9  16  27  42  58  77 101 127 154 187 228
#     4  10  19  29  40  54  75  96 115 145 189 238
#     4  10  19  31  44  57  74  96 125 162 200 238
#     4   9  16  26  40  60  84 103 121 149 186 228
#     4   9  18  30  41  53  68  85 114 159 203 245
#     4  11  20  30  43  56  71  93 123 158 198 242
#
# _framework density 12.757616000000001
#
# number of rings (size 3 to 8) (size 9 to 14) (size 15 to 20)
#    0.000    2.500    1.667    2.500    0.000    3.000 
#    0.000    3.333    0.000    2.000    0.000    0.000 
#    0.000    0.000    0.000    0.000    0.000    0.000 
#
# Total GULP energy -267409.886907 kJ/mol
# GULP energy per Si atom -5571.039311 kJ/mol
# Density = 1.272858 g / cm^3
# Si number density = 12.757616 Si / 1000 Ang^3
#
#
#
# Elastic Constant Matrix: (Units=GPa)
#
#
# Indices 1 2 3 4 5 6 
#
# 1 59.8644 18.0532 27.9611 0.0000 0.0000 0.0000
# 2 18.0532 52.5551 9.7793 0.0000 0.0000 0.0000
# 3 27.9611 9.7793 51.9362 0.0000 0.0000 0.0000
# 4 0.0000 0.0000 0.0000 12.4636 0.0000 0.0000
# 5 0.0000 0.0000 0.0000 0.0000 11.3659 0.0000
# 6 0.0000 0.0000 0.0000 0.0000 0.0000 1.4846
#
#
#
# Elastic Compliance Matrix: (Units=1/GPa)
#
#
# Indices 1 2 3 4 5 6 
#
# 1 0.024047 -0.006064 -0.011804 0.000000 0.000000 0.000000
# 2 -0.006064 0.021248 -0.000736 0.000000 0.000000 0.000000
# 3 -0.011804 -0.000736 0.025748 0.000000 0.000000 0.000000
# 4 0.000000 0.000000 0.000000 0.080234 0.000000 0.000000
# 5 0.000000 0.000000 0.000000 0.000000 0.087982 0.000000
# 6 0.000000 0.000000 0.000000 0.000000 0.000000 0.673585
#
#
# Mechanical properties :
#
#
# Convention : Reuss Voigt Hill
#
# Bulk Modulus (GPa) = 29.55625 30.66031 30.10828
# Shear Modulus (GPa) = 5.20113 12.30029 8.75071
#
# Velocity S-wave (km/s) = 2.02132 3.10845 2.62185
# Velocity P-wave (km/s) = 5.35401 6.08016 5.72861
#
# Compressibility (1/GPa) = 0.03383379
#
# Stress axis : x y z
#
# Youngs Moduli (GPa) = 41.58609 47.06415 38.83782
#
# Poissons Ratio (x) = 0.28538 0.45845
# Poissons Ratio (y) = 0.25217 0.02859
# Poissons Ratio (z) = 0.49089 0.03465
#
# Static dielectric constant tensor:
#      x y z
#    x 1.395950 0.000000 0.000000 
#    y 0.000000 1.408620 0.000000 
#    z 0.000000 0.000000 1.450630 
# 
# From -- ./inp_files/11431.got.cif
#   From: 2010.05.17/outbox.cif.g08.bks.cpg/sg47_6_cif.got.tgz:11431.got - 2010.06.03 20:15:42.
