data_PCOD9382723
_publ_section_title
;
Structure prediction by ZEFSAII (Michael W. Deem and Ramdas Pophale) SiO2 
 PCOD9382723
Probable space group: P M M M
;
_chemical_formula_sum "Si O2"
_cell_formula_units_Z 60
_cell_length_a 7.659713
_cell_length_b 19.309027
_cell_length_c 22.636810
_cell_angle_alpha 90.000000
_cell_angle_beta 90.000000
_cell_angle_gamma 90.000000
_cell_volume 3348.020534
_symmetry_space_group_name_H-M "P M M M"
_symmetry_group_IT_number 47
_symmetry_cell_setting 'orthorhombic'
loop_
_space_group_symop_operation_xyz
x,y,z
-x,-y,z
x,-y,-z
-x,y,-z
-x,-y,-z
x,y,-z
-x,y,z
x,-y,z
loop_
_atom_site_type_symbol
_atom_site_label
_atom_site_fract_x
_atom_site_fract_y
_atom_site_fract_z
Si Si1 0.786754 0.000000 0.069068
Si Si2 0.713013 0.422706 0.646073
Si Si3 0.199797 0.866965 0.139952
Si Si4 0.205174 0.785504 0.324260
Si Si5 0.291501 0.077623 0.266439
Si Si6 0.790882 0.270120 0.802133
Si Si7 0.289844 0.577703 0.218017
Si Si8 0.705939 0.699771 0.434204
O O1 0.722700 0.071700 0.099345
O O2 0.000000 0.000000 0.076285
O O3 0.746791 0.000000 0.000000
O O4 0.500000 0.418661 0.647947
O O5 0.759763 0.500000 0.627696
O O6 0.771331 0.412899 0.713885
O O7 0.780889 0.366383 0.600563
O O8 0.202735 0.900095 0.205296
O O9 0.275499 0.789610 0.152559
O O10 0.000000 0.857008 0.119326
O O11 0.240086 0.865922 0.314158
O O12 0.277020 0.748002 0.264416
O O13 0.277260 0.760051 0.386217
O O14 0.000000 0.771556 0.325242
O O15 0.500000 0.080474 0.256931
O O16 0.241953 0.000000 0.282157
O O17 0.758177 0.351020 0.814952
O O18 0.000000 0.260293 0.800324
O O19 0.500000 0.575330 0.218578
O O20 0.230975 0.500000 0.198545
O O21 0.777134 0.711617 0.500000
O O22 0.500000 0.686659 0.440608
#
# Coordination Sequence:
#
# PCOD9382723 Si02
#       8
#     4   8   8   8   8   8   8   8
#     4   9  16  28  49  73 101 141 176 195 214 249
#     4   8  14  25  40  59  83 109 141 181 223 267
#     4   9  17  29  45  68  99 129 162 195 221 258
#     4  10  20  32  46  64  87 116 146 179 226 277
#     4  10  19  30  48  72  94 114 143 184 227 270
#     4   9  17  27  41  63  88 117 150 188 231 270
#     4   9  16  26  42  62  84 114 149 186 231 282
#     4  10  19  30  46  65  84 109 144 185 226 272
#
# _framework density 17.921036000000001
#
# number of rings (size 3 to 8) (size 9 to 14) (size 15 to 20)
#    0.000    2.733    2.000    2.400    0.000    3.733 
#    0.000    1.333    0.000    1.600    0.000    3.733 
#    0.000    0.533    0.000    6.667    0.000    1.067 
#
# Total GULP energy -334045.327816 kJ/mol
# GULP energy per Si atom -5567.422130 kJ/mol
# Density = 1.788025 g / cm^3
# Si number density = 17.921036 Si / 1000 Ang^3
#
#
#
# Elastic Constant Matrix: (Units=GPa)
#
#
# Indices 1 2 3 4 5 6 
#
# 1 32.5457 -6.3962 2.0102 0.0000 0.0000 0.0000
# 2 -6.3962 167.4630 64.2069 0.0000 0.0000 0.0000
# 3 2.0102 64.2069 65.0075 0.0000 0.0000 0.0000
# 4 0.0000 0.0000 0.0000 69.1042 0.0000 0.0000
# 5 0.0000 0.0000 0.0000 0.0000 -51.1795 0.0000
# 6 0.0000 0.0000 0.0000 0.0000 0.0000 9.4583
#
#
#
# Elastic Compliance Matrix: (Units=1/GPa)
#
#
# Indices 1 2 3 4 5 6 
#
# 1 0.031438 0.002533 -0.003473 0.000000 0.000000 0.000000
# 2 0.002533 0.009815 -0.009772 0.000000 0.000000 0.000000
# 3 -0.003473 -0.009772 0.025142 0.000000 0.000000 0.000000
# 4 0.000000 0.000000 0.000000 0.014471 0.000000 0.000000
# 5 0.000000 0.000000 0.000000 0.000000 -0.019539 0.000000
# 6 0.000000 0.000000 0.000000 0.000000 0.000000 0.105727
#
#
# Mechanical properties :
#
#
# Convention : Reuss Voigt Hill
#
# Bulk Modulus (GPa) = 22.23763 42.73977 32.48870
# Shear Modulus (GPa) = 24.57349 19.15628 21.86489
#
# Velocity S-wave (km/s) = 3.70700 3.27299 3.49674
# Velocity P-wave (km/s) = 5.54600 6.17932 5.87121
#
# Compressibility (1/GPa) = 0.04496881
#
# Stress axis : x y z
#
# Youngs Moduli (GPa) = 31.80840 101.88419 39.77348
#
# Poissons Ratio (x) = -0.25803 0.13815
# Poissons Ratio (y) = -0.08056 0.38869
# Poissons Ratio (z) = 0.11049 0.99566
#
# Static dielectric constant tensor:
#      x y z
#    x 1.685330 0.000000 0.000000 
#    y 0.000000 1.672670 0.000000 
#    z 0.000000 0.000000 1.585970 
# 
# From -- ./inp_files/32222.got.cif
#   From: 2010.05.17/outbox.cif.g08.bks.cpg/sg47_17_cif.got.tgz:32222.got - 2010.06.03 20:15:42.
