data_PCOD9382526
_publ_section_title
;
Structure prediction by ZEFSAII (Michael W. Deem and Ramdas Pophale) SiO2 
 PCOD9382526
Probable space group: P M M M
;
_chemical_formula_sum "Si O2"
_cell_formula_units_Z 56
_cell_length_a 19.542360
_cell_length_b 19.675652
_cell_length_c 7.701173
_cell_angle_alpha 90.000000
_cell_angle_beta 90.000000
_cell_angle_gamma 90.000000
_cell_volume 2961.167823
_symmetry_space_group_name_H-M "P M M M"
_symmetry_group_IT_number 47
_symmetry_cell_setting 'orthorhombic'
loop_
_space_group_symop_operation_xyz
x,y,z
-x,-y,z
x,-y,-z
-x,y,-z
-x,-y,-z
x,y,-z
-x,y,z
x,-y,z
loop_
_atom_site_type_symbol
_atom_site_label
_atom_site_fract_x
_atom_site_fract_y
_atom_site_fract_z
Si Si1 0.845718 0.786911 0.206310
Si Si2 0.921766 0.076813 0.291045
Si Si3 0.207865 0.576318 0.709492
Si Si4 0.582874 0.072189 0.204671
Si Si5 0.075311 0.654421 0.705688
Si Si6 0.287818 0.708886 0.792145
Si Si7 0.578311 0.778892 0.786671
O O1 0.869814 0.863220 0.243857
O O2 0.900773 0.732301 0.274114
O O3 0.771853 0.760305 0.273322
O O4 0.844232 0.779176 0.000000
O O5 0.923911 0.074976 0.500000
O O6 0.000000 0.091808 0.231094
O O7 0.903979 0.000000 0.231336
O O8 0.204026 0.574028 0.500000
O O9 0.220415 0.500000 0.772498
O O10 0.135817 0.606955 0.776435
O O11 0.263991 0.632708 0.753773
O O12 0.500000 0.072012 0.213263
O O13 0.602161 0.145856 0.273391
O O14 0.606868 0.000000 0.280550
O O15 0.600897 0.071539 0.000000
O O16 0.071759 0.640718 0.500000
O O17 0.000000 0.643757 0.780521
O O18 0.363408 0.727219 0.728611
O O19 0.289705 0.716927 0.000000
O O20 0.500000 0.766232 0.731014
O O21 0.576294 0.780474 0.000000
#
# Coordination Sequence:
#
# PCOD9382526 Si02
#       7
#     8   8   8   8   8   8   8
#     4  10  19  29  42  63  93 123 148 179 222 271
#     4   9  18  32  48  64  83 113 157 203 236 260
#     4   9  18  32  49  68  89 115 146 177 213 261
#     4   7   9  14  27  50  79 107 133 163 202 245
#     4   9  17  29  46  67  89 114 145 181 218 255
#     4   9  18  31  46  67  93 118 145 178 219 266
#     4   8  13  23  41  63  86 114 149 186 219 253
#
# _framework density 18.911456999999999
#
# number of rings (size 3 to 8) (size 9 to 14) (size 15 to 20)
#    0.000    3.286    0.000    2.571    0.000    3.714 
#    0.000    2.857    0.000    3.429    0.000    7.000 
#    0.000    0.000    0.000    5.143    0.000    4.000 
#
# Total GULP energy -311799.199837 kJ/mol
# GULP energy per Si atom -5567.842854 kJ/mol
# Density = 1.886841 g / cm^3
# Si number density = 18.911457 Si / 1000 Ang^3
#
#
#
# Elastic Constant Matrix: (Units=GPa)
#
#
# Indices 1 2 3 4 5 6 
#
# 1 121.0771 93.6367 5.7875 0.0000 0.0000 0.0000
# 2 93.6367 154.3447 -4.0895 0.0000 0.0000 0.0000
# 3 5.7875 -4.0895 27.9420 0.0000 0.0000 0.0000
# 4 0.0000 0.0000 0.0000 6.2579 0.0000 0.0000
# 5 0.0000 0.0000 0.0000 0.0000 16.6872 0.0000
# 6 0.0000 0.0000 0.0000 0.0000 0.0000 12.3058
#
#
#
# Elastic Compliance Matrix: (Units=1/GPa)
#
#
# Indices 1 2 3 4 5 6 
#
# 1 0.016178 -0.009942 -0.004806 0.000000 0.000000 0.000000
# 2 -0.009942 0.012614 0.003905 0.000000 0.000000 0.000000
# 3 -0.004806 0.003905 0.037355 0.000000 0.000000 0.000000
# 4 0.000000 0.000000 0.000000 0.159799 0.000000 0.000000
# 5 0.000000 0.000000 0.000000 0.000000 0.059926 0.000000
# 6 0.000000 0.000000 0.000000 0.000000 0.000000 0.081262
#
#
# Mechanical properties :
#
#
# Convention : Reuss Voigt Hill
#
# Bulk Modulus (GPa) = 22.49103 54.89259 38.69181
# Shear Modulus (GPa) = 12.38728 20.91879 16.65303
#
# Velocity S-wave (km/s) = 2.56210 3.32948 2.97067
# Velocity P-wave (km/s) = 4.54655 6.62342 5.68071
#
# Compressibility (1/GPa) = 0.04446218
#
# Stress axis : x y z
#
# Youngs Moduli (GPa) = 61.81392 79.27752 26.76991
#
# Poissons Ratio (x) = 0.78816 0.12865
# Poissons Ratio (y) = 0.61454 -0.10455
# Poissons Ratio (z) = 0.29707 -0.30961
#
# Static dielectric constant tensor:
#      x y z
#    x 1.662940 0.000000 0.000000 
#    y 0.000000 1.670740 0.000000 
#    z 0.000000 0.000000 1.720470 
# 
# From -- ./inp_files/11511.got.cif
#   From: 2010.05.17/outbox.cif.g08.bks.cpg/sg47_6_cif.got.tgz:11511.got - 2010.06.03 20:15:42.
