data_PCOD9382576
_publ_section_title
;
Structure prediction by ZEFSAII (Michael W. Deem and Ramdas Pophale) SiO2 
 PCOD9382576
Probable space group: P M M M
;
_chemical_formula_sum "Si O2"
_cell_formula_units_Z 52
_cell_length_a 15.509894
_cell_length_b 22.864218
_cell_length_c 9.350445
_cell_angle_alpha 90.000000
_cell_angle_beta 90.000000
_cell_angle_gamma 90.000000
_cell_volume 3315.869744
_symmetry_space_group_name_H-M "P M M M"
_symmetry_group_IT_number 47
_symmetry_cell_setting 'orthorhombic'
loop_
_space_group_symop_operation_xyz
x,y,z
-x,-y,z
x,-y,-z
-x,y,-z
-x,-y,-z
x,y,-z
-x,y,z
x,-y,z
loop_
_atom_site_type_symbol
_atom_site_label
_atom_site_fract_x
_atom_site_fract_y
_atom_site_fract_z
Si Si1 0.768282 0.233182 0.829440
Si Si2 0.103032 0.318295 0.330429
Si Si3 0.895428 0.565551 0.165129
Si Si4 0.594941 0.090511 0.665935
Si Si5 0.902261 0.000000 0.174133
Si Si6 0.234682 0.094923 0.170599
Si Si7 0.596549 0.767403 0.665999
O O1 0.842755 0.269455 0.752052
O O2 0.778017 0.163717 0.799228
O O3 0.675303 0.251448 0.765384
O O4 0.770985 0.241460 0.000000
O O5 0.118068 0.315402 0.500000
O O6 0.129968 0.381540 0.267451
O O7 0.000000 0.311366 0.305699
O O8 0.866437 0.500000 0.206059
O O9 0.000000 0.564356 0.166594
O O10 0.869714 0.576587 0.000000
O O11 0.603529 0.073390 0.500000
O O12 0.500000 0.071455 0.717261
O O13 0.677922 0.072839 0.755385
O O14 0.594762 0.161597 0.670078
O O15 0.846877 0.943420 0.216850
O O16 0.000000 0.000000 0.226995
O O17 0.905687 0.000000 0.000000
O O18 0.244584 0.088798 0.000000
O O19 0.611569 0.751022 0.500000
O O20 0.500000 0.747707 0.707847
#
# Coordination Sequence:
#
# PCOD9382576 Si02
#       7
#     8   8   8   8   4   8   8
#     4  10  19  29  44  67  92 116 145 185 230 273
#     4  10  20  31  43  62  90 124 158 189 222 263
#     4   8  14  26  44  64  87 117 151 186 224 263
#     4   8  14  26  45  67  90 115 137 161 205 264
#     4   9  18  34  52  65  80 106 145 191 232 271
#     4   9  18  31  48  68  85 108 144 184 226 268
#     4   8  14  26  44  64  87 116 146 175 213 264
#
# _framework density 15.682161000000001
#
# number of rings (size 3 to 8) (size 9 to 14) (size 15 to 20)
#    0.000    3.154    0.000    2.308    0.000    3.077 
#    0.000    6.923    0.000    3.231    0.000    0.000 
#    0.000    0.615    0.000    6.462    0.000    3.385 
#
# Total GULP energy -289558.899274 kJ/mol
# GULP energy per Si atom -5568.440371 kJ/mol
# Density = 1.564647 g / cm^3
# Si number density = 15.682161 Si / 1000 Ang^3
#
#
#
# Elastic Constant Matrix: (Units=GPa)
#
#
# Indices 1 2 3 4 5 6 
#
# 1 121.0989 56.7336 61.6372 0.0000 0.0000 0.0000
# 2 56.7336 73.7350 53.0190 0.0000 0.0000 0.0000
# 3 61.6372 53.0190 64.8656 0.0000 0.0000 0.0000
# 4 0.0000 0.0000 0.0000 7.8036 0.0000 0.0000
# 5 0.0000 0.0000 0.0000 0.0000 27.3653 0.0000
# 6 0.0000 0.0000 0.0000 0.0000 0.0000 -6.9352
#
#
#
# Elastic Compliance Matrix: (Units=1/GPa)
#
#
# Indices 1 2 3 4 5 6 
#
# 1 0.016339 -0.003415 -0.012735 0.000000 0.000000 0.000000
# 2 -0.003415 0.033610 -0.024226 0.000000 0.000000 0.000000
# 3 -0.012735 -0.024226 0.047319 0.000000 0.000000 0.000000
# 4 0.000000 0.000000 0.000000 0.128145 0.000000 0.000000
# 5 0.000000 0.000000 0.000000 0.000000 0.036543 0.000000
# 6 0.000000 0.000000 0.000000 0.000000 0.000000 -0.144192
#
#
# Mechanical properties :
#
#
# Convention : Reuss Voigt Hill
#
# Bulk Modulus (GPa) = 60.54765 66.94213 63.74489
# Shear Modulus (GPa) = 24.50710 11.53405 18.02057
#
# Velocity S-wave (km/s) = 3.95744 2.71493 3.39353
# Velocity P-wave (km/s) = 7.71847 7.25309 7.48940
#
# Compressibility (1/GPa) = 0.01651592
#
# Stress axis : x y z
#
# Youngs Moduli (GPa) = 61.20153 29.75347 21.13296
#
# Poissons Ratio (x) = 0.10161 0.26913
# Poissons Ratio (y) = 0.20900 0.51197
# Poissons Ratio (z) = 0.77940 0.72082
#
# Static dielectric constant tensor:
#      x y z
#    x 1.520890 0.000000 0.000000 
#    y 0.000000 1.532870 0.000000 
#    z 0.000000 0.000000 1.518260 
# 
# From -- ./inp_files/7574.got.cif
#   From: 2010.05.17/outbox.cif.g08.bks.cpg/sg47_4_cif.got.tgz:7574.got - 2010.06.03 20:15:42.
