data_PCOD9382603
_publ_section_title
;
Structure prediction by ZEFSAII (Michael W. Deem and Ramdas Pophale) SiO2 
 PCOD9382603
Probable space group: P M M M
;
_chemical_formula_sum "Si O2"
_cell_formula_units_Z 64
_cell_length_a 8.990912
_cell_length_b 19.344311
_cell_length_c 24.108673
_cell_angle_alpha 90.000000
_cell_angle_beta 90.000000
_cell_angle_gamma 90.000000
_cell_volume 4193.052684
_symmetry_space_group_name_H-M "P M M M"
_symmetry_group_IT_number 47
_symmetry_cell_setting 'orthorhombic'
loop_
_space_group_symop_operation_xyz
x,y,z
-x,-y,z
x,-y,-z
-x,y,-z
-x,-y,-z
x,y,-z
-x,y,z
x,-y,z
loop_
_atom_site_type_symbol
_atom_site_label
_atom_site_fract_x
_atom_site_fract_y
_atom_site_fract_z
Si Si1 0.175902 0.209356 0.272575
Si Si2 0.675699 0.921731 0.233463
Si Si3 0.176936 0.701179 0.161278
Si Si4 0.177228 0.079029 0.887727
Si Si5 0.677041 0.213001 0.063849
Si Si6 0.821838 0.652851 0.667161
Si Si7 0.322229 0.419206 0.773129
Si Si8 0.678078 0.418869 0.564290
O O1 0.266333 0.138667 0.273001
O O2 0.202483 0.246505 0.213051
O O3 0.215524 0.267661 0.317675
O O4 0.000000 0.194870 0.276436
O O5 0.500000 0.913675 0.223117
O O6 0.761929 0.914958 0.175043
O O7 0.701704 0.000000 0.254037
O O8 0.247395 0.734698 0.106907
O O9 0.251540 0.629594 0.179946
O O10 0.000000 0.693065 0.155388
O O11 0.256997 0.137164 0.923671
O O12 0.000000 0.090591 0.887736
O O13 0.205925 0.000000 0.906193
O O14 0.500000 0.211977 0.073018
O O15 0.706138 0.231629 0.000000
O O16 0.746914 0.606178 0.714909
O O17 0.763358 0.627849 0.608131
O O18 0.000000 0.646029 0.671407
O O19 0.500000 0.409571 0.771534
O O20 0.290556 0.500000 0.781664
O O21 0.713862 0.403813 0.500000
O O22 0.500000 0.410923 0.571232
O O23 0.712439 0.500000 0.574377
#
# Coordination Sequence:
#
# PCOD9382603 Si02
#       8
#     8   8   8   8   8   8   8   8
#     4   9  18  31  46  67  94 124 156 192 237 284
#     4  10  19  29  45  69  94 122 156 193 234 282
#     4  10  20  34  52  72  94 120 152 191 235 285
#     4  10  20  33  49  68  92 123 156 191 232 278
#     4  11  23  36  51  70  92 120 154 193 235 282
#     4  10  20  31  46  71 101 130 165 206 240 276
#     4  10  20  33  51  74  99 127 156 190 236 286
#     4   9  18  32  48  67  96 135 174 207 240 282
#
# _framework density 15.263342
#
# number of rings (size 3 to 8) (size 9 to 14) (size 15 to 20)
#    0.000    2.125    1.250    3.750    0.000    8.250 
#    0.000    1.875    0.000    0.375    0.000    2.625 
#    0.000    0.500    0.000    5.500    0.000    4.000 
#
# Total GULP energy -357116.535778 kJ/mol
# GULP energy per Si atom -5579.945872 kJ/mol
# Density = 1.522860 g / cm^3
# Si number density = 15.263342 Si / 1000 Ang^3
#
#
#
# Elastic Constant Matrix: (Units=GPa)
#
#
# Indices 1 2 3 4 5 6 
#
# 1 65.3521 60.8895 47.3600 0.0000 0.0000 0.0000
# 2 60.8895 104.4099 56.1931 0.0000 0.0000 0.0000
# 3 47.3600 56.1931 84.6090 0.0000 0.0000 0.0000
# 4 0.0000 0.0000 0.0000 25.5580 0.0000 0.0000
# 5 0.0000 0.0000 0.0000 0.0000 14.2847 0.0000
# 6 0.0000 0.0000 0.0000 0.0000 0.0000 28.2360
#
#
#
# Elastic Compliance Matrix: (Units=1/GPa)
#
#
# Indices 1 2 3 4 5 6 
#
# 1 0.038569 -0.016922 -0.010350 0.000000 0.000000 0.000000
# 2 -0.016922 0.022330 -0.005358 0.000000 0.000000 0.000000
# 3 -0.010350 -0.005358 0.021171 0.000000 0.000000 0.000000
# 4 0.000000 0.000000 0.000000 0.039127 0.000000 0.000000
# 5 0.000000 0.000000 0.000000 0.000000 0.070005 0.000000
# 6 0.000000 0.000000 0.000000 0.000000 0.000000 0.035416
#
#
# Mechanical properties :
#
#
# Convention : Reuss Voigt Hill
#
# Bulk Modulus (GPa) = 59.49166 64.80626 62.14896
# Shear Modulus (GPa) = 16.80769 19.61097 18.20933
#
# Velocity S-wave (km/s) = 3.32200 3.58836 3.45775
# Velocity P-wave (km/s) = 7.33319 7.72783 7.53310
#
# Compressibility (1/GPa) = 0.01680908
#
# Stress axis : x y z
#
# Youngs Moduli (GPa) = 25.92745 44.78261 47.23357
#
# Poissons Ratio (x) = 0.75782 0.48888
# Poissons Ratio (y) = 0.43875 0.25309
# Poissons Ratio (z) = 0.26836 0.23996
#
# Static dielectric constant tensor:
#      x y z
#    x 1.506830 0.000000 0.000000 
#    y 0.000000 1.512140 0.000000 
#    z 0.000000 0.000000 1.483940 
# 
# From -- ./inp_files/10206.got.cif
#   From: 2010.05.17/outbox.cif.g08.bks.cpg/sg47_6_cif.got.tgz:10206.got - 2010.06.03 20:15:42.
