data_PCOD9382445
_publ_section_title
;
Structure prediction by ZEFSAII (Michael W. Deem and Ramdas Pophale) SiO2 
 PCOD9382445
Probable space group: P M M M
;
_chemical_formula_sum "Si O2"
_cell_formula_units_Z 48
_cell_length_a 24.688712
_cell_length_b 8.868701
_cell_length_c 13.975494
_cell_angle_alpha 90.000000
_cell_angle_beta 90.000000
_cell_angle_gamma 90.000000
_cell_volume 3060.029512
_symmetry_space_group_name_H-M "P M M M"
_symmetry_group_IT_number 47
_symmetry_cell_setting 'orthorhombic'
loop_
_space_group_symop_operation_xyz
x,y,z
-x,-y,z
x,-y,-z
-x,y,-z
-x,-y,-z
x,y,-z
-x,y,z
x,-y,z
loop_
_atom_site_type_symbol
_atom_site_label
_atom_site_fract_x
_atom_site_fract_y
_atom_site_fract_z
Si Si1 0.059595 0.677147 0.384126
Si Si2 0.667744 0.180295 0.109151
Si Si3 0.276428 0.319276 0.709540
Si Si4 0.828073 0.179617 0.387196
Si Si5 0.387162 0.682745 0.606382
Si Si6 0.438705 0.317651 0.804415
O O1 0.058679 0.687915 0.500000
O O2 0.065037 0.500000 0.360755
O O3 0.112795 0.765818 0.352741
O O4 0.000000 0.729616 0.350541
O O5 0.706992 0.254320 0.187416
O O6 0.607687 0.242100 0.132464
O O7 0.668307 0.000000 0.120348
O O8 0.682210 0.217745 0.000000
O O9 0.274866 0.500000 0.713675
O O10 0.220410 0.255840 0.670309
O O11 0.326191 0.276132 0.638683
O O12 0.822968 0.221009 0.500000
O O13 0.824374 0.000000 0.379892
O O14 0.400002 0.739355 0.500000
O O15 0.389135 0.500000 0.602860
O O16 0.426018 0.726560 0.693994
O O17 0.500000 0.277742 0.830574
O O18 0.433110 0.500000 0.810669
#
# Coordination Sequence:
#
# PCOD9382445 Si02
#       6
#     8   8   8   8   8   8
#     4   8  14  25  40  58  84 122 166 204 232 260
#     4  10  21  36  52  68  87 112 142 181 233 287
#     4  10  19  31  48  68  90 116 150 190 228 272
#     4  10  19  28  41  65  97 130 160 191 228 268
#     4   8  14  25  42  64  88 114 144 178 215 253
#     4   9  18  31  47  69  93 116 146 182 218 262
#
# _framework density 15.686123
#
# number of rings (size 3 to 8) (size 9 to 14) (size 15 to 20)
#    0.000    2.833    0.000    3.500    0.000    4.333 
#    0.000    5.000    0.000    4.500    0.000    4.667 
#    0.000    0.667    0.000    7.000    0.000    3.333 
#
# Total GULP energy -267440.567614 kJ/mol
# GULP energy per Si atom -5571.678492 kJ/mol
# Density = 1.565042 g / cm^3
# Si number density = 15.686123 Si / 1000 Ang^3
#
#
#
# Elastic Constant Matrix: (Units=GPa)
#
#
# Indices 1 2 3 4 5 6 
#
# 1 110.4207 40.6381 26.0701 0.0000 0.0000 0.0000
# 2 40.6381 35.2581 25.9907 0.0000 0.0000 0.0000
# 3 26.0701 25.9907 59.5847 0.0000 0.0000 0.0000
# 4 0.0000 0.0000 0.0000 18.2274 0.0000 0.0000
# 5 0.0000 0.0000 0.0000 0.0000 10.1897 0.0000
# 6 0.0000 0.0000 0.0000 0.0000 0.0000 13.8102
#
#
#
# Elastic Compliance Matrix: (Units=1/GPa)
#
#
# Indices 1 2 3 4 5 6 
#
# 1 0.015821 -0.019356 0.001521 0.000000 0.000000 0.000000
# 2 -0.019356 0.065485 -0.020096 0.000000 0.000000 0.000000
# 3 0.001521 -0.020096 0.024883 0.000000 0.000000 0.000000
# 4 0.000000 0.000000 0.000000 0.054862 0.000000 0.000000
# 5 0.000000 0.000000 0.000000 0.000000 0.098139 0.000000
# 6 0.000000 0.000000 0.000000 0.000000 0.000000 0.072410
#
#
# Mechanical properties :
#
#
# Convention : Reuss Voigt Hill
#
# Bulk Modulus (GPa) = 32.97313 43.40683 38.18998
# Shear Modulus (GPa) = 11.97400 15.94975 13.96188
#
# Velocity S-wave (km/s) = 2.76588 3.19220 2.98665
# Velocity P-wave (km/s) = 5.59163 6.42799 6.02434
#
# Compressibility (1/GPa) = 0.03032773
#
# Stress axis : x y z
#
# Youngs Moduli (GPa) = 63.20805 15.27059 40.18806
#
# Poissons Ratio (x) = 0.29558 -0.06112
# Poissons Ratio (y) = 1.22346 0.80760
# Poissons Ratio (z) = -0.09614 0.30687
#
# Static dielectric constant tensor:
#      x y z
#    x 1.523610 0.000000 0.000000 
#    y 0.000000 1.525570 0.000000 
#    z 0.000000 0.000000 1.516020 
# 
# From -- ./inp_files/7477.got.cif
#   From: 2010.05.17/outbox.cif.g08.bks.cpg/sg47_4_cif.got.tgz:7477.got - 2010.06.03 20:15:42.
