data_PCOD9382499
_publ_section_title
;
Structure prediction by ZEFSAII (Michael W. Deem and Ramdas Pophale) SiO2 
 PCOD9382499
Probable space group: P M M M
;
_chemical_formula_sum "Si O2"
_cell_formula_units_Z 52
_cell_length_a 8.490053
_cell_length_b 29.655570
_cell_length_c 15.935799
_cell_angle_alpha 90.000000
_cell_angle_beta 90.000000
_cell_angle_gamma 90.000000
_cell_volume 4012.273418
_symmetry_space_group_name_H-M "P M M M"
_symmetry_group_IT_number 47
_symmetry_cell_setting 'orthorhombic'
loop_
_space_group_symop_operation_xyz
x,y,z
-x,-y,z
x,-y,-z
-x,y,-z
-x,-y,-z
x,y,-z
-x,y,z
x,-y,z
loop_
_atom_site_type_symbol
_atom_site_label
_atom_site_fract_x
_atom_site_fract_y
_atom_site_fract_z
Si Si1 0.313470 0.105504 0.661059
Si Si2 0.188053 0.947723 0.820312
Si Si3 0.682053 0.945381 0.000000
Si Si4 0.688032 0.707450 0.596849
Si Si5 0.000000 0.447701 0.398013
Si Si6 0.811286 0.948231 0.500000
Si Si7 0.317245 0.605757 0.602512
Si Si8 0.812449 0.198192 0.401989
O O1 0.500000 0.103368 0.657399
O O2 0.255318 0.082996 0.746815
O O3 0.245150 0.077517 0.582676
O O4 0.259084 0.156932 0.649098
O O5 0.000000 0.947911 0.814964
O O6 0.242695 0.000000 0.809800
O O7 0.238165 0.931496 0.912886
O O8 0.500000 0.932000 0.000000
O O9 0.690634 0.000000 0.000000
O O10 0.744060 0.705464 0.500000
O O11 0.500000 0.713946 0.596548
O O12 0.715131 0.657313 0.631531
O O13 0.765440 0.752540 0.632338
O O14 0.165998 0.424228 0.371954
O O15 0.000000 0.500000 0.372798
O O16 0.000000 0.445899 0.500000
O O17 0.000000 0.948252 0.500000
O O18 0.755510 0.000000 0.500000
O O19 0.319864 0.605946 0.500000
O O20 0.500000 0.593473 0.626769
O O21 0.757438 0.194954 0.500000
O O22 0.000000 0.193917 0.402534
#
# Coordination Sequence:
#
# PCOD9382499 Si02
#       8
#     8   8   4   8   4   4   8   8
#     4  12  23  33  46  62  83 106 131 162 193 232
#     4  10  20  34  51  68  86 107 129 155 190 231
#     4   9  17  31  51  73  91 103 123 155 187 225
#     4   8  14  24  37  51  66  85 114 150 187 223
#     4   9  16  22  30  44  62  84 110 140 178 229
#     4  11  23  37  49  59  77 105 135 163 189 228
#     4   8  14  23  33  45  62  82 108 144 180 223
#     4  10  19  29  42  57  75  99 126 157 193 232
#
# _framework density 12.960234
#
# number of rings (size 3 to 8) (size 9 to 14) (size 15 to 20)
#    0.000    2.385    0.769    4.154    1.077    5.231 
#    0.000    1.538    0.000    0.000    0.000    0.000 
#    0.000    0.000    0.000    0.000    0.000    0.000 
#
# Total GULP energy -289581.328217 kJ/mol
# GULP energy per Si atom -5568.871696 kJ/mol
# Density = 1.293074 g / cm^3
# Si number density = 12.960234 Si / 1000 Ang^3
#
#
#
# Elastic Constant Matrix: (Units=GPa)
#
#
# Indices 1 2 3 4 5 6 
#
# 1 75.9757 55.1990 26.4043 0.0000 0.0000 0.0000
# 2 55.1990 90.8299 32.4079 0.0000 0.0000 0.0000
# 3 26.4043 32.4079 49.9108 0.0000 0.0000 0.0000
# 4 0.0000 0.0000 0.0000 -0.0612 0.0000 0.0000
# 5 0.0000 0.0000 0.0000 0.0000 15.7601 0.0000
# 6 0.0000 0.0000 0.0000 0.0000 0.0000 17.8090
#
#
#
# Elastic Compliance Matrix: (Units=1/GPa)
#
#
# Indices 1 2 3 4 5 6 
#
# 1 0.024239 -0.013217 -0.004241 0.000000 0.000000 0.000000
# 2 -0.013217 0.021537 -0.006992 0.000000 0.000000 0.000000
# 3 -0.004241 -0.006992 0.026819 0.000000 0.000000 0.000000
# 4 0.000000 0.000000 0.000000-16.334301 0.000000 0.000000
# 5 0.000000 0.000000 0.000000 0.000000 0.063451 0.000000
# 6 0.000000 0.000000 0.000000 0.000000 0.000000 0.056151
#
#
# Mechanical properties :
#
#
# Convention : Reuss Voigt Hill
#
# Bulk Modulus (GPa) = 42.20336 49.41542 45.80939
# Shear Modulus (GPa) = -0.31084 13.54859 6.61888
#
# Velocity S-wave (km/s) = -0.49027 3.23677 2.26233
# Velocity P-wave (km/s) = 5.68454 7.22358 6.49977
#
# Compressibility (1/GPa) = 0.02369480
#
# Stress axis : x y z
#
# Youngs Moduli (GPa) = 41.25637 46.43279 37.28681
#
# Poissons Ratio (x) = 0.61371 0.15813
# Poissons Ratio (y) = 0.54529 0.26070
# Poissons Ratio (z) = 0.17496 0.32465
#
# Static dielectric constant tensor:
#      x y z
#    x 1.441400 0.000000 0.000000 
#    y 0.000000 1.440250 0.000000 
#    z 0.000000 0.000000 1.382360 
# 
# From -- ./inp_files/22043.got.cif
#   From: 2010.05.17/outbox.cif.g08.bks.cpg/sg47_12_cif.got.tgz:22043.got - 2010.06.03 20:15:42.
