data_PCOD9382231
_publ_section_title
;
Structure prediction by ZEFSAII (Michael W. Deem and Ramdas Pophale) SiO2 
 PCOD9382231
Probable space group: P M M M
;
_chemical_formula_sum "Si O2"
_cell_formula_units_Z 32
_cell_length_a 14.826179
_cell_length_b 8.955955
_cell_length_c 12.642726
_cell_angle_alpha 90.000000
_cell_angle_beta 90.000000
_cell_angle_gamma 90.000000
_cell_volume 1678.733928
_symmetry_space_group_name_H-M "P M M M"
_symmetry_group_IT_number 47
_symmetry_cell_setting 'orthorhombic'
loop_
_space_group_symop_operation_xyz
x,y,z
-x,-y,z
x,-y,-z
-x,y,-z
-x,-y,-z
x,y,-z
-x,y,z
x,-y,z
loop_
_atom_site_type_symbol
_atom_site_label
_atom_site_fract_x
_atom_site_fract_y
_atom_site_fract_z
Si Si1 0.644253 0.175170 0.232923
Si Si2 0.000000 0.321065 0.624443
Si Si3 0.859051 0.178018 0.779247
Si Si4 0.500000 0.677647 0.620288
Si Si5 0.856301 0.323132 0.000000
Si Si6 0.338185 0.822364 0.000000
O O1 0.751682 0.204511 0.234872
O O2 0.587111 0.266998 0.315814
O O3 0.613728 0.202741 0.111415
O O4 0.630621 0.000000 0.254545
O O5 0.914323 0.251547 0.684561
O O6 0.000000 0.500000 0.636222
O O7 0.000000 0.285326 0.500000
O O8 0.873201 0.000000 0.782562
O O9 0.889413 0.249384 0.890968
O O10 0.500000 0.500000 0.617661
O O11 0.500000 0.734926 0.500000
O O12 0.749937 0.281108 0.000000
O O13 0.871369 0.500000 0.000000
O O14 0.309636 0.000000 0.000000
#
# Coordination Sequence:
#
# PCOD9382231 Si02
#       6
#     8   4   8   4   4   4
#     4   9  19  37  61  85 111 145 184 229 279 333
#     4  11  25  42  59  84 117 151 191 239 288 339
#     4  10  21  39  62  87 116 151 191 234 282 338
#     4  11  25  40  53  76 112 151 192 237 282 331
#     4  10  18  31  56  89 121 150 183 227 284 343
#     4   8  16  33  56  85 116 144 179 225 281 341
#
# _framework density 19.061985
#
# number of rings (size 3 to 8) (size 9 to 14) (size 15 to 20)
#    0.000    2.250    0.000    4.125    0.000    9.000 
#    0.000   10.000    0.000    0.000    0.000    0.000 
#    0.000    0.000    0.000    0.000    0.000    0.000 
#
# Total GULP energy -178648.215665 kJ/mol
# GULP energy per Si atom -5582.756740 kJ/mol
# Density = 1.901860 g / cm^3
# Si number density = 19.061985 Si / 1000 Ang^3
#
#
#
# Elastic Constant Matrix: (Units=GPa)
#
#
# Indices 1 2 3 4 5 6 
#
# 1 84.6209 53.2941 73.6915 0.0000 0.0000 0.0000
# 2 53.2941 94.8819 95.0166 0.0000 0.0000 0.0000
# 3 73.6915 95.0166 202.6233 0.0000 0.0000 0.0000
# 4 0.0000 0.0000 0.0000 32.7133 0.0000 0.0000
# 5 0.0000 0.0000 0.0000 0.0000 25.9631 0.0000
# 6 0.0000 0.0000 0.0000 0.0000 0.0000 23.6472
#
#
#
# Elastic Compliance Matrix: (Units=1/GPa)
#
#
# Indices 1 2 3 4 5 6 
#
# 1 0.019668 -0.007323 -0.003719 0.000000 0.000000 0.000000
# 2 -0.007323 0.022597 -0.007933 0.000000 0.000000 0.000000
# 3 -0.003719 -0.007933 0.010008 0.000000 0.000000 0.000000
# 4 0.000000 0.000000 0.000000 0.030569 0.000000 0.000000
# 5 0.000000 0.000000 0.000000 0.000000 0.038516 0.000000
# 6 0.000000 0.000000 0.000000 0.000000 0.000000 0.042288
#
#
# Mechanical properties :
#
#
# Convention : Reuss Voigt Hill
#
# Bulk Modulus (GPa) = 69.81948 91.79228 80.80588
# Shear Modulus (GPa) = 24.22814 27.13964 25.68389
#
# Velocity S-wave (km/s) = 3.56900 3.77736 3.67466
# Velocity P-wave (km/s) = 7.32740 8.20267 7.77736
#
# Compressibility (1/GPa) = 0.01432265
#
# Stress axis : x y z
#
# Youngs Moduli (GPa) = 50.84358 44.25314 99.92011
#
# Poissons Ratio (x) = 0.32407 0.37161
# Poissons Ratio (y) = 0.37233 0.79269
# Poissons Ratio (z) = 0.18909 0.35107
#
# Static dielectric constant tensor:
#      x y z
#    x 1.695540 0.000000 0.000000 
#    y 0.000000 1.630910 0.000000 
#    z 0.000000 0.000000 1.658030 
# 
# From -- ./inp_files/14727.got.cif
#   From: 2010.05.17/outbox.cif.g08.bks.cpg/sg47_8_cif.got.tgz:14727.got - 2010.06.03 20:15:42.
