data_PCOD9382791
_publ_section_title
;
Structure prediction by ZEFSAII (Michael W. Deem and Ramdas Pophale) SiO2 
 PCOD9382791
Probable space group: P M M M
;
_chemical_formula_sum "Si O2"
_cell_formula_units_Z 64
_cell_length_a 23.922661
_cell_length_b 8.271440
_cell_length_c 18.979149
_cell_angle_alpha 90.000000
_cell_angle_beta 90.000000
_cell_angle_gamma 90.000000
_cell_volume 3755.496358
_symmetry_space_group_name_H-M "P M M M"
_symmetry_group_IT_number 47
_symmetry_cell_setting 'orthorhombic'
loop_
_space_group_symop_operation_xyz
x,y,z
-x,-y,z
x,-y,-z
-x,y,-z
-x,-y,-z
x,y,-z
-x,y,z
x,-y,z
loop_
_atom_site_type_symbol
_atom_site_label
_atom_site_fract_x
_atom_site_fract_y
_atom_site_fract_z
Si Si1 0.329292 0.692368 0.844029
Si Si2 0.249412 0.305546 0.285898
Si Si3 0.767506 0.185138 0.919628
Si Si4 0.437446 0.309833 0.380404
Si Si5 0.934460 0.696975 0.920408
Si Si6 0.152916 0.314858 0.808577
Si Si7 0.315334 0.807483 0.577647
Si Si8 0.563058 0.189264 0.777681
O O1 0.325319 0.500000 0.851810
O O2 0.295161 0.742460 0.773115
O O3 0.297477 0.781221 0.906641
O O4 0.392066 0.745200 0.831651
O O5 0.245968 0.500000 0.284400
O O6 0.188252 0.245354 0.258060
O O7 0.275174 0.256145 0.360501
O O8 0.800150 0.307534 0.869655
O O9 0.780840 0.000000 0.899465
O O10 0.782567 0.209727 0.000000
O O11 0.500000 0.247296 0.401068
O O12 0.436530 0.500000 0.396475
O O13 0.380892 0.234759 0.411083
O O14 0.432791 0.283139 0.296337
O O15 0.929244 0.500000 0.920417
O O16 0.899067 0.758113 0.852939
O O17 0.000000 0.735221 0.913012
O O18 0.916970 0.750657 0.000000
O O19 0.138005 0.500000 0.790808
O O20 0.298965 0.746270 0.500000
O O21 0.310905 0.000000 0.578815
O O22 0.500000 0.206557 0.803688
O O23 0.573451 0.000000 0.762452
#
# Coordination Sequence:
#
# PCOD9382791 Si02
#       8
#     8   8   8   8   8   8   8   8
#     4  10  19  31  49  69  88 113 146 185 229 276
#     4   9  18  31  46  66  89 116 151 189 231 276
#     4  10  20  31  44  65  92 121 153 189 231 275
#     4  10  20  33  49  68  90 117 149 184 224 276
#     4   8  13  22  40  69 103 136 167 196 226 263
#     4   9  17  29  47  69  94 125 161 198 230 265
#     4  11  23  35  48  66  89 119 152 190 239 290
#     4  10  19  30  47  69  90 113 142 179 223 271
#
# _framework density 17.041689999999999
#
# number of rings (size 3 to 8) (size 9 to 14) (size 15 to 20)
#    0.000    2.375    1.250    3.375    0.000    6.250 
#    0.000    1.250    0.000    0.750    0.000    4.375 
#    0.000    0.500    0.000    6.250    0.000    1.000 
#
# Total GULP energy -356374.909662 kJ/mol
# GULP energy per Si atom -5568.357963 kJ/mol
# Density = 1.700290 g / cm^3
# Si number density = 17.041690 Si / 1000 Ang^3
#
#
#
# Elastic Constant Matrix: (Units=GPa)
#
#
# Indices 1 2 3 4 5 6 
#
# 1 86.5440 7.5308 46.5099 0.0000 0.0000 0.0000
# 2 7.5308 10.9645 8.6170 0.0000 0.0000 0.0000
# 3 46.5099 8.6170 59.8757 0.0000 0.0000 0.0000
# 4 0.0000 0.0000 0.0000 15.7897 0.0000 0.0000
# 5 0.0000 0.0000 0.0000 0.0000 15.5820 0.0000
# 6 0.0000 0.0000 0.0000 0.0000 0.0000 3.2034
#
#
#
# Elastic Compliance Matrix: (Units=1/GPa)
#
#
# Indices 1 2 3 4 5 6 
#
# 1 0.019863 -0.001710 -0.015183 0.000000 0.000000 0.000000
# 2 -0.001710 0.102981 -0.013492 0.000000 0.000000 0.000000
# 3 -0.015183 -0.013492 0.030437 0.000000 0.000000 0.000000
# 4 0.000000 0.000000 0.000000 0.063332 0.000000 0.000000
# 5 0.000000 0.000000 0.000000 0.000000 0.064177 0.000000
# 6 0.000000 0.000000 0.000000 0.000000 0.000000 0.312172
#
#
# Mechanical properties :
#
#
# Convention : Reuss Voigt Hill
#
# Bulk Modulus (GPa) = 10.80960 31.41108 21.11034
# Shear Modulus (GPa) = 7.30385 13.23012 10.26699
#
# Velocity S-wave (km/s) = 2.07248 2.78931 2.45717
# Velocity P-wave (km/s) = 3.47616 5.37081 4.52379
#
# Compressibility (1/GPa) = 0.09251035
#
# Stress axis : x y z
#
# Youngs Moduli (GPa) = 50.34422 9.71052 32.85496
#
# Poissons Ratio (x) = 0.01661 0.49884
# Poissons Ratio (y) = 0.08611 0.44328
# Poissons Ratio (z) = 0.76438 0.13101
#
# Static dielectric constant tensor:
#      x y z
#    x 1.620540 0.000000 0.000000 
#    y 0.000000 1.606110 0.000000 
#    z 0.000000 0.000000 1.591180 
# 
# From -- ./inp_files/11971.got.cif
#   From: 2010.05.17/outbox.cif.g08.bks.cpg/sg47_6_cif.got.tgz:11971.got - 2010.06.03 20:15:42.
