data_PCOD9382492
_publ_section_title
;
Structure prediction by ZEFSAII (Michael W. Deem and Ramdas Pophale) SiO2 
 PCOD9382492
Probable space group: P M M M
;
_chemical_formula_sum "Si O2"
_cell_formula_units_Z 52
_cell_length_a 8.927088
_cell_length_b 14.084030
_cell_length_c 27.404140
_cell_angle_alpha 90.000000
_cell_angle_beta 90.000000
_cell_angle_gamma 90.000000
_cell_volume 3445.505400
_symmetry_space_group_name_H-M "P M M M"
_symmetry_group_IT_number 47
_symmetry_cell_setting 'orthorhombic'
loop_
_space_group_symop_operation_xyz
x,y,z
-x,-y,z
x,-y,-z
-x,y,-z
-x,-y,-z
x,y,-z
-x,y,z
x,-y,z
loop_
_atom_site_type_symbol
_atom_site_label
_atom_site_fract_x
_atom_site_fract_y
_atom_site_fract_z
Si Si1 0.679378 0.109082 0.608137
Si Si2 0.819342 0.283916 0.555060
Si Si3 0.181783 0.394051 0.651330
Si Si4 0.321672 0.887138 0.797916
Si Si5 0.819771 0.797803 0.702880
Si Si6 0.326763 0.115756 0.000000
Si Si7 0.827656 0.884574 0.100321
O O1 0.500000 0.119368 0.610946
O O2 0.746200 0.183974 0.569911
O O3 0.750855 0.136593 0.660293
O O4 0.714236 0.000000 0.596026
O O5 0.779621 0.311721 0.500000
O O6 0.774937 0.358489 0.597104
O O7 0.000000 0.274075 0.557729
O O8 0.237313 0.500000 0.661799
O O9 0.224834 0.309975 0.688303
O O10 0.000000 0.397119 0.652042
O O11 0.500000 0.875213 0.795206
O O12 0.241730 0.830886 0.754685
O O13 0.261983 0.857333 0.851124
O O14 0.289093 0.000000 0.792100
O O15 0.000000 0.804574 0.701454
O O16 0.246204 0.147431 0.950366
O O17 0.500000 0.143777 0.000000
O O18 0.322422 0.000000 0.000000
O O19 0.000000 0.854399 0.103527
O O20 0.825806 0.000000 0.099127
#
# Coordination Sequence:
#
# PCOD9382492 Si02
#       7
#     8   8   8   8   8   4   8
#     4  10  20  32  45  61  83 113 144 170 201 243
#     4   9  18  31  47  68  89 108 134 168 204 242
#     4   8  15  29  48  68  87 106 131 165 206 252
#     4  10  19  29  41  59  85 116 147 178 214 254
#     4  10  19  30  46  66  85 107 137 173 211 250
#     4   9  15  23  35  51  75 109 148 187 224 259
#     4   9  16  25  37  54  77 108 148 189 222 251
#
# _framework density 15.092124999999999
#
# number of rings (size 3 to 8) (size 9 to 14) (size 15 to 20)
#    0.000    2.692    0.000    3.462    0.000    7.692 
#    0.000    3.077    0.000   11.538    0.000    4.308 
#    0.000    0.000    0.000    0.692    0.000   14.385 
#
# Total GULP energy -289770.601783 kJ/mol
# GULP energy per Si atom -5572.511573 kJ/mol
# Density = 1.505778 g / cm^3
# Si number density = 15.092125 Si / 1000 Ang^3
#
#
#
# Elastic Constant Matrix: (Units=GPa)
#
#
# Indices 1 2 3 4 5 6 
#
# 1 43.5669 20.0796 32.6573 0.0000 0.0000 0.0000
# 2 20.0796 57.1864 23.9689 0.0000 0.0000 0.0000
# 3 32.6573 23.9689 107.5084 0.0000 0.0000 0.0000
# 4 0.0000 0.0000 0.0000 8.8520 0.0000 0.0000
# 5 0.0000 0.0000 0.0000 0.0000 19.2751 0.0000
# 6 0.0000 0.0000 0.0000 0.0000 0.0000 1.6488
#
#
#
# Elastic Compliance Matrix: (Units=1/GPa)
#
#
# Indices 1 2 3 4 5 6 
#
# 1 0.032801 -0.008098 -0.008158 0.000000 0.000000 0.000000
# 2 -0.008098 0.021288 -0.002286 0.000000 0.000000 0.000000
# 3 -0.008158 -0.002286 0.012290 0.000000 0.000000 0.000000
# 4 0.000000 0.000000 0.000000 0.112969 0.000000 0.000000
# 5 0.000000 0.000000 0.000000 0.000000 0.051880 0.000000
# 6 0.000000 0.000000 0.000000 0.000000 0.000000 0.606491
#
#
# Mechanical properties :
#
#
# Convention : Reuss Voigt Hill
#
# Bulk Modulus (GPa) = 34.13703 40.18591 37.16147
# Shear Modulus (GPa) = 5.65247 14.72558 10.18903
#
# Velocity S-wave (km/s) = 1.93738 3.12703 2.60113
# Velocity P-wave (km/s) = 5.26049 6.30259 5.80497
#
# Compressibility (1/GPa) = 0.02929370
#
# Stress axis : x y z
#
# Youngs Moduli (GPa) = 30.48715 46.97421 81.36983
#
# Poissons Ratio (x) = 0.38038 0.66384
# Poissons Ratio (y) = 0.24688 0.18605
# Poissons Ratio (z) = 0.24872 0.10740
#
# Static dielectric constant tensor:
#      x y z
#    x 1.503610 0.000000 0.000000 
#    y 0.000000 1.484800 0.000000 
#    z 0.000000 0.000000 1.496000 
# 
# From -- ./inp_files/33383.got.cif
#   From: 2010.05.17/outbox.cif.g08.bks.cpg/sg47_17_cif.got.tgz:33383.got - 2010.06.03 20:15:42.
