data_PCOD9382187
_publ_section_title
;
Structure prediction by ZEFSAII (Michael W. Deem and Ramdas Pophale) SiO2 
 PCOD9382187
Probable space group: P M M M
;
_chemical_formula_sum "Si O2"
_cell_formula_units_Z 52
_cell_length_a 13.897821
_cell_length_b 8.702170
_cell_length_c 24.760493
_cell_angle_alpha 90.000000
_cell_angle_beta 90.000000
_cell_angle_gamma 90.000000
_cell_volume 2994.563760
_symmetry_space_group_name_H-M "P M M M"
_symmetry_group_IT_number 47
_symmetry_cell_setting 'orthorhombic'
loop_
_space_group_symop_operation_xyz
x,y,z
-x,-y,z
x,-y,-z
-x,y,-z
-x,-y,-z
x,y,-z
-x,y,z
x,-y,z
loop_
_atom_site_type_symbol
_atom_site_label
_atom_site_fract_x
_atom_site_fract_y
_atom_site_fract_z
Si Si1 0.108278 0.183358 0.145062
Si Si2 0.610334 0.187310 0.561420
Si Si3 0.109755 0.320059 0.264933
Si Si4 0.387709 0.320755 0.758827
Si Si5 0.306511 0.684574 0.875387
Si Si6 0.276135 0.818517 0.664763
Si Si7 0.500000 0.312824 0.062840
O O1 0.119178 0.232939 0.207873
O O2 0.200568 0.249321 0.113459
O O3 0.000000 0.235562 0.128375
O O4 0.110841 0.000000 0.141769
O O5 0.633240 0.234393 0.500000
O O6 0.500000 0.234708 0.573535
O O7 0.684395 0.239036 0.607220
O O8 0.610565 0.000000 0.562381
O O9 0.126510 0.500000 0.253865
O O10 0.183328 0.262008 0.309783
O O11 0.000000 0.300010 0.283378
O O12 0.500000 0.309298 0.771143
O O13 0.367051 0.500000 0.745683
O O14 0.330878 0.279594 0.812938
O O15 0.358262 0.216527 0.708934
O O16 0.302035 0.500000 0.880549
O O17 0.399877 0.738588 0.909317
O O18 0.258530 0.000000 0.661148
O O19 0.500000 0.500000 0.067356
O O20 0.500000 0.271994 0.000000
#
# Coordination Sequence:
#
# PCOD9382187 Si02
#       7
#     8   8   8   8   8   8   4
#     4  10  20  33  50  75 105 135 170 214 261 306
#     4   8  15  29  47  67  94 127 161 199 243 291
#     4  10  20  33  48  67  96 133 167 199 245 307
#     4  10  19  30  44  67 102 138 165 195 245 306
#     4  10  18  31  52  76 104 139 173 207 253 303
#     4  11  20  29  47  74  99 125 163 207 252 299
#     4   9  18  34  57  83 109 141 182 221 252 290
#
# _framework density 17.364799000000001
#
# number of rings (size 3 to 8) (size 9 to 14) (size 15 to 20)
#    0.000    2.231    2.308    2.308    0.000    2.769 
#    0.000    0.385    0.000    3.692    0.000   11.846 
#    0.000    0.000    0.000    0.000    0.000    0.000 
#
# Total GULP energy -289862.679083 kJ/mol
# GULP energy per Si atom -5574.282290 kJ/mol
# Density = 1.732528 g / cm^3
# Si number density = 17.364799 Si / 1000 Ang^3
#
#
#
# Elastic Constant Matrix: (Units=GPa)
#
#
# Indices 1 2 3 4 5 6 
#
# 1 144.5523 18.4610 40.0013 0.0000 0.0000 0.0000
# 2 18.4610 12.2653 14.4575 0.0000 0.0000 0.0000
# 3 40.0013 14.4575 49.3811 0.0000 0.0000 0.0000
# 4 0.0000 0.0000 0.0000 11.6398 0.0000 0.0000
# 5 0.0000 0.0000 0.0000 0.0000 13.9756 0.0000
# 6 0.0000 0.0000 0.0000 0.0000 0.0000 23.5531
#
#
#
# Elastic Compliance Matrix: (Units=1/GPa)
#
#
# Indices 1 2 3 4 5 6 
#
# 1 0.009392 -0.007892 -0.005297 0.000000 0.000000 0.000000
# 2 -0.007892 0.131124 -0.031997 0.000000 0.000000 0.000000
# 3 -0.005297 -0.031997 0.033910 0.000000 0.000000 0.000000
# 4 0.000000 0.000000 0.000000 0.085912 0.000000 0.000000
# 5 0.000000 0.000000 0.000000 0.000000 0.071554 0.000000
# 6 0.000000 0.000000 0.000000 0.000000 0.000000 0.042457
#
#
# Mechanical properties :
#
#
# Convention : Reuss Voigt Hill
#
# Bulk Modulus (GPa) = 11.89716 39.11536 25.50626
# Shear Modulus (GPa) = 10.14738 18.71896 14.43317
#
# Velocity S-wave (km/s) = 2.41999 3.28683 2.88614
# Velocity P-wave (km/s) = 3.83075 6.08103 5.08200
#
# Compressibility (1/GPa) = 0.08405364
#
# Stress axis : x y z
#
# Youngs Moduli (GPa) = 106.47750 7.62635 29.49015
#
# Poissons Ratio (x) = 0.06018 0.15622
# Poissons Ratio (y) = 0.84029 0.94360
# Poissons Ratio (z) = 0.56404 0.24402
#
# Static dielectric constant tensor:
#      x y z
#    x 1.629340 0.000000 0.000000 
#    y 0.000000 1.599580 0.000000 
#    z 0.000000 0.000000 1.568760 
# 
# From -- ./inp_files/32675.got.cif
#   From: 2010.05.17/outbox.cif.g08.bks.cpg/sg47_17_cif.got.tgz:32675.got - 2010.06.03 20:15:42.
