data_PCOD9382846
_publ_section_title
;
Structure prediction by ZEFSAII (Michael W. Deem and Ramdas Pophale) SiO2 
 PCOD9382846
Probable space group: P M M M
;
_chemical_formula_sum "Si O2"
_cell_formula_units_Z 40
_cell_length_a 8.260806
_cell_length_b 29.419966
_cell_length_c 7.309517
_cell_angle_alpha 90.000000
_cell_angle_beta 90.000000
_cell_angle_gamma 90.000000
_cell_volume 1776.451153
_symmetry_space_group_name_H-M "P M M M"
_symmetry_group_IT_number 47
_symmetry_cell_setting 'orthorhombic'
loop_
_space_group_symop_operation_xyz
x,y,z
-x,-y,z
x,-y,-z
-x,y,-z
-x,-y,-z
x,y,-z
-x,y,z
x,-y,z
loop_
_atom_site_type_symbol
_atom_site_label
_atom_site_fract_x
_atom_site_fract_y
_atom_site_fract_z
Si Si1 0.500000 0.606945 0.722939
Si Si2 0.500000 0.287711 0.276294
Si Si3 0.174915 0.240190 0.712902
Si Si4 0.181046 0.447104 0.277511
Si Si5 0.681015 0.145998 0.779096
Si Si6 0.810072 0.950482 0.222180
O O1 0.500000 0.605235 0.500000
O O2 0.500000 0.659591 0.774753
O O3 0.335258 0.581947 0.783263
O O4 0.500000 0.284916 0.500000
O O5 0.663432 0.263147 0.210572
O O6 0.170210 0.253331 0.500000
O O7 0.199887 0.185937 0.722052
O O8 0.000000 0.252297 0.792787
O O9 0.181399 0.445902 0.500000
O O10 0.200365 0.500000 0.225311
O O11 0.000000 0.431978 0.220330
O O12 0.500000 0.158089 0.718706
O O13 0.725105 0.095435 0.715125
O O14 0.683383 0.145050 0.000000
O O15 0.000000 0.948001 0.269189
O O16 0.747173 0.000000 0.282356
O O17 0.800594 0.950437 0.000000
#
# Coordination Sequence:
#
# PCOD9382846 Si02
#       6
#     4   4   8   8   8   8
#     4   9  15  22  35  51  71 102 139 182 228 265
#     4   9  18  31  43  60  84 110 150 199 234 273
#     4  10  20  34  51  67  88 122 157 192 238 280
#     4   8  13  20  30  47  72 101 135 176 220 265
#     4  10  19  30  48  73  96 119 151 190 229 273
#     4   8  14  25  41  63  92 121 146 177 220 268
#
# _framework density 22.516801000000001
#
# number of rings (size 3 to 8) (size 9 to 14) (size 15 to 20)
#    0.000    3.000    1.000    2.100    0.000    3.600 
#    0.000    6.000    0.000    0.600    0.000    4.200 
#    0.000    0.000    0.000    0.000    0.000    8.000 
#
# Total GULP energy -223323.161423 kJ/mol
# GULP energy per Si atom -5583.079036 kJ/mol
# Density = 2.246555 g / cm^3
# Si number density = 22.516801 Si / 1000 Ang^3
#
#
#
# Elastic Constant Matrix: (Units=GPa)
#
#
# Indices 1 2 3 4 5 6 
#
# 1 209.6694 104.3425 9.2226 0.0000 0.0000 0.0000
# 2 104.3425 132.0360 -2.8509 0.0000 0.0000 0.0000
# 3 9.2226 -2.8509 91.9026 0.0000 0.0000 0.0000
# 4 0.0000 0.0000 0.0000 0.5710 0.0000 0.0000
# 5 0.0000 0.0000 0.0000 0.0000 -7.9035 0.0000
# 6 0.0000 0.0000 0.0000 0.0000 0.0000 185.8552
#
#
#
# Elastic Compliance Matrix: (Units=1/GPa)
#
#
# Indices 1 2 3 4 5 6 
#
# 1 0.007951 -0.006304 -0.000993 0.000000 0.000000 0.000000
# 2 -0.006304 0.012578 0.001023 0.000000 0.000000 0.000000
# 3 -0.000993 0.001023 0.011013 0.000000 0.000000 0.000000
# 4 0.000000 0.000000 0.000000 1.751272 0.000000 0.000000
# 5 0.000000 0.000000 0.000000 0.000000 -0.126526 0.000000
# 6 0.000000 0.000000 0.000000 0.000000 0.000000 0.005381
#
#
# Mechanical properties :
#
#
# Convention : Reuss Voigt Hill
#
# Bulk Modulus (GPa) = 52.65669 72.78181 62.71925
# Shear Modulus (GPa) = 2.97522 57.23078 30.10300
#
# Velocity S-wave (km/s) = 1.15074 5.04699 3.66035
# Velocity P-wave (km/s) = 5.02015 8.14594 6.76603
#
# Compressibility (1/GPa) = 0.01899094
#
# Stress axis : x y z
#
# Youngs Moduli (GPa) = 125.77797 79.50462 90.80582
#
# Poissons Ratio (x) = 0.50123 0.09021
# Poissons Ratio (y) = 0.79296 -0.09288
# Poissons Ratio (z) = 0.12495 -0.08132
#
# Static dielectric constant tensor:
#      x y z
#    x 1.816810 0.000000 0.000000 
#    y 0.000000 1.779980 0.000000 
#    z 0.000000 0.000000 1.957060 
# 
# From -- ./inp_files/1893.got.cif
#   From: 2010.05.17/outbox.cif.g08.bks.cpg/sg47_1_cif.got.tgz:1893.got - 2010.06.03 20:15:42.
