data_PCOD9382741
_publ_section_title
;
Structure prediction by ZEFSAII (Michael W. Deem and Ramdas Pophale) SiO2 
 PCOD9382741
Probable space group: P M M M
;
_chemical_formula_sum "Si O2"
_cell_formula_units_Z 52
_cell_length_a 18.775703
_cell_length_b 18.867882
_cell_length_c 8.990802
_cell_angle_alpha 90.000000
_cell_angle_beta 90.000000
_cell_angle_gamma 90.000000
_cell_volume 3185.061275
_symmetry_space_group_name_H-M "P M M M"
_symmetry_group_IT_number 47
_symmetry_cell_setting 'orthorhombic'
loop_
_space_group_symop_operation_xyz
x,y,z
-x,-y,z
x,-y,-z
-x,y,-z
-x,-y,-z
x,y,-z
-x,y,z
x,-y,z
loop_
_atom_site_type_symbol
_atom_site_label
_atom_site_fract_x
_atom_site_fract_y
_atom_site_fract_z
Si Si1 0.791506 0.207346 0.670260
Si Si2 0.647912 0.141427 0.679911
Si Si3 0.841453 0.421730 0.179000
Si Si4 0.080625 0.722145 0.820993
Si Si5 0.291943 0.641763 0.671016
Si Si6 0.583248 0.282766 0.177040
Si Si7 0.585285 0.000000 0.176364
O O1 0.810782 0.191576 0.500000
O O2 0.731317 0.152164 0.721504
O O3 0.862201 0.221054 0.763599
O O4 0.748750 0.282134 0.671686
O O5 0.643415 0.142962 0.500000
O O6 0.605244 0.208579 0.745952
O O7 0.616873 0.069735 0.746448
O O8 0.868539 0.500000 0.219333
O O9 0.891345 0.356093 0.226056
O O10 0.763455 0.409627 0.248065
O O11 0.835799 0.418210 0.000000
O O12 0.000000 0.733949 0.769015
O O13 0.080829 0.723041 0.000000
O O14 0.303837 0.621414 0.500000
O O15 0.365275 0.657157 0.755795
O O16 0.500000 0.296703 0.203228
O O17 0.595281 0.276693 0.000000
O O18 0.500000 0.000000 0.194008
O O19 0.600901 0.000000 0.000000
#
# Coordination Sequence:
#
# PCOD9382741 Si02
#       7
#     8   8   8   8   8   8   4
#     4   8  16  30  46  65  88 117 154 191 227 268
#     4  10  20  33  49  69  94 126 162 195 227 269
#     4   9  17  29  45  64  89 123 156 185 224 275
#     4   9  17  28  44  69  97 122 151 188 228 271
#     4   9  17  29  45  64  86 114 151 193 231 271
#     4  10  19  30  46  68  92 117 148 189 235 279
#     4  11  23  35  47  69 102 135 164 193 229 274
#
# _framework density 16.326215999999999
#
# number of rings (size 3 to 8) (size 9 to 14) (size 15 to 20)
#    0.000    2.692    0.000    3.000    0.000    8.923 
#    0.000    1.538    0.000    0.462    0.000    8.077 
#    0.000    4.308    0.000    0.000    0.000    0.000 
#
# Total GULP energy -289713.335203 kJ/mol
# GULP energy per Si atom -5571.410292 kJ/mol
# Density = 1.628906 g / cm^3
# Si number density = 16.326216 Si / 1000 Ang^3
#
#
#
# Elastic Constant Matrix: (Units=GPa)
#
#
# Indices 1 2 3 4 5 6 
#
# 1 125.3657 23.5978 50.0191 0.0000 0.0000 0.0000
# 2 23.5978 27.7998 12.4458 0.0000 0.0000 0.0000
# 3 50.0191 12.4458 47.5164 0.0000 0.0000 0.0000
# 4 0.0000 0.0000 0.0000 16.0288 0.0000 0.0000
# 5 0.0000 0.0000 0.0000 0.0000 16.3914 0.0000
# 6 0.0000 0.0000 0.0000 0.0000 0.0000 17.6327
#
#
#
# Elastic Compliance Matrix: (Units=1/GPa)
#
#
# Indices 1 2 3 4 5 6 
#
# 1 0.014658 -0.006270 -0.013788 0.000000 0.000000 0.000000
# 2 -0.006270 0.043432 -0.004776 0.000000 0.000000 0.000000
# 3 -0.013788 -0.004776 0.036810 0.000000 0.000000 0.000000
# 4 0.000000 0.000000 0.000000 0.062388 0.000000 0.000000
# 5 0.000000 0.000000 0.000000 0.000000 0.061008 0.000000
# 6 0.000000 0.000000 0.000000 0.000000 0.000000 0.056713
#
#
# Mechanical properties :
#
#
# Convention : Reuss Voigt Hill
#
# Bulk Modulus (GPa) = 22.10777 41.42305 31.76541
# Shear Modulus (GPa) = 14.71659 17.65186 16.18423
#
# Velocity S-wave (km/s) = 3.00560 3.29172 3.15191
# Velocity P-wave (km/s) = 5.06118 6.31462 5.72232
#
# Compressibility (1/GPa) = 0.04523296
#
# Stress axis : x y z
#
# Youngs Moduli (GPa) = 68.22233 23.02469 27.16629
#
# Poissons Ratio (x) = 0.14436 0.37456
# Poissons Ratio (y) = 0.42773 0.12975
# Poissons Ratio (z) = 0.94064 0.10997
#
# Static dielectric constant tensor:
#      x y z
#    x 1.550660 0.000000 0.000000 
#    y 0.000000 1.543480 0.000000 
#    z 0.000000 0.000000 1.552790 
# 
# From -- ./inp_files/9568.got.cif
#   From: 2010.05.17/outbox.cif.g08.bks.cpg/sg47_5_cif.got.tgz:9568.got - 2010.06.03 20:15:42.
