data_PCOD9382513
_publ_section_title
;
Structure prediction by ZEFSAII (Michael W. Deem and Ramdas Pophale) SiO2 
 PCOD9382513
Probable space group: P M M M
;
_chemical_formula_sum "Si O2"
_cell_formula_units_Z 40
_cell_length_a 24.908814
_cell_length_b 14.529071
_cell_length_c 8.077317
_cell_angle_alpha 90.000000
_cell_angle_beta 90.000000
_cell_angle_gamma 90.000000
_cell_volume 2923.196588
_symmetry_space_group_name_H-M "P M M M"
_symmetry_group_IT_number 47
_symmetry_cell_setting 'orthorhombic'
loop_
_space_group_symop_operation_xyz
x,y,z
-x,-y,z
x,-y,-z
-x,y,-z
-x,-y,-z
x,y,-z
-x,y,z
x,-y,z
loop_
_atom_site_type_symbol
_atom_site_label
_atom_site_fract_x
_atom_site_fract_y
_atom_site_fract_z
Si Si1 0.252778 0.388433 0.691604
Si Si2 0.561920 0.387769 0.500000
Si Si3 0.065249 0.894638 0.000000
Si Si4 0.134417 0.393182 0.803971
Si Si5 0.631490 0.387822 0.183845
Si Si6 0.935799 0.228420 0.313866
O O1 0.254238 0.359718 0.500000
O O2 0.254206 0.500000 0.694553
O O3 0.195952 0.363291 0.771226
O O4 0.307109 0.358196 0.781957
O O5 0.562489 0.500000 0.500000
O O6 0.500000 0.358747 0.500000
O O7 0.593649 0.358308 0.334968
O O8 0.081239 0.839819 0.165917
O O9 0.000000 0.896635 0.000000
O O10 0.084035 0.000000 0.000000
O O11 0.129044 0.500000 0.750237
O O12 0.094543 0.324510 0.712642
O O13 0.123726 0.389377 0.000000
O O14 0.631272 0.500000 0.185928
O O15 0.614209 0.359067 0.000000
O O16 0.925074 0.193320 0.500000
O O17 0.000000 0.241922 0.298999
#
# Coordination Sequence:
#
# PCOD9382513 Si02
#       6
#     8   4   4   8   8   8
#     4   9  15  24  37  52  71  95 127 164 197 233
#     4   9  16  24  32  44  62  84 113 153 202 245
#     4   9  18  34  53  69  85 105 132 168 210 253
#     4  10  19  29  42  61  85 113 143 171 203 248
#     4   9  15  23  34  46  62  85 115 153 195 237
#     4  10  20  33  48  66  88 111 136 168 207 251
#
# _framework density 13.683650999999999
#
# number of rings (size 3 to 8) (size 9 to 14) (size 15 to 20)
#    0.000    2.600    2.000    1.200    0.000    4.800 
#    0.000    6.000    0.000    0.000    0.000    0.000 
#    0.000    0.000    0.000    0.000    0.000    0.000 
#
# Total GULP energy -222697.568255 kJ/mol
# GULP energy per Si atom -5567.439206 kJ/mol
# Density = 1.365251 g / cm^3
# Si number density = 13.683651 Si / 1000 Ang^3
#
#
#
# Elastic Constant Matrix: (Units=GPa)
#
#
# Indices 1 2 3 4 5 6 
#
# 1 51.5851 23.7105 41.3297 0.0000 0.0000 0.0000
# 2 23.7105 39.8677 30.6131 0.0000 0.0000 0.0000
# 3 41.3297 30.6131 117.0345 0.0000 0.0000 0.0000
# 4 0.0000 0.0000 0.0000 5.6196 0.0000 0.0000
# 5 0.0000 0.0000 0.0000 0.0000 15.1611 0.0000
# 6 0.0000 0.0000 0.0000 0.0000 0.0000 -0.4516
#
#
#
# Elastic Compliance Matrix: (Units=1/GPa)
#
#
# Indices 1 2 3 4 5 6 
#
# 1 0.031479 -0.012745 -0.007783 0.000000 0.000000 0.000000
# 2 -0.012745 0.036548 -0.005059 0.000000 0.000000 0.000000
# 3 -0.007783 -0.005059 0.012616 0.000000 0.000000 0.000000
# 4 0.000000 0.000000 0.000000 0.177948 0.000000 0.000000
# 5 0.000000 0.000000 0.000000 0.000000 0.065958 0.000000
# 6 0.000000 0.000000 0.000000 0.000000 0.000000 -2.214293
#
#
# Mechanical properties :
#
#
# Convention : Reuss Voigt Hill
#
# Bulk Modulus (GPa) = 33.93427 44.42155 39.17791
# Shear Modulus (GPa) = -2.73411 11.58810 4.42699
#
# Velocity S-wave (km/s) = -1.41507 2.91324 1.80063
# Velocity P-wave (km/s) = 4.70989 6.62191 5.74599
#
# Compressibility (1/GPa) = 0.02946874
#
# Stress axis : x y z
#
# Youngs Moduli (GPa) = 31.76697 27.36155 79.26330
#
# Poissons Ratio (x) = 0.34874 0.61689
# Poissons Ratio (y) = 0.40489 0.40099
# Poissons Ratio (z) = 0.24723 0.13842
#
# Static dielectric constant tensor:
#      x y z
#    x 1.448780 0.000000 0.000000 
#    y 0.000000 1.409770 0.000000 
#    z 0.000000 0.000000 1.484970 
# 
# From -- ./inp_files/10832.got.cif
#   From: 2010.05.17/outbox.cif.g08.bks.cpg/sg47_6_cif.got.tgz:10832.got - 2010.06.03 20:15:42.
