data_PCOD9382917
_publ_section_title
;
Structure prediction by ZEFSAII (Michael W. Deem and Ramdas Pophale) SiO2 
 PCOD9382917
Probable space group: P M M M
;
_chemical_formula_sum "Si O2"
_cell_formula_units_Z 48
_cell_length_a 7.805693
_cell_length_b 35.216950
_cell_length_c 9.431585
_cell_angle_alpha 90.000000
_cell_angle_beta 90.000000
_cell_angle_gamma 90.000000
_cell_volume 2592.673867
_symmetry_space_group_name_H-M "P M M M"
_symmetry_group_IT_number 47
_symmetry_cell_setting 'orthorhombic'
loop_
_space_group_symop_operation_xyz
x,y,z
-x,-y,z
x,-y,-z
-x,y,-z
-x,-y,-z
x,y,-z
-x,y,z
x,-y,z
loop_
_atom_site_type_symbol
_atom_site_label
_atom_site_fract_x
_atom_site_fract_y
_atom_site_fract_z
Si Si1 0.204956 0.115951 0.340173
Si Si2 0.791724 0.188689 0.163738
Si Si3 0.000000 0.401240 0.827932
Si Si4 0.293344 0.042608 0.837928
Si Si5 0.695282 0.543154 0.827700
Si Si6 0.000000 0.678415 0.669687
Si Si7 0.695660 0.263899 0.667006
O O1 0.274109 0.116972 0.500000
O O2 0.268920 0.151036 0.245741
O O3 0.238446 0.075959 0.265147
O O4 0.000000 0.120457 0.348217
O O5 0.727740 0.226256 0.242244
O O6 0.000000 0.189390 0.167057
O O7 0.738358 0.187803 0.000000
O O8 0.166213 0.425851 0.784588
O O9 0.000000 0.360476 0.755364
O O10 0.000000 0.397634 0.000000
O O11 0.500000 0.042121 0.839663
O O12 0.235737 0.000000 0.797636
O O13 0.235493 0.049988 0.000000
O O14 0.500000 0.551316 0.782779
O O15 0.739722 0.500000 0.783386
O O16 0.696075 0.542865 0.000000
O O17 0.166456 0.703940 0.703819
O O18 0.000000 0.671281 0.500000
O O19 0.720675 0.254635 0.500000
O O20 0.500000 0.276858 0.686123
#
# Coordination Sequence:
#
# PCOD9382917 Si02
#       7
#     8   8   4   8   8   4   8
#     4  10  21  35  53  79 109 140 173 210 254 307
#     4  10  20  35  57  82 108 136 168 213 270 323
#     4  10  19  30  50  78 104 136 182 227 269 322
#     4   9  19  36  55  74 100 136 176 218 263 309
#     4   8  14  26  46  74 107 140 177 226 279 324
#     4  10  22  39  55  75 110 148 179 223 274 326
#     4  10  21  38  60  81 102 138 184 223 268 326
#
# _framework density 18.513705000000002
#
# number of rings (size 3 to 8) (size 9 to 14) (size 15 to 20)
#    0.000    2.500    0.833    2.250    0.000    6.000 
#    0.000    2.500    0.000    1.000    0.000    1.167 
#    0.000    0.000    0.000    0.000    0.000    0.000 
#
# Total GULP energy -267850.081186 kJ/mol
# GULP energy per Si atom -5580.210025 kJ/mol
# Density = 1.847157 g / cm^3
# Si number density = 18.513705 Si / 1000 Ang^3
#
#
#
# Elastic Constant Matrix: (Units=GPa)
#
#
# Indices 1 2 3 4 5 6 
#
# 1 77.0004 72.8002 50.9231 0.0000 0.0000 0.0000
# 2 72.8002 182.4715 93.5045 0.0000 0.0000 0.0000
# 3 50.9231 93.5045 87.8700 0.0000 0.0000 0.0000
# 4 0.0000 0.0000 0.0000 412.9255 0.0000 0.0000
# 5 0.0000 0.0000 0.0000 0.0000 16.5444 0.0000
# 6 0.0000 0.0000 0.0000 0.0000 0.0000 34.8932
#
#
#
# Elastic Compliance Matrix: (Units=1/GPa)
#
#
# Indices 1 2 3 4 5 6 
#
# 1 0.023087 -0.005179 -0.007869 0.000000 0.000000 0.000000
# 2 -0.005179 0.013214 -0.011060 0.000000 0.000000 0.000000
# 3 -0.007869 -0.011060 0.027710 0.000000 0.000000 0.000000
# 4 0.000000 0.000000 0.000000 0.002422 0.000000 0.000000
# 5 0.000000 0.000000 0.000000 0.000000 0.060444 0.000000
# 6 0.000000 0.000000 0.000000 0.000000 0.000000 0.028659
#
#
# Mechanical properties :
#
#
# Convention : Reuss Voigt Hill
#
# Bulk Modulus (GPa) = 63.30806 86.86641 75.08724
# Shear Modulus (GPa) = 23.92161 101.54688 62.73425
#
# Velocity S-wave (km/s) = 3.59848 7.41408 5.82742
# Velocity P-wave (km/s) = 7.17878 10.96875 9.26953
#
# Compressibility (1/GPa) = 0.01579578
#
# Stress axis : x y z
#
# Youngs Moduli (GPa) = 43.31417 75.67691 36.08813
#
# Poissons Ratio (x) = 0.39192 0.28397
# Poissons Ratio (y) = 0.22432 0.39914
# Poissons Ratio (z) = 0.34083 0.83700
#
# Static dielectric constant tensor:
#      x y z
#    x 1.668340 0.000000 0.000000 
#    y 0.000000 1.597930 0.000000 
#    z 0.000000 0.000000 1.627050 
# 
# From -- ./inp_files/2623.got.cif
#   From: 2010.05.17/outbox.cif.g08.bks.cpg/sg47_2_cif.got.tgz:2623.got - 2010.06.03 20:15:42.
