data_PCOD9382068
_publ_section_title
;
Structure prediction by ZEFSAII (Michael W. Deem and Ramdas Pophale) SiO2 
 PCOD9382068
Probable space group: P M M M
;
_chemical_formula_sum "Si O2"
_cell_formula_units_Z 52
_cell_length_a 9.209858
_cell_length_b 18.213229
_cell_length_c 17.344287
_cell_angle_alpha 90.000000
_cell_angle_beta 90.000000
_cell_angle_gamma 90.000000
_cell_volume 2909.352431
_symmetry_space_group_name_H-M "P M M M"
_symmetry_group_IT_number 47
_symmetry_cell_setting 'orthorhombic'
loop_
_space_group_symop_operation_xyz
x,y,z
-x,-y,z
x,-y,-z
-x,y,-z
-x,-y,-z
x,y,-z
-x,y,z
x,-y,z
loop_
_atom_site_type_symbol
_atom_site_label
_atom_site_fract_x
_atom_site_fract_y
_atom_site_fract_z
Si Si1 0.826133 0.286336 0.410904
Si Si2 0.176536 0.000000 0.588726
Si Si3 0.671910 0.638141 0.845148
Si Si4 0.672462 0.814357 0.157137
Si Si5 0.833724 0.634078 0.000000
Si Si6 0.325255 0.583193 0.322624
Si Si7 0.831882 0.813067 0.000000
Si Si8 0.824950 0.858012 0.311834
O O1 0.787300 0.273836 0.500000
O O2 0.748136 0.357244 0.376862
O O3 0.789640 0.215570 0.359538
O O4 0.000000 0.296172 0.406690
O O5 0.218235 0.927783 0.636563
O O6 0.227986 0.000000 0.500000
O O7 0.000000 0.000000 0.585334
O O8 0.500000 0.626760 0.856370
O O9 0.695113 0.725931 0.834833
O O10 0.717267 0.599377 0.766074
O O11 0.754301 0.611863 0.921351
O O12 0.500000 0.826945 0.154177
O O13 0.745288 0.853216 0.230149
O O14 0.748959 0.836637 0.077294
O O15 0.829888 0.723634 0.000000
O O16 0.000000 0.610339 0.000000
O O17 0.500000 0.590999 0.326368
O O18 0.287058 0.500000 0.343567
O O19 0.000000 0.835947 0.000000
O O20 0.000000 0.860343 0.300384
#
# Coordination Sequence:
#
# PCOD9382068 Si02
#       8
#     8   4   8   8   4   8   4   8
#     4  10  21  36  55  79 106 136 173 219 271 323
#     4   9  18  34  57  84 113 144 181 223 266 319
#     4   9  17  31  49  71 100 136 175 215 261 311
#     4  10  18  30  51  78 109 143 180 220 266 318
#     4   9  17  27  46  74 102 133 171 215 260 309
#     4  10  21  37  55  75 101 137 181 225 268 316
#     4   9  17  29  47  77 111 141 179 223 264 309
#     4  10  19  33  56  83 110 142 180 220 264 316
#
# _framework density 17.873393
#
# number of rings (size 3 to 8) (size 9 to 14) (size 15 to 20)
#    0.000    2.385    1.538    1.385    0.000    5.846 
#    0.000    2.308    0.000    4.615    0.000    3.231 
#    0.000    0.000    0.000    0.000    0.000    0.000 
#
# Total GULP energy -290169.142729 kJ/mol
# GULP energy per Si atom -5580.175822 kJ/mol
# Density = 1.783271 g / cm^3
# Si number density = 17.873393 Si / 1000 Ang^3
#
#
#
# Elastic Constant Matrix: (Units=GPa)
#
#
# Indices 1 2 3 4 5 6 
#
# 1 44.4485 39.9270 59.7316 0.0000 0.0000 0.0000
# 2 39.9270 84.6374 66.8075 0.0000 0.0000 0.0000
# 3 59.7316 66.8075 163.1642 0.0000 0.0000 0.0000
# 4 0.0000 0.0000 0.0000 -1.7683 0.0000 0.0000
# 5 0.0000 0.0000 0.0000 0.0000 30.0090 0.0000
# 6 0.0000 0.0000 0.0000 0.0000 0.0000 15.7556
#
#
#
# Elastic Compliance Matrix: (Units=1/GPa)
#
#
# Indices 1 2 3 4 5 6 
#
# 1 0.054336 -0.014674 -0.013883 0.000000 0.000000 0.000000
# 2 -0.014674 0.021420 -0.003398 0.000000 0.000000 0.000000
# 3 -0.013883 -0.003398 0.012603 0.000000 0.000000 0.000000
# 4 0.000000 0.000000 0.000000 -0.565525 0.000000 0.000000
# 5 0.000000 0.000000 0.000000 0.000000 0.033323 0.000000
# 6 0.000000 0.000000 0.000000 0.000000 0.000000 0.063470
#
#
# Mechanical properties :
#
#
# Convention : Reuss Voigt Hill
#
# Bulk Modulus (GPa) = 40.90425 69.46468 55.18447
# Shear Modulus (GPa) = -16.21733 17.18485 0.48376
#
# Velocity S-wave (km/s) = -3.01548 3.10413 0.52082
# Velocity P-wave (km/s) = 3.28802 7.19700 5.59499
#
# Compressibility (1/GPa) = 0.02444734
#
# Stress axis : x y z
#
# Youngs Moduli (GPa) = 18.40390 46.68525 79.34776
#
# Poissons Ratio (x) = 0.68506 1.10161
# Poissons Ratio (y) = 0.27006 0.26966
# Poissons Ratio (z) = 0.25551 0.15866
#
# Static dielectric constant tensor:
#      x y z
#    x 1.595300 0.000000 0.000000 
#    y 0.000000 1.601640 0.000000 
#    z 0.000000 0.000000 1.591880 
# 
# From -- ./inp_files/26828.got.cif
#   From: 2010.05.17/outbox.cif.g08.bks.cpg/sg47_14_cif.got.tgz:26828.got - 2010.06.03 20:15:42.
