data_PCOD9382100
_publ_section_title
;
Structure prediction by ZEFSAII (Michael W. Deem and Ramdas Pophale) SiO2 
 PCOD9382100
Probable space group: P M M M
;
_chemical_formula_sum "Si O2"
_cell_formula_units_Z 40
_cell_length_a 22.831533
_cell_length_b 11.560285
_cell_length_c 7.354628
_cell_angle_alpha 90.000000
_cell_angle_beta 90.000000
_cell_angle_gamma 90.000000
_cell_volume 1941.173369
_symmetry_space_group_name_H-M "P M M M"
_symmetry_group_IT_number 47
_symmetry_cell_setting 'orthorhombic'
loop_
_space_group_symop_operation_xyz
x,y,z
-x,-y,z
x,-y,-z
-x,y,-z
-x,-y,-z
x,y,-z
-x,y,z
x,-y,z
loop_
_atom_site_type_symbol
_atom_site_label
_atom_site_fract_x
_atom_site_fract_y
_atom_site_fract_z
Si Si1 0.634791 0.866050 0.221447
Si Si2 0.431323 0.630274 0.779251
Si Si3 0.230605 0.869228 0.221377
Si Si4 0.067561 0.500000 0.776581
Si Si5 0.000000 0.869864 0.717470
Si Si6 0.119158 0.265429 0.787061
O O1 0.599195 0.750988 0.280593
O O2 0.702561 0.846246 0.275771
O O3 0.618490 0.000000 0.276922
O O4 0.631834 0.868037 0.000000
O O5 0.500000 0.636328 0.731639
O O6 0.410070 0.500000 0.721948
O O7 0.427197 0.630185 0.000000
O O8 0.178114 0.789701 0.288996
O O9 0.216171 0.000000 0.273977
O O10 0.230993 0.865562 0.000000
O O11 0.100668 0.387730 0.710387
O O12 0.000000 0.500000 0.720954
O O13 0.066636 0.500000 0.000000
O O14 0.060370 0.810504 0.775320
O O15 0.000000 0.868941 0.500000
O O16 0.000000 0.000000 0.784976
O O17 0.131181 0.282695 0.000000
#
# Coordination Sequence:
#
# PCOD9382100 Si02
#       6
#     8   8   8   4   4   8
#     4   8  13  21  31  45  66  87 116 164 206 233
#     4   8  13  20  28  39  60  92 127 158 190 236
#     4   8  14  24  38  56  74  94 126 166 204 245
#     4   9  16  28  44  64  86 102 127 173 209 236
#     4  11  23  34  45  66  90 107 134 179 218 249
#     4  10  18  31  49  64  83 112 141 169 210 261
#
# _framework density 20.606093000000001
#
# number of rings (size 3 to 8) (size 9 to 14) (size 15 to 20)
#    0.000    3.200    1.000    2.700    0.000    2.000 
#    1.800    3.000    0.000    0.000    0.000    0.000 
#    0.000    0.000    0.000    0.000    0.000    1.000 
#
# Total GULP energy -222839.440227 kJ/mol
# GULP energy per Si atom -5570.986006 kJ/mol
# Density = 2.055919 g / cm^3
# Si number density = 20.606093 Si / 1000 Ang^3
#
#
#
# Elastic Constant Matrix: (Units=GPa)
#
#
# Indices 1 2 3 4 5 6 
#
# 1 115.7326 120.3408 1.9649 0.0000 0.0000 0.0000
# 2 120.3408 235.5970 4.1943 0.0000 0.0000 0.0000
# 3 1.9649 4.1943 75.7516 0.0000 0.0000 0.0000
# 4 0.0000 0.0000 0.0000 -16.5602 0.0000 0.0000
# 5 0.0000 0.0000 0.0000 0.0000 -47.6031 0.0000
# 6 0.0000 0.0000 0.0000 0.0000 0.0000 64.1710
#
#
#
# Elastic Compliance Matrix: (Units=1/GPa)
#
#
# Indices 1 2 3 4 5 6 
#
# 1 0.018429 -0.009414 0.000043 0.000000 0.000000 0.000000
# 2 -0.009414 0.009058 -0.000257 0.000000 0.000000 0.000000
# 3 0.000043 -0.000257 0.013214 0.000000 0.000000 0.000000
# 4 0.000000 0.000000 0.000000 -0.060386 0.000000 0.000000
# 5 0.000000 0.000000 0.000000 0.000000 -0.021007 0.000000
# 6 0.000000 0.000000 0.000000 0.000000 0.000000 0.015583
#
#
# Mechanical properties :
#
#
# Convention : Reuss Voigt Hill
#
# Bulk Modulus (GPa) = 46.63224 75.56459 61.09841
# Shear Modulus (GPa) = 3859.51912 20.04029 1939.77970
#
# Velocity S-wave (km/s) = 43.32511 3.12194 30.71491
# Velocity P-wave (km/s) = 50.25369 7.05308 35.88300
#
# Compressibility (1/GPa) = 0.02144439
#
# Stress axis : x y z
#
# Youngs Moduli (GPa) = 54.26321 110.40345 75.67631
#
# Poissons Ratio (x) = 1.03934 -0.00327
# Poissons Ratio (y) = 0.51083 0.01947
# Poissons Ratio (z) = -0.00235 0.02841
#
# Static dielectric constant tensor:
#      x y z
#    x 1.698350 0.000000 0.000000 
#    y 0.000000 1.746770 0.000000 
#    z 0.000000 0.000000 1.766150 
# 
# From -- ./inp_files/4118.got.cif
#   From: 2010.05.17/outbox.cif.g08.bks.cpg/sg47_3_cif.got.tgz:4118.got - 2010.06.03 20:15:42.
