data_PCOD9382427
_publ_section_title
;
Structure prediction by ZEFSAII (Michael W. Deem and Ramdas Pophale) SiO2 
 PCOD9382427
Probable space group: P M M M
;
_chemical_formula_sum "Si O2"
_cell_formula_units_Z 64
_cell_length_a 7.823665
_cell_length_b 13.972431
_cell_length_c 30.490861
_cell_angle_alpha 90.000000
_cell_angle_beta 90.000000
_cell_angle_gamma 90.000000
_cell_volume 3333.127356
_symmetry_space_group_name_H-M "P M M M"
_symmetry_group_IT_number 47
_symmetry_cell_setting 'orthorhombic'
loop_
_space_group_symop_operation_xyz
x,y,z
-x,-y,z
x,-y,-z
-x,y,-z
-x,-y,-z
x,y,-z
-x,y,z
x,-y,z
loop_
_atom_site_type_symbol
_atom_site_label
_atom_site_fract_x
_atom_site_fract_y
_atom_site_fract_z
Si Si1 0.700590 0.105287 0.821854
Si Si2 0.708375 0.690775 0.858149
Si Si3 0.794177 0.111744 0.452661
Si Si4 0.803349 0.897032 0.052672
Si Si5 0.795919 0.396153 0.766527
Si Si6 0.200900 0.196071 0.733354
Si Si7 0.297572 0.890650 0.642085
Si Si8 0.304020 0.686169 0.951103
O O1 0.500000 0.101400 0.832843
O O2 0.769212 0.200327 0.846436
O O3 0.716090 0.127926 0.769973
O O4 0.776388 0.000000 0.830742
O O5 0.500000 0.692490 0.859439
O O6 0.762746 0.626124 0.817517
O O7 0.772217 0.651303 0.905120
O O8 0.737195 0.152343 0.500000
O O9 0.736962 0.152740 0.406065
O O10 0.000000 0.112543 0.452618
O O11 0.738248 0.000000 0.452348
O O12 0.698026 0.800694 0.058498
O O13 0.000000 0.885053 0.067744
O O14 0.736057 0.000000 0.068905
O O15 0.811648 0.904399 0.000000
O O16 0.724812 0.500000 0.754552
O O17 0.729308 0.303169 0.740998
O O18 0.000000 0.398974 0.759540
O O19 0.223868 0.163153 0.683813
O O20 0.000000 0.195639 0.744039
O O21 0.500000 0.894735 0.648029
O O22 0.229175 0.000000 0.642103
O O23 0.500000 0.653178 0.953679
O O24 0.227285 0.670862 0.000000
#
# Coordination Sequence:
#
# PCOD9382427 Si02
#       8
#     8   8   8   8   8   8   8   8
#     4   9  17  29  43  59  85 119 148 176 212 254
#     4   9  18  31  47  68  90 113 144 176 208 254
#     4   8  14  25  40  58  84 123 171 215 245 266
#     4   8  14  24  36  51  74 105 140 174 204 234
#     4   9  19  36  55  72  89 109 136 176 226 275
#     4  10  19  30  46  67  89 113 144 183 226 272
#     4  10  19  28  40  62  95 133 166 195 228 265
#     4   9  17  28  42  61  85 111 138 170 207 248
#
# _framework density 19.201184999999999
#
# number of rings (size 3 to 8) (size 9 to 14) (size 15 to 20)
#    0.000    3.000    0.000    1.875    0.000    4.750 
#    0.000    3.750    0.000    0.375    0.000    2.625 
#    0.000    0.500    0.000    5.750    0.000    1.875 
#
# Total GULP energy -356405.457193 kJ/mol
# GULP energy per Si atom -5568.835269 kJ/mol
# Density = 1.915748 g / cm^3
# Si number density = 19.201185 Si / 1000 Ang^3
#
#
#
# Elastic Constant Matrix: (Units=GPa)
#
#
# Indices 1 2 3 4 5 6 
#
# 1 26.5741 -0.6844 -8.2433 0.0000 0.0000 0.0000
# 2 -0.6844 51.0021 21.1198 0.0000 0.0000 0.0000
# 3 -8.2433 21.1198 128.9021 0.0000 0.0000 0.0000
# 4 0.0000 0.0000 0.0000 -15.5285 0.0000 0.0000
# 5 0.0000 0.0000 0.0000 0.0000 8.6848 0.0000
# 6 0.0000 0.0000 0.0000 0.0000 0.0000 8.8980
#
#
#
# Elastic Compliance Matrix: (Units=1/GPa)
#
#
# Indices 1 2 3 4 5 6 
#
# 1 0.038406 -0.000538 0.002544 0.000000 0.000000 0.000000
# 2 -0.000538 0.021042 -0.003482 0.000000 0.000000 0.000000
# 3 0.002544 -0.003482 0.008491 0.000000 0.000000 0.000000
# 4 0.000000 0.000000 0.000000 -0.064398 0.000000 0.000000
# 5 0.000000 0.000000 0.000000 0.000000 0.115144 0.000000
# 6 0.000000 0.000000 0.000000 0.000000 0.000000 0.112385
#
#
# Mechanical properties :
#
#
# Convention : Reuss Voigt Hill
#
# Bulk Modulus (GPa) = 15.38771 25.65136 20.51954
# Shear Modulus (GPa) = 19.55538 13.36326 16.45932
#
# Velocity S-wave (km/s) = 3.19477 2.64097 2.93098
# Velocity P-wave (km/s) = 4.65189 4.76318 4.70786
#
# Compressibility (1/GPa) = 0.06498692
#
# Stress axis : x y z
#
# Youngs Moduli (GPa) = 26.03763 47.52470 117.77135
#
# Poissons Ratio (x) = 0.02558 -0.29964
# Poissons Ratio (y) = 0.01401 0.41007
# Poissons Ratio (z) = -0.06625 0.16548
#
# Static dielectric constant tensor:
#      x y z
#    x 1.708130 0.000000 0.000000 
#    y 0.000000 1.760690 0.000000 
#    z 0.000000 0.000000 1.710530 
# 
# From -- ./inp_files/34412.got.cif
#   From: 2010.05.17/outbox.cif.g08.bks.cpg/sg47_18_cif.got.tgz:34412.got - 2010.06.03 20:15:42.
