data_PCOD9382653
_publ_section_title
;
Structure prediction by ZEFSAII (Michael W. Deem and Ramdas Pophale) SiO2 
 PCOD9382653
Probable space group: P M M M
;
_chemical_formula_sum "Si O2"
_cell_formula_units_Z 44
_cell_length_a 9.155500
_cell_length_b 12.838716
_cell_length_c 25.564427
_cell_angle_alpha 90.000000
_cell_angle_beta 90.000000
_cell_angle_gamma 90.000000
_cell_volume 3004.967104
_symmetry_space_group_name_H-M "P M M M"
_symmetry_group_IT_number 47
_symmetry_cell_setting 'orthorhombic'
loop_
_space_group_symop_operation_xyz
x,y,z
-x,-y,z
x,-y,-z
-x,y,-z
-x,-y,-z
x,y,-z
-x,y,z
x,-y,z
loop_
_atom_site_type_symbol
_atom_site_label
_atom_site_fract_x
_atom_site_fract_y
_atom_site_fract_z
Si Si1 0.832432 0.126745 0.162337
Si Si2 0.177235 0.000000 0.559690
Si Si3 0.325929 0.622823 0.439233
Si Si4 0.824460 0.798129 0.627308
Si Si5 0.326659 0.875218 0.730790
Si Si6 0.329401 0.873423 0.058118
O O1 0.737849 0.156076 0.212872
O O2 0.763518 0.163098 0.107554
O O3 0.000000 0.159867 0.167976
O O4 0.831181 0.000000 0.160865
O O5 0.220360 0.103181 0.591186
O O6 0.230803 0.000000 0.500000
O O7 0.000000 0.000000 0.557994
O O8 0.290167 0.646971 0.500000
O O9 0.500000 0.639803 0.432503
O O10 0.298089 0.500000 0.431096
O O11 0.236145 0.695524 0.400639
O O12 0.754731 0.817156 0.683936
O O13 0.000000 0.796357 0.630820
O O14 0.500000 0.857893 0.728852
O O15 0.300904 0.000000 0.724597
O O16 0.500000 0.845836 0.064498
O O17 0.323383 0.000000 0.058210
O O18 0.280505 0.839710 0.000000
#
# Coordination Sequence:
#
# PCOD9382653 Si02
#       6
#     8   4   8   8   8   8
#     4   9  16  24  35  51  72  99 134 175 217 255
#     4   9  18  30  43  63  91 117 136 165 214 261
#     4   9  19  36  54  70  90 115 143 177 216 259
#     4  11  20  31  48  68  92 116 143 179 218 262
#     4  10  19  30  43  58  81 112 146 178 213 260
#     4   8  13  21  32  46  66  94 130 171 213 254
#
# _framework density 14.642423000000001
#
# number of rings (size 3 to 8) (size 9 to 14) (size 15 to 20)
#    0.000    2.636    0.909    3.273    0.000    4.727 
#    0.000    2.727    0.000    2.182    0.000    0.000 
#    0.000    0.000    0.000    0.000    0.000    0.909 
#
# Total GULP energy -245169.102966 kJ/mol
# GULP energy per Si atom -5572.025067 kJ/mol
# Density = 1.460910 g / cm^3
# Si number density = 14.642423 Si / 1000 Ang^3
#
#
#
# Elastic Constant Matrix: (Units=GPa)
#
#
# Indices 1 2 3 4 5 6 
#
# 1 77.6730 32.4281 72.8594 0.0000 0.0000 0.0000
# 2 32.4281 32.9815 40.3332 0.0000 0.0000 0.0000
# 3 72.8594 40.3332 148.7638 0.0000 0.0000 0.0000
# 4 0.0000 0.0000 0.0000 9.6708 0.0000 0.0000
# 5 0.0000 0.0000 0.0000 0.0000 26.1441 0.0000
# 6 0.0000 0.0000 0.0000 0.0000 0.0000 15.6754
#
#
#
# Elastic Compliance Matrix: (Units=1/GPa)
#
#
# Indices 1 2 3 4 5 6 
#
# 1 0.028816 -0.016566 -0.009622 0.000000 0.000000 0.000000
# 2 -0.016566 0.054883 -0.006766 0.000000 0.000000 0.000000
# 3 -0.009622 -0.006766 0.013269 0.000000 0.000000 0.000000
# 4 0.000000 0.000000 0.000000 0.103404 0.000000 0.000000
# 5 0.000000 0.000000 0.000000 0.000000 0.038250 0.000000
# 6 0.000000 0.000000 0.000000 0.000000 0.000000 0.063794
#
#
# Mechanical properties :
#
#
# Convention : Reuss Voigt Hill
#
# Bulk Modulus (GPa) = 32.19635 61.18440 46.69038
# Shear Modulus (GPa) = 13.20380 17.88456 15.54418
#
# Velocity S-wave (km/s) = 3.00617 3.49867 3.26173
# Velocity P-wave (km/s) = 5.83828 7.62872 6.79275
#
# Compressibility (1/GPa) = 0.03105942
#
# Stress axis : x y z
#
# Youngs Moduli (GPa) = 34.70253 18.22052 75.36382
#
# Poissons Ratio (x) = 0.30185 0.72513
# Poissons Ratio (y) = 0.57490 0.50994
# Poissons Ratio (z) = 0.33390 0.12329
#
# Static dielectric constant tensor:
#      x y z
#    x 1.485660 0.000000 0.000000 
#    y 0.000000 1.453180 0.000000 
#    z 0.000000 0.000000 1.489760 
# 
# From -- ./inp_files/4291.got.cif
#   From: 2010.05.17/outbox.cif.g08.bks.cpg/sg47_3_cif.got.tgz:4291.got - 2010.06.03 20:15:42.
