data_PCOD9382867
_publ_section_title
;
Structure prediction by ZEFSAII (Michael W. Deem and Ramdas Pophale) SiO2 
 PCOD9382867
Probable space group: P M M M
;
_chemical_formula_sum "Si O2"
_cell_formula_units_Z 48
_cell_length_a 7.656321
_cell_length_b 36.347312
_cell_length_c 9.210222
_cell_angle_alpha 90.000000
_cell_angle_beta 90.000000
_cell_angle_gamma 90.000000
_cell_volume 2563.082178
_symmetry_space_group_name_H-M "P M M M"
_symmetry_group_IT_number 47
_symmetry_cell_setting 'orthorhombic'
loop_
_space_group_symop_operation_xyz
x,y,z
-x,-y,z
x,-y,-z
-x,y,-z
-x,-y,-z
x,y,-z
-x,y,z
x,-y,z
loop_
_atom_site_type_symbol
_atom_site_label
_atom_site_fract_x
_atom_site_fract_y
_atom_site_fract_z
Si Si1 0.000000 0.402740 0.823902
Si Si2 0.296368 0.734005 0.673823
Si Si3 0.209993 0.960426 0.330699
Si Si4 0.700103 0.541441 0.176531
Si Si5 0.708341 0.880578 0.334682
Si Si6 0.286573 0.191141 0.833957
Si Si7 0.000000 0.323971 0.325444
O O1 0.167756 0.426903 0.778249
O O2 0.000000 0.362779 0.754077
O O3 0.000000 0.399818 0.000000
O O4 0.286342 0.739212 0.500000
O O5 0.500000 0.726955 0.710994
O O6 0.238377 0.771755 0.749832
O O7 0.169648 0.700510 0.712779
O O8 0.268789 0.959741 0.500000
O O9 0.261747 0.921029 0.267629
O O10 0.000000 0.961048 0.331089
O O11 0.269695 0.000000 0.268864
O O12 0.500000 0.547756 0.221954
O O13 0.752579 0.500000 0.221837
O O14 0.702099 0.541200 0.000000
O O15 0.779078 0.880212 0.500000
O O16 0.500000 0.876174 0.344731
O O17 0.775623 0.845968 0.244596
O O18 0.500000 0.190235 0.833165
O O19 0.229111 0.192361 0.000000
O O20 0.000000 0.329264 0.500000
#
# Coordination Sequence:
#
# PCOD9382867 Si02
#       7
#     4   8   8   8   8   8   4
#     4  10  19  30  48  74 102 132 168 211 253 292
#     4   9  18  35  56  72  91 124 163 200 239 287
#     4   8  14  25  40  59  85 115 146 181 219 259
#     4   8  14  26  46  73 103 134 171 214 255 293
#     4   9  16  26  43  67  91 114 144 183 225 272
#     4   9  17  30  49  71  94 119 146 184 237 287
#     4  10  22  37  51  73 102 132 167 203 244 298
#
# _framework density 18.727454000000002
#
# number of rings (size 3 to 8) (size 9 to 14) (size 15 to 20)
#    0.000    3.167    0.000    1.750    0.000    4.667 
#    1.500    1.667    0.000    1.500    0.000    4.667 
#    0.000    0.000    0.000    0.000    0.000    0.000 
#
# Total GULP energy -267425.753760 kJ/mol
# GULP energy per Si atom -5571.369870 kJ/mol
# Density = 1.868483 g / cm^3
# Si number density = 18.727454 Si / 1000 Ang^3
#
#
#
# Elastic Constant Matrix: (Units=GPa)
#
#
# Indices 1 2 3 4 5 6 
#
# 1 69.0647 75.3825 25.6748 0.0000 0.0000 0.0000
# 2 75.3825 228.7723 59.4075 0.0000 0.0000 0.0000
# 3 25.6748 59.4075 27.3530 0.0000 0.0000 0.0000
# 4 0.0000 0.0000 0.0000 41.3054 0.0000 0.0000
# 5 0.0000 0.0000 0.0000 0.0000 5.4144 0.0000
# 6 0.0000 0.0000 0.0000 0.0000 0.0000 -6.0651
#
#
#
# Elastic Compliance Matrix: (Units=1/GPa)
#
#
# Indices 1 2 3 4 5 6 
#
# 1 0.024327 -0.004785 -0.012442 0.000000 0.000000 0.000000
# 2 -0.004785 0.010967 -0.019327 0.000000 0.000000 0.000000
# 3 -0.012442 -0.019327 0.090213 0.000000 0.000000 0.000000
# 4 0.000000 0.000000 0.000000 0.024210 0.000000 0.000000
# 5 0.000000 0.000000 0.000000 0.000000 0.184693 0.000000
# 6 0.000000 0.000000 0.000000 0.000000 0.000000 -0.164878
#
#
# Mechanical properties :
#
#
# Convention : Reuss Voigt Hill
#
# Bulk Modulus (GPa) = 19.08420 71.79104 45.43762
# Shear Modulus (GPa) = 19.22296 19.11264 19.16780
#
# Velocity S-wave (km/s) = 3.20732 3.19810 3.20271
# Velocity P-wave (km/s) = 4.89167 7.21491 6.16374
#
# Compressibility (1/GPa) = 0.05239937
#
# Stress axis : x y z
#
# Youngs Moduli (GPa) = 41.10600 91.18535 11.08487
#
# Poissons Ratio (x) = 0.43634 0.13792
# Poissons Ratio (y) = 0.19670 0.21423
# Poissons Ratio (z) = 0.51144 1.76232
#
# Static dielectric constant tensor:
#      x y z
#    x 1.679200 0.000000 0.000000 
#    y 0.000000 1.643670 0.000000 
#    z 0.000000 0.000000 1.636590 
# 
# From -- ./inp_files/2650.got.cif
#   From: 2010.05.17/outbox.cif.g08.bks.cpg/sg47_2_cif.got.tgz:2650.got - 2010.06.03 20:15:42.
