data_PCOD9382184
_publ_section_title
;
Structure prediction by ZEFSAII (Michael W. Deem and Ramdas Pophale) SiO2 
 PCOD9382184
Probable space group: P M M M
;
_chemical_formula_sum "Si O2"
_cell_formula_units_Z 44
_cell_length_a 10.478664
_cell_length_b 8.209988
_cell_length_c 27.824135
_cell_angle_alpha 90.000000
_cell_angle_beta 90.000000
_cell_angle_gamma 90.000000
_cell_volume 2393.702145
_symmetry_space_group_name_H-M "P M M M"
_symmetry_group_IT_number 47
_symmetry_cell_setting 'orthorhombic'
loop_
_space_group_symop_operation_xyz
x,y,z
-x,-y,z
x,-y,-z
-x,y,-z
-x,-y,-z
x,y,-z
-x,y,z
x,-y,z
loop_
_atom_site_type_symbol
_atom_site_label
_atom_site_fract_x
_atom_site_fract_y
_atom_site_fract_z
Si Si1 0.345258 0.313218 0.500000
Si Si2 0.000000 0.800785 0.944640
Si Si3 0.145775 0.694606 0.789479
Si Si4 0.749981 0.803575 0.887497
Si Si5 0.145837 0.805656 0.317929
Si Si6 0.500000 0.800467 0.944433
Si Si7 0.353343 0.696909 0.604969
O O1 0.297151 0.500000 0.500000
O O2 0.500000 0.320163 0.500000
O O3 0.312429 0.239700 0.448134
O O4 0.874614 0.746164 0.916428
O O5 0.000000 0.000000 0.944636
O O6 0.000000 0.749075 0.000000
O O7 0.144389 0.500000 0.788332
O O8 0.235885 0.751324 0.832449
O O9 0.180103 0.757066 0.736606
O O10 0.000000 0.753030 0.799650
O O11 0.624733 0.747029 0.915420
O O12 0.749788 0.000000 0.888634
O O13 0.250847 0.742820 0.355089
O O14 0.000000 0.744544 0.326946
O O15 0.142886 0.000000 0.321054
O O16 0.500000 0.000000 0.945100
O O17 0.500000 0.748245 0.000000
O O18 0.500000 0.750830 0.615040
O O19 0.357806 0.500000 0.601719
#
# Coordination Sequence:
#
# PCOD9382184 Si02
#       7
#     4   4   8   8   8   4   8
#     4   7  12  26  50  77 106 140 176 215 256 303
#     4   9  16  26  47  77 101 125 163 206 243 290
#     4  10  20  35  55  76  99 130 171 217 263 309
#     4  10  18  31  52  76 102 131 166 206 249 298
#     4  10  21  36  54  76 105 140 178 219 266 316
#     4   9  18  32  51  77 107 135 163 200 247 298
#     4   9  17  32  55  82 109 139 178 220 262 308
#
# _framework density 18.38157
#
# number of rings (size 3 to 8) (size 9 to 14) (size 15 to 20)
#    0.000    2.636    0.909    2.727    0.000    4.364 
#    1.636    1.364    0.000    7.636    0.000    0.000 
#    0.000    0.000    0.000    0.000    0.000    0.000 
#
# Total GULP energy -245302.311745 kJ/mol
# GULP energy per Si atom -5575.052540 kJ/mol
# Density = 1.833973 g / cm^3
# Si number density = 18.381570 Si / 1000 Ang^3
#
#
#
# Elastic Constant Matrix: (Units=GPa)
#
#
# Indices 1 2 3 4 5 6 
#
# 1 136.3275 18.0561 111.6895 0.0000 0.0000 0.0000
# 2 18.0561 14.6595 15.4302 0.0000 0.0000 0.0000
# 3 111.6895 15.4302 194.3079 0.0000 0.0000 0.0000
# 4 0.0000 0.0000 0.0000 20.9071 0.0000 0.0000
# 5 0.0000 0.0000 0.0000 0.0000 36.5171 0.0000
# 6 0.0000 0.0000 0.0000 0.0000 0.0000 14.1029
#
#
#
# Elastic Compliance Matrix: (Units=1/GPa)
#
#
# Indices 1 2 3 4 5 6 
#
# 1 0.015187 -0.010385 -0.007905 0.000000 0.000000 0.000000
# 2 -0.010385 0.081539 -0.000505 0.000000 0.000000 0.000000
# 3 -0.007905 -0.000505 0.009730 0.000000 0.000000 0.000000
# 4 0.000000 0.000000 0.000000 0.047831 0.000000 0.000000
# 5 0.000000 0.000000 0.000000 0.000000 0.027384 0.000000
# 6 0.000000 0.000000 0.000000 0.000000 0.000000 0.070907
#
#
# Mechanical properties :
#
#
# Convention : Reuss Voigt Hill
#
# Bulk Modulus (GPa) = 14.52123 70.62740 42.57431
# Shear Modulus (GPa) = 15.96805 27.64669 21.80737
#
# Velocity S-wave (km/s) = 2.95057 3.88241 3.44811
# Velocity P-wave (km/s) = 4.41869 7.65531 6.25015
#
# Compressibility (1/GPa) = 0.06886470
#
# Stress axis : x y z
#
# Youngs Moduli (GPa) = 65.84546 12.26410 102.77050
#
# Poissons Ratio (x) = 0.12737 0.81239
# Poissons Ratio (y) = 0.68383 0.05195
# Poissons Ratio (z) = 0.52050 0.00620
#
# Static dielectric constant tensor:
#      x y z
#    x 1.630660 0.000000 0.000000 
#    y 0.000000 1.650360 0.000000 
#    z 0.000000 0.000000 1.629920 
# 
# From -- ./inp_files/34003.got.cif
#   From: 2010.05.17/outbox.cif.g08.bks.cpg/sg47_18_cif.got.tgz:34003.got - 2010.06.03 20:15:42.
