data_PCOD9382860
_publ_section_title
;
Structure prediction by ZEFSAII (Michael W. Deem and Ramdas Pophale) SiO2 
 PCOD9382860
Probable space group: P M M M
;
_chemical_formula_sum "Si O2"
_cell_formula_units_Z 52
_cell_length_a 7.433471
_cell_length_b 22.625852
_cell_length_c 13.831570
_cell_angle_alpha 90.000000
_cell_angle_beta 90.000000
_cell_angle_gamma 90.000000
_cell_volume 2326.312597
_symmetry_space_group_name_H-M "P M M M"
_symmetry_group_IT_number 47
_symmetry_cell_setting 'orthorhombic'
loop_
_space_group_symop_operation_xyz
x,y,z
-x,-y,z
x,-y,-z
-x,y,-z
-x,-y,-z
x,y,-z
-x,y,z
x,-y,z
loop_
_atom_site_type_symbol
_atom_site_label
_atom_site_fract_x
_atom_site_fract_y
_atom_site_fract_z
Si Si1 0.717541 0.255880 0.609843
Si Si2 0.284690 0.064002 0.887323
Si Si3 0.214798 0.806490 0.110516
Si Si4 0.781119 0.564784 0.113402
Si Si5 0.283729 0.000000 0.617047
Si Si6 0.712561 0.127335 0.618070
Si Si7 0.789903 0.685497 0.797287
O O1 0.776422 0.264955 0.500000
O O2 0.500000 0.252818 0.609463
O O3 0.786145 0.191479 0.645924
O O4 0.775222 0.306024 0.683044
O O5 0.500000 0.060903 0.888364
O O6 0.246734 0.128615 0.844072
O O7 0.221871 0.000000 0.847755
O O8 0.221919 0.066104 0.000000
O O9 0.287127 0.746750 0.159236
O O10 0.000000 0.801234 0.107073
O O11 0.283321 0.808484 0.000000
O O12 0.719821 0.500000 0.148232
O O13 0.713920 0.623571 0.166137
O O14 0.000000 0.564203 0.120163
O O15 0.737055 0.569547 0.000000
O O16 0.212806 0.936214 0.650150
O O17 0.500000 0.000000 0.636099
O O18 0.263986 0.000000 0.500000
O O19 0.722844 0.127939 0.500000
O O20 0.500000 0.126649 0.642145
O O21 0.000000 0.684728 0.825146
#
# Coordination Sequence:
#
# PCOD9382860 Si02
#       7
#     8   8   8   8   4   8   8
#     4   9  18  32  48  66  91 126 166 204 241 284
#     4   8  14  25  41  61  86 118 157 200 241 277
#     4   9  17  28  43  66  95 124 154 189 232 287
#     4   8  14  27  50  79 107 132 157 188 230 281
#     4   7   8  12  28  54  77  95 124 175 234 278
#     4   7  10  18  34  56  79 103 136 182 232 276
#     4  10  19  30  48  74 100 124 155 196 240 285
#
# _framework density 22.352974
#
# number of rings (size 3 to 8) (size 9 to 14) (size 15 to 20)
#    0.000    3.615    0.000    3.231    0.000    3.077 
#    0.000    1.538    1.692    2.308    0.000    4.308 
#    0.000    3.077    0.000    0.000    0.000    0.000 
#
# Total GULP energy -290032.293780 kJ/mol
# GULP energy per Si atom -5577.544111 kJ/mol
# Density = 2.230210 g / cm^3
# Si number density = 22.352974 Si / 1000 Ang^3
#
#
#
# Elastic Constant Matrix: (Units=GPa)
#
#
# Indices 1 2 3 4 5 6 
#
# 1 70.3082 12.9743 -4.6199 0.0000 0.0000 0.0000
# 2 12.9743 254.4670 88.7315 0.0000 0.0000 0.0000
# 3 -4.6199 88.7315 70.2294 0.0000 0.0000 0.0000
# 4 0.0000 0.0000 0.0000 41.0324 0.0000 0.0000
# 5 0.0000 0.0000 0.0000 0.0000 8.6484 0.0000
# 6 0.0000 0.0000 0.0000 0.0000 0.0000 12.4234
#
#
#
# Elastic Compliance Matrix: (Units=1/GPa)
#
#
# Indices 1 2 3 4 5 6 
#
# 1 0.014811 -0.001957 0.003447 0.000000 0.000000 0.000000
# 2 -0.001957 0.007283 -0.009331 0.000000 0.000000 0.000000
# 3 0.003447 -0.009331 0.026255 0.000000 0.000000 0.000000
# 4 0.000000 0.000000 0.000000 0.024371 0.000000 0.000000
# 5 0.000000 0.000000 0.000000 0.000000 0.115629 0.000000
# 6 0.000000 0.000000 0.000000 0.000000 0.000000 0.080493
#
#
# Mechanical properties :
#
#
# Convention : Reuss Voigt Hill
#
# Bulk Modulus (GPa) = 30.61193 65.46407 48.03800
# Shear Modulus (GPa) = 16.92555 32.28210 24.60383
#
# Velocity S-wave (km/s) = 2.75470 3.80438 3.32127
# Velocity P-wave (km/s) = 4.88286 6.97480 6.02039
#
# Compressibility (1/GPa) = 0.03266700
#
# Stress axis : x y z
#
# Youngs Moduli (GPa) = 67.51855 137.30403 38.08862
#
# Poissons Ratio (x) = 0.26872 -0.13129
# Poissons Ratio (y) = 0.13214 0.35539
# Poissons Ratio (z) = -0.23274 1.28113
#
# Static dielectric constant tensor:
#      x y z
#    x 1.871310 0.000000 0.000000 
#    y 0.000000 1.852960 0.000000 
#    z 0.000000 0.000000 1.872380 
# 
# From -- ./inp_files/21385.got.cif
#   From: 2010.05.17/outbox.cif.g08.bks.cpg/sg47_11_cif.got.tgz:21385.got - 2010.06.03 20:15:42.
