data_PCOD9382771
_publ_section_title
;
Structure prediction by ZEFSAII (Michael W. Deem and Ramdas Pophale) SiO2 
 PCOD9382771
Probable space group: P M M M
;
_chemical_formula_sum "Si O2"
_cell_formula_units_Z 44
_cell_length_a 33.905693
_cell_length_b 7.904000
_cell_length_c 7.539075
_cell_angle_alpha 90.000000
_cell_angle_beta 90.000000
_cell_angle_gamma 90.000000
_cell_volume 2020.401214
_symmetry_space_group_name_H-M "P M M M"
_symmetry_group_IT_number 47
_symmetry_cell_setting 'orthorhombic'
loop_
_space_group_symop_operation_xyz
x,y,z
-x,-y,z
x,-y,-z
-x,y,-z
-x,-y,-z
x,y,-z
-x,y,z
x,-y,z
loop_
_atom_site_type_symbol
_atom_site_label
_atom_site_fract_x
_atom_site_fract_y
_atom_site_fract_z
Si Si1 0.690516 0.500000 0.712204
Si Si2 0.168935 0.797615 0.702376
Si Si3 0.084393 0.693082 0.712322
Si Si4 0.598157 0.500000 0.212753
Si Si5 0.254937 0.804544 0.282217
Si Si6 0.545162 0.808248 0.216408
Si Si7 0.000000 0.307696 0.208540
O O1 0.695258 0.500000 0.500000
O O2 0.644329 0.500000 0.749844
O O3 0.712561 0.669709 0.776220
O O4 0.168429 0.729295 0.500000
O O5 0.126268 0.758131 0.783289
O O6 0.211200 0.746406 0.779619
O O7 0.171309 0.000000 0.692795
O O8 0.087593 0.695973 0.500000
O O9 0.080936 0.500000 0.775631
O O10 0.041958 0.776494 0.748093
O O11 0.575670 0.667335 0.278917
O O12 0.593633 0.500000 0.000000
O O13 0.253741 0.806055 0.500000
O O14 0.262080 0.000000 0.228502
O O15 0.500000 0.768302 0.267855
O O16 0.554347 0.000000 0.273232
O O17 0.545720 0.808675 0.000000
O O18 0.000000 0.500000 0.290743
O O19 0.000000 0.325795 0.000000
#
# Coordination Sequence:
#
# PCOD9382771 Si02
#       7
#     4   8   8   4   8   8   4
#     4  10  20  31  47  69  94 127 163 190 225 279
#     4   8  14  25  42  65  88 106 131 175 225 261
#     4   9  16  25  42  66  85 102 132 175 214 247
#     4  10  19  30  46  70  98 124 153 195 240 277
#     4   8  15  28  45  66  92 119 150 191 232 271
#     4   8  14  26  46  71  95 121 158 201 240 277
#     4   9  17  29  42  57  84 118 144 163 196 252
#
# _framework density 21.777854999999999
#
# number of rings (size 3 to 8) (size 9 to 14) (size 15 to 20)
#    0.000    3.364    0.000    2.182    1.273    2.909 
#    0.000    0.455    0.000    5.455    0.000    3.818 
#    0.000    0.000    0.000    0.000    0.000    0.000 
#
# Total GULP energy -245146.482174 kJ/mol
# GULP energy per Si atom -5571.510958 kJ/mol
# Density = 2.172829 g / cm^3
# Si number density = 21.777855 Si / 1000 Ang^3
#
#
#
# Elastic Constant Matrix: (Units=GPa)
#
#
# Indices 1 2 3 4 5 6 
#
# 1 247.0052 120.5749 4.0838 0.0000 0.0000 0.0000
# 2 120.5749 104.8262 5.4637 0.0000 0.0000 0.0000
# 3 4.0838 5.4637 51.8025 0.0000 0.0000 0.0000
# 4 0.0000 0.0000 0.0000 -4.0456 0.0000 0.0000
# 5 0.0000 0.0000 0.0000 0.0000 21.6155 0.0000
# 6 0.0000 0.0000 0.0000 0.0000 0.0000 24.3346
#
#
#
# Elastic Compliance Matrix: (Units=1/GPa)
#
#
# Indices 1 2 3 4 5 6 
#
# 1 0.009240 -0.010649 0.000395 0.000000 0.000000 0.000000
# 2 -0.010649 0.021865 -0.001467 0.000000 0.000000 0.000000
# 3 0.000395 -0.001467 0.019428 0.000000 0.000000 0.000000
# 4 0.000000 0.000000 0.000000 -0.247183 0.000000 0.000000
# 5 0.000000 0.000000 0.000000 0.000000 0.046263 0.000000
# 6 0.000000 0.000000 0.000000 0.000000 0.000000 0.041094
#
#
# Mechanical properties :
#
#
# Convention : Reuss Voigt Hill
#
# Bulk Modulus (GPa) = 36.91263 73.76429 55.33846
# Shear Modulus (GPa) = -65.08662 26.61501 -19.23581
#
# Velocity S-wave (km/s) = -5.47280 3.49967 -2.97522
# Velocity P-wave (km/s) = 4.79050 7.09049 3.69636
#
# Compressibility (1/GPa) = 0.02709100
#
# Stress axis : x y z
#
# Youngs Moduli (GPa) = 108.22165 45.73518 51.47297
#
# Poissons Ratio (x) = 0.48704 -0.02032
# Poissons Ratio (y) = 1.15246 0.07549
# Poissons Ratio (z) = -0.04272 0.06708
#
# Static dielectric constant tensor:
#      x y z
#    x 1.821070 0.000000 0.000000 
#    y 0.000000 1.793140 0.000000 
#    z 0.000000 0.000000 1.865710 
# 
# From -- ./inp_files/13723.got.cif
#   From: 2010.05.17/outbox.cif.g08.bks.cpg/sg47_7_cif.got.tgz:13723.got - 2010.06.03 20:15:42.
