data_PCOD9382189
_publ_section_title
;
Structure prediction by ZEFSAII (Michael W. Deem and Ramdas Pophale) SiO2 
 PCOD9382189
Probable space group: P M M M
;
_chemical_formula_sum "Si O2"
_cell_formula_units_Z 40
_cell_length_a 8.602986
_cell_length_b 19.656059
_cell_length_c 12.932523
_cell_angle_alpha 90.000000
_cell_angle_beta 90.000000
_cell_angle_gamma 90.000000
_cell_volume 2186.899990
_symmetry_space_group_name_H-M "P M M M"
_symmetry_group_IT_number 47
_symmetry_cell_setting 'orthorhombic'
loop_
_space_group_symop_operation_xyz
x,y,z
-x,-y,z
x,-y,-z
-x,y,-z
-x,-y,-z
x,y,-z
-x,y,z
x,-y,z
loop_
_atom_site_type_symbol
_atom_site_label
_atom_site_fract_x
_atom_site_fract_y
_atom_site_fract_z
Si Si1 0.180737 0.082457 0.000000
Si Si2 0.310587 0.422750 0.118151
Si Si3 0.311600 0.330534 0.694437
Si Si4 0.310894 0.577431 0.500000
Si Si5 0.813831 0.186844 0.380197
Si Si6 0.314090 0.079109 0.779811
O O1 0.258367 0.104771 0.892643
O O2 0.000000 0.100886 0.000000
O O3 0.193388 0.000000 0.000000
O O4 0.500000 0.422512 0.119141
O O5 0.264144 0.500000 0.147827
O O6 0.259771 0.366034 0.199257
O O7 0.261463 0.410391 0.000000
O O8 0.500000 0.326005 0.695091
O O9 0.264974 0.380796 0.601296
O O10 0.245280 0.256600 0.670956
O O11 0.254684 0.500000 0.500000
O O12 0.500000 0.575034 0.500000
O O13 0.760401 0.183696 0.500000
O O14 0.752933 0.124595 0.311698
O O15 0.000000 0.186263 0.379960
O O16 0.500000 0.081336 0.777405
O O17 0.264721 0.000000 0.769154
#
# Coordination Sequence:
#
# PCOD9382189 Si02
#       6
#     4   8   8   4   8   8
#     4   9  17  33  59  89 121 151 178 215 266 323
#     4   8  14  26  47  77 109 137 170 218 274 329
#     4  10  18  31  52  76 105 141 179 225 277 330
#     4   9  16  26  47  79 104 129 176 231 279 328
#     4  11  24  40  56  75 108 152 192 233 285 344
#     4  10  21  38  62  90 116 144 184 232 278 328
#
# _framework density 18.290731000000001
#
# number of rings (size 3 to 8) (size 9 to 14) (size 15 to 20)
#    0.000    2.400    1.000    2.700    0.000    6.400 
#    1.800    2.000    0.000    3.000    0.000    1.400 
#    0.000    0.000    0.000    0.000    0.000    0.000 
#
# Total GULP energy -223154.496967 kJ/mol
# GULP energy per Si atom -5578.862424 kJ/mol
# Density = 1.824910 g / cm^3
# Si number density = 18.290731 Si / 1000 Ang^3
#
#
#
# Elastic Constant Matrix: (Units=GPa)
#
#
# Indices 1 2 3 4 5 6 
#
# 1 24.0857 26.9712 34.4152 0.0000 0.0000 0.0000
# 2 26.9712 121.7435 95.0931 0.0000 0.0000 0.0000
# 3 34.4152 95.0931 163.6053 0.0000 0.0000 0.0000
# 4 0.0000 0.0000 0.0000 20.1228 0.0000 0.0000
# 5 0.0000 0.0000 0.0000 0.0000 22.3164 0.0000
# 6 0.0000 0.0000 0.0000 0.0000 0.0000 2.4503
#
#
#
# Elastic Compliance Matrix: (Units=1/GPa)
#
#
# Indices 1 2 3 4 5 6 
#
# 1 0.062050 -0.006504 -0.009272 0.000000 0.000000 0.000000
# 2 -0.006504 0.015726 -0.007772 0.000000 0.000000 0.000000
# 3 -0.009272 -0.007772 0.012580 0.000000 0.000000 0.000000
# 4 0.000000 0.000000 0.000000 0.049695 0.000000 0.000000
# 5 0.000000 0.000000 0.000000 0.000000 0.044810 0.000000
# 6 0.000000 0.000000 0.000000 0.000000 0.000000 0.408114
#
#
# Mechanical properties :
#
#
# Convention : Reuss Voigt Hill
#
# Bulk Modulus (GPa) = 23.11644 69.15483 46.13564
# Shear Modulus (GPa) = 7.63952 19.17490 13.40721
#
# Velocity S-wave (km/s) = 2.04592 3.24132 2.71034
# Velocity P-wave (km/s) = 4.27163 7.20409 5.92224
#
# Compressibility (1/GPa) = 0.04325925
#
# Stress axis : x y z
#
# Youngs Moduli (GPa) = 16.11591 63.59012 79.49059
#
# Poissons Ratio (x) = 0.41361 0.73704
# Poissons Ratio (y) = 0.10482 0.61781
# Poissons Ratio (z) = 0.14943 0.49423
#
# Static dielectric constant tensor:
#      x y z
#    x 1.621280 0.000000 0.000000 
#    y 0.000000 1.609790 0.000000 
#    z 0.000000 0.000000 1.627980 
# 
# From -- ./inp_files/15126.got.cif
#   From: 2010.05.17/outbox.cif.g08.bks.cpg/sg47_8_cif.got.tgz:15126.got - 2010.06.03 20:15:42.
