data_PCOD9382954
_publ_section_title
;
Structure prediction by ZEFSAII (Michael W. Deem and Ramdas Pophale) SiO2 
 PCOD9382954
Probable space group: P M M M
;
_chemical_formula_sum "Si O2"
_cell_formula_units_Z 36
_cell_length_a 18.863414
_cell_length_b 7.927735
_cell_length_c 17.386001
_cell_angle_alpha 90.000000
_cell_angle_beta 90.000000
_cell_angle_gamma 90.000000
_cell_volume 2599.974696
_symmetry_space_group_name_H-M "P M M M"
_symmetry_group_IT_number 47
_symmetry_cell_setting 'orthorhombic'
loop_
_space_group_symop_operation_xyz
x,y,z
-x,-y,z
x,-y,-z
-x,y,-z
-x,-y,-z
x,y,-z
-x,y,z
x,-y,z
loop_
_atom_site_type_symbol
_atom_site_label
_atom_site_fract_x
_atom_site_fract_y
_atom_site_fract_z
Si Si1 0.915703 0.307869 0.697370
Si Si2 0.085954 0.000000 0.587626
Si Si3 0.082753 0.296896 0.000000
Si Si4 0.167434 0.800730 0.152065
Si Si5 0.580870 0.000000 0.093341
Si Si6 0.318211 0.692054 0.907965
O O1 0.906080 0.500000 0.669951
O O2 0.894109 0.167062 0.635302
O O3 0.872245 0.279478 0.775373
O O4 0.000000 0.284708 0.713489
O O5 0.112161 0.000000 0.500000
O O6 0.000000 0.000000 0.584430
O O7 0.120765 0.228849 0.075915
O O8 0.089074 0.500000 0.000000
O O9 0.000000 0.252127 0.000000
O O10 0.244376 0.723050 0.135170
O O11 0.175091 0.000000 0.165095
O O12 0.624778 0.833055 0.115217
O O13 0.500000 0.000000 0.121330
O O14 0.578264 0.000000 0.000000
O O15 0.342682 0.500000 0.896040
O O16 0.304614 0.712918 0.000000
#
# Coordination Sequence:
#
# PCOD9382954 Si02
#       6
#     8   4   4   8   4   8
#     4  10  20  33  48  66  89 116 147 187 230 270
#     4   9  18  33  50  67  85 106 140 186 234 281
#     4  11  23  33  41  59  85 116 155 193 227 267
#     4  12  21  31  46  62  87 119 153 188 225 266
#     4   9  18  31  46  64  82 103 139 186 232 269
#     4  10  19  31  46  63  85 114 147 182 222 265
#
# _framework density 13.846289000000001
#
# number of rings (size 3 to 8) (size 9 to 14) (size 15 to 20)
#    0.000    1.667    3.333    3.000    0.000    4.444 
#    0.000    4.444    0.000    0.000    0.000    0.000 
#    0.000    0.000    0.000    0.000    0.000    8.889 
#
# Total GULP energy -200873.293460 kJ/mol
# GULP energy per Si atom -5579.813707 kJ/mol
# Density = 1.381477 g / cm^3
# Si number density = 13.846289 Si / 1000 Ang^3
#
#
#
# Elastic Constant Matrix: (Units=GPa)
#
#
# Indices 1 2 3 4 5 6 
#
# 1 79.4020 48.3729 30.8763 0.0000 0.0000 0.0000
# 2 48.3729 122.1596 40.6334 0.0000 0.0000 0.0000
# 3 30.8763 40.6334 77.6253 0.0000 0.0000 0.0000
# 4 0.0000 0.0000 0.0000 7.7992 0.0000 0.0000
# 5 0.0000 0.0000 0.0000 0.0000 1.1798 0.0000
# 6 0.0000 0.0000 0.0000 0.0000 0.0000 11.2966
#
#
#
# Elastic Compliance Matrix: (Units=1/GPa)
#
#
# Indices 1 2 3 4 5 6 
#
# 1 0.017594 -0.005617 -0.004058 0.000000 0.000000 0.000000
# 2 -0.005617 0.011705 -0.003893 0.000000 0.000000 0.000000
# 3 -0.004058 -0.003893 0.016534 0.000000 0.000000 0.000000
# 4 0.000000 0.000000 0.000000 0.128218 0.000000 0.000000
# 5 0.000000 0.000000 0.000000 0.000000 0.847575 0.000000
# 6 0.000000 0.000000 0.000000 0.000000 0.000000 0.088522
#
#
# Mechanical properties :
#
#
# Convention : Reuss Voigt Hill
#
# Bulk Modulus (GPa) = 53.48263 57.66134 55.57199
# Shear Modulus (GPa) = 4.37248 14.67542 9.52395
#
# Velocity S-wave (km/s) = 1.77897 3.25911 2.62550
# Velocity P-wave (km/s) = 6.55206 7.47641 7.02944
#
# Compressibility (1/GPa) = 0.01869766
#
# Stress axis : x y z
#
# Youngs Moduli (GPa) = 56.83690 85.43228 60.48069
#
# Poissons Ratio (x) = 0.47989 0.24543
# Poissons Ratio (y) = 0.31926 0.23544
# Poissons Ratio (z) = 0.23064 0.33257
#
# Static dielectric constant tensor:
#      x y z
#    x 1.435060 0.000000 0.000000 
#    y 0.000000 1.485780 0.000000 
#    z 0.000000 0.000000 1.424670 
# 
# From -- ./inp_files/23272.got.cif
#   From: 2010.05.17/outbox.cif.g08.bks.cpg/sg47_12_cif.got.tgz:23272.got - 2010.06.03 20:15:42.
