data_PCOD9382855
_publ_section_title
;
Structure prediction by ZEFSAII (Michael W. Deem and Ramdas Pophale) SiO2 
 PCOD9382855
Probable space group: P M M M
;
_chemical_formula_sum "Si O2"
_cell_formula_units_Z 64
_cell_length_a 15.925960
_cell_length_b 8.470872
_cell_length_c 25.523908
_cell_angle_alpha 90.000000
_cell_angle_beta 90.000000
_cell_angle_gamma 90.000000
_cell_volume 3443.347951
_symmetry_space_group_name_H-M "P M M M"
_symmetry_group_IT_number 47
_symmetry_cell_setting 'orthorhombic'
loop_
_space_group_symop_operation_xyz
x,y,z
-x,-y,z
x,-y,-z
-x,y,-z
-x,-y,-z
x,y,-z
-x,y,z
x,-y,z
loop_
_atom_site_type_symbol
_atom_site_label
_atom_site_fract_x
_atom_site_fract_y
_atom_site_fract_z
Si Si1 0.407248 0.310771 0.641406
Si Si2 0.268359 0.306733 0.440840
Si Si3 0.909626 0.310641 0.398624
Si Si4 0.727132 0.811027 0.144566
Si Si5 0.404903 0.309465 0.060997
Si Si6 0.676601 0.184662 0.741112
Si Si7 0.907880 0.311212 0.829739
Si Si8 0.871228 0.815446 0.285311
O O1 0.500000 0.250232 0.628392
O O2 0.408084 0.500000 0.636263
O O3 0.335556 0.250747 0.601968
O O4 0.384107 0.270667 0.701060
O O5 0.290605 0.261758 0.500000
O O6 0.267289 0.500000 0.438843
O O7 0.174571 0.251174 0.426433
O O8 0.909577 0.500000 0.404495
O O9 0.902324 0.270244 0.337185
O O10 0.000000 0.250985 0.418214
O O11 0.667654 0.758353 0.097513
O O12 0.686071 0.753476 0.199598
O O13 0.823599 0.752949 0.142839
O O14 0.730271 0.000000 0.147631
O O15 0.500000 0.260226 0.076653
O O16 0.402153 0.500000 0.063770
O O17 0.393339 0.265147 0.000000
O O18 0.770307 0.196631 0.717362
O O19 0.653473 0.000000 0.743323
O O20 0.904567 0.500000 0.831688
O O21 0.902667 0.256881 0.769160
O O22 0.000000 0.259794 0.850299
O O23 0.893792 0.000000 0.287301
#
# Coordination Sequence:
#
# PCOD9382855 Si02
#       8
#     8   8   8   8   8   8   8   8
#     4  10  20  33  52  76  97 124 164 207 256 313
#     4   9  18  33  51  71  97 126 159 209 263 307
#     4  10  19  30  48  73  97 126 164 202 249 311
#     4  10  21  35  54  83 115 149 187 227 275 326
#     4   9  19  37  60  85 114 150 192 236 280 325
#     4   9  19  34  50  72 104 139 170 203 252 309
#     4  10  20  33  51  77 110 148 187 225 267 318
#     4  10  19  31  49  73 102 136 171 209 256 310
#
# _framework density 18.586561
#
# number of rings (size 3 to 8) (size 9 to 14) (size 15 to 20)
#    0.000    2.375    1.250    2.625    0.000    7.000 
#    0.000    5.625    0.000    1.875    0.000    4.375 
#    0.000    0.000    0.000    0.000    0.000    0.000 
#
# Total GULP energy -356937.490520 kJ/mol
# GULP energy per Si atom -5577.148289 kJ/mol
# Density = 1.854426 g / cm^3
# Si number density = 18.586561 Si / 1000 Ang^3
#
#
#
# Elastic Constant Matrix: (Units=GPa)
#
#
# Indices 1 2 3 4 5 6 
#
# 1 149.3036 25.6567 70.9255 0.0000 0.0000 0.0000
# 2 25.6567 10.0057 7.2169 0.0000 0.0000 0.0000
# 3 70.9255 7.2169 74.6120 0.0000 0.0000 0.0000
# 4 0.0000 0.0000 0.0000 -14.1597 0.0000 0.0000
# 5 0.0000 0.0000 0.0000 0.0000 576.6546 0.0000
# 6 0.0000 0.0000 0.0000 0.0000 0.0000 4.8501
#
#
#
# Elastic Compliance Matrix: (Units=1/GPa)
#
#
# Indices 1 2 3 4 5 6 
#
# 1 0.022767 -0.045976 -0.017195 0.000000 0.000000 0.000000
# 2 -0.045976 0.200285 0.024332 0.000000 0.000000 0.000000
# 3 -0.017195 0.024332 0.027394 0.000000 0.000000 0.000000
# 4 0.000000 0.000000 0.000000 -0.070623 0.000000 0.000000
# 5 0.000000 0.000000 0.000000 0.000000 0.001734 0.000000
# 6 0.000000 0.000000 0.000000 0.000000 0.000000 0.206180
#
#
# Mechanical properties :
#
#
# Convention : Reuss Voigt Hill
#
# Bulk Modulus (GPa) = 5.78811 49.05772 27.42291
# Shear Modulus (GPa) = 9.56015 122.14382 65.85198
#
# Velocity S-wave (km/s) = 2.27041 8.11535 5.95876
# Velocity P-wave (km/s) = 3.16131 10.68940 7.88217
#
# Compressibility (1/GPa) = 0.17276811
#
# Stress axis : x y z
#
# Youngs Moduli (GPa) = 43.92409 4.99287 36.50409
#
# Poissons Ratio (x) = 0.22955 0.62767
# Poissons Ratio (y) = 2.01946 -0.88820
# Poissons Ratio (z) = 0.75526 -0.12148
#
# Static dielectric constant tensor:
#      x y z
#    x 1.674630 0.000000 0.000000 
#    y 0.000000 1.636850 0.000000 
#    z 0.000000 0.000000 1.614610 
# 
# From -- ./inp_files/21937.got.cif
#   From: 2010.05.17/outbox.cif.g08.bks.cpg/sg47_11_cif.got.tgz:21937.got - 2010.06.03 20:15:42.
