data_PCOD9382157
_publ_section_title
;
Structure prediction by ZEFSAII (Michael W. Deem and Ramdas Pophale) SiO2 
 PCOD9382157
Probable space group: P M M M
;
_chemical_formula_sum "Si O2"
_cell_formula_units_Z 48
_cell_length_a 7.607756
_cell_length_b 15.409159
_cell_length_c 18.119386
_cell_angle_alpha 90.000000
_cell_angle_beta 90.000000
_cell_angle_gamma 90.000000
_cell_volume 2124.119709
_symmetry_space_group_name_H-M "P M M M"
_symmetry_group_IT_number 47
_symmetry_cell_setting 'orthorhombic'
loop_
_space_group_symop_operation_xyz
x,y,z
-x,-y,z
x,-y,-z
-x,y,-z
-x,-y,-z
x,y,-z
-x,y,z
x,-y,z
loop_
_atom_site_type_symbol
_atom_site_label
_atom_site_fract_x
_atom_site_fract_y
_atom_site_fract_z
Si Si1 0.284691 0.594312 0.238342
Si Si2 0.786773 0.829174 0.166601
Si Si3 0.790195 0.598944 0.500000
Si Si4 0.706453 0.721931 0.363042
Si Si5 0.208084 0.099339 0.676632
Si Si6 0.786239 0.000000 0.918636
Si Si7 0.704625 0.653005 0.916027
O O1 0.500000 0.599272 0.236868
O O2 0.238071 0.500000 0.269990
O O3 0.219654 0.673202 0.289538
O O4 0.221286 0.599529 0.153572
O O5 0.723205 0.854338 0.248644
O O6 0.735267 0.914039 0.122210
O O7 0.715455 0.748547 0.120279
O O8 0.000000 0.819773 0.168305
O O9 0.720534 0.500000 0.500000
O O10 0.736518 0.654634 0.428909
O O11 0.000000 0.593874 0.500000
O O12 0.500000 0.730332 0.352078
O O13 0.770143 0.820094 0.379531
O O14 0.000000 0.089030 0.687261
O O15 0.275497 0.000000 0.663935
O O16 0.000000 0.000000 0.920035
O O17 0.717276 0.000000 0.000000
O O18 0.500000 0.628250 0.922576
O O19 0.777920 0.648960 0.000000
#
# Coordination Sequence:
#
# PCOD9382157 Si02
#       7
#     8   8   4   8   8   4   8
#     4   9  18  33  54  81 112 149 194 242 294 352
#     4  10  18  31  51  74 103 144 194 247 300 354
#     4  11  25  45  70 101 134 163 193 236 294 355
#     4  11  22  39  65  94 126 161 198 245 297 355
#     4  10  20  36  59  87 120 159 203 249 299 357
#     4   9  16  26  43  69  99 136 189 246 295 347
#     4  10  20  33  49  73 108 148 194 248 301 352
#
# _framework density 22.597595999999999
#
# number of rings (size 3 to 8) (size 9 to 14) (size 15 to 20)
#    0.000    2.000    2.500    1.750    0.000    3.000 
#    0.000    2.500    0.000    5.500    0.000    1.167 
#    0.000    0.000    0.000    0.000    0.000    0.000 
#
# Total GULP energy -267569.152331 kJ/mol
# GULP energy per Si atom -5574.357340 kJ/mol
# Density = 2.254616 g / cm^3
# Si number density = 22.597596 Si / 1000 Ang^3
#
#
#
# Elastic Constant Matrix: (Units=GPa)
#
#
# Indices 1 2 3 4 5 6 
#
# 1 57.1923 -0.0149 4.5812 0.0000 0.0000 0.0000
# 2 -0.0149 195.1069 56.9520 0.0000 0.0000 0.0000
# 3 4.5812 56.9520 92.9931 0.0000 0.0000 0.0000
# 4 0.0000 0.0000 0.0000 33.5376 0.0000 0.0000
# 5 0.0000 0.0000 0.0000 0.0000 7.1708 0.0000
# 6 0.0000 0.0000 0.0000 0.0000 0.0000 25.0727
#
#
#
# Elastic Compliance Matrix: (Units=1/GPa)
#
#
# Indices 1 2 3 4 5 6 
#
# 1 0.017569 0.000309 -0.001055 0.000000 0.000000 0.000000
# 2 0.000309 0.006247 -0.003841 0.000000 0.000000 0.000000
# 3 -0.001055 -0.003841 0.013158 0.000000 0.000000 0.000000
# 4 0.000000 0.000000 0.000000 0.029817 0.000000 0.000000
# 5 0.000000 0.000000 0.000000 0.000000 0.139455 0.000000
# 6 0.000000 0.000000 0.000000 0.000000 0.000000 0.039884
#
#
# Mechanical properties :
#
#
# Convention : Reuss Voigt Hill
#
# Bulk Modulus (GPa) = 35.97029 52.03654 44.00341
# Shear Modulus (GPa) = 18.89858 32.07446 25.48652
#
# Velocity S-wave (km/s) = 2.89504 3.77155 3.36198
# Velocity P-wave (km/s) = 5.20839 6.48410 5.88094
#
# Compressibility (1/GPa) = 0.02780072
#
# Stress axis : x y z
#
# Youngs Moduli (GPa) = 56.91694 160.08799 76.00104
#
# Poissons Ratio (x) = -0.04951 0.08018
# Poissons Ratio (y) = -0.01760 0.29191
# Poissons Ratio (z) = 0.06004 0.61487
#
# Static dielectric constant tensor:
#      x y z
#    x 1.856950 0.000000 0.000000 
#    y 0.000000 1.886290 0.000000 
#    z 0.000000 0.000000 1.883370 
# 
# From -- ./inp_files/26518.got.cif
#   From: 2010.05.17/outbox.cif.g08.bks.cpg/sg47_14_cif.got.tgz:26518.got - 2010.06.03 20:15:42.
