data_PCOD9382644
_publ_section_title
;
Structure prediction by ZEFSAII (Michael W. Deem and Ramdas Pophale) SiO2 
 PCOD9382644
Probable space group: P M M M
;
_chemical_formula_sum "Si O2"
_cell_formula_units_Z 52
_cell_length_a 27.850386
_cell_length_b 9.148362
_cell_length_c 15.825719
_cell_angle_alpha 90.000000
_cell_angle_beta 90.000000
_cell_angle_gamma 90.000000
_cell_volume 4032.162351
_symmetry_space_group_name_H-M "P M M M"
_symmetry_group_IT_number 47
_symmetry_cell_setting 'orthorhombic'
loop_
_space_group_symop_operation_xyz
x,y,z
-x,-y,z
x,-y,-z
-x,y,-z
-x,-y,-z
x,y,-z
-x,y,z
x,-y,z
loop_
_atom_site_type_symbol
_atom_site_label
_atom_site_fract_x
_atom_site_fract_y
_atom_site_fract_z
Si Si1 0.000000 0.168878 0.602954
Si Si2 0.902703 0.331010 0.603005
Si Si3 0.556112 0.825301 0.171646
Si Si4 0.557531 0.671618 0.500000
Si Si5 0.558356 0.668400 0.000000
Si Si6 0.610665 0.824298 0.344522
Si Si7 0.805737 0.831559 0.602740
Si Si8 0.707084 0.672844 0.601855
O O1 0.951589 0.251195 0.629942
O O2 0.000000 0.170106 0.500000
O O3 0.000000 0.000000 0.629321
O O4 0.902603 0.329632 0.500000
O O5 0.901846 0.500000 0.629170
O O6 0.854892 0.245947 0.630586
O O7 0.500000 0.785690 0.186564
O O8 0.587073 0.789645 0.254076
O O9 0.557729 0.000000 0.159053
O O10 0.573320 0.747542 0.086256
O O11 0.571576 0.500000 0.500000
O O12 0.500000 0.680804 0.500000
O O13 0.579013 0.750900 0.418049
O O14 0.573023 0.500000 0.000000
O O15 0.500000 0.674518 0.000000
O O16 0.663652 0.758161 0.354543
O O17 0.611372 0.000000 0.355104
O O18 0.806769 0.832423 0.500000
O O19 0.758336 0.741365 0.626414
O O20 0.803199 0.000000 0.630408
O O21 0.701563 0.691072 0.500000
O O22 0.705453 0.500000 0.619421
#
# Coordination Sequence:
#
# PCOD9382644 Si02
#       8
#     4   8   8   4   4   8   8   8
#     4   9  15  21  29  41  59  81 105 135 175 222
#     4   9  15  22  31  44  61  81 106 138 180 225
#     4   9  18  32  48  65  84 105 127 153 187 228
#     4  11  23  35  45  59  81 107 131 158 193 230
#     4   9  17  29  47  69  87 103 123 149 183 224
#     4  11  21  32  47  63  80 103 133 162 191 228
#     4   9  16  25  37  50  64  84 115 150 184 222
#     4  10  19  30  42  55  74  98 125 157 195 230
#
# _framework density 12.896305999999999
#
# number of rings (size 3 to 8) (size 9 to 14) (size 15 to 20)
#    0.000    2.385    0.769    3.000    0.000    8.615 
#    0.000    1.538    0.000    0.000    0.000    0.000 
#    0.000    0.000    0.000    0.000    0.000    0.000 
#
# Total GULP energy -289858.704182 kJ/mol
# GULP energy per Si atom -5574.205850 kJ/mol
# Density = 1.286695 g / cm^3
# Si number density = 12.896306 Si / 1000 Ang^3
#
#
#
# Elastic Constant Matrix: (Units=GPa)
#
#
# Indices 1 2 3 4 5 6 
#
# 1 110.5466 65.4472 40.6838 0.0000 0.0000 0.0000
# 2 65.4472 103.1281 45.9650 0.0000 0.0000 0.0000
# 3 40.6838 45.9650 64.1416 0.0000 0.0000 0.0000
# 4 0.0000 0.0000 0.0000 5.7337 0.0000 0.0000
# 5 0.0000 0.0000 0.0000 0.0000 2.7427 0.0000
# 6 0.0000 0.0000 0.0000 0.0000 0.0000 25.0284
#
#
#
# Elastic Compliance Matrix: (Units=1/GPa)
#
#
# Indices 1 2 3 4 5 6 
#
# 1 0.015157 -0.007837 -0.003998 0.000000 0.000000 0.000000
# 2 -0.007837 0.018300 -0.008143 0.000000 0.000000 0.000000
# 3 -0.003998 -0.008143 0.023961 0.000000 0.000000 0.000000
# 4 0.000000 0.000000 0.000000 0.174408 0.000000 0.000000
# 5 0.000000 0.000000 0.000000 0.000000 0.364611 0.000000
# 6 0.000000 0.000000 0.000000 0.000000 0.000000 0.039955
#
#
# Mechanical properties :
#
#
# Convention : Reuss Voigt Hill
#
# Bulk Modulus (GPa) = 57.26440 64.66760 60.96600
# Shear Modulus (GPa) = 7.32957 15.08228 11.20593
#
# Velocity S-wave (km/s) = 2.38659 3.42351 2.95095
# Velocity P-wave (km/s) = 7.21765 8.11667 7.68033
#
# Compressibility (1/GPa) = 0.01746286
#
# Stress axis : x y z
#
# Youngs Moduli (GPa) = 65.97586 54.64565 41.73377
#
# Poissons Ratio (x) = 0.42827 0.16683
# Poissons Ratio (y) = 0.51707 0.33983
# Poissons Ratio (z) = 0.26374 0.44497
#
# Static dielectric constant tensor:
#      x y z
#    x 1.418980 0.000000 0.000000 
#    y 0.000000 1.431720 0.000000 
#    z 0.000000 0.000000 1.382900 
# 
# From -- ./inp_files/25741.got.cif
#   From: 2010.05.17/outbox.cif.g08.bks.cpg/sg47_13_cif.got.tgz:25741.got - 2010.06.03 20:15:42.
