data_PCOD9382753
_publ_section_title
;
Structure prediction by ZEFSAII (Michael W. Deem and Ramdas Pophale) SiO2 
 PCOD9382753
Probable space group: P M M M
;
_chemical_formula_sum "Si O2"
_cell_formula_units_Z 60
_cell_length_a 14.638400
_cell_length_b 14.979165
_cell_length_c 15.647445
_cell_angle_alpha 90.000000
_cell_angle_beta 90.000000
_cell_angle_gamma 90.000000
_cell_volume 3431.031052
_symmetry_space_group_name_H-M "P M M M"
_symmetry_group_IT_number 47
_symmetry_cell_setting 'orthorhombic'
loop_
_space_group_symop_operation_xyz
x,y,z
-x,-y,z
x,-y,-z
-x,y,-z
-x,-y,-z
x,y,-z
-x,y,z
x,-y,z
loop_
_atom_site_type_symbol
_atom_site_label
_atom_site_fract_x
_atom_site_fract_y
_atom_site_fract_z
Si Si1 0.106818 0.655069 0.771664
Si Si2 0.108482 0.100005 0.367942
Si Si3 0.897308 0.141055 0.829597
Si Si4 0.398079 0.761019 0.402679
Si Si5 0.288209 0.104350 0.908388
Si Si6 0.606283 0.101629 0.252021
Si Si7 0.111503 0.500000 0.099774
Si Si8 0.802517 0.708664 0.596431
O O1 0.112145 0.753168 0.813327
O O2 0.140205 0.584779 0.842496
O O3 0.153732 0.660410 0.678595
O O4 0.000000 0.635772 0.755821
O O5 0.116233 0.100282 0.264860
O O6 0.165207 0.186444 0.398274
O O7 0.000000 0.113908 0.387516
O O8 0.134183 0.000000 0.398118
O O9 0.819425 0.109523 0.892720
O O10 0.000000 0.121031 0.858162
O O11 0.397103 0.794486 0.500000
O O12 0.500000 0.721139 0.388121
O O13 0.386363 0.840991 0.336606
O O14 0.307204 0.702370 0.394284
O O15 0.336101 0.143437 0.824930
O O16 0.315614 0.000000 0.909536
O O17 0.312933 0.144103 0.000000
O O18 0.500000 0.099426 0.226597
O O19 0.637085 0.000000 0.268099
O O20 0.000000 0.500000 0.096353
O O21 0.141724 0.500000 0.000000
O O22 0.827641 0.677998 0.500000
#
# Coordination Sequence:
#
# PCOD9382753 Si02
#       8
#     8   8   8   8   8   8   4   8
#     4   9  18  32  50  73  99 125 154 188 226 275
#     4   9  17  28  42  61  88 127 173 212 240 271
#     4   9  17  29  44  61  85 119 156 194 233 268
#     4   9  18  31  46  66  90 116 151 194 238 282
#     4  10  20  30  40  58  85 118 156 194 229 271
#     4   9  17  29  44  59  78 109 148 193 243 285
#     4   9  18  34  55  77 102 129 155 189 235 282
#     4  10  19  30  46  68  97 132 163 195 236 279
#
# _framework density 17.487454
#
# number of rings (size 3 to 8) (size 9 to 14) (size 15 to 20)
#    0.000    2.733    0.000    3.200    0.000    5.067 
#    0.000    7.000    0.000    1.200    0.000    0.467 
#    0.000    2.667    0.000    0.000    0.000    0.133 
#
# Total GULP energy -334113.708099 kJ/mol
# GULP energy per Si atom -5568.561802 kJ/mol
# Density = 1.744765 g / cm^3
# Si number density = 17.487454 Si / 1000 Ang^3
#
#
#
# Elastic Constant Matrix: (Units=GPa)
#
#
# Indices 1 2 3 4 5 6 
#
# 1 55.7248 8.7439 41.0482 0.0000 0.0000 0.0000
# 2 8.7439 46.1937 35.4785 0.0000 0.0000 0.0000
# 3 41.0482 35.4785 111.1706 0.0000 0.0000 0.0000
# 4 0.0000 0.0000 0.0000 16.7253 0.0000 0.0000
# 5 0.0000 0.0000 0.0000 0.0000 8.5784 0.0000
# 6 0.0000 0.0000 0.0000 0.0000 0.0000 7.3772
#
#
#
# Elastic Compliance Matrix: (Units=1/GPa)
#
#
# Indices 1 2 3 4 5 6 
#
# 1 0.024985 0.003121 -0.010221 0.000000 0.000000 0.000000
# 2 0.003121 0.029067 -0.010429 0.000000 0.000000 0.000000
# 3 -0.010221 -0.010429 0.016097 0.000000 0.000000 0.000000
# 4 0.000000 0.000000 0.000000 0.059790 0.000000 0.000000
# 5 0.000000 0.000000 0.000000 0.000000 0.116572 0.000000
# 6 0.000000 0.000000 0.000000 0.000000 0.000000 0.135553
#
#
# Mechanical properties :
#
#
# Convention : Reuss Voigt Hill
#
# Bulk Modulus (GPa) = 28.49719 42.62559 35.56139
# Shear Modulus (GPa) = 11.65992 15.05739 13.35866
#
# Velocity S-wave (km/s) = 2.58497 2.93753 2.76687
# Velocity P-wave (km/s) = 5.02400 5.99444 5.53055
#
# Compressibility (1/GPa) = 0.03509118
#
# Stress axis : x y z
#
# Youngs Moduli (GPa) = 40.02417 34.40352 62.12169
#
# Poissons Ratio (x) = -0.10737 0.63497
# Poissons Ratio (y) = -0.12492 0.64785
# Poissons Ratio (z) = 0.40910 0.35878
#
# Static dielectric constant tensor:
#      x y z
#    x 1.631990 0.000000 0.000000 
#    y 0.000000 1.593080 0.000000 
#    z 0.000000 0.000000 1.624210 
# 
# From -- ./inp_files/23935.got.cif
#   From: 2010.05.17/outbox.cif.g08.bks.cpg/sg47_12_cif.got.tgz:23935.got - 2010.06.03 20:15:42.
