data_PCOD9382381
_publ_section_title
;
Structure prediction by ZEFSAII (Michael W. Deem and Ramdas Pophale) SiO2 
 PCOD9382381
Probable space group: P M M M
;
_chemical_formula_sum "Si O2"
_cell_formula_units_Z 64
_cell_length_a 7.822725
_cell_length_b 19.347344
_cell_length_c 22.328231
_cell_angle_alpha 90.000000
_cell_angle_beta 90.000000
_cell_angle_gamma 90.000000
_cell_volume 3379.354353
_symmetry_space_group_name_H-M "P M M M"
_symmetry_group_IT_number 47
_symmetry_cell_setting 'orthorhombic'
loop_
_space_group_symop_operation_xyz
x,y,z
-x,-y,z
x,-y,-z
-x,y,-z
-x,-y,-z
x,y,-z
-x,y,z
x,-y,z
loop_
_atom_site_type_symbol
_atom_site_label
_atom_site_fract_x
_atom_site_fract_y
_atom_site_fract_z
Si Si1 0.297297 0.775310 0.266309
Si Si2 0.799612 0.925065 0.305905
Si Si3 0.299648 0.575510 0.408687
Si Si4 0.706985 0.876482 0.565036
Si Si5 0.290863 0.275778 0.604201
Si Si6 0.795743 0.576929 0.067764
Si Si7 0.307611 0.319416 0.830145
Si Si8 0.201058 0.421614 0.270537
O O1 0.500000 0.761006 0.265416
O O2 0.276256 0.856647 0.276213
O O3 0.231782 0.736847 0.326766
O O4 0.224276 0.746270 0.203833
O O5 0.776968 0.915087 0.377264
O O6 0.000000 0.924643 0.292456
O O7 0.727058 0.000000 0.288751
O O8 0.500000 0.574195 0.425179
O O9 0.226640 0.500000 0.427270
O O10 0.230176 0.651818 0.424419
O O11 0.281055 0.577964 0.336557
O O12 0.760762 0.902657 0.500000
O O13 0.500000 0.880037 0.568483
O O14 0.753974 0.795267 0.571196
O O15 0.500000 0.279316 0.604909
O O16 0.732196 0.500000 0.086777
O O17 0.762380 0.638635 0.113663
O O18 0.000000 0.571787 0.064638
O O19 0.731991 0.589821 0.000000
O O20 0.500000 0.300741 0.846793
O O21 0.298559 0.373520 0.775230
O O22 0.207556 0.500000 0.247780
O O23 0.000000 0.402497 0.274297
#
# Coordination Sequence:
#
# PCOD9382381 Si02
#       8
#     8   8   8   8   8   8   8   8
#     4   9  18  32  48  68  94 124 155 187 230 285
#     4  10  21  35  51  73 100 125 148 184 233 280
#     4   9  15  24  39  57  80 111 146 186 232 276
#     4   9  18  32  50  69  90 122 161 195 228 274
#     4   8  13  26  43  60  85 114 147 189 233 274
#     4   9  19  35  50  65  93 135 178 215 249 284
#     4  11  20  30  46  68  93 121 159 205 243 278
#     4  10  19  27  36  56  87 119 151 187 229 278
#
# _framework density 18.93853
#
# number of rings (size 3 to 8) (size 9 to 14) (size 15 to 20)
#    0.000    2.625    1.250    2.625    0.000    5.250 
#    0.000    1.875    0.000    0.375    0.000    2.625 
#    0.000    0.500    0.000   11.875    0.000   11.500 
#
# Total GULP energy -356588.555801 kJ/mol
# GULP energy per Si atom -5571.696184 kJ/mol
# Density = 1.889542 g / cm^3
# Si number density = 18.938530 Si / 1000 Ang^3
#
#
#
# Elastic Constant Matrix: (Units=GPa)
#
#
# Indices 1 2 3 4 5 6 
#
# 1 27.2521 4.1206 3.9211 0.0000 0.0000 0.0000
# 2 4.1206 122.3047 30.7654 0.0000 0.0000 0.0000
# 3 3.9211 30.7654 88.0545 0.0000 0.0000 0.0000
# 4 0.0000 0.0000 0.0000 0.2977 0.0000 0.0000
# 5 0.0000 0.0000 0.0000 0.0000 0.3562 0.0000
# 6 0.0000 0.0000 0.0000 0.0000 0.0000 17.5850
#
#
#
# Elastic Compliance Matrix: (Units=1/GPa)
#
#
# Indices 1 2 3 4 5 6 
#
# 1 0.037024 -0.000913 -0.001330 0.000000 0.000000 0.000000
# 2 -0.000913 0.008987 -0.003099 0.000000 0.000000 0.000000
# 3 -0.001330 -0.003099 0.012499 0.000000 0.000000 0.000000
# 4 0.000000 0.000000 0.000000 3.358905 0.000000 0.000000
# 5 0.000000 0.000000 0.000000 0.000000 2.807484 0.000000
# 6 0.000000 0.000000 0.000000 0.000000 0.000000 0.056867
#
#
# Mechanical properties :
#
#
# Convention : Reuss Voigt Hill
#
# Bulk Modulus (GPa) = 20.90939 35.02504 27.96722
# Shear Modulus (GPa) = 0.79260 16.90140 8.84700
#
# Velocity S-wave (km/s) = 0.64762 2.99061 2.16369
# Velocity P-wave (km/s) = 3.40938 5.51898 4.58710
#
# Compressibility (1/GPa) = 0.04782541
#
# Stress axis : x y z
#
# Youngs Moduli (GPa) = 27.00971 111.27613 80.00864
#
# Poissons Ratio (x) = 0.10158 0.10639
# Poissons Ratio (y) = 0.02466 0.24796
# Poissons Ratio (z) = 0.03592 0.34487
#
# Static dielectric constant tensor:
#      x y z
#    x 1.705390 0.000000 0.000000 
#    y 0.000000 1.726990 0.000000 
#    z 0.000000 0.000000 1.665200 
# 
# From -- ./inp_files/32200.got.cif
#   From: 2010.05.17/outbox.cif.g08.bks.cpg/sg47_17_cif.got.tgz:32200.got - 2010.06.03 20:15:42.
