data_PCOD9382533
_publ_section_title
;
Structure prediction by ZEFSAII (Michael W. Deem and Ramdas Pophale) SiO2 
 PCOD9382533
Probable space group: P M M M
;
_chemical_formula_sum "Si O2"
_cell_formula_units_Z 56
_cell_length_a 30.103188
_cell_length_b 9.010765
_cell_length_c 14.024826
_cell_angle_alpha 90.000000
_cell_angle_beta 90.000000
_cell_angle_gamma 90.000000
_cell_volume 3804.272660
_symmetry_space_group_name_H-M "P M M M"
_symmetry_group_IT_number 47
_symmetry_cell_setting 'orthorhombic'
loop_
_space_group_symop_operation_xyz
x,y,z
-x,-y,z
x,-y,-z
-x,y,-z
-x,-y,-z
x,y,-z
-x,y,z
x,-y,z
loop_
_atom_site_type_symbol
_atom_site_label
_atom_site_fract_x
_atom_site_fract_y
_atom_site_fract_z
Si Si1 0.909445 0.328791 0.616018
Si Si2 0.000000 0.828750 0.383783
Si Si3 0.358168 0.679233 0.391067
Si Si4 0.817906 0.821876 0.611506
Si Si5 0.725983 0.178347 0.290323
Si Si6 0.315802 0.321181 0.109694
Si Si7 0.591416 0.679574 0.205151
Si Si8 0.500000 0.681773 0.888931
O O1 0.909782 0.322435 0.500000
O O2 0.909592 0.500000 0.644245
O O3 0.954686 0.249875 0.648213
O O4 0.863812 0.250325 0.645649
O O5 0.000000 0.823207 0.500000
O O6 0.000000 0.000000 0.355839
O O7 0.368976 0.717450 0.500000
O O8 0.353170 0.500000 0.384944
O O9 0.312182 0.753401 0.358039
O O10 0.394982 0.723776 0.312538
O O11 0.811081 0.781304 0.500000
O O12 0.774469 0.778963 0.670899
O O13 0.822455 0.000000 0.615370
O O14 0.715735 0.241699 0.185607
O O15 0.722645 0.000000 0.291215
O O16 0.312002 0.500000 0.120611
O O17 0.366434 0.280855 0.139110
O O18 0.307272 0.283306 0.000000
O O19 0.589047 0.500000 0.204564
O O20 0.544724 0.733307 0.164043
O O21 0.500000 0.500000 0.887339
O O22 0.500000 0.724810 0.000000
#
# Coordination Sequence:
#
# PCOD9382533 Si02
#       8
#     8   4   8   8   8   8   8   4
#     4   9  16  24  35  52  73  99 135 176 210 241
#     4   9  15  23  35  49  69 101 138 173 210 249
#     4   9  17  29  43  58  80 110 140 170 205 246
#     4   9  17  28  39  53  77 107 136 167 206 248
#     4  10  19  29  43  63  84 106 136 174 210 246
#     4   9  17  30  46  62  83 110 136 164 202 249
#     4   8  14  24  38  59  84 107 133 164 201 247
#     4   9  14  20  35  59  84 107 131 165 210 255
#
# _framework density 14.720291
#
# number of rings (size 3 to 8) (size 9 to 14) (size 15 to 20)
#    0.000    3.000    0.000    2.786    0.000    6.571 
#    0.000    1.786    0.000    2.143    0.000    8.000 
#    0.000   18.286    0.000    0.643    0.000   12.071 
#
# Total GULP energy -311838.871245 kJ/mol
# GULP energy per Si atom -5568.551272 kJ/mol
# Density = 1.468679 g / cm^3
# Si number density = 14.720291 Si / 1000 Ang^3
#
#
#
# Elastic Constant Matrix: (Units=GPa)
#
#
# Indices 1 2 3 4 5 6 
#
# 1 155.9086 45.6767 67.1043 0.0000 0.0000 0.0000
# 2 45.6767 30.0734 29.2648 0.0000 0.0000 0.0000
# 3 67.1043 29.2648 96.4167 0.0000 0.0000 0.0000
# 4 0.0000 0.0000 0.0000 13.1465 0.0000 0.0000
# 5 0.0000 0.0000 0.0000 0.0000 14.5020 0.0000
# 6 0.0000 0.0000 0.0000 0.0000 0.0000 45.3430
#
#
#
# Elastic Compliance Matrix: (Units=1/GPa)
#
#
# Indices 1 2 3 4 5 6 
#
# 1 0.012662 -0.015122 -0.004222 0.000000 0.000000 0.000000
# 2 -0.015122 0.065252 -0.009280 0.000000 0.000000 0.000000
# 3 -0.004222 -0.009280 0.016127 0.000000 0.000000 0.000000
# 4 0.000000 0.000000 0.000000 0.076066 0.000000 0.000000
# 5 0.000000 0.000000 0.000000 0.000000 0.068956 0.000000
# 6 0.000000 0.000000 0.000000 0.000000 0.000000 0.022054
#
#
# Mechanical properties :
#
#
# Convention : Reuss Voigt Hill
#
# Bulk Modulus (GPa) = 27.18128 62.94335 45.06232
# Shear Modulus (GPa) = 15.12264 23.95516 19.53890
#
# Velocity S-wave (km/s) = 3.20868 4.03843 3.64723
# Velocity P-wave (km/s) = 5.67739 8.03726 6.95810
#
# Compressibility (1/GPa) = 0.03679002
#
# Stress axis : x y z
#
# Youngs Moduli (GPa) = 78.97772 15.32531 62.00711
#
# Poissons Ratio (x) = 0.23176 0.26182
# Poissons Ratio (y) = 1.19434 0.57545
# Poissons Ratio (z) = 0.33347 0.14223
#
# Static dielectric constant tensor:
#      x y z
#    x 1.480210 0.000000 0.000000 
#    y 0.000000 1.492350 0.000000 
#    z 0.000000 0.000000 1.475130 
# 
# From -- ./inp_files/25833.got.cif
#   From: 2010.05.17/outbox.cif.g08.bks.cpg/sg47_13_cif.got.tgz:25833.got - 2010.06.03 20:15:42.
