data_PCOD9382813
_publ_section_title
;
Structure prediction by ZEFSAII (Michael W. Deem and Ramdas Pophale) SiO2 
 PCOD9382813
Probable space group: P M M M
;
_chemical_formula_sum "Si O2"
_cell_formula_units_Z 64
_cell_length_a 27.019307
_cell_length_b 7.481605
_cell_length_c 15.103943
_cell_angle_alpha 90.000000
_cell_angle_beta 90.000000
_cell_angle_gamma 90.000000
_cell_volume 3053.228582
_symmetry_space_group_name_H-M "P M M M"
_symmetry_group_IT_number 47
_symmetry_cell_setting 'orthorhombic'
loop_
_space_group_symop_operation_xyz
x,y,z
-x,-y,z
x,-y,-z
-x,y,-z
-x,-y,-z
x,y,-z
-x,y,z
x,-y,z
loop_
_atom_site_type_symbol
_atom_site_label
_atom_site_fract_x
_atom_site_fract_y
_atom_site_fract_z
Si Si1 0.161259 0.214596 0.712631
Si Si2 0.055417 0.781254 0.707863
Si Si3 0.318394 0.712262 0.097340
Si Si4 0.649950 0.288008 0.716976
Si Si5 0.740910 0.713451 0.600056
Si Si6 0.797992 0.784887 0.099543
Si Si7 0.444103 0.215153 0.600061
Si Si8 0.059255 0.796184 0.906530
O O1 0.108737 0.271973 0.668779
O O2 0.208378 0.256883 0.652802
O O3 0.172170 0.279215 0.813796
O O4 0.158415 0.000000 0.719423
O O5 0.064271 0.719381 0.809336
O O6 0.000000 0.722482 0.678799
O O7 0.052882 0.000000 0.707444
O O8 0.327753 0.500000 0.092548
O O9 0.346157 0.785142 0.183422
O O10 0.259626 0.737019 0.112475
O O11 0.330089 0.787779 0.000000
O O12 0.659126 0.500000 0.724702
O O13 0.694314 0.214857 0.655831
O O14 0.597777 0.265817 0.669152
O O15 0.742638 0.784423 0.500000
O O16 0.734354 0.500000 0.593734
O O17 0.801279 0.000000 0.098305
O O18 0.811856 0.722181 0.000000
O O19 0.431631 0.276772 0.500000
O O20 0.500000 0.276399 0.620990
O O21 0.445314 0.000000 0.597642
O O22 0.000000 0.810346 0.912780
O O23 0.079427 0.000000 0.903899
O O24 0.075902 0.714576 0.000000
#
# Coordination Sequence:
#
# PCOD9382813 Si02
#       8
#     8   8   8   8   8   8   8   8
#     4  10  19  30  47  71  97 125 159 199 242 294
#     4   8  14  24  38  58  85 117 152 191 236 284
#     4   9  17  30  49  72  99 132 169 206 243 287
#     4  10  19  32  53  79 104 131 168 210 248 291
#     4  10  21  36  52  72  99 127 156 198 253 304
#     4   9  17  28  42  65  99 132 160 195 240 288
#     4   9  19  35  53  76 108 143 176 210 250 296
#     4   7   9  14  26  46  74 108 142 173 210 261
#
# _framework density 20.961418999999999
#
# number of rings (size 3 to 8) (size 9 to 14) (size 15 to 20)
#    0.000    3.000    1.250    1.875    0.000    2.750 
#    0.000    3.125    0.000    1.125    0.000    5.250 
#    0.000    0.000    0.000    7.375    0.000    7.000 
#
# Total GULP energy -356542.665217 kJ/mol
# GULP energy per Si atom -5570.979144 kJ/mol
# Density = 2.091371 g / cm^3
# Si number density = 20.961419 Si / 1000 Ang^3
#
#
#
# Elastic Constant Matrix: (Units=GPa)
#
#
# Indices 1 2 3 4 5 6 
#
# 1 146.3553 -4.9631 95.1968 0.0000 0.0000 0.0000
# 2 -4.9631 56.4281 7.4547 0.0000 0.0000 0.0000
# 3 95.1968 7.4547 133.4948 0.0000 0.0000 0.0000
# 4 0.0000 0.0000 0.0000 -98.6488 0.0000 0.0000
# 5 0.0000 0.0000 0.0000 0.0000 -30.3258 0.0000
# 6 0.0000 0.0000 0.0000 0.0000 0.0000 9.3480
#
#
#
# Elastic Compliance Matrix: (Units=1/GPa)
#
#
# Indices 1 2 3 4 5 6 
#
# 1 0.013058 0.002396 -0.009445 0.000000 0.000000 0.000000
# 2 0.002396 0.018293 -0.002730 0.000000 0.000000 0.000000
# 3 -0.009445 -0.002730 0.014379 0.000000 0.000000 0.000000
# 4 0.000000 0.000000 0.000000 -0.010137 0.000000 0.000000
# 5 0.000000 0.000000 0.000000 0.000000 -0.032975 0.000000
# 6 0.000000 0.000000 0.000000 0.000000 0.000000 0.106975
#
#
# Mechanical properties :
#
#
# Convention : Reuss Voigt Hill
#
# Bulk Modulus (GPa) = 38.21037 59.07279 48.64158
# Shear Modulus (GPa) = 36.26470 -8.01933 14.12269
#
# Velocity S-wave (km/s) = 4.16392 -1.95808 2.59848
# Velocity P-wave (km/s) = 6.43321 4.80945 5.67965
#
# Compressibility (1/GPa) = 0.02617091
#
# Stress axis : x y z
#
# Youngs Moduli (GPa) = 76.58297 54.66532 69.54556
#
# Poissons Ratio (x) = -0.13100 0.65689
# Poissons Ratio (y) = -0.18352 0.18989
# Poissons Ratio (z) = 0.72336 0.14926
#
# Static dielectric constant tensor:
#      x y z
#    x 1.749570 0.000000 0.000000 
#    y 0.000000 1.793760 0.000000 
#    z 0.000000 0.000000 1.806020 
# 
# From -- ./inp_files/25601.got.cif
#   From: 2010.05.17/outbox.cif.g08.bks.cpg/sg47_13_cif.got.tgz:25601.got - 2010.06.03 20:15:42.
