data_PCOD9382647
_publ_section_title
;
Structure prediction by ZEFSAII (Michael W. Deem and Ramdas Pophale) SiO2 
 PCOD9382647
Probable space group: P M M M
;
_chemical_formula_sum "Si O2"
_cell_formula_units_Z 52
_cell_length_a 9.103147
_cell_length_b 30.855833
_cell_length_c 13.181025
_cell_angle_alpha 90.000000
_cell_angle_beta 90.000000
_cell_angle_gamma 90.000000
_cell_volume 3702.354627
_symmetry_space_group_name_H-M "P M M M"
_symmetry_group_IT_number 47
_symmetry_cell_setting 'orthorhombic'
loop_
_space_group_symop_operation_xyz
x,y,z
-x,-y,z
x,-y,-z
-x,y,-z
-x,-y,-z
x,y,-z
-x,y,z
x,-y,z
loop_
_atom_site_type_symbol
_atom_site_label
_atom_site_fract_x
_atom_site_fract_y
_atom_site_fract_z
Si Si1 0.830763 0.635115 0.123745
Si Si2 0.331324 0.722514 0.123399
Si Si3 0.827125 0.811252 0.877579
Si Si4 0.321547 0.049827 0.613889
Si Si5 0.671867 0.452033 0.876785
Si Si6 0.826087 0.948078 0.000000
Si Si7 0.677285 0.898615 0.813075
O O1 0.739622 0.677184 0.156928
O O2 0.762121 0.589573 0.158447
O O3 0.000000 0.639007 0.153681
O O4 0.826301 0.634793 0.000000
O O5 0.500000 0.726411 0.156253
O O6 0.237462 0.764551 0.152664
O O7 0.331039 0.721715 0.000000
O O8 0.737780 0.850277 0.827604
O O9 0.000000 0.814169 0.855070
O O10 0.810300 0.815412 0.000000
O O11 0.273125 0.062024 0.500000
O O12 0.500000 0.049705 0.612933
O O13 0.277753 0.081079 0.704950
O O14 0.275665 0.000000 0.633365
O O15 0.500000 0.447329 0.850511
O O16 0.722680 0.500000 0.843521
O O17 0.678981 0.452039 0.000000
O O18 0.748631 0.927515 0.098147
O O19 0.000000 0.937152 0.000000
O O20 0.811075 0.000000 0.000000
O O21 0.500000 0.899359 0.821774
#
# Coordination Sequence:
#
# PCOD9382647 Si02
#       7
#     8   8   8   8   8   4   8
#     4   9  15  21  29  42  59  79 106 140 183 231
#     4   9  16  25  37  50  65  87 119 154 185 223
#     4  10  19  30  42  56  80 108 130 155 195 239
#     4   8  15  29  48  69  90 109 132 166 204 235
#     4   8  13  20  28  37  51  73 102 138 181 226
#     4  11  23  35  45  61  89 119 139 161 198 239
#     4  11  20  30  48  69  87 108 138 169 197 237
#
# _framework density 14.045116999999999
#
# number of rings (size 3 to 8) (size 9 to 14) (size 15 to 20)
#    0.000    2.692    0.769    3.462    0.000    5.846 
#    0.000    1.538    0.000    1.846    0.000    5.385 
#    0.000    0.000    0.000    0.000    0.000    0.000 
#
# Total GULP energy -289605.094463 kJ/mol
# GULP energy per Si atom -5569.328740 kJ/mol
# Density = 1.401315 g / cm^3
# Si number density = 14.045117 Si / 1000 Ang^3
#
#
#
# Elastic Constant Matrix: (Units=GPa)
#
#
# Indices 1 2 3 4 5 6 
#
# 1 79.2167 60.0580 25.9976 0.0000 0.0000 0.0000
# 2 60.0580 126.0690 39.7425 0.0000 0.0000 0.0000
# 3 25.9976 39.7425 44.7256 0.0000 0.0000 0.0000
# 4 0.0000 0.0000 0.0000 5.4712 0.0000 0.0000
# 5 0.0000 0.0000 0.0000 0.0000 2.1346 0.0000
# 6 0.0000 0.0000 0.0000 0.0000 0.0000 23.8233
#
#
#
# Elastic Compliance Matrix: (Units=1/GPa)
#
#
# Indices 1 2 3 4 5 6 
#
# 1 0.020385 -0.008301 -0.004473 0.000000 0.000000 0.000000
# 2 -0.008301 0.014399 -0.007970 0.000000 0.000000 0.000000
# 3 -0.004473 -0.007970 0.032040 0.000000 0.000000 0.000000
# 4 0.000000 0.000000 0.000000 0.182775 0.000000 0.000000
# 5 0.000000 0.000000 0.000000 0.000000 0.468471 0.000000
# 6 0.000000 0.000000 0.000000 0.000000 0.000000 0.041976
#
#
# Mechanical properties :
#
#
# Convention : Reuss Voigt Hill
#
# Bulk Modulus (GPa) = 39.46801 55.73418 47.60109
# Shear Modulus (GPa) = 6.17300 14.56671 10.36985
#
# Velocity S-wave (km/s) = 2.09873 3.22395 2.72016
# Velocity P-wave (km/s) = 5.83393 7.32304 6.62049
#
# Compressibility (1/GPa) = 0.02533698
#
# Stress axis : x y z
#
# Youngs Moduli (GPa) = 49.05558 69.44851 31.21083
#
# Poissons Ratio (x) = 0.57651 0.13960
# Poissons Ratio (y) = 0.40722 0.24874
# Poissons Ratio (z) = 0.21942 0.55348
#
# Static dielectric constant tensor:
#      x y z
#    x 1.469240 0.000000 0.000000 
#    y 0.000000 1.471970 0.000000 
#    z 0.000000 0.000000 1.430830 
# 
# From -- ./inp_files/15656.got.cif
#   From: 2010.05.17/outbox.cif.g08.bks.cpg/sg47_8_cif.got.tgz:15656.got - 2010.06.03 20:15:42.
