data_PCOD9382672
_publ_section_title
;
Structure prediction by ZEFSAII (Michael W. Deem and Ramdas Pophale) SiO2 
 PCOD9382672
Probable space group: P M M M
;
_chemical_formula_sum "Si O2"
_cell_formula_units_Z 64
_cell_length_a 32.457706
_cell_length_b 14.868526
_cell_length_c 7.659222
_cell_angle_alpha 90.000000
_cell_angle_beta 90.000000
_cell_angle_gamma 90.000000
_cell_volume 3696.327100
_symmetry_space_group_name_H-M "P M M M"
_symmetry_group_IT_number 47
_symmetry_cell_setting 'orthorhombic'
loop_
_space_group_symop_operation_xyz
x,y,z
-x,-y,z
x,-y,-z
-x,y,-z
-x,-y,-z
x,y,-z
-x,y,z
x,-y,z
loop_
_atom_site_type_symbol
_atom_site_label
_atom_site_fract_x
_atom_site_fract_y
_atom_site_fract_z
Si Si1 0.455661 0.104757 0.210064
Si Si2 0.874728 0.209701 0.794580
Si Si3 0.634424 0.897194 0.292239
Si Si4 0.713277 0.787704 0.285488
Si Si5 0.842218 0.399996 0.289584
Si Si6 0.953702 0.895995 0.213094
Si Si7 0.253135 0.399775 0.287055
Si Si8 0.792774 0.898709 0.293141
O O1 0.500000 0.143156 0.269480
O O2 0.411376 0.141874 0.263852
O O3 0.455109 0.000000 0.267906
O O4 0.456152 0.105079 0.000000
O O5 0.869343 0.315707 0.765124
O O6 0.916917 0.167259 0.723051
O O7 0.834317 0.158232 0.727614
O O8 0.875071 0.193273 0.000000
O O9 0.640147 0.904142 0.500000
O O10 0.671444 0.835467 0.225714
O O11 0.636200 0.000000 0.221387
O O12 0.713240 0.787232 0.500000
O O13 0.719913 0.684701 0.229620
O O14 0.752997 0.845005 0.225960
O O15 0.841843 0.400820 0.500000
O O16 0.854956 0.500000 0.230141
O O17 0.794618 0.385554 0.233886
O O18 0.000000 0.871597 0.270654
O O19 0.945802 0.000000 0.261827
O O20 0.954190 0.893327 0.000000
O O21 0.253191 0.399969 0.500000
O O22 0.265748 0.500000 0.230545
O O23 0.785883 0.906677 0.500000
O O24 0.796652 0.000000 0.221309
#
# Coordination Sequence:
#
# PCOD9382672 Si02
#       8
#     8   8   8   8   8   8   8   8
#     4   8  14  25  39  53  72 102 138 172 206 246
#     4  11  20  29  46  71  94 112 139 184 230 264
#     4   9  16  24  36  56  80 107 138 171 206 241
#     4   9  15  25  40  58  83 112 144 177 206 246
#     4   9  17  31  50  68  87 115 150 181 212 259
#     4   8  15  29  47  65  87 117 149 178 213 260
#     4   8  13  23  42  63  79 102 141 182 210 239
#     4  10  19  30  44  61  86 123 157 179 205 251
#
# _framework density 17.314485000000001
#
# number of rings (size 3 to 8) (size 9 to 14) (size 15 to 20)
#    0.000    3.000    1.250    2.625    0.000    2.750 
#    0.000    1.875    0.000    3.375    0.000    7.000 
#    0.000    0.500    0.000    6.250    0.000    1.250 
#
# Total GULP energy -356548.849671 kJ/mol
# GULP energy per Si atom -5571.075776 kJ/mol
# Density = 1.727508 g / cm^3
# Si number density = 17.314485 Si / 1000 Ang^3
#
#
#
# Elastic Constant Matrix: (Units=GPa)
#
#
# Indices 1 2 3 4 5 6 
#
# 1 158.7177 87.7189 1.3720 0.0000 0.0000 0.0000
# 2 87.7189 121.7887 0.5410 0.0000 0.0000 0.0000
# 3 1.3720 0.5410 27.2330 0.0000 0.0000 0.0000
# 4 0.0000 0.0000 0.0000 7.1872 0.0000 0.0000
# 5 0.0000 0.0000 0.0000 0.0000 14.1777 0.0000
# 6 0.0000 0.0000 0.0000 0.0000 0.0000 2.5257
#
#
#
# Elastic Compliance Matrix: (Units=1/GPa)
#
#
# Indices 1 2 3 4 5 6 
#
# 1 0.010471 -0.007540 -0.000378 0.000000 0.000000 0.000000
# 2 -0.007540 0.013641 0.000109 0.000000 0.000000 0.000000
# 3 -0.000378 0.000109 0.036737 0.000000 0.000000 0.000000
# 4 0.000000 0.000000 0.000000 0.139136 0.000000 0.000000
# 5 0.000000 0.000000 0.000000 0.000000 0.070533 0.000000
# 6 0.000000 0.000000 0.000000 0.000000 0.000000 0.395932
#
#
# Mechanical properties :
#
#
# Convention : Reuss Voigt Hill
#
# Bulk Modulus (GPa) = 22.10858 54.11148 38.11003
# Shear Modulus (GPa) = 7.17211 19.31863 13.24537
#
# Velocity S-wave (km/s) = 2.03746 3.34391 2.76884
# Velocity P-wave (km/s) = 4.28154 6.79919 5.68157
#
# Compressibility (1/GPa) = 0.04523131
#
# Stress axis : x y z
#
# Youngs Moduli (GPa) = 95.50225 73.30707 27.22051
#
# Poissons Ratio (x) = 0.55274 0.01028
# Poissons Ratio (y) = 0.72010 -0.00296
# Poissons Ratio (z) = 0.03607 -0.00798
#
# Static dielectric constant tensor:
#      x y z
#    x 1.599990 0.000000 0.000000 
#    y 0.000000 1.590060 0.000000 
#    z 0.000000 0.000000 1.664530 
# 
# From -- ./inp_files/14282.got.cif
#   From: 2010.05.17/outbox.cif.g08.bks.cpg/sg47_8_cif.got.tgz:14282.got - 2010.06.03 20:15:42.
