data_PCOD9382830
_publ_section_title
;
Structure prediction by ZEFSAII (Michael W. Deem and Ramdas Pophale) SiO2 
 PCOD9382830
Probable space group: P M M M
;
_chemical_formula_sum "Si O2"
_cell_formula_units_Z 32
_cell_length_a 10.465462
_cell_length_b 19.992081
_cell_length_c 8.773161
_cell_angle_alpha 90.000000
_cell_angle_beta 90.000000
_cell_angle_gamma 90.000000
_cell_volume 1835.576577
_symmetry_space_group_name_H-M "P M M M"
_symmetry_group_IT_number 47
_symmetry_cell_setting 'orthorhombic'
loop_
_space_group_symop_operation_xyz
x,y,z
-x,-y,z
x,-y,-z
-x,y,-z
-x,-y,-z
x,y,-z
-x,y,z
x,-y,z
loop_
_atom_site_type_symbol
_atom_site_label
_atom_site_fract_x
_atom_site_fract_y
_atom_site_fract_z
Si Si1 0.650576 0.713552 0.318488
Si Si2 0.345175 0.573585 0.821474
Si Si3 0.500000 0.923785 0.185328
Si Si4 0.755370 0.846075 0.816894
Si Si5 0.000000 0.921567 0.316970
O O1 0.656590 0.720729 0.500000
O O2 0.500000 0.721367 0.272187
O O3 0.693800 0.639255 0.270040
O O4 0.734159 0.770535 0.239239
O O5 0.500000 0.572150 0.813417
O O6 0.300402 0.500000 0.768497
O O7 0.311809 0.580874 0.000000
O O8 0.372585 0.885494 0.232620
O O9 0.500000 0.000000 0.238979
O O10 0.500000 0.924533 0.000000
O O11 0.876351 0.883436 0.746814
O O12 0.764051 0.847506 0.000000
O O13 0.000000 0.919029 0.500000
O O14 0.000000 0.000000 0.270575
#
# Coordination Sequence:
#
# PCOD9382830 Si02
#       5
#     8   8   4   8   4
#     4  10  19  30  47  74 110 145 178 220 271 325
#     4   8  14  25  42  66  99 139 181 222 264 312
#     4   9  18  32  53  81 106 129 168 221 269 314
#     4  11  21  36  58  81 107 141 182 226 269 319
#     4  11  25  43  59  79 110 143 176 221 277 333
#
# _framework density 17.433215000000001
#
# number of rings (size 3 to 8) (size 9 to 14) (size 15 to 20)
#    0.000    2.250    1.250    3.375    0.000    3.500 
#    0.000    2.500    0.000    3.000    0.000    0.875 
#    0.000    7.000    0.000    0.000    0.000    0.000 
#
# Total GULP energy -178474.249602 kJ/mol
# GULP energy per Si atom -5577.320300 kJ/mol
# Density = 1.739354 g / cm^3
# Si number density = 17.433215 Si / 1000 Ang^3
#
#
#
# Elastic Constant Matrix: (Units=GPa)
#
#
# Indices 1 2 3 4 5 6 
#
# 1 98.3269 66.2917 34.9938 0.0000 0.0000 0.0000
# 2 66.2917 174.2835 53.2843 0.0000 0.0000 0.0000
# 3 34.9938 53.2843 52.5451 0.0000 0.0000 0.0000
# 4 0.0000 0.0000 0.0000 26.4688 0.0000 0.0000
# 5 0.0000 0.0000 0.0000 0.0000 18.7167 0.0000
# 6 0.0000 0.0000 0.0000 0.0000 0.0000 13.6176
#
#
#
# Elastic Compliance Matrix: (Units=1/GPa)
#
#
# Indices 1 2 3 4 5 6 
#
# 1 0.014896 -0.003816 -0.006051 0.000000 0.000000 0.000000
# 2 -0.003816 0.009294 -0.006883 0.000000 0.000000 0.000000
# 3 -0.006051 -0.006883 0.030041 0.000000 0.000000 0.000000
# 4 0.000000 0.000000 0.000000 0.037780 0.000000 0.000000
# 5 0.000000 0.000000 0.000000 0.000000 0.053428 0.000000
# 6 0.000000 0.000000 0.000000 0.000000 0.000000 0.073434
#
#
# Mechanical properties :
#
#
# Convention : Reuss Voigt Hill
#
# Bulk Modulus (GPa) = 48.23696 70.47723 59.35709
# Shear Modulus (GPa) = 19.28391 23.13302 21.20846
#
# Velocity S-wave (km/s) = 3.32950 3.64669 3.49170
# Velocity P-wave (km/s) = 6.52000 7.63190 7.09776
#
# Compressibility (1/GPa) = 0.02073099
#
# Stress axis : x y z
#
# Youngs Moduli (GPa) = 67.13015 107.60017 33.28821
#
# Poissons Ratio (x) = 0.41062 0.20142
# Poissons Ratio (y) = 0.25618 0.22912
# Poissons Ratio (z) = 0.40619 0.74060
#
# Static dielectric constant tensor:
#      x y z
#    x 1.570760 0.000000 0.000000 
#    y 0.000000 1.610440 0.000000 
#    z 0.000000 0.000000 1.578600 
# 
# From -- ./inp_files/3617.got.cif
#   From: 2010.05.17/outbox.cif.g08.bks.cpg/sg47_2_cif.got.tgz:3617.got - 2010.06.03 20:15:42.
