data_PCOD9382898
_publ_section_title
;
Structure prediction by ZEFSAII (Michael W. Deem and Ramdas Pophale) SiO2 
 PCOD9382898
Probable space group: P M M M
;
_chemical_formula_sum "Si O2"
_cell_formula_units_Z 45
_cell_length_a 7.285326
_cell_length_b 20.467307
_cell_length_c 13.813641
_cell_angle_alpha 90.000000
_cell_angle_beta 90.000000
_cell_angle_gamma 90.000000
_cell_volume 2059.765876
_symmetry_space_group_name_H-M "P M M M"
_symmetry_group_IT_number 47
_symmetry_cell_setting 'orthorhombic'
loop_
_space_group_symop_operation_xyz
x,y,z
-x,-y,z
x,-y,-z
-x,y,-z
-x,-y,-z
x,y,-z
-x,y,z
x,-y,z
loop_
_atom_site_type_symbol
_atom_site_label
_atom_site_fract_x
_atom_site_fract_y
_atom_site_fract_z
Si Si1 0.722979 0.423978 0.610853
Si Si2 0.277890 0.621210 0.000000
Si Si3 0.290805 0.183570 0.258690
Si Si4 0.000000 0.500000 0.000000
Si Si5 0.723069 0.672320 0.785801
Si Si6 0.220958 0.072131 0.887449
Si Si7 0.277431 0.929371 0.612786
O O1 0.778553 0.405082 0.500000
O O2 0.500000 0.422495 0.610871
O O3 0.776639 0.500000 0.625901
O O4 0.782424 0.378331 0.700908
O O5 0.230467 0.655705 0.897252
O O6 0.160732 0.556095 0.000000
O O7 0.500000 0.611240 0.000000
O O8 0.500000 0.196392 0.290434
O O9 0.211953 0.254500 0.238609
O O10 0.293482 0.135390 0.166825
O O11 0.204420 0.135008 0.336620
O O12 0.500000 0.671381 0.783660
O O13 0.000000 0.072975 0.878063
O O14 0.285360 0.000000 0.854280
O O15 0.265965 0.076597 0.000000
O O16 0.239490 0.926582 0.500000
O O17 0.500000 0.929609 0.624879
O O18 0.210570 0.000000 0.648630
#
# Coordination Sequence:
#
# PCOD9382898 Si02
#       7
#     8   4   8   1   8   8   8
#     4   8  14  26  47  76 106 138 183 228 265 326
#     4  10  23  43  63  90 128 156 189 248 295 339
#     4  10  19  30  49  77 105 139 179 219 269 333
#     4  12  26  44  68  98 110 156 216 236 284 364
#     4   9  19  33  51  78 116 155 181 221 291 344
#     4   9  19  35  51  68  93 130 175 221 273 326
#     4   8  14  25  42  68 104 142 181 230 283 330
#
# _framework density 21.847142000000002
#
# number of rings (size 3 to 8) (size 9 to 14) (size 15 to 20)
#    0.000    3.022    0.000    2.267    2.489    2.133 
#    1.600    4.444    0.000    0.533    0.000    3.733 
#    0.000    0.000    0.000    0.000    0.000    0.000 
#
# Total GULP energy -250629.060586 kJ/mol
# GULP energy per Si atom -5569.534680 kJ/mol
# Density = 2.179742 g / cm^3
# Si number density = 21.847142 Si / 1000 Ang^3
#
#
#
# Elastic Constant Matrix: (Units=GPa)
#
#
# Indices 1 2 3 4 5 6 
#
# 1 95.5402 18.5507 8.5201 0.0000 0.0000 0.0000
# 2 18.5507 221.0887 119.3302 0.0000 0.0000 0.0000
# 3 8.5201 119.3302 183.2346 0.0000 0.0000 0.0000
# 4 0.0000 0.0000 0.0000 -27.4075 0.0000 0.0000
# 5 0.0000 0.0000 0.0000 0.0000 12.0240 0.0000
# 6 0.0000 0.0000 0.0000 0.0000 0.0000-1157.5463
#
#
#
# Elastic Compliance Matrix: (Units=1/GPa)
#
#
# Indices 1 2 3 4 5 6 
#
# 1 0.010642 -0.000965 0.000134 0.000000 0.000000 0.000000
# 2 -0.000965 0.007062 -0.004554 0.000000 0.000000 0.000000
# 3 0.000134 -0.004554 0.008417 0.000000 0.000000 0.000000
# 4 0.000000 0.000000 0.000000 -0.036486 0.000000 0.000000
# 5 0.000000 0.000000 0.000000 0.000000 0.083167 0.000000
# 6 0.000000 0.000000 0.000000 0.000000 0.000000 -0.000864
#
#
# Mechanical properties :
#
#
# Convention : Reuss Voigt Hill
#
# Bulk Modulus (GPa) = 65.14579 88.07395 76.60987
# Shear Modulus (GPa) = 56.93008 -211.02180 -77.04586
#
# Velocity S-wave (km/s) = 5.11028 -9.83869 -5.94495
# Velocity P-wave (km/s) = 8.04385 9.41622 3.46133
#
# Compressibility (1/GPa) = 0.01535019
#
# Stress axis : x y z
#
# Youngs Moduli (GPa) = 93.96496 141.59899 118.80373
#
# Poissons Ratio (x) = 0.13666 -0.01588
# Poissons Ratio (y) = 0.09069 0.54107
# Poissons Ratio (z) = -0.01256 0.64489
#
# Static dielectric constant tensor:
#      x y z
#    x 1.829510 0.000000 0.000000 
#    y 0.000000 1.768460 0.000000 
#    z 0.000000 0.000000 1.816800 
# 
# From -- ./inp_files/21324.got.cif
#   From: 2010.05.17/outbox.cif.g08.bks.cpg/sg47_11_cif.got.tgz:21324.got - 2010.06.03 20:15:42.
