data_PCOD9382972
_publ_section_title
;
Structure prediction by ZEFSAII (Michael W. Deem and Ramdas Pophale) SiO2 
 PCOD9382972
Probable space group: P M M M
;
_chemical_formula_sum "Si O2"
_cell_formula_units_Z 52
_cell_length_a 8.594866
_cell_length_b 26.988612
_cell_length_c 13.191239
_cell_angle_alpha 90.000000
_cell_angle_beta 90.000000
_cell_angle_gamma 90.000000
_cell_volume 3059.886016
_symmetry_space_group_name_H-M "P M M M"
_symmetry_group_IT_number 47
_symmetry_cell_setting 'orthorhombic'
loop_
_space_group_symop_operation_xyz
x,y,z
-x,-y,z
x,-y,-z
-x,y,-z
-x,-y,-z
x,y,-z
-x,y,z
x,-y,z
loop_
_atom_site_type_symbol
_atom_site_label
_atom_site_fract_x
_atom_site_fract_y
_atom_site_fract_z
Si Si1 0.180403 0.500000 0.122905
Si Si2 0.189408 0.769749 0.385646
Si Si3 0.310227 0.880343 0.000000
Si Si4 0.186750 0.293272 0.193939
Si Si5 0.687125 0.765714 0.000000
Si Si6 0.687878 0.056835 0.194861
Si Si7 0.314153 0.394654 0.881226
Si Si8 0.187734 0.116072 0.384124
O O1 0.260024 0.551220 0.155041
O O2 0.000000 0.500000 0.151673
O O3 0.190133 0.500000 0.000000
O O4 0.240422 0.757054 0.500000
O O5 0.241067 0.732781 0.297790
O O6 0.235173 0.826735 0.364159
O O7 0.000000 0.769283 0.386212
O O8 0.258704 0.909455 0.100553
O O9 0.500000 0.880627 0.000000
O O10 0.261728 0.823086 0.000000
O O11 0.251421 0.262186 0.099194
O O12 0.242638 0.349478 0.180816
O O13 0.000000 0.291969 0.190927
O O14 0.500000 0.763784 0.000000
O O15 0.500000 0.056912 0.193477
O O16 0.743631 0.080353 0.299843
O O17 0.740003 0.000000 0.183630
O O18 0.500000 0.391855 0.878475
O O19 0.265549 0.388971 0.000000
O O20 0.233387 0.103822 0.500000
O O21 0.000000 0.114143 0.379457
#
# Coordination Sequence:
#
# PCOD9382972 Si02
#       8
#     4   8   4   8   4   8   8   8
#     4   9  17  29  47  69  96 131 174 217 246 282
#     4   8  16  32  52  73  96 125 162 203 246 290
#     4   9  19  35  52  68  91 127 164 195 236 291
#     4  11  20  30  49  74 100 129 164 205 243 287
#     4  11  21  32  47  69  99 130 158 195 244 295
#     4  10  20  34  52  72  94 122 158 199 240 287
#     4  10  19  31  46  67 101 140 171 201 243 293
#     4   9  18  34  54  73  96 125 156 194 244 298
#
# _framework density 16.994095999999999
#
# number of rings (size 3 to 8) (size 9 to 14) (size 15 to 20)
#    0.000    2.385    0.769    3.462    0.000    3.385 
#    0.000    3.462    0.000    4.615    0.000    0.538 
#    0.000    4.308    0.000    0.000    0.000    0.000 
#
# Total GULP energy -290102.470888 kJ/mol
# GULP energy per Si atom -5578.893671 kJ/mol
# Density = 1.695542 g / cm^3
# Si number density = 16.994096 Si / 1000 Ang^3
#
#
#
# Elastic Constant Matrix: (Units=GPa)
#
#
# Indices 1 2 3 4 5 6 
#
# 1 23.3502 28.9830 17.1856 0.0000 0.0000 0.0000
# 2 28.9830 151.5679 74.8745 0.0000 0.0000 0.0000
# 3 17.1856 74.8745 90.7225 0.0000 0.0000 0.0000
# 4 0.0000 0.0000 0.0000 3.2065 0.0000 0.0000
# 5 0.0000 0.0000 0.0000 0.0000 14.6355 0.0000
# 6 0.0000 0.0000 0.0000 0.0000 0.0000 26.8297
#
#
#
# Elastic Compliance Matrix: (Units=1/GPa)
#
#
# Indices 1 2 3 4 5 6 
#
# 1 0.056641 -0.009338 -0.003023 0.000000 0.000000 0.000000
# 2 -0.009338 0.012679 -0.008695 0.000000 0.000000 0.000000
# 3 -0.003023 -0.008695 0.018771 0.000000 0.000000 0.000000
# 4 0.000000 0.000000 0.000000 0.311870 0.000000 0.000000
# 5 0.000000 0.000000 0.000000 0.000000 0.068327 0.000000
# 6 0.000000 0.000000 0.000000 0.000000 0.000000 0.037272
#
#
# Mechanical properties :
#
#
# Convention : Reuss Voigt Hill
#
# Bulk Modulus (GPa) = 21.74871 56.41408 39.08140
# Shear Modulus (GPa) = 8.88102 18.57416 13.72759
#
# Velocity S-wave (km/s) = 2.28851 3.30961 2.84524
# Velocity P-wave (km/s) = 4.45069 6.91903 5.81729
#
# Compressibility (1/GPa) = 0.04597974
#
# Stress axis : x y z
#
# Youngs Moduli (GPa) = 17.65502 78.87332 53.27254
#
# Poissons Ratio (x) = 0.73648 0.16105
# Poissons Ratio (y) = 0.16485 0.46320
# Poissons Ratio (z) = 0.05337 0.68580
#
# Static dielectric constant tensor:
#      x y z
#    x 1.581310 0.000000 0.000000 
#    y 0.000000 1.567500 0.000000 
#    z 0.000000 0.000000 1.556270 
# 
# From -- ./inp_files/13350.got.cif
#   From: 2010.05.17/outbox.cif.g08.bks.cpg/sg47_7_cif.got.tgz:13350.got - 2010.06.03 20:15:42.
