data_PCOD9382423
_publ_section_title
;
Structure prediction by ZEFSAII (Michael W. Deem and Ramdas Pophale) SiO2 
 PCOD9382423
Probable space group: P M M M
;
_chemical_formula_sum "Si O2"
_cell_formula_units_Z 56
_cell_length_a 8.529999
_cell_length_b 30.289367
_cell_length_c 14.208570
_cell_angle_alpha 90.000000
_cell_angle_beta 90.000000
_cell_angle_gamma 90.000000
_cell_volume 3671.043653
_symmetry_space_group_name_H-M "P M M M"
_symmetry_group_IT_number 47
_symmetry_cell_setting 'orthorhombic'
loop_
_space_group_symop_operation_xyz
x,y,z
-x,-y,z
x,-y,-z
-x,y,-z
-x,-y,-z
x,y,-z
-x,y,z
x,-y,z
loop_
_atom_site_type_symbol
_atom_site_label
_atom_site_fract_x
_atom_site_fract_y
_atom_site_fract_z
Si Si1 0.808996 0.549318 0.109275
Si Si2 0.687887 0.275400 0.107357
Si Si3 0.810002 0.637663 0.209069
Si Si4 0.187486 0.773555 0.284626
Si Si5 0.814341 0.048131 0.613500
Si Si6 0.809136 0.314424 0.394197
Si Si7 0.686665 0.141977 0.390801
O O1 0.757940 0.500000 0.138005
O O2 0.755086 0.590243 0.172058
O O3 0.000000 0.549337 0.111647
O O4 0.764447 0.556127 0.000000
O O5 0.500000 0.276733 0.110198
O O6 0.752422 0.322650 0.142596
O O7 0.746707 0.239448 0.182535
O O8 0.738241 0.266952 0.000000
O O9 0.760278 0.650426 0.314962
O O10 0.000000 0.638110 0.206774
O O11 0.237355 0.733704 0.354752
O O12 0.242950 0.819637 0.326952
O O13 0.000000 0.772765 0.279762
O O14 0.796028 0.047293 0.500000
O O15 0.732542 0.093082 0.644507
O O16 0.000000 0.051109 0.632781
O O17 0.757554 0.000000 0.648349
O O18 0.752384 0.321973 0.500000
O O19 0.000000 0.314958 0.396547
O O20 0.742758 0.146617 0.500000
O O21 0.500000 0.145904 0.391533
#
# Coordination Sequence:
#
# PCOD9382423 Si02
#       7
#     8   8   8   8   8   8   8
#     4   8  13  21  35  57  82 104 130 170 214 250
#     4  10  20  32  45  62  86 111 132 164 214 264
#     4   9  16  26  43  63  80 105 141 173 200 243
#     4  10  19  30  45  62  81 110 147 181 209 246
#     4   8  14  25  40  57  79 111 151 189 221 255
#     4   8  14  24  38  57  79 103 133 169 206 239
#     4  10  19  28  40  61  90 121 149 180 219 260
#
# _framework density 15.254517999999999
#
# number of rings (size 3 to 8) (size 9 to 14) (size 15 to 20)
#    0.000    3.000    0.000    3.857    0.000    3.429 
#    0.000    1.429    0.000    4.714    0.000    5.000 
#    0.000    0.571    0.000   11.143    0.000    9.143 
#
# Total GULP energy -311833.320494 kJ/mol
# GULP energy per Si atom -5568.452152 kJ/mol
# Density = 1.521980 g / cm^3
# Si number density = 15.254518 Si / 1000 Ang^3
#
#
#
# Elastic Constant Matrix: (Units=GPa)
#
#
# Indices 1 2 3 4 5 6 
#
# 1 16.5783 24.6465 21.3369 0.0000 0.0000 0.0000
# 2 24.6465 138.7067 76.6505 0.0000 0.0000 0.0000
# 3 21.3369 76.6505 112.6138 0.0000 0.0000 0.0000
# 4 0.0000 0.0000 0.0000 20.5215 0.0000 0.0000
# 5 0.0000 0.0000 0.0000 0.0000 13.3193 0.0000
# 6 0.0000 0.0000 0.0000 0.0000 0.0000 3.1268
#
#
#
# Elastic Compliance Matrix: (Units=1/GPa)
#
#
# Indices 1 2 3 4 5 6 
#
# 1 0.088096 -0.010306 -0.009677 0.000000 0.000000 0.000000
# 2 -0.010306 0.012762 -0.006734 0.000000 0.000000 0.000000
# 3 -0.009677 -0.006734 0.015297 0.000000 0.000000 0.000000
# 4 0.000000 0.000000 0.000000 0.048729 0.000000 0.000000
# 5 0.000000 0.000000 0.000000 0.000000 0.075079 0.000000
# 6 0.000000 0.000000 0.000000 0.000000 0.000000 0.319814
#
#
# Mechanical properties :
#
#
# Convention : Reuss Voigt Hill
#
# Bulk Modulus (GPa) = 15.94354 57.01851 36.48102
# Shear Modulus (GPa) = 7.88498 17.07785 12.48142
#
# Velocity S-wave (km/s) = 2.27600 3.34956 2.86354
# Velocity P-wave (km/s) = 4.16908 7.24008 5.90762
#
# Compressibility (1/GPa) = 0.06272132
#
# Stress axis : x y z
#
# Youngs Moduli (GPa) = 11.35130 78.35908 65.37433
#
# Poissons Ratio (x) = 0.80758 0.63260
# Poissons Ratio (y) = 0.11699 0.44020
# Poissons Ratio (z) = 0.10984 0.52764
#
# Static dielectric constant tensor:
#      x y z
#    x 1.513580 0.000000 0.000000 
#    y 0.000000 1.506900 0.000000 
#    z 0.000000 0.000000 1.498740 
# 
# From -- ./inp_files/8148.got.cif
#   From: 2010.05.17/outbox.cif.g08.bks.cpg/sg47_5_cif.got.tgz:8148.got - 2010.06.03 20:15:42.
