data_PCOD9382228
_publ_section_title
;
Structure prediction by ZEFSAII (Michael W. Deem and Ramdas Pophale) SiO2 
 PCOD9382228
Probable space group: P M M M
;
_chemical_formula_sum "Si O2"
_cell_formula_units_Z 44
_cell_length_a 7.877845
_cell_length_b 14.041438
_cell_length_c 19.179753
_cell_angle_alpha 90.000000
_cell_angle_beta 90.000000
_cell_angle_gamma 90.000000
_cell_volume 2121.592777
_symmetry_space_group_name_H-M "P M M M"
_symmetry_group_IT_number 47
_symmetry_cell_setting 'orthorhombic'
loop_
_space_group_symop_operation_xyz
x,y,z
-x,-y,z
x,-y,-z
-x,y,-z
-x,-y,-z
x,y,-z
-x,y,z
x,-y,z
loop_
_atom_site_type_symbol
_atom_site_label
_atom_site_fract_x
_atom_site_fract_y
_atom_site_fract_z
Si Si1 0.293915 0.393381 0.311096
Si Si2 0.797579 0.393474 0.852016
Si Si3 0.697695 0.798027 0.078118
Si Si4 0.693636 0.195650 0.647491
Si Si5 0.196600 0.890839 0.217336
Si Si6 0.295771 0.000000 0.582449
O O1 0.500000 0.390569 0.312292
O O2 0.240529 0.500000 0.333419
O O3 0.239135 0.382048 0.230408
O O4 0.231529 0.302259 0.355504
O O5 0.741479 0.500000 0.871481
O O6 0.714264 0.311031 0.897068
O O7 0.000000 0.386394 0.861444
O O8 0.500000 0.824664 0.078212
O O9 0.786477 0.858650 0.138015
O O10 0.765487 0.810051 0.000000
O O11 0.500000 0.201502 0.620944
O O12 0.695490 0.172182 0.729927
O O13 0.771639 0.100122 0.613443
O O14 0.000000 0.880857 0.238083
O O15 0.249180 0.000000 0.225040
O O16 0.500000 0.000000 0.597639
O O17 0.271886 0.000000 0.500000
#
# Coordination Sequence:
#
# PCOD9382228 Si02
#       6
#     8   8   8   8   8   4
#     4   9  17  29  48  76 107 139 179 225 270 319
#     4  10  20  33  51  76 105 137 175 223 277 328
#     4  11  24  39  54  73 100 138 183 228 274 327
#     4  10  18  31  55  81 107 144 183 222 266 318
#     4  11  23  37  55  79 105 134 172 223 279 334
#     4   9  18  32  53  85 118 147 184 225 265 314
#
# _framework density 20.739135000000001
#
# number of rings (size 3 to 8) (size 9 to 14) (size 15 to 20)
#    0.000    1.909    2.727    1.636    0.000    4.364 
#    0.000    3.636    0.000    1.636    0.000    3.818 
#    0.000    0.000    0.000    6.182    0.000    6.545 
#
# Total GULP energy -245501.027062 kJ/mol
# GULP energy per Si atom -5579.568797 kJ/mol
# Density = 2.069193 g / cm^3
# Si number density = 20.739135 Si / 1000 Ang^3
#
#
#
# Elastic Constant Matrix: (Units=GPa)
#
#
# Indices 1 2 3 4 5 6 
#
# 1 30.5680 4.1096 -0.0360 0.0000 0.0000 0.0000
# 2 4.1096 114.5097 31.2891 0.0000 0.0000 0.0000
# 3 -0.0360 31.2891 41.8291 0.0000 0.0000 0.0000
# 4 0.0000 0.0000 0.0000 19.9109 0.0000 0.0000
# 5 0.0000 0.0000 0.0000 0.0000 -36.2090 0.0000
# 6 0.0000 0.0000 0.0000 0.0000 0.0000 14.6711
#
#
#
# Elastic Compliance Matrix: (Units=1/GPa)
#
#
# Indices 1 2 3 4 5 6 
#
# 1 0.032916 -0.001495 0.001146 0.000000 0.000000 0.000000
# 2 -0.001495 0.011044 -0.008263 0.000000 0.000000 0.000000
# 3 0.001146 -0.008263 0.030088 0.000000 0.000000 0.000000
# 4 0.000000 0.000000 0.000000 0.050224 0.000000 0.000000
# 5 0.000000 0.000000 0.000000 0.000000 -0.027617 0.000000
# 6 0.000000 0.000000 0.000000 0.000000 0.000000 0.068161
#
#
# Mechanical properties :
#
#
# Convention : Reuss Voigt Hill
#
# Bulk Modulus (GPa) = 17.59722 28.62579 23.11151
# Shear Modulus (GPa) = 24.87800 9.77753 17.32776
#
# Velocity S-wave (km/s) = 3.46724 2.17365 2.89366
# Velocity P-wave (km/s) = 4.95302 4.48692 4.72572
#
# Compressibility (1/GPa) = 0.05682716
#
# Stress axis : x y z
#
# Youngs Moduli (GPa) = 30.38011 90.54495 33.23540
#
# Poissons Ratio (x) = 0.13532 -0.03810
# Poissons Ratio (y) = 0.04540 0.27461
# Poissons Ratio (z) = -0.03482 0.74814
#
# Static dielectric constant tensor:
#      x y z
#    x 1.740730 0.000000 0.000000 
#    y 0.000000 1.798740 0.000000 
#    z 0.000000 0.000000 1.701860 
# 
# From -- ./inp_files/8968.got.cif
#   From: 2010.05.17/outbox.cif.g08.bks.cpg/sg47_5_cif.got.tgz:8968.got - 2010.06.03 20:15:42.
