data_PCOD9382655
_publ_section_title
;
Structure prediction by ZEFSAII (Michael W. Deem and Ramdas Pophale) SiO2 
 PCOD9382655
Probable space group: P M M M
;
_chemical_formula_sum "Si O2"
_cell_formula_units_Z 64
_cell_length_a 17.079271
_cell_length_b 7.338149
_cell_length_c 22.295382
_cell_angle_alpha 90.000000
_cell_angle_beta 90.000000
_cell_angle_gamma 90.000000
_cell_volume 2794.285475
_symmetry_space_group_name_H-M "P M M M"
_symmetry_group_IT_number 47
_symmetry_cell_setting 'orthorhombic'
loop_
_space_group_symop_operation_xyz
x,y,z
-x,-y,z
x,-y,-z
-x,y,-z
-x,-y,-z
x,y,-z
-x,y,z
x,-y,z
loop_
_atom_site_type_symbol
_atom_site_label
_atom_site_fract_x
_atom_site_fract_y
_atom_site_fract_z
Si Si1 0.253302 0.295782 0.881689
Si Si2 0.914656 0.211701 0.326918
Si Si3 0.412935 0.277364 0.835660
Si Si4 0.384879 0.288787 0.698519
Si Si5 0.380683 0.277523 0.432959
Si Si6 0.198749 0.281105 0.565040
Si Si7 0.913448 0.718908 0.928625
Si Si8 0.777838 0.779604 0.253205
O O1 0.258614 0.500000 0.908241
O O2 0.341644 0.214626 0.878852
O O3 0.171411 0.212261 0.905479
O O4 0.240380 0.302684 0.810531
O O5 0.859799 0.218279 0.384580
O O6 0.861498 0.289406 0.274522
O O7 0.000000 0.291656 0.335845
O O8 0.923450 0.000000 0.311957
O O9 0.500000 0.229375 0.856445
O O10 0.407071 0.500000 0.834025
O O11 0.406519 0.215278 0.765128
O O12 0.408568 0.500000 0.699644
O O13 0.411182 0.216783 0.633028
O O14 0.290380 0.276480 0.700961
O O15 0.410085 0.222612 0.500000
O O16 0.386313 0.500000 0.432362
O O17 0.289129 0.223705 0.431585
O O18 0.168433 0.225409 0.500000
O O19 0.200870 0.500000 0.567841
O O20 0.912682 0.500000 0.917817
O O21 0.000000 0.783497 0.905951
O O22 0.913820 0.748863 0.000000
O O23 0.776123 0.000000 0.249110
#
# Coordination Sequence:
#
# PCOD9382655 Si02
#       8
#     8   8   8   8   8   8   8   8
#     4   9  17  29  48  70  91 121 154 181 218 266
#     4  10  21  33  41  52  76 110 140 170 218 275
#     4   8  14  24  40  65  93 120 151 185 218 259
#     4   9  15  26  46  63  79 108 144 178 218 271
#     4   8  13  22  39  61  79  96 126 174 226 269
#     4   9  17  29  44  59  74  95 130 179 227 268
#     4   8  14  26  46  73 101 124 152 194 232 256
#     4  10  19  30  43  60  84 111 142 183 223 260
#
# _framework density 22.903887999999998
#
# number of rings (size 3 to 8) (size 9 to 14) (size 15 to 20)
#    0.000    3.125    1.250    2.250    0.000    1.750 
#    0.000    1.250    0.000    7.500    0.000    6.125 
#    0.000    0.000    0.000    9.000    0.000   10.000 
#
# Total GULP energy -356298.453555 kJ/mol
# GULP energy per Si atom -5567.163337 kJ/mol
# Density = 2.285176 g / cm^3
# Si number density = 22.903888 Si / 1000 Ang^3
#
#
#
# Elastic Constant Matrix: (Units=GPa)
#
#
# Indices 1 2 3 4 5 6 
#
# 1 211.0714 8.6969 32.9794 0.0000 0.0000 0.0000
# 2 8.6969 90.7278 -1.7748 0.0000 0.0000 0.0000
# 3 32.9794 -1.7748 31.1100 0.0000 0.0000 0.0000
# 4 0.0000 0.0000 0.0000 -56.1997 0.0000 0.0000
# 5 0.0000 0.0000 0.0000 0.0000 -7.0848 0.0000
# 6 0.0000 0.0000 0.0000 0.0000 0.0000 16.1322
#
#
#
# Elastic Compliance Matrix: (Units=1/GPa)
#
#
# Indices 1 2 3 4 5 6 
#
# 1 0.005718 -0.000667 -0.006100 0.000000 0.000000 0.000000
# 2 -0.000667 0.011112 0.001342 0.000000 0.000000 0.000000
# 3 -0.006100 0.001342 0.038687 0.000000 0.000000 0.000000
# 4 0.000000 0.000000 0.000000 -0.017794 0.000000 0.000000
# 5 0.000000 0.000000 0.000000 0.000000 -0.141147 0.000000
# 6 0.000000 0.000000 0.000000 0.000000 0.000000 0.061988
#
#
# Mechanical properties :
#
#
# Convention : Reuss Voigt Hill
#
# Bulk Modulus (GPa) = 22.38852 45.85692 34.12272
# Shear Modulus (GPa) = -318.58731 10.10339 -154.24196
#
# Velocity S-wave (km/s) = -11.80675 2.10257 -8.21519
# Velocity P-wave (km/s) = 13.26913 5.09503 8.66344
#
# Compressibility (1/GPa) = 0.04466575
#
# Stress axis : x y z
#
# Youngs Moduli (GPa) = 174.87544 89.99115 25.84834
#
# Poissons Ratio (x) = 0.06007 0.15768
# Poissons Ratio (y) = 0.11672 -0.03468
# Poissons Ratio (z) = 1.06675 -0.12073
#
# Static dielectric constant tensor:
#      x y z
#    x 1.941730 0.000000 0.000000 
#    y 0.000000 1.804040 0.000000 
#    z 0.000000 0.000000 1.829650 
# 
# From -- ./inp_files/10221.got.cif
#   From: 2010.05.17/outbox.cif.g08.bks.cpg/sg47_6_cif.got.tgz:10221.got - 2010.06.03 20:15:42.
