data_PCOD9382911
_publ_section_title
;
Structure prediction by ZEFSAII (Michael W. Deem and Ramdas Pophale) SiO2 
 PCOD9382911
Probable space group: P M M M
;
_chemical_formula_sum "Si O2"
_cell_formula_units_Z 52
_cell_length_a 7.484060
_cell_length_b 15.330992
_cell_length_c 21.612230
_cell_angle_alpha 90.000000
_cell_angle_beta 90.000000
_cell_angle_gamma 90.000000
_cell_volume 2479.745429
_symmetry_space_group_name_H-M "P M M M"
_symmetry_group_IT_number 47
_symmetry_cell_setting 'orthorhombic'
loop_
_space_group_symop_operation_xyz
x,y,z
-x,-y,z
x,-y,-z
-x,y,-z
-x,-y,-z
x,y,-z
-x,y,z
x,-y,z
loop_
_atom_site_type_symbol
_atom_site_label
_atom_site_fract_x
_atom_site_fract_y
_atom_site_fract_z
Si Si1 0.284693 0.709077 0.932912
Si Si2 0.213349 0.400009 0.191963
Si Si3 0.286354 0.093930 0.237701
Si Si4 0.714781 0.095301 0.909156
Si Si5 0.801698 0.500000 0.425730
Si Si6 0.780841 0.691187 0.430238
Si Si7 0.794840 0.272816 0.298869
O O1 0.500000 0.713472 0.932538
O O2 0.239282 0.652892 0.872285
O O3 0.219271 0.809898 0.930333
O O4 0.228688 0.671863 0.000000
O O5 0.281303 0.500000 0.189546
O O6 0.284659 0.342912 0.250239
O O7 0.000000 0.405244 0.199780
O O8 0.500000 0.098021 0.246496
O O9 0.255675 0.095815 0.164384
O O10 0.206977 0.179512 0.266797
O O11 0.222671 0.000000 0.261657
O O12 0.500000 0.094775 0.920480
O O13 0.781088 0.000000 0.931383
O O14 0.820763 0.500000 0.500000
O O15 0.718835 0.592880 0.413325
O O16 0.000000 0.500000 0.396899
O O17 0.720249 0.714349 0.500000
O O18 0.723079 0.740823 0.368559
O O19 0.000000 0.690629 0.434526
O O20 0.000000 0.301091 0.307790
#
# Coordination Sequence:
#
# PCOD9382911 Si02
#       7
#     8   8   8   8   4   8   8
#     4  10  20  34  54  77  98 124 164 211 248 283
#     4  10  22  37  50  69 100 135 167 199 241 292
#     4   9  17  31  52  74  97 128 162 197 243 298
#     4   8  14  27  48  73  99 123 148 186 241 298
#     4   7  10  18  34  58  89 123 154 185 228 282
#     4   8  14  24  40  66  99 130 159 196 245 293
#     4  10  19  30  50  77 101 127 162 205 244 284
#
# _framework density 20.969895999999999
#
# number of rings (size 3 to 8) (size 9 to 14) (size 15 to 20)
#    0.000    3.000    1.538    1.846    1.077    1.538 
#    0.000    3.077    0.000    1.385    0.000    4.308 
#    0.000    1.846    0.000    0.000    0.000    0.000 
#
# Total GULP energy -289497.147950 kJ/mol
# GULP energy per Si atom -5567.252845 kJ/mol
# Density = 2.092217 g / cm^3
# Si number density = 20.969896 Si / 1000 Ang^3
#
#
#
# Elastic Constant Matrix: (Units=GPa)
#
#
# Indices 1 2 3 4 5 6 
#
# 1 51.2161 4.5980 13.2768 0.0000 0.0000 0.0000
# 2 4.5980 127.7477 74.5293 0.0000 0.0000 0.0000
# 3 13.2768 74.5293 161.0253 0.0000 0.0000 0.0000
# 4 0.0000 0.0000 0.0000 -1.1209 0.0000 0.0000
# 5 0.0000 0.0000 0.0000 0.0000 0.8624 0.0000
# 6 0.0000 0.0000 0.0000 0.0000 0.0000 0.5930
#
#
#
# Elastic Compliance Matrix: (Units=1/GPa)
#
#
# Indices 1 2 3 4 5 6 
#
# 1 0.019962 0.000331 -0.001799 0.000000 0.000000 0.000000
# 2 0.000331 0.010729 -0.004993 0.000000 0.000000 0.000000
# 3 -0.001799 -0.004993 0.008670 0.000000 0.000000 0.000000
# 4 0.000000 0.000000 0.000000 -0.892107 0.000000 0.000000
# 5 0.000000 0.000000 0.000000 0.000000 1.159491 0.000000
# 6 0.000000 0.000000 0.000000 0.000000 0.000000 1.686349
#
#
# Mechanical properties :
#
#
# Convention : Reuss Voigt Hill
#
# Bulk Modulus (GPa) = 37.82418 58.31082 48.06750
# Shear Modulus (GPa) = 2.48160 16.57257 9.52709
#
# Velocity S-wave (km/s) = 1.08903 2.81428 2.13380
# Velocity P-wave (km/s) = 4.43372 6.19899 5.38913
#
# Compressibility (1/GPa) = 0.02643811
#
# Stress axis : x y z
#
# Youngs Moduli (GPa) = 50.09578 93.20463 115.34557
#
# Poissons Ratio (x) = -0.03087 0.20753
# Poissons Ratio (y) = -0.01659 0.57594
# Poissons Ratio (z) = 0.09013 0.46539
#
# Static dielectric constant tensor:
#      x y z
#    x 1.882630 0.000000 0.000000 
#    y 0.000000 1.772600 0.000000 
#    z 0.000000 0.000000 1.770920 
# 
# From -- ./inp_files/29538.got.cif
#   From: 2010.05.17/outbox.cif.g08.bks.cpg/sg47_15_cif.got.tgz:29538.got - 2010.06.03 20:15:42.
