data_PCOD9382695
_publ_section_title
;
Structure prediction by ZEFSAII (Michael W. Deem and Ramdas Pophale) SiO2 
 PCOD9382695
Probable space group: P M M M
;
_chemical_formula_sum "Si O2"
_cell_formula_units_Z 44
_cell_length_a 13.687432
_cell_length_b 23.599042
_cell_length_c 7.583998
_cell_angle_alpha 90.000000
_cell_angle_beta 90.000000
_cell_angle_gamma 90.000000
_cell_volume 2449.709338
_symmetry_space_group_name_H-M "P M M M"
_symmetry_group_IT_number 47
_symmetry_cell_setting 'orthorhombic'
loop_
_space_group_symop_operation_xyz
x,y,z
-x,-y,z
x,-y,-z
-x,y,-z
-x,-y,-z
x,y,-z
-x,y,z
x,-y,z
loop_
_atom_site_type_symbol
_atom_site_label
_atom_site_fract_x
_atom_site_fract_y
_atom_site_fract_z
Si Si1 0.892940 0.682213 0.213746
Si Si2 0.619060 0.064875 0.000000
Si Si3 0.382227 0.847825 0.703616
Si Si4 0.185119 0.438041 0.784337
Si Si5 0.317276 0.725213 0.295350
Si Si6 0.607043 0.603423 0.204870
O O1 0.876702 0.616675 0.268338
O O2 0.798759 0.715841 0.279428
O O3 0.000000 0.701937 0.270413
O O4 0.889460 0.683828 0.000000
O O5 0.649321 0.100916 0.828812
O O6 0.500000 0.063667 0.000000
O O7 0.652722 0.000000 0.000000
O O8 0.350272 0.854688 0.500000
O O9 0.500000 0.846457 0.704389
O O10 0.346772 0.786782 0.772994
O O11 0.150751 0.500000 0.728702
O O12 0.296598 0.427018 0.721942
O O13 0.186051 0.437470 0.000000
O O14 0.346656 0.723892 0.500000
O O15 0.368817 0.670587 0.210767
O O16 0.500000 0.592585 0.283361
O O17 0.602528 0.586472 0.000000
#
# Coordination Sequence:
#
# PCOD9382695 Si02
#       6
#     8   4   8   8   8   8
#     4   9  18  31  46  65  87 111 142 185 237 286
#     4   9  18  30  46  70  99 137 174 197 225 261
#     4   9  18  30  45  69  99 131 166 200 231 268
#     4   8  14  25  41  62  86 110 141 183 229 278
#     4  10  19  30  45  65  89 117 150 187 229 277
#     4   9  17  27  41  62  86 114 146 184 230 274
#
# _framework density 17.961316
#
# number of rings (size 3 to 8) (size 9 to 14) (size 15 to 20)
#    0.000    3.000    0.000    2.182    2.545    2.545 
#    0.000    5.455    0.000    8.727    0.000   10.182 
#    0.000    1.455    0.000    4.000    0.000    0.182 
#
# Total GULP energy -245263.867854 kJ/mol
# GULP energy per Si atom -5574.178815 kJ/mol
# Density = 1.792044 g / cm^3
# Si number density = 17.961316 Si / 1000 Ang^3
#
#
#
# Elastic Constant Matrix: (Units=GPa)
#
#
# Indices 1 2 3 4 5 6 
#
# 1 35.6346 -18.0110 -5.8656 0.0000 0.0000 0.0000
# 2 -18.0110 81.6334 14.6493 0.0000 0.0000 0.0000
# 3 -5.8656 14.6493 48.2051 0.0000 0.0000 0.0000
# 4 0.0000 0.0000 0.0000 58.4130 0.0000 0.0000
# 5 0.0000 0.0000 0.0000 0.0000 7.0427 0.0000
# 6 0.0000 0.0000 0.0000 0.0000 0.0000 7.1973
#
#
#
# Elastic Compliance Matrix: (Units=1/GPa)
#
#
# Indices 1 2 3 4 5 6 
#
# 1 0.031737 0.006673 0.001834 0.000000 0.000000 0.000000
# 2 0.006673 0.014360 -0.003552 0.000000 0.000000 0.000000
# 3 0.001834 -0.003552 0.022047 0.000000 0.000000 0.000000
# 4 0.000000 0.000000 0.000000 0.017119 0.000000 0.000000
# 5 0.000000 0.000000 0.000000 0.000000 0.141991 0.000000
# 6 0.000000 0.000000 0.000000 0.000000 0.000000 0.138941
#
#
# Mechanical properties :
#
#
# Convention : Reuss Voigt Hill
#
# Bulk Modulus (GPa) = 12.81155 16.33540 14.57347
# Shear Modulus (GPa) = 13.07860 26.17728 19.62794
#
# Velocity S-wave (km/s) = 2.70136 3.82177 3.30932
# Velocity P-wave (km/s) = 4.10830 5.34687 4.76798
#
# Compressibility (1/GPa) = 0.07805457
#
# Stress axis : x y z
#
# Youngs Moduli (GPa) = 31.50865 69.63985 45.35715
#
# Poissons Ratio (x) = -0.46472 -0.08318
# Poissons Ratio (y) = -0.21026 0.16110
# Poissons Ratio (z) = -0.05778 0.24735
#
# Static dielectric constant tensor:
#      x y z
#    x 1.618060 0.000000 0.000000 
#    y 0.000000 1.600360 0.000000 
#    z 0.000000 0.000000 1.686890 
# 
# From -- ./inp_files/6744.got.cif
#   From: 2010.05.17/outbox.cif.g08.bks.cpg/sg47_4_cif.got.tgz:6744.got - 2010.06.03 20:15:42.
