data_PCOD9382847
_publ_section_title
;
Structure prediction by ZEFSAII (Michael W. Deem and Ramdas Pophale) SiO2 
 PCOD9382847
Probable space group: P M M M
;
_chemical_formula_sum "Si O2"
_cell_formula_units_Z 40
_cell_length_a 19.390975
_cell_length_b 14.196987
_cell_length_c 8.017798
_cell_angle_alpha 90.000000
_cell_angle_beta 90.000000
_cell_angle_gamma 90.000000
_cell_volume 2207.247032
_symmetry_space_group_name_H-M "P M M M"
_symmetry_group_IT_number 47
_symmetry_cell_setting 'orthorhombic'
loop_
_space_group_symop_operation_xyz
x,y,z
-x,-y,z
x,-y,-z
-x,y,-z
-x,-y,-z
x,y,-z
-x,y,z
x,-y,z
loop_
_atom_site_type_symbol
_atom_site_label
_atom_site_fract_x
_atom_site_fract_y
_atom_site_fract_z
Si Si1 0.785945 0.394691 0.703974
Si Si2 0.147164 0.894497 0.196618
Si Si3 0.716384 0.795356 0.302067
Si Si4 0.923629 0.704889 0.301825
Si Si5 0.577378 0.108821 0.798553
O O1 0.786466 0.395941 0.500000
O O2 0.769454 0.500000 0.760651
O O3 0.734432 0.310877 0.754307
O O4 0.861995 0.361495 0.761637
O O5 0.226835 0.864355 0.221973
O O6 0.101464 0.812128 0.276008
O O7 0.135573 0.000000 0.262526
O O8 0.132570 0.894579 0.000000
O O9 0.728416 0.799617 0.500000
O O10 0.639409 0.827569 0.264333
O O11 0.927084 0.688323 0.500000
O O12 0.000000 0.689854 0.231070
O O13 0.500000 0.136718 0.744899
O O14 0.588477 0.000000 0.746292
O O15 0.578461 0.110136 0.000000
#
# Coordination Sequence:
#
# PCOD9382847 Si02
#       5
#     8   8   8   8   8
#     4   8  15  29  48  69  92 118 150 189 233 279
#     4  10  20  32  46  64  89 125 162 189 221 273
#     4  10  19  30  48  73  96 119 152 194 234 269
#     4   9  18  31  47  69  93 116 148 193 240 278
#     4   9  18  32  49  70  98 131 160 183 216 267
#
# _framework density 18.122122999999998
#
# number of rings (size 3 to 8) (size 9 to 14) (size 15 to 20)
#    0.000    2.800    0.000    3.600    0.000    6.000 
#    0.000    5.000    0.000   15.600    0.000    9.800 
#    0.000    0.000    0.000    0.000    0.000    0.000 
#
# Total GULP energy -223003.307126 kJ/mol
# GULP energy per Si atom -5575.082678 kJ/mol
# Density = 1.808088 g / cm^3
# Si number density = 18.122123 Si / 1000 Ang^3
#
#
#
# Elastic Constant Matrix: (Units=GPa)
#
#
# Indices 1 2 3 4 5 6 
#
# 1 106.8911 33.8253 -2.9265 0.0000 0.0000 0.0000
# 2 33.8253 85.6403 -3.4265 0.0000 0.0000 0.0000
# 3 -2.9265 -3.4265 12.5713 0.0000 0.0000 0.0000
# 4 0.0000 0.0000 0.0000 35.4980 0.0000 0.0000
# 5 0.0000 0.0000 0.0000 0.0000 8.3741 0.0000
# 6 0.0000 0.0000 0.0000 0.0000 0.0000 8.5531
#
#
#
# Elastic Compliance Matrix: (Units=1/GPa)
#
#
# Indices 1 2 3 4 5 6 
#
# 1 0.010714 -0.004178 0.001356 0.000000 0.000000 0.000000
# 2 -0.004178 0.013434 0.002689 0.000000 0.000000 0.000000
# 3 0.001356 0.002689 0.080595 0.000000 0.000000 0.000000
# 4 0.000000 0.000000 0.000000 0.028171 0.000000 0.000000
# 5 0.000000 0.000000 0.000000 0.000000 0.119416 0.000000
# 6 0.000000 0.000000 0.000000 0.000000 0.000000 0.116917
#
#
# Mechanical properties :
#
#
# Convention : Reuss Voigt Hill
#
# Bulk Modulus (GPa) = 9.57143 28.89415 19.23279
# Shear Modulus (GPa) = 12.36587 22.32706 17.34647
#
# Velocity S-wave (km/s) = 2.61504 3.51384 3.09722
# Velocity P-wave (km/s) = 3.79619 5.69575 4.84007
#
# Compressibility (1/GPa) = 0.10447759
#
# Stress axis : x y z
#
# Youngs Moduli (GPa) = 93.33212 74.43593 12.40779
#
# Poissons Ratio (x) = 0.31097 -0.01682
# Poissons Ratio (y) = 0.38991 -0.03337
# Poissons Ratio (z) = -0.12652 -0.20017
#
# Static dielectric constant tensor:
#      x y z
#    x 1.618060 0.000000 0.000000 
#    y 0.000000 1.618470 0.000000 
#    z 0.000000 0.000000 1.658090 
# 
# From -- ./inp_files/3750.got.cif
#   From: 2010.05.17/outbox.cif.g08.bks.cpg/sg47_2_cif.got.tgz:3750.got - 2010.06.03 20:15:42.
