data_PCOD9382984
_publ_section_title
;
Structure prediction by ZEFSAII (Michael W. Deem and Ramdas Pophale) SiO2 
 PCOD9382984
Probable space group: P M M M
;
_chemical_formula_sum "Si O2"
_cell_formula_units_Z 48
_cell_length_a 8.620094
_cell_length_b 15.911177
_cell_length_c 17.871561
_cell_angle_alpha 90.000000
_cell_angle_beta 90.000000
_cell_angle_gamma 90.000000
_cell_volume 2451.188986
_symmetry_space_group_name_H-M "P M M M"
_symmetry_group_IT_number 47
_symmetry_cell_setting 'orthorhombic'
loop_
_space_group_symop_operation_xyz
x,y,z
-x,-y,z
x,-y,-z
-x,y,-z
-x,-y,-z
x,y,-z
-x,y,z
x,-y,z
loop_
_atom_site_type_symbol
_atom_site_label
_atom_site_fract_x
_atom_site_fract_y
_atom_site_fract_z
Si Si1 0.814521 0.093148 0.664624
Si Si2 0.185709 0.097764 0.912844
Si Si3 0.826520 0.408003 0.365205
Si Si4 0.174655 0.281877 0.500000
Si Si5 0.684740 0.218461 0.212115
Si Si6 0.676739 0.883891 0.500000
Si Si7 0.319201 0.406604 0.789283
O O1 0.750360 0.170589 0.714038
O O2 0.757640 0.093059 0.578507
O O3 0.000000 0.099493 0.665420
O O4 0.771473 0.000000 0.696158
O O5 0.273004 0.158194 0.856533
O O6 0.000000 0.106017 0.901020
O O7 0.225331 0.000000 0.899771
O O8 0.217540 0.116530 0.000000
O O9 0.819004 0.500000 0.401320
O O10 0.813276 0.338145 0.426965
O O11 0.701477 0.404673 0.300374
O O12 0.000000 0.400699 0.330417
O O13 0.309584 0.215868 0.500000
O O14 0.000000 0.242597 0.500000
O O15 0.500000 0.225114 0.222123
O O16 0.744927 0.313149 0.192502
O O17 0.500000 0.911370 0.500000
O O18 0.500000 0.407463 0.810853
O O19 0.254652 0.500000 0.812354
#
# Coordination Sequence:
#
# PCOD9382984 Si02
#       7
#     8   8   8   4   8   4   8
#     4  11  24  41  59  78 105 144 186 226 275 337
#     4   9  19  37  60  86 118 154 186 218 266 329
#     4   9  17  29  46  68  92 122 167 222 273 319
#     4  10  19  31  47  66  93 129 167 211 269 337
#     4  11  22  35  57  88 116 144 183 230 275 320
#     4  12  25  38  53  74 103 138 180 233 281 319
#     4   9  19  35  51  70 102 141 177 215 263 319
#
# _framework density 19.582332999999998
#
# number of rings (size 3 to 8) (size 9 to 14) (size 15 to 20)
#    0.000    2.000    0.000    4.250    0.000   10.667 
#    0.000    0.833    0.000    3.000    0.000    3.500 
#    0.000    0.000    0.000    0.000    0.000    0.000 
#
# Total GULP energy -267492.499861 kJ/mol
# GULP energy per Si atom -5572.760414 kJ/mol
# Density = 1.953776 g / cm^3
# Si number density = 19.582333 Si / 1000 Ang^3
#
#
#
# Elastic Constant Matrix: (Units=GPa)
#
#
# Indices 1 2 3 4 5 6 
#
# 1 33.5919 34.8799 15.7186 0.0000 0.0000 0.0000
# 2 34.8799 145.2566 43.8588 0.0000 0.0000 0.0000
# 3 15.7186 43.8588 54.7540 0.0000 0.0000 0.0000
# 4 0.0000 0.0000 0.0000 17.1448 0.0000 0.0000
# 5 0.0000 0.0000 0.0000 0.0000 34.6043 0.0000
# 6 0.0000 0.0000 0.0000 0.0000 0.0000 25.6153
#
#
#
# Elastic Compliance Matrix: (Units=1/GPa)
#
#
# Indices 1 2 3 4 5 6 
#
# 1 0.040703 -0.008238 -0.005086 0.000000 0.000000 0.000000
# 2 -0.008238 0.010748 -0.006244 0.000000 0.000000 0.000000
# 3 -0.005086 -0.006244 0.024725 0.000000 0.000000 0.000000
# 4 0.000000 0.000000 0.000000 0.058327 0.000000 0.000000
# 5 0.000000 0.000000 0.000000 0.000000 0.028898 0.000000
# 6 0.000000 0.000000 0.000000 0.000000 0.000000 0.039039
#
#
# Mechanical properties :
#
#
# Convention : Reuss Voigt Hill
#
# Bulk Modulus (GPa) = 26.99821 46.94635 36.97228
# Shear Modulus (GPa) = 19.69094 24.74922 22.22008
#
# Velocity S-wave (km/s) = 3.17447 3.55893 3.37219
# Velocity P-wave (km/s) = 5.22047 6.39639 5.83812
#
# Compressibility (1/GPa) = 0.03703950
#
# Stress axis : x y z
#
# Youngs Moduli (GPa) = 24.56816 93.04060 40.44431
#
# Poissons Ratio (x) = 0.76649 0.20570
# Poissons Ratio (y) = 0.20240 0.25255
# Poissons Ratio (z) = 0.12495 0.58098
#
# Static dielectric constant tensor:
#      x y z
#    x 1.708440 0.000000 0.000000 
#    y 0.000000 1.767730 0.000000 
#    z 0.000000 0.000000 1.644980 
# 
# From -- ./inp_files/26562.got.cif
#   From: 2010.05.17/outbox.cif.g08.bks.cpg/sg47_14_cif.got.tgz:26562.got - 2010.06.03 20:15:42.
