data_PCOD9382463
_publ_section_title
;
Structure prediction by ZEFSAII (Michael W. Deem and Ramdas Pophale) SiO2 
 PCOD9382463
Probable space group: P M M M
;
_chemical_formula_sum "Si O2"
_cell_formula_units_Z 48
_cell_length_a 19.788424
_cell_length_b 15.648650
_cell_length_c 7.332755
_cell_angle_alpha 90.000000
_cell_angle_beta 90.000000
_cell_angle_gamma 90.000000
_cell_volume 2270.676468
_symmetry_space_group_name_H-M "P M M M"
_symmetry_group_IT_number 47
_symmetry_cell_setting 'orthorhombic'
loop_
_space_group_symop_operation_xyz
x,y,z
-x,-y,z
x,-y,-z
-x,y,-z
-x,-y,-z
x,y,-z
-x,y,z
x,-y,z
loop_
_atom_site_type_symbol
_atom_site_label
_atom_site_fract_x
_atom_site_fract_y
_atom_site_fract_z
Si Si1 0.826025 0.245924 0.786206
Si Si2 0.576781 0.597184 0.221946
Si Si3 0.076399 0.402675 0.280509
Si Si4 0.576893 0.097511 0.778141
Si Si5 0.922878 0.097167 0.777659
Si Si6 0.672946 0.749322 0.223306
O O1 0.868444 0.333164 0.772310
O O2 0.871251 0.168589 0.711035
O O3 0.750205 0.252186 0.713162
O O4 0.817991 0.227081 0.000000
O O5 0.500000 0.618985 0.277002
O O6 0.591406 0.500000 0.278855
O O7 0.630849 0.666421 0.282263
O O8 0.577016 0.597566 0.000000
O O9 0.075023 0.404043 0.500000
O O10 0.090806 0.500000 0.219819
O O11 0.000000 0.379751 0.219198
O O12 0.500000 0.119791 0.723093
O O13 0.631775 0.166471 0.719641
O O14 0.590925 0.000000 0.721370
O O15 0.577067 0.097908 0.000000
O O16 0.000000 0.115747 0.721293
O O17 0.905963 0.000000 0.724012
O O18 0.922976 0.098705 0.000000
O O19 0.672944 0.748339 0.000000
#
# Coordination Sequence:
#
# PCOD9382463 Si02
#       6
#     8   8   8   8   8   8
#     4  10  19  28  43  70  97 118 143 182 231 273
#     4   8  13  21  32  44  63  99 140 167 194 243
#     4   9  19  36  54  68  85 115 152 184 218 267
#     4   8  13  21  33  49  74 115 161 192 214 251
#     4   8  14  25  40  58  83 115 146 173 205 252
#     4   9  16  23  32  52  83 112 136 172 222 263
#
# _framework density 21.139075999999999
#
# number of rings (size 3 to 8) (size 9 to 14) (size 15 to 20)
#    0.000    3.333    0.000    3.000    0.000    4.667 
#    0.000    5.833    0.000    0.500    0.000    2.333 
#    0.000    2.667    0.000   11.000    0.000    8.667 
#
# Total GULP energy -267929.462767 kJ/mol
# GULP energy per Si atom -5581.863808 kJ/mol
# Density = 2.109096 g / cm^3
# Si number density = 21.139076 Si / 1000 Ang^3
#
#
#
# Elastic Constant Matrix: (Units=GPa)
#
#
# Indices 1 2 3 4 5 6 
#
# 1 222.3390 165.5967 4.9146 0.0000 0.0000 0.0000
# 2 165.5967 174.0861 0.0618 0.0000 0.0000 0.0000
# 3 4.9146 0.0618 80.3677 0.0000 0.0000 0.0000
# 4 0.0000 0.0000 0.0000 22.4379 0.0000 0.0000
# 5 0.0000 0.0000 0.0000 0.0000 -0.2136 0.0000
# 6 0.0000 0.0000 0.0000 0.0000 0.0000 -7.6593
#
#
#
# Elastic Compliance Matrix: (Units=1/GPa)
#
#
# Indices 1 2 3 4 5 6 
#
# 1 0.015498 -0.014742 -0.000936 0.000000 0.000000 0.000000
# 2 -0.014742 0.019767 0.000886 0.000000 0.000000 0.000000
# 3 -0.000936 0.000886 0.012499 0.000000 0.000000 0.000000
# 4 0.000000 0.000000 0.000000 0.044567 0.000000 0.000000
# 5 0.000000 0.000000 0.000000 0.000000 -4.681214 0.000000
# 6 0.000000 0.000000 0.000000 0.000000 0.000000 -0.130561
#
#
# Mechanical properties :
#
#
# Convention : Reuss Voigt Hill
#
# Bulk Modulus (GPa) = 55.00441 90.88211 72.94326
# Shear Modulus (GPa) = -1.06751 23.32766 11.13007
#
# Velocity S-wave (km/s) = -0.71140 3.32555 2.29708
# Velocity P-wave (km/s) = 5.04004 7.60470 6.45110
#
# Compressibility (1/GPa) = 0.01818036
#
# Stress axis : x y z
#
# Youngs Moduli (GPa) = 64.52428 50.58933 80.00394
#
# Poissons Ratio (x) = 0.74579 0.07491
# Poissons Ratio (y) = 0.95121 -0.07091
# Poissons Ratio (z) = 0.06042 -0.04484
#
# Static dielectric constant tensor:
#      x y z
#    x 1.723890 0.000000 0.000000 
#    y 0.000000 1.724560 0.000000 
#    z 0.000000 0.000000 1.816840 
# 
# From -- ./inp_files/10864.got.cif
#   From: 2010.05.17/outbox.cif.g08.bks.cpg/sg47_6_cif.got.tgz:10864.got - 2010.06.03 20:15:42.
