data_PCOD9382539
_publ_section_title
;
Structure prediction by ZEFSAII (Michael W. Deem and Ramdas Pophale) SiO2 
 PCOD9382539
Probable space group: P M M M
;
_chemical_formula_sum "Si O2"
_cell_formula_units_Z 60
_cell_length_a 24.176119
_cell_length_b 15.639774
_cell_length_c 8.507777
_cell_angle_alpha 90.000000
_cell_angle_beta 90.000000
_cell_angle_gamma 90.000000
_cell_volume 3216.867372
_symmetry_space_group_name_H-M "P M M M"
_symmetry_group_IT_number 47
_symmetry_cell_setting 'orthorhombic'
loop_
_space_group_symop_operation_xyz
x,y,z
-x,-y,z
x,-y,-z
-x,y,-z
-x,-y,-z
x,y,-z
-x,y,z
x,-y,z
loop_
_atom_site_type_symbol
_atom_site_label
_atom_site_fract_x
_atom_site_fract_y
_atom_site_fract_z
Si Si1 0.170842 0.654056 0.821652
Si Si2 0.062500 0.271736 0.687997
Si Si3 0.331300 0.235235 0.186046
Si Si4 0.721435 0.594694 0.684145
Si Si5 0.432821 0.500000 0.680003
Si Si6 0.891210 0.906007 0.191104
Si Si7 0.776532 0.154796 0.180487
Si Si8 0.563227 0.310794 0.310251
O O1 0.108915 0.666845 0.761259
O O2 0.212837 0.601274 0.714713
O O3 0.196522 0.750208 0.822987
O O4 0.172247 0.621733 0.000000
O O5 0.066790 0.275552 0.500000
O O6 0.076268 0.174689 0.741414
O O7 0.000000 0.293106 0.735782
O O8 0.305814 0.328960 0.219875
O O9 0.284707 0.169026 0.250299
O O10 0.392143 0.241215 0.258046
O O11 0.335042 0.222378 0.000000
O O12 0.710027 0.608538 0.500000
O O13 0.701915 0.500000 0.728484
O O14 0.500000 0.500000 0.671667
O O15 0.411598 0.500000 0.500000
O O16 0.419866 0.406536 0.748953
O O17 0.827076 0.899657 0.248188
O O18 0.913554 0.000000 0.229931
O O19 0.890522 0.897700 0.000000
O O20 0.768721 0.125914 0.000000
O O21 0.563406 0.315888 0.500000
O O22 0.500000 0.293812 0.260304
#
# Coordination Sequence:
#
# PCOD9382539 Si02
#       8
#     8   8   8   8   4   8   8   8
#     4   9  17  31  50  68  88 115 149 191 233 269
#     4  10  20  32  47  68  95 127 158 184 215 264
#     4  10  19  29  43  63  89 118 149 188 228 270
#     4  10  20  32  47  67  90 117 149 186 231 281
#     4   7  12  24  39  51  67  99 139 175 214 261
#     4   9  17  30  49  70  92 121 156 190 223 263
#     4   7  13  27  43  61  85 112 141 176 222 267
#     4   9  17  29  43  58  80 113 151 188 229 277
#
# _framework density 18.651686000000002
#
# number of rings (size 3 to 8) (size 9 to 14) (size 15 to 20)
#    0.000    3.000    0.000    4.000    0.933    2.933 
#    0.000    2.000    0.000    1.600    0.000    2.800 
#    0.000    0.533    0.000    6.667    0.000    1.067 
#
# Total GULP energy -334070.746670 kJ/mol
# GULP energy per Si atom -5567.845778 kJ/mol
# Density = 1.860923 g / cm^3
# Si number density = 18.651686 Si / 1000 Ang^3
#
#
#
# Elastic Constant Matrix: (Units=GPa)
#
#
# Indices 1 2 3 4 5 6 
#
# 1 113.1426 -7.7087 9.9934 0.0000 0.0000 0.0000
# 2 -7.7087 7.1400 -3.6108 0.0000 0.0000 0.0000
# 3 9.9934 -3.6108 17.6087 0.0000 0.0000 0.0000
# 4 0.0000 0.0000 0.0000 9.4924 0.0000 0.0000
# 5 0.0000 0.0000 0.0000 0.0000 29.6902 0.0000
# 6 0.0000 0.0000 0.0000 0.0000 0.0000 16.7029
#
#
#
# Elastic Compliance Matrix: (Units=1/GPa)
#
#
# Indices 1 2 3 4 5 6 
#
# 1 0.009759 0.008631 -0.003769 0.000000 0.000000 0.000000
# 2 0.008631 0.163894 0.028710 0.000000 0.000000 0.000000
# 3 -0.003769 0.028710 0.064816 0.000000 0.000000 0.000000
# 4 0.000000 0.000000 0.000000 0.105347 0.000000 0.000000
# 5 0.000000 0.000000 0.000000 0.000000 0.033681 0.000000
# 6 0.000000 0.000000 0.000000 0.000000 0.000000 0.059870
#
#
# Mechanical properties :
#
#
# Convention : Reuss Voigt Hill
#
# Bulk Modulus (GPa) = 3.27212 15.02656 9.14934
# Shear Modulus (GPa) = 10.59107 20.45824 15.52466
#
# Velocity S-wave (km/s) = 2.38551 3.31548 2.88817
# Velocity P-wave (km/s) = 3.05707 4.76764 4.00475
#
# Compressibility (1/GPa) = 0.30561195
#
# Stress axis : x y z
#
# Youngs Moduli (GPa) = 102.46620 6.10152 15.42825
#
# Poissons Ratio (x) = -0.05266 0.05815
# Poissons Ratio (y) = -0.88435 -0.44294
# Poissons Ratio (z) = 0.38618 -0.17517
#
# Static dielectric constant tensor:
#      x y z
#    x 1.717190 0.000000 0.000000 
#    y 0.000000 1.649470 0.000000 
#    z 0.000000 0.000000 1.648420 
# 
# From -- ./inp_files/12891.got.cif
#   From: 2010.05.17/outbox.cif.g08.bks.cpg/sg47_7_cif.got.tgz:12891.got - 2010.06.03 20:15:42.
