data_PCOD9382322
_publ_section_title
;
Structure prediction by ZEFSAII (Michael W. Deem and Ramdas Pophale) SiO2 
 PCOD9382322
Probable space group: P M M M
;
_chemical_formula_sum "Si O2"
_cell_formula_units_Z 48
_cell_length_a 7.912672
_cell_length_b 15.585871
_cell_length_c 19.697734
_cell_angle_alpha 90.000000
_cell_angle_beta 90.000000
_cell_angle_gamma 90.000000
_cell_volume 2429.240479
_symmetry_space_group_name_H-M "P M M M"
_symmetry_group_IT_number 47
_symmetry_cell_setting 'orthorhombic'
loop_
_space_group_symop_operation_xyz
x,y,z
-x,-y,z
x,-y,-z
-x,y,-z
-x,-y,-z
x,y,-z
-x,y,z
x,-y,z
loop_
_atom_site_type_symbol
_atom_site_label
_atom_site_fract_x
_atom_site_fract_y
_atom_site_fract_z
Si Si1 0.201119 0.154503 0.674934
Si Si2 0.703391 0.250518 0.077014
Si Si3 0.298636 0.000000 0.423098
Si Si4 0.706948 0.598131 0.825000
Si Si5 0.204229 0.902801 0.176039
Si Si6 0.292544 0.500000 0.422344
Si Si7 0.297952 0.651773 0.674700
O O1 0.267067 0.127107 0.749585
O O2 0.260527 0.249975 0.658089
O O3 0.000000 0.156447 0.679896
O O4 0.247278 0.083698 0.619474
O O5 0.500000 0.257020 0.074020
O O6 0.764702 0.333256 0.119276
O O7 0.744645 0.165520 0.119560
O O8 0.768066 0.247607 0.000000
O O9 0.500000 0.000000 0.427163
O O10 0.229761 0.000000 0.500000
O O11 0.500000 0.599266 0.824792
O O12 0.758397 0.500000 0.837634
O O13 0.764724 0.628126 0.750231
O O14 0.000000 0.904261 0.178512
O O15 0.262305 0.000000 0.162474
O O16 0.500000 0.500000 0.423106
O O17 0.236266 0.500000 0.500000
O O18 0.236068 0.416212 0.380702
O O19 0.500000 0.641669 0.677362
#
# Coordination Sequence:
#
# PCOD9382322 Si02
#       7
#     8   8   4   8   8   4   8
#     4  11  22  38  60  87 117 150 188 233 284 339
#     4  10  21  35  53  82 115 144 181 234 290 336
#     4  11  25  43  63  89 118 149 188 233 281 336
#     4   9  16  29  52  80 108 143 188 233 279 334
#     4  10  21  38  58  80 107 145 190 228 272 336
#     4   9  18  32  53  83 116 146 183 236 285 328
#     4  10  18  32  56  83 110 148 193 235 282 337
#
# _framework density 19.759263000000001
#
# number of rings (size 3 to 8) (size 9 to 14) (size 15 to 20)
#    0.000    2.000    3.333    0.750    0.000    3.333 
#    0.000    5.417    0.000    2.000    0.000    1.167 
#    0.000    0.000    0.000    0.000    0.000    0.000 
#
# Total GULP energy -268063.815953 kJ/mol
# GULP energy per Si atom -5584.662832 kJ/mol
# Density = 1.971429 g / cm^3
# Si number density = 19.759263 Si / 1000 Ang^3
#
#
#
# Elastic Constant Matrix: (Units=GPa)
#
#
# Indices 1 2 3 4 5 6 
#
# 1 12.1214 -3.2850 6.6279 0.0000 0.0000 0.0000
# 2 -3.2850 221.5305 126.5405 0.0000 0.0000 0.0000
# 3 6.6279 126.5405 208.0870 0.0000 0.0000 0.0000
# 4 0.0000 0.0000 0.0000 33.3918 0.0000 0.0000
# 5 0.0000 0.0000 0.0000 0.0000 13.5880 0.0000
# 6 0.0000 0.0000 0.0000 0.0000 0.0000-2749.8174
#
#
#
# Elastic Compliance Matrix: (Units=1/GPa)
#
#
# Indices 1 2 3 4 5 6 
#
# 1 0.086654 0.004385 -0.005426 0.000000 0.000000 0.000000
# 2 0.004385 0.007138 -0.004481 0.000000 0.000000 0.000000
# 3 -0.005426 -0.004481 0.007703 0.000000 0.000000 0.000000
# 4 0.000000 0.000000 0.000000 0.029947 0.000000 0.000000
# 5 0.000000 0.000000 0.000000 0.000000 0.073594 0.000000
# 6 0.000000 0.000000 0.000000 0.000000 0.000000 -0.000364
#
#
# Mechanical properties :
#
#
# Convention : Reuss Voigt Hill
#
# Bulk Modulus (GPa) = 11.05573 77.94507 44.50040
# Shear Modulus (GPa) = 20.33603 -519.77715 -249.72056
#
# Velocity S-wave (km/s) = 3.21158 -16.23656 -11.25415
# Velocity P-wave (km/s) = 4.39996 17.66263 12.09563
#
# Compressibility (1/GPa) = 0.09045083
#
# Stress axis : x y z
#
# Youngs Moduli (GPa) = 11.54015 140.08619 129.81509
#
# Poissons Ratio (x) = -0.61422 0.70442
# Poissons Ratio (y) = -0.05060 0.58166
# Poissons Ratio (z) = 0.06262 0.62768
#
# Static dielectric constant tensor:
#      x y z
#    x 1.717540 0.000000 0.000000 
#    y 0.000000 1.649100 0.000000 
#    z 0.000000 0.000000 1.682720 
# 
# From -- ./inp_files/26485.got.cif
#   From: 2010.05.17/outbox.cif.g08.bks.cpg/sg47_14_cif.got.tgz:26485.got - 2010.06.03 20:15:42.
