data_PCOD9382015
_publ_section_title
;
Structure prediction by ZEFSAII (Michael W. Deem and Ramdas Pophale) SiO2 
 PCOD9382015
Probable space group: P M M M
;
_chemical_formula_sum "Si O2"
_cell_formula_units_Z 64
_cell_length_a 16.014267
_cell_length_b 25.478130
_cell_length_c 7.957601
_cell_angle_alpha 90.000000
_cell_angle_beta 90.000000
_cell_angle_gamma 90.000000
_cell_volume 3246.809244
_symmetry_space_group_name_H-M "P M M M"
_symmetry_group_IT_number 47
_symmetry_cell_setting 'orthorhombic'
loop_
_space_group_symop_operation_xyz
x,y,z
-x,-y,z
x,-y,-z
-x,y,-z
-x,-y,-z
x,y,-z
-x,y,z
x,-y,z
loop_
_atom_site_type_symbol
_atom_site_label
_atom_site_fract_x
_atom_site_fract_y
_atom_site_fract_z
Si Si1 0.089397 0.907064 0.303236
Si Si2 0.908750 0.674538 0.797208
Si Si3 0.592082 0.856725 0.799819
Si Si4 0.726037 0.646261 0.298430
Si Si5 0.126439 0.207121 0.194661
Si Si6 0.594869 0.560348 0.294632
Si Si7 0.730441 0.058610 0.296881
Si Si8 0.304107 0.763771 0.698466
O O1 0.088418 0.921632 0.500000
O O2 0.094802 0.843913 0.289199
O O3 0.176266 0.928528 0.231350
O O4 0.000000 0.923992 0.229442
O O5 0.824576 0.644889 0.743755
O O6 0.901292 0.735556 0.740852
O O7 0.000000 0.654152 0.742932
O O8 0.907594 0.675704 0.000000
O O9 0.500000 0.872918 0.740623
O O10 0.662791 0.898406 0.752582
O O11 0.616479 0.799824 0.728410
O O12 0.591116 0.852438 0.000000
O O13 0.720042 0.645137 0.500000
O O14 0.666512 0.599935 0.234086
O O15 0.692759 0.703558 0.242693
O O16 0.226483 0.209042 0.209034
O O17 0.101453 0.202563 0.000000
O O18 0.595925 0.560871 0.500000
O O19 0.500000 0.575298 0.244818
O O20 0.609434 0.500000 0.243142
O O21 0.734858 0.059822 0.500000
O O22 0.706297 0.000000 0.243589
O O23 0.284494 0.763589 0.500000
#
# Coordination Sequence:
#
# PCOD9382015 Si02
#       8
#     8   8   8   8   8   8   8   8
#     4  10  20  33  52  79 108 137 169 206 251 305
#     4   9  18  31  46  68 102 143 180 211 251 304
#     4  11  24  40  58  80 105 136 173 213 260 312
#     4   9  18  30  49  79 108 135 173 218 259 303
#     4  10  18  30  50  74 102 136 173 210 251 302
#     4   8  14  27  49  76 105 136 171 214 264 315
#     4  10  22  40  60  80 104 136 173 214 260 311
#     4  10  19  32  51  77 109 139 168 206 258 311
#
# _framework density 19.711658
#
# number of rings (size 3 to 8) (size 9 to 14) (size 15 to 20)
#    0.000    2.375    1.250    1.875    0.000    4.250 
#    0.000    3.750    0.000    1.125    0.000    5.250 
#    0.000    0.000    0.000    0.000    0.000    0.000 
#
# Total GULP energy -356994.019858 kJ/mol
# GULP energy per Si atom -5578.031560 kJ/mol
# Density = 1.966679 g / cm^3
# Si number density = 19.711658 Si / 1000 Ang^3
#
#
#
# Elastic Constant Matrix: (Units=GPa)
#
#
# Indices 1 2 3 4 5 6 
#
# 1 158.5424 75.9448 6.9366 0.0000 0.0000 0.0000
# 2 75.9448 91.1179 5.7804 0.0000 0.0000 0.0000
# 3 6.9366 5.7804 22.0678 0.0000 0.0000 0.0000
# 4 0.0000 0.0000 0.0000 -1.3385 0.0000 0.0000
# 5 0.0000 0.0000 0.0000 0.0000 84.1311 0.0000
# 6 0.0000 0.0000 0.0000 0.0000 0.0000 4.3160
#
#
#
# Elastic Compliance Matrix: (Units=1/GPa)
#
#
# Indices 1 2 3 4 5 6 
#
# 1 0.010522 -0.008705 -0.001027 0.000000 0.000000 0.000000
# 2 -0.008705 0.018362 -0.002073 0.000000 0.000000 0.000000
# 3 -0.001027 -0.002073 0.046181 0.000000 0.000000 0.000000
# 4 0.000000 0.000000 0.000000 -0.747100 0.000000 0.000000
# 5 0.000000 0.000000 0.000000 0.000000 0.011886 0.000000
# 6 0.000000 0.000000 0.000000 0.000000 0.000000 0.231694
#
#
# Mechanical properties :
#
#
# Convention : Reuss Voigt Hill
#
# Bulk Modulus (GPa) = 19.43501 49.89464 34.66483
# Shear Modulus (GPa) = -12.89679 29.62615 8.36468
#
# Velocity S-wave (km/s) = -2.56065 3.88103 2.06222
# Velocity P-wave (km/s) = 1.06700 6.74169 4.82643
#
# Compressibility (1/GPa) = 0.05145353
#
# Stress axis : x y z
#
# Youngs Moduli (GPa) = 95.03714 54.46135 21.65401
#
# Poissons Ratio (x) = 0.47408 0.02225
# Poissons Ratio (y) = 0.82729 0.04490
# Poissons Ratio (z) = 0.09763 0.11292
#
# Static dielectric constant tensor:
#      x y z
#    x 1.729240 0.000000 0.000000 
#    y 0.000000 1.676750 0.000000 
#    z 0.000000 0.000000 1.717570 
# 
# From -- ./inp_files/7956.got.cif
#   From: 2010.05.17/outbox.cif.g08.bks.cpg/sg47_4_cif.got.tgz:7956.got - 2010.06.03 20:15:42.
