data_PCOD9382656
_publ_section_title
;
Structure prediction by ZEFSAII (Michael W. Deem and Ramdas Pophale) SiO2 
 PCOD9382656
Probable space group: P M M M
;
_chemical_formula_sum "Si O2"
_cell_formula_units_Z 64
_cell_length_a 32.137226
_cell_length_b 15.010843
_cell_length_c 7.661934
_cell_angle_alpha 90.000000
_cell_angle_beta 90.000000
_cell_angle_gamma 90.000000
_cell_volume 3696.169476
_symmetry_space_group_name_H-M "P M M M"
_symmetry_group_IT_number 47
_symmetry_cell_setting 'orthorhombic'
loop_
_space_group_symop_operation_xyz
x,y,z
-x,-y,z
x,-y,-z
-x,y,-z
-x,-y,-z
x,y,-z
-x,y,z
x,-y,z
loop_
_atom_site_type_symbol
_atom_site_label
_atom_site_fract_x
_atom_site_fract_y
_atom_site_fract_z
Si Si1 0.364060 0.101896 0.792356
Si Si2 0.287617 0.782991 0.208269
Si Si3 0.252282 0.400778 0.788716
Si Si4 0.544788 0.103941 0.710104
Si Si5 0.154772 0.598041 0.708255
Si Si6 0.794015 0.102090 0.288737
Si Si7 0.126798 0.214548 0.708315
Si Si8 0.953129 0.898979 0.210231
O O1 0.327743 0.164796 0.720728
O O2 0.410525 0.139942 0.766101
O O3 0.362076 0.000000 0.721538
O O4 0.357646 0.094847 0.000000
O O5 0.278421 0.683631 0.276692
O O6 0.246737 0.842824 0.237292
O O7 0.293469 0.773931 0.000000
O O8 0.265069 0.500000 0.729466
O O9 0.204073 0.388062 0.737033
O O10 0.253626 0.400497 0.000000
O O11 0.544534 0.105030 0.500000
O O12 0.500000 0.142007 0.769287
O O13 0.545147 0.000000 0.766371
O O14 0.147781 0.594309 0.500000
O O15 0.144036 0.500000 0.780372
O O16 0.131447 0.685046 0.778375
O O17 0.795321 0.099972 0.500000
O O18 0.835477 0.152620 0.225014
O O19 0.792304 0.000000 0.226995
O O20 0.132863 0.220116 0.500000
O O21 0.082716 0.168705 0.738566
O O22 0.000000 0.876400 0.270103
O O23 0.943443 0.000000 0.270793
O O24 0.954078 0.901303 0.000000
#
# Coordination Sequence:
#
# PCOD9382656 Si02
#       8
#     8   8   8   8   8   8   8   8
#     4   9  17  27  38  55  81 113 146 176 208 250
#     4  10  19  30  43  60  86 118 150 181 213 256
#     4   9  17  29  45  64  85 111 146 186 223 256
#     4   8  14  25  40  57  77 103 138 178 216 254
#     4   9  17  30  48  68  90 115 143 178 219 259
#     4  10  20  31  42  61  90 119 147 180 213 248
#     4  10  19  31  48  70  93 115 145 182 218 258
#     4   9  19  35  52  70  92 117 146 180 217 258
#
# _framework density 17.315224000000001
#
# number of rings (size 3 to 8) (size 9 to 14) (size 15 to 20)
#    0.000    2.750    1.250    1.500    0.000    3.500 
#    0.000    3.125    0.000    0.375    0.000    2.625 
#    0.000    0.500    0.000    6.250    0.000    1.250 
#
# Total GULP energy -356640.720154 kJ/mol
# GULP energy per Si atom -5572.511252 kJ/mol
# Density = 1.727581 g / cm^3
# Si number density = 17.315224 Si / 1000 Ang^3
#
#
#
# Elastic Constant Matrix: (Units=GPa)
#
#
# Indices 1 2 3 4 5 6 
#
# 1 135.3071 90.6660 -4.9983 0.0000 0.0000 0.0000
# 2 90.6660 148.8705 4.8634 0.0000 0.0000 0.0000
# 3 -4.9983 4.8634 26.5881 0.0000 0.0000 0.0000
# 4 0.0000 0.0000 0.0000 10.0606 0.0000 0.0000
# 5 0.0000 0.0000 0.0000 0.0000 20.8037 0.0000
# 6 0.0000 0.0000 0.0000 0.0000 0.0000 7.5133
#
#
#
# Elastic Compliance Matrix: (Units=1/GPa)
#
#
# Indices 1 2 3 4 5 6 
#
# 1 0.012871 -0.007966 0.003877 0.000000 0.000000 0.000000
# 2 -0.007966 0.011687 -0.003635 0.000000 0.000000 0.000000
# 3 0.003877 -0.003635 0.039005 0.000000 0.000000 0.000000
# 4 0.000000 0.000000 0.000000 0.099397 0.000000 0.000000
# 5 0.000000 0.000000 0.000000 0.000000 0.048068 0.000000
# 6 0.000000 0.000000 0.000000 0.000000 0.000000 0.133097
#
#
# Mechanical properties :
#
#
# Convention : Reuss Voigt Hill
#
# Bulk Modulus (GPa) = 20.78357 54.64754 37.71555
# Shear Modulus (GPa) = 13.31157 22.35783 17.83470
#
# Velocity S-wave (km/s) = 2.77569 3.59726 3.21284
# Velocity P-wave (km/s) = 4.72247 6.99161 5.96592
#
# Compressibility (1/GPa) = 0.04811494
#
# Stress axis : x y z
#
# Youngs Moduli (GPa) = 77.69161 85.56296 25.63801
#
# Poissons Ratio (x) = 0.68157 -0.09939
# Poissons Ratio (y) = 0.61887 0.09320
# Poissons Ratio (z) = -0.30119 0.31104
#
# Static dielectric constant tensor:
#      x y z
#    x 1.583920 0.000000 0.000000 
#    y 0.000000 1.610000 0.000000 
#    z 0.000000 0.000000 1.641100 
# 
# From -- ./inp_files/8332.got.cif
#   From: 2010.05.17/outbox.cif.g08.bks.cpg/sg47_5_cif.got.tgz:8332.got - 2010.06.03 20:15:42.
