data_PCOD9382934
_publ_section_title
;
Structure prediction by ZEFSAII (Michael W. Deem and Ramdas Pophale) SiO2 
 PCOD9382934
Probable space group: P M M M
;
_chemical_formula_sum "Si O2"
_cell_formula_units_Z 40
_cell_length_a 18.907439
_cell_length_b 19.370954
_cell_length_c 7.708878
_cell_angle_alpha 90.000000
_cell_angle_beta 90.000000
_cell_angle_gamma 90.000000
_cell_volume 2823.416123
_symmetry_space_group_name_H-M "P M M M"
_symmetry_group_IT_number 47
_symmetry_cell_setting 'orthorhombic'
loop_
_space_group_symop_operation_xyz
x,y,z
-x,-y,z
x,-y,-z
-x,y,-z
-x,-y,-z
x,y,-z
-x,y,z
x,-y,z
loop_
_atom_site_type_symbol
_atom_site_label
_atom_site_fract_x
_atom_site_fract_y
_atom_site_fract_z
Si Si1 0.085801 0.578630 0.000000
Si Si2 0.730912 0.920959 0.706649
Si Si3 0.861759 0.166745 0.706496
Si Si4 0.000000 0.921298 0.792196
Si Si5 0.576158 0.080621 0.208862
Si Si6 0.914886 0.685325 0.295102
O O1 0.105595 0.622094 0.828830
O O2 0.111894 0.500000 0.000000
O O3 0.000000 0.575887 0.000000
O O4 0.741478 0.926138 0.500000
O O5 0.792861 0.872396 0.777775
O O6 0.652016 0.891596 0.734285
O O7 0.734570 0.000000 0.776481
O O8 0.852392 0.174061 0.500000
O O9 0.878290 0.244026 0.768475
O O10 0.930277 0.119351 0.735144
O O11 0.000000 0.000000 0.726647
O O12 0.000000 0.923108 0.000000
O O13 0.500000 0.110037 0.267666
O O14 0.576697 0.000000 0.264192
O O15 0.575912 0.081689 0.000000
O O16 0.900057 0.673545 0.500000
O O17 0.000000 0.695577 0.280932
#
# Coordination Sequence:
#
# PCOD9382934 Si02
#       6
#     4   8   8   4   8   8
#     4   9  18  30  46  66  84 104 127 164 211 245
#     4   9  17  27  39  56  76  99 133 176 212 243
#     4  10  19  31  44  56  75 107 139 170 212 251
#     4  11  23  31  39  57  75 100 141 184 218 246
#     4   8  14  25  39  53  71  96 125 161 208 253
#     4   9  17  29  45  63  81 107 139 167 203 251
#
# _framework density 14.167235
#
# number of rings (size 3 to 8) (size 9 to 14) (size 15 to 20)
#    0.000    2.800    1.000    1.500    1.400    3.200 
#    0.000    6.000    0.000    0.000    0.000    0.000 
#    0.000    0.000    0.000    0.000    0.000    2.000 
#
# Total GULP energy -222710.420879 kJ/mol
# GULP energy per Si atom -5567.760522 kJ/mol
# Density = 1.413499 g / cm^3
# Si number density = 14.167235 Si / 1000 Ang^3
#
#
#
# Elastic Constant Matrix: (Units=GPa)
#
#
# Indices 1 2 3 4 5 6 
#
# 1 101.6158 46.5877 11.9038 0.0000 0.0000 0.0000
# 2 46.5877 105.6698 29.8709 0.0000 0.0000 0.0000
# 3 11.9038 29.8709 38.4093 0.0000 0.0000 0.0000
# 4 0.0000 0.0000 0.0000 15.6234 0.0000 0.0000
# 5 0.0000 0.0000 0.0000 0.0000 17.1643 0.0000
# 6 0.0000 0.0000 0.0000 0.0000 0.0000 2.7364
#
#
#
# Elastic Compliance Matrix: (Units=1/GPa)
#
#
# Indices 1 2 3 4 5 6 
#
# 1 0.012342 -0.005589 0.000521 0.000000 0.000000 0.000000
# 2 -0.005589 0.014661 -0.009670 0.000000 0.000000 0.000000
# 3 0.000521 -0.009670 0.033394 0.000000 0.000000 0.000000
# 4 0.000000 0.000000 0.000000 0.064007 0.000000 0.000000
# 5 0.000000 0.000000 0.000000 0.000000 0.058260 0.000000
# 6 0.000000 0.000000 0.000000 0.000000 0.000000 0.365438
#
#
# Mechanical properties :
#
#
# Convention : Reuss Voigt Hill
#
# Bulk Modulus (GPa) = 32.33878 46.93553 39.63715
# Shear Modulus (GPa) = 8.50508 17.59366 13.04937
#
# Velocity S-wave (km/s) = 2.45283 3.52782 3.03825
# Velocity P-wave (km/s) = 5.55858 7.05660 6.35191
#
# Compressibility (1/GPa) = 0.03092262
#
# Stress axis : x y z
#
# Youngs Moduli (GPa) = 81.02277 68.20885 29.94563
#
# Poissons Ratio (x) = 0.38120 -0.01561
# Poissons Ratio (y) = 0.45282 0.28956
# Poissons Ratio (z) = -0.04224 0.65956
#
# Static dielectric constant tensor:
#      x y z
#    x 1.478490 0.000000 0.000000 
#    y 0.000000 1.454310 0.000000 
#    z 0.000000 0.000000 1.508080 
# 
# From -- ./inp_files/9355.got.cif
#   From: 2010.05.17/outbox.cif.g08.bks.cpg/sg47_5_cif.got.tgz:9355.got - 2010.06.03 20:15:42.
