data_PCOD9382416
_publ_section_title
;
Structure prediction by ZEFSAII (Michael W. Deem and Ramdas Pophale) SiO2 
 PCOD9382416
Probable space group: P M M M
;
_chemical_formula_sum "Si O2"
_cell_formula_units_Z 56
_cell_length_a 14.269110
_cell_length_b 7.941591
_cell_length_c 30.305101
_cell_angle_alpha 90.000000
_cell_angle_beta 90.000000
_cell_angle_gamma 90.000000
_cell_volume 3434.156940
_symmetry_space_group_name_H-M "P M M M"
_symmetry_group_IT_number 47
_symmetry_cell_setting 'orthorhombic'
loop_
_space_group_symop_operation_xyz
x,y,z
-x,-y,z
x,-y,-z
-x,y,-z
-x,-y,-z
x,y,-z
-x,y,z
x,-y,z
loop_
_atom_site_type_symbol
_atom_site_label
_atom_site_fract_x
_atom_site_fract_y
_atom_site_fract_z
Si Si1 0.896323 0.199979 0.224852
Si Si2 0.608495 0.703847 0.356373
Si Si3 0.294883 0.799037 0.733395
Si Si4 0.107848 0.796652 0.049597
Si Si5 0.794300 0.299920 0.138176
Si Si6 0.603484 0.299694 0.820542
Si Si7 0.386757 0.299307 0.452558
O O1 0.808994 0.266255 0.253724
O O2 0.866096 0.225181 0.174004
O O3 0.000000 0.271465 0.232975
O O4 0.901032 0.000000 0.232966
O O5 0.500000 0.758870 0.349907
O O6 0.607015 0.500000 0.357929
O O7 0.671258 0.757305 0.315438
O O8 0.643351 0.765868 0.404556
O O9 0.366315 0.727360 0.769818
O O10 0.294710 0.000000 0.739021
O O11 0.173341 0.736221 0.088834
O O12 0.000000 0.742356 0.057462
O O13 0.108187 0.000000 0.049974
O O14 0.134541 0.741959 0.000000
O O15 0.794332 0.500000 0.145369
O O16 0.690552 0.233449 0.150535
O O17 0.500000 0.228374 0.828923
O O18 0.598807 0.500000 0.828293
O O19 0.353813 0.229040 0.500000
O O20 0.500000 0.283511 0.452078
O O21 0.366885 0.500000 0.453206
#
# Coordination Sequence:
#
# PCOD9382416 Si02
#       7
#     8   8   8   8   8   8   8
#     4   9  18  32  46  58  78 110 140 163 195 243
#     4   9  16  25  38  56  80 110 137 162 198 240
#     4  10  19  28  40  60  82 104 135 172 203 233
#     4   9  18  32  48  65  87 115 140 160 192 243
#     4  10  19  29  45  69  89 105 132 170 205 234
#     4   9  18  32  46  59  81 113 142 166 196 236
#     4   7  10  18  33  52  72  97 133 169 193 223
#
# _framework density 16.306768000000002
#
# number of rings (size 3 to 8) (size 9 to 14) (size 15 to 20)
#    0.000    3.000    0.000    3.429    0.000    6.000 
#    0.000    0.714    0.000    0.857    0.000    5.000 
#    0.000    0.571    0.000    7.143    0.000    0.286 
#
# Total GULP energy -311809.160349 kJ/mol
# GULP energy per Si atom -5568.020721 kJ/mol
# Density = 1.626965 g / cm^3
# Si number density = 16.306768 Si / 1000 Ang^3
#
#
#
# Elastic Constant Matrix: (Units=GPa)
#
#
# Indices 1 2 3 4 5 6 
#
# 1 91.3698 1.4732 51.8416 0.0000 0.0000 0.0000
# 2 1.4732 10.4098 -10.0218 0.0000 0.0000 0.0000
# 3 51.8416 -10.0218 124.9683 0.0000 0.0000 0.0000
# 4 0.0000 0.0000 0.0000 49.8384 0.0000 0.0000
# 5 0.0000 0.0000 0.0000 0.0000 17.0286 0.0000
# 6 0.0000 0.0000 0.0000 0.0000 0.0000 11.6374
#
#
#
# Elastic Compliance Matrix: (Units=1/GPa)
#
#
# Indices 1 2 3 4 5 6 
#
# 1 0.015023 -0.008806 -0.006938 0.000000 0.000000 0.000000
# 2 -0.008806 0.109262 0.012415 0.000000 0.000000 0.000000
# 3 -0.006938 0.012415 0.011876 0.000000 0.000000 0.000000
# 4 0.000000 0.000000 0.000000 0.020065 0.000000 0.000000
# 5 0.000000 0.000000 0.000000 0.000000 0.058725 0.000000
# 6 0.000000 0.000000 0.000000 0.000000 0.000000 0.085930
#
#
# Mechanical properties :
#
#
# Convention : Reuss Voigt Hill
#
# Bulk Modulus (GPa) = 7.72183 34.81487 21.26835
# Shear Modulus (GPa) = 14.25696 27.93121 21.09409
#
# Velocity S-wave (km/s) = 2.96006 4.14316 3.60054
# Velocity P-wave (km/s) = 4.05318 6.65462 5.50964
#
# Compressibility (1/GPa) = 0.12950294
#
# Stress axis : x y z
#
# Youngs Moduli (GPa) = 66.56351 9.15233 84.20360
#
# Poissons Ratio (x) = 0.08059 0.58424
# Poissons Ratio (y) = 0.58615 -1.04541
# Poissons Ratio (z) = 0.46184 -0.11363
#
# Static dielectric constant tensor:
#      x y z
#    x 1.559720 0.000000 0.000000 
#    y 0.000000 1.593020 0.000000 
#    z 0.000000 0.000000 1.558470 
# 
# From -- ./inp_files/22093.got.cif
#   From: 2010.05.17/outbox.cif.g08.bks.cpg/sg47_12_cif.got.tgz:22093.got - 2010.06.03 20:15:42.
