data_PCOD9382772
_publ_section_title
;
Structure prediction by ZEFSAII (Michael W. Deem and Ramdas Pophale) SiO2 
 PCOD9382772
Probable space group: P M M M
;
_chemical_formula_sum "Si O2"
_cell_formula_units_Z 44
_cell_length_a 33.637399
_cell_length_b 7.507058
_cell_length_c 9.253438
_cell_angle_alpha 90.000000
_cell_angle_beta 90.000000
_cell_angle_gamma 90.000000
_cell_volume 2336.658780
_symmetry_space_group_name_H-M "P M M M"
_symmetry_group_IT_number 47
_symmetry_cell_setting 'orthorhombic'
loop_
_space_group_symop_operation_xyz
x,y,z
-x,-y,z
x,-y,-z
-x,y,-z
-x,-y,-z
x,y,-z
-x,y,z
x,-y,z
loop_
_atom_site_type_symbol
_atom_site_label
_atom_site_fract_x
_atom_site_fract_y
_atom_site_fract_z
Si Si1 0.691990 0.500000 0.674849
Si Si2 0.157365 0.782521 0.666653
Si Si3 0.078934 0.782212 0.834255
Si Si4 0.607017 0.500000 0.175316
Si Si5 0.245066 0.796343 0.324120
Si Si6 0.544372 0.795311 0.175614
Si Si7 0.000000 0.217759 0.334083
O O1 0.687429 0.500000 0.500000
O O2 0.649660 0.500000 0.750978
O O3 0.718832 0.669969 0.716843
O O4 0.152387 0.726348 0.500000
O O5 0.119919 0.724302 0.760054
O O6 0.201208 0.729835 0.720822
O O7 0.157935 0.000000 0.666190
O O8 0.039992 0.725078 0.746842
O O9 0.079082 0.000000 0.831970
O O10 0.076639 0.726354 0.000000
O O11 0.580193 0.669143 0.219847
O O12 0.611028 0.500000 0.000000
O O13 0.243385 0.797471 0.500000
O O14 0.250654 0.000000 0.276079
O O15 0.500000 0.736152 0.221498
O O16 0.549810 0.000000 0.220215
O O17 0.543943 0.791841 0.000000
O O18 0.000000 0.274321 0.500000
O O19 0.000000 0.000000 0.332833
#
# Coordination Sequence:
#
# PCOD9382772 Si02
#       7
#     4   8   8   4   8   8   4
#     4  10  20  33  49  69  94 127 163 194 232 285
#     4   8  13  23  39  55  71  97 136 179 220 262
#     4   9  15  21  30  48  75 104 135 174 221 270
#     4  10  19  30  46  70  98 124 153 195 242 281
#     4   8  15  29  48  67  87 115 154 197 234 272
#     4   8  14  26  46  71  96 124 161 201 237 276
#     4   9  15  21  29  43  69 108 147 178 212 259
#
# _framework density 18.830306
#
# number of rings (size 3 to 8) (size 9 to 14) (size 15 to 20)
#    0.000    3.364    0.000    2.727    0.000    5.091 
#    0.000    0.909    0.000    2.182    0.000    1.273 
#    0.000    0.727    0.000    8.636    0.000   25.273 
#
# Total GULP energy -245307.457911 kJ/mol
# GULP energy per Si atom -5575.169498 kJ/mol
# Density = 1.878745 g / cm^3
# Si number density = 18.830306 Si / 1000 Ang^3
#
#
#
# Elastic Constant Matrix: (Units=GPa)
#
#
# Indices 1 2 3 4 5 6 
#
# 1 238.4288 74.8077 75.5699 0.0000 0.0000 0.0000
# 2 74.8077 76.3661 24.4283 0.0000 0.0000 0.0000
# 3 75.5699 24.4283 65.3128 0.0000 0.0000 0.0000
# 4 0.0000 0.0000 0.0000 1.6908 0.0000 0.0000
# 5 0.0000 0.0000 0.0000 0.0000 41.2884 0.0000
# 6 0.0000 0.0000 0.0000 0.0000 0.0000 -60.6530
#
#
#
# Elastic Compliance Matrix: (Units=1/GPa)
#
#
# Indices 1 2 3 4 5 6 
#
# 1 0.008420 -0.005829 -0.007562 0.000000 0.000000 0.000000
# 2 -0.005829 0.018910 -0.000328 0.000000 0.000000 0.000000
# 3 -0.007562 -0.000328 0.024183 0.000000 0.000000 0.000000
# 4 0.000000 0.000000 0.000000 0.591419 0.000000 0.000000
# 5 0.000000 0.000000 0.000000 0.000000 0.024220 0.000000
# 6 0.000000 0.000000 0.000000 0.000000 0.000000 -0.016487
#
#
# Mechanical properties :
#
#
# Convention : Reuss Voigt Hill
#
# Bulk Modulus (GPa) = 41.53772 81.07995 61.30884
# Shear Modulus (GPa) = 7.28728 10.15202 8.71965
#
# Velocity S-wave (km/s) = 1.96936 2.32444 2.15423
# Velocity P-wave (km/s) = 5.22284 7.09618 6.23032
#
# Compressibility (1/GPa) = 0.02407450
#
# Stress axis : x y z
#
# Youngs Moduli (GPa) = 118.76903 52.88249 41.35120
#
# Poissons Ratio (x) = 0.30825 0.31269
# Poissons Ratio (y) = 0.69230 0.01357
# Poissons Ratio (z) = 0.89811 0.01736
#
# Static dielectric constant tensor:
#      x y z
#    x 1.628690 0.000000 0.000000 
#    y 0.000000 1.717960 0.000000 
#    z 0.000000 0.000000 1.627710 
# 
# From -- ./inp_files/13727.got.cif
#   From: 2010.05.17/outbox.cif.g08.bks.cpg/sg47_7_cif.got.tgz:13727.got - 2010.06.03 20:15:42.
