data_PCOD9382379
_publ_section_title
;
Structure prediction by ZEFSAII (Michael W. Deem and Ramdas Pophale) SiO2 
 PCOD9382379
Probable space group: P M M M
;
_chemical_formula_sum "Si O2"
_cell_formula_units_Z 52
_cell_length_a 7.632450
_cell_length_b 27.718803
_cell_length_c 14.231244
_cell_angle_alpha 90.000000
_cell_angle_beta 90.000000
_cell_angle_gamma 90.000000
_cell_volume 3010.795822
_symmetry_space_group_name_H-M "P M M M"
_symmetry_group_IT_number 47
_symmetry_cell_setting 'orthorhombic'
loop_
_space_group_symop_operation_xyz
x,y,z
-x,-y,z
x,-y,-z
-x,y,-z
-x,-y,-z
x,y,-z
-x,y,z
x,-y,z
loop_
_atom_site_type_symbol
_atom_site_label
_atom_site_fract_x
_atom_site_fract_y
_atom_site_fract_z
Si Si1 0.214644 0.000000 0.609104
Si Si2 0.785960 0.802123 0.394927
Si Si3 0.791940 0.244755 0.207151
Si Si4 0.785696 0.851653 0.894477
Si Si5 0.706465 0.343076 0.893581
Si Si6 0.213343 0.901107 0.295022
Si Si7 0.210397 0.551874 0.890999
O O1 0.272727 0.048315 0.662618
O O2 0.268140 0.000000 0.500000
O O3 0.000000 0.000000 0.609450
O O4 0.723906 0.791916 0.500000
O O5 0.725792 0.766271 0.312229
O O6 0.736800 0.855859 0.360607
O O7 0.000000 0.800958 0.397387
O O8 0.728112 0.202022 0.138182
O O9 0.763257 0.297722 0.167473
O O10 0.000000 0.237559 0.211534
O O11 0.731457 0.887832 0.811130
O O12 0.000000 0.852051 0.895959
O O13 0.726314 0.862515 0.000000
O O14 0.500000 0.338983 0.902696
O O15 0.741790 0.396049 0.850864
O O16 0.784023 0.340905 0.000000
O O17 0.000000 0.902038 0.294417
O O18 0.270926 0.500000 0.850957
O O19 0.000000 0.550514 0.892309
O O20 0.271686 0.553104 0.000000
#
# Coordination Sequence:
#
# PCOD9382379 Si02
#       7
#     4   8   8   8   8   8   8
#     4   9  14  18  25  37  57  87 119 150 188 236
#     4   8  13  22  36  53  71  90 118 159 200 233
#     4   9  16  25  39  56  72  96 130 163 193 229
#     4   8  13  21  32  45  62  86 119 156 187 219
#     4  10  19  27  36  54  81 109 133 161 196 228
#     4   8  13  19  27  42  63  88 119 152 187 228
#     4   8  14  25  40  56  75 103 138 169 193 221
#
# _framework density 17.271182
#
# number of rings (size 3 to 8) (size 9 to 14) (size 15 to 20)
#    0.000    3.462    0.000    3.692    0.000    3.692 
#    0.000    1.923    0.000    2.769    0.000    0.000 
#    0.000    0.615    0.000   18.154    0.000   96.462 
#
# Total GULP energy -289483.535060 kJ/mol
# GULP energy per Si atom -5566.991059 kJ/mol
# Density = 1.723187 g / cm^3
# Si number density = 17.271182 Si / 1000 Ang^3
#
#
#
# Elastic Constant Matrix: (Units=GPa)
#
#
# Indices 1 2 3 4 5 6 
#
# 1 28.3916 -2.5849 5.7172 0.0000 0.0000 0.0000
# 2 -2.5849 154.8308 83.9626 0.0000 0.0000 0.0000
# 3 5.7172 83.9626 134.1294 0.0000 0.0000 0.0000
# 4 0.0000 0.0000 0.0000 19.9649 0.0000 0.0000
# 5 0.0000 0.0000 0.0000 0.0000 -2.9628 0.0000
# 6 0.0000 0.0000 0.0000 0.0000 0.0000 -47.9024
#
#
#
# Elastic Compliance Matrix: (Units=1/GPa)
#
#
# Indices 1 2 3 4 5 6 
#
# 1 0.036002 0.002170 -0.002893 0.000000 0.000000 0.000000
# 2 0.002170 0.009909 -0.006295 0.000000 0.000000 0.000000
# 3 -0.002893 -0.006295 0.011519 0.000000 0.000000 0.000000
# 4 0.000000 0.000000 0.000000 0.050088 0.000000 0.000000
# 5 0.000000 0.000000 0.000000 0.000000 -0.337523 0.000000
# 6 0.000000 0.000000 0.000000 0.000000 0.000000 -0.020876
#
#
# Mechanical properties :
#
#
# Convention : Reuss Voigt Hill
#
# Bulk Modulus (GPa) = 23.04490 54.61573 38.83032
# Shear Modulus (GPa) = -22.48402 9.17040 -6.65681
#
# Velocity S-wave (km/s) = -3.61199 2.30677 -1.96536
# Velocity P-wave (km/s) = 2.00584 6.22784 4.16909
#
# Compressibility (1/GPa) = 0.04339354
#
# Stress axis : x y z
#
# Youngs Moduli (GPa) = 27.77642 100.92201 86.80994
#
# Poissons Ratio (x) = -0.21898 0.25112
# Poissons Ratio (y) = -0.06027 0.54648
# Poissons Ratio (z) = 0.08035 0.63532
#
# Static dielectric constant tensor:
#      x y z
#    x 1.637260 0.000000 0.000000 
#    y 0.000000 1.610900 0.000000 
#    z 0.000000 0.000000 1.599950 
# 
# From -- ./inp_files/21977.got.cif
#   From: 2010.05.17/outbox.cif.g08.bks.cpg/sg47_11_cif.got.tgz:21977.got - 2010.06.03 20:15:42.
