data_PCOD9382019
_publ_section_title
;
Structure prediction by ZEFSAII (Michael W. Deem and Ramdas Pophale) SiO2 
 PCOD9382019
Probable space group: P M M M
;
_chemical_formula_sum "Si O2"
_cell_formula_units_Z 52
_cell_length_a 7.796309
_cell_length_b 24.201456
_cell_length_c 14.953124
_cell_angle_alpha 90.000000
_cell_angle_beta 90.000000
_cell_angle_gamma 90.000000
_cell_volume 2821.385780
_symmetry_space_group_name_H-M "P M M M"
_symmetry_group_IT_number 47
_symmetry_cell_setting 'orthorhombic'
loop_
_space_group_symop_operation_xyz
x,y,z
-x,-y,z
x,-y,-z
-x,y,-z
-x,-y,-z
x,y,-z
-x,y,z
x,-y,z
loop_
_atom_site_type_symbol
_atom_site_label
_atom_site_fract_x
_atom_site_fract_y
_atom_site_fract_z
Si Si1 0.207010 0.620139 0.897785
Si Si2 0.198017 0.500000 0.108699
Si Si3 0.293281 0.272484 0.214010
Si Si4 0.709009 0.769111 0.598469
Si Si5 0.798770 0.060113 0.790927
Si Si6 0.703651 0.168276 0.899342
Si Si7 0.292688 0.101342 0.400498
O O1 0.273809 0.559725 0.867182
O O2 0.251099 0.670184 0.833228
O O3 0.000000 0.615841 0.901669
O O4 0.266615 0.631027 0.000000
O O5 0.000000 0.500000 0.140011
O O6 0.194935 0.500000 0.000000
O O7 0.500000 0.268090 0.217237
O O8 0.230714 0.264749 0.315674
O O9 0.226738 0.220905 0.155081
O O10 0.767864 0.750912 0.500000
O O11 0.500000 0.767579 0.597470
O O12 0.754435 0.833862 0.609509
O O13 0.725564 0.112191 0.843784
O O14 0.774887 0.069203 0.684907
O O15 0.000000 0.059616 0.810420
O O16 0.725356 0.000000 0.815727
O O17 0.500000 0.177361 0.906697
O O18 0.774229 0.164253 0.000000
O O19 0.237694 0.083012 0.500000
O O20 0.500000 0.098268 0.398016
#
# Coordination Sequence:
#
# PCOD9382019 Si02
#       7
#     8   4   8   8   8   8   8
#     4   9  17  29  46  69  98 133 169 199 230 275
#     4   7  12  26  45  63  90 131 172 202 227 265
#     4  10  18  30  50  75 101 124 151 195 244 285
#     4   8  14  27  49  73  95 121 152 187 232 284
#     4  11  24  38  51  70  98 129 159 197 247 298
#     4  10  21  37  55  73  94 123 161 204 246 290
#     4   9  17  33  57  78  95 121 159 198 237 289
#
# _framework density 18.430658999999999
#
# number of rings (size 3 to 8) (size 9 to 14) (size 15 to 20)
#    0.000    2.692    1.538    2.769    0.000    4.000 
#    0.000    3.462    0.000    1.846    0.000    0.538 
#    0.000    4.308    0.000    0.000    0.000    0.000 
#
# Total GULP energy -289912.032514 kJ/mol
# GULP energy per Si atom -5575.231394 kJ/mol
# Density = 1.838871 g / cm^3
# Si number density = 18.430659 Si / 1000 Ang^3
#
#
#
# Elastic Constant Matrix: (Units=GPa)
#
#
# Indices 1 2 3 4 5 6 
#
# 1 20.9969 0.0961 4.2080 0.0000 0.0000 0.0000
# 2 0.0961 145.7349 78.8015 0.0000 0.0000 0.0000
# 3 4.2080 78.8015 123.1844 0.0000 0.0000 0.0000
# 4 0.0000 0.0000 0.0000 31.1633 0.0000 0.0000
# 5 0.0000 0.0000 0.0000 0.0000 -1.5768 0.0000
# 6 0.0000 0.0000 0.0000 0.0000 0.0000 18.6316
#
#
#
# Elastic Compliance Matrix: (Units=1/GPa)
#
#
# Indices 1 2 3 4 5 6 
#
# 1 0.048117 0.001310 -0.002482 0.000000 0.000000 0.000000
# 2 0.001310 0.010526 -0.006778 0.000000 0.000000 0.000000
# 3 -0.002482 -0.006778 0.012539 0.000000 0.000000 0.000000
# 4 0.000000 0.000000 0.000000 0.032089 0.000000 0.000000
# 5 0.000000 0.000000 0.000000 0.000000 -0.634196 0.000000
# 6 0.000000 0.000000 0.000000 0.000000 0.000000 0.053672
#
#
# Mechanical properties :
#
#
# Convention : Reuss Voigt Hill
#
# Bulk Modulus (GPa) = 18.08895 50.68085 34.38490
# Shear Modulus (GPa) = -11.28859 23.43098 6.07120
#
# Velocity S-wave (km/s) = -2.47754 3.56940 1.81693
# Velocity P-wave (km/s) = 1.28516 6.67423 4.80609
#
# Compressibility (1/GPa) = 0.05528237
#
# Stress axis : x y z
#
# Youngs Moduli (GPa) = 20.78251 95.00219 79.75239
#
# Poissons Ratio (x) = -0.12448 0.19794
# Poissons Ratio (y) = -0.02723 0.54059
# Poissons Ratio (z) = 0.05158 0.64396
#
# Static dielectric constant tensor:
#      x y z
#    x 1.679430 0.000000 0.000000 
#    y 0.000000 1.642200 0.000000 
#    z 0.000000 0.000000 1.641580 
# 
# From -- ./inp_files/21746.got.cif
#   From: 2010.05.17/outbox.cif.g08.bks.cpg/sg47_11_cif.got.tgz:21746.got - 2010.06.03 20:15:42.
