data_PCOD9382188
_publ_section_title
;
Structure prediction by ZEFSAII (Michael W. Deem and Ramdas Pophale) SiO2 
 PCOD9382188
Probable space group: P M M M
;
_chemical_formula_sum "Si O2"
_cell_formula_units_Z 48
_cell_length_a 7.456153
_cell_length_b 18.353263
_cell_length_c 16.018102
_cell_angle_alpha 90.000000
_cell_angle_beta 90.000000
_cell_angle_gamma 90.000000
_cell_volume 2191.992955
_symmetry_space_group_name_H-M "P M M M"
_symmetry_group_IT_number 47
_symmetry_cell_setting 'orthorhombic'
loop_
_space_group_symop_operation_xyz
x,y,z
-x,-y,z
x,-y,-z
-x,y,-z
-x,-y,-z
x,y,-z
-x,y,z
x,-y,z
loop_
_atom_site_type_symbol
_atom_site_label
_atom_site_fract_x
_atom_site_fract_y
_atom_site_fract_z
Si Si1 0.719147 0.000000 0.096803
Si Si2 0.281092 0.845846 0.829703
Si Si3 0.717260 0.192706 0.642530
Si Si4 0.709722 0.419412 0.228795
Si Si5 0.207880 0.357372 0.407690
Si Si6 0.281116 0.917212 0.500000
Si Si7 0.280929 0.695911 0.092923
O O1 0.778492 0.925398 0.140920
O O2 0.500000 0.000000 0.098876
O O3 0.771949 0.000000 0.000000
O O4 0.500000 0.847603 0.829851
O O5 0.224778 0.824680 0.736276
O O6 0.226021 0.778952 0.888490
O O7 0.500000 0.195756 0.642501
O O8 0.778475 0.270855 0.609161
O O9 0.774066 0.128695 0.580622
O O10 0.500000 0.424103 0.207400
O O11 0.788488 0.500000 0.218150
O O12 0.717133 0.395746 0.325433
O O13 0.782948 0.357598 0.166595
O O14 0.285326 0.373135 0.500000
O O15 0.000000 0.377930 0.410200
O O16 0.500000 0.918640 0.500000
O O17 0.218976 0.000000 0.500000
O O18 0.500000 0.696380 0.094973
O O19 0.226633 0.672914 0.000000
#
# Coordination Sequence:
#
# PCOD9382188 Si02
#       7
#     4   8   8   8   8   4   8
#     4   9  16  24  36  65 110 145 168 207 265 317
#     4   9  16  25  42  69 103 140 175 212 256 307
#     4  10  18  31  52  76 104 140 181 224 265 316
#     4  10  21  37  57  83 112 140 174 216 265 323
#     4  11  23  38  57  79 105 139 180 224 270 322
#     4   9  18  28  45  77 110 137 172 223 279 324
#     4   9  16  28  49  77 108 140 174 213 258 310
#
# _framework density 21.897879
#
# number of rings (size 3 to 8) (size 9 to 14) (size 15 to 20)
#    0.000    2.333    2.500    1.000    1.167    4.000 
#    0.000    3.333    0.000    1.500    0.000    1.167 
#    0.000    0.667    0.000    0.000    0.000    0.000 
#
# Total GULP energy -268105.549297 kJ/mol
# GULP energy per Si atom -5585.532277 kJ/mol
# Density = 2.184804 g / cm^3
# Si number density = 21.897879 Si / 1000 Ang^3
#
#
#
# Elastic Constant Matrix: (Units=GPa)
#
#
# Indices 1 2 3 4 5 6 
#
# 1 62.6493 -1.1324 -1.7205 0.0000 0.0000 0.0000
# 2 -1.1324 143.4145 58.6730 0.0000 0.0000 0.0000
# 3 -1.7205 58.6730 155.9778 0.0000 0.0000 0.0000
# 4 0.0000 0.0000 0.0000 9.3874 0.0000 0.0000
# 5 0.0000 0.0000 0.0000 0.0000 -684.5680 0.0000
# 6 0.0000 0.0000 0.0000 0.0000 0.0000 -112.7744
#
#
#
# Elastic Compliance Matrix: (Units=1/GPa)
#
#
# Indices 1 2 3 4 5 6 
#
# 1 0.015967 0.000064 0.000152 0.000000 0.000000 0.000000
# 2 0.000064 0.008241 -0.003099 0.000000 0.000000 0.000000
# 3 0.000152 -0.003099 0.007579 0.000000 0.000000 0.000000
# 4 0.000000 0.000000 0.000000 0.106526 0.000000 0.000000
# 5 0.000000 0.000000 0.000000 0.000000 -0.001461 0.000000
# 6 0.000000 0.000000 0.000000 0.000000 0.000000 -0.008867
#
#
# Mechanical properties :
#
#
# Convention : Reuss Voigt Hill
#
# Bulk Modulus (GPa) = 38.43138 52.63130 45.53134
# Shear Modulus (GPa) = 35.10616 -137.17625 -51.03505
#
# Velocity S-wave (km/s) = 4.00831 -7.92336 -4.83286
# Velocity P-wave (km/s) = 6.24584 7.72134 3.21003
#
# Compressibility (1/GPa) = 0.02602040
#
# Stress axis : x y z
#
# Youngs Moduli (GPa) = 62.62835 121.34018 131.94855
#
# Poissons Ratio (x) = -0.00775 -0.02007
# Poissons Ratio (y) = -0.00400 0.40896
# Poissons Ratio (z) = -0.00953 0.37608
#
# Static dielectric constant tensor:
#      x y z
#    x 1.855750 0.000000 0.000000 
#    y 0.000000 1.757890 0.000000 
#    z 0.000000 0.000000 1.775800 
# 
# From -- ./inp_files/21107.got.cif
#   From: 2010.05.17/outbox.cif.g08.bks.cpg/sg47_11_cif.got.tgz:21107.got - 2010.06.03 20:15:42.
