data_PCOD9382660
_publ_section_title
;
Structure prediction by ZEFSAII (Michael W. Deem and Ramdas Pophale) SiO2 
 PCOD9382660
Probable space group: P M M M
;
_chemical_formula_sum "Si O2"
_cell_formula_units_Z 52
_cell_length_a 24.049081
_cell_length_b 15.847578
_cell_length_c 7.447908
_cell_angle_alpha 90.000000
_cell_angle_beta 90.000000
_cell_angle_gamma 90.000000
_cell_volume 2838.544366
_symmetry_space_group_name_H-M "P M M M"
_symmetry_group_IT_number 47
_symmetry_cell_setting 'orthorhombic'
loop_
_space_group_symop_operation_xyz
x,y,z
-x,-y,z
x,-y,-z
-x,y,-z
-x,-y,-z
x,y,-z
-x,y,z
x,-y,z
loop_
_atom_site_type_symbol
_atom_site_label
_atom_site_fract_x
_atom_site_fract_y
_atom_site_fract_z
Si Si1 0.317127 0.593859 0.280098
Si Si2 0.733924 0.763045 0.706606
Si Si3 0.940269 0.098774 0.783813
Si Si4 0.560799 0.353488 0.289518
Si Si5 0.611330 0.177799 0.216404
Si Si6 0.183504 0.903174 0.710295
Si Si7 0.563611 0.000000 0.780931
O O1 0.318521 0.599305 0.500000
O O2 0.299364 0.500000 0.230781
O O3 0.277321 0.669537 0.216294
O O4 0.381108 0.608768 0.218234
O O5 0.752027 0.750679 0.500000
O O6 0.672189 0.801822 0.710646
O O7 0.775393 0.832390 0.788415
O O8 0.880076 0.129131 0.722899
O O9 0.000000 0.135457 0.723480
O O10 0.940924 0.000000 0.730876
O O11 0.939876 0.102132 0.000000
O O12 0.559471 0.376044 0.500000
O O13 0.500000 0.376598 0.214028
O O14 0.570106 0.252811 0.272920
O O15 0.592270 0.086092 0.277136
O O16 0.613842 0.179051 0.000000
O O17 0.197572 0.910851 0.500000
O O18 0.186792 0.000000 0.784288
O O19 0.500000 0.000000 0.724394
O O20 0.564548 0.000000 0.000000
#
# Coordination Sequence:
#
# PCOD9382660 Si02
#       7
#     8   8   8   8   8   8   4
#     4   8  14  26  44  63  81 103 132 167 207 249
#     4   9  18  31  44  61  85 109 136 172 207 243
#     4   8  14  25  40  59  85 116 147 177 204 229
#     4   9  17  29  44  62  82 100 123 160 207 258
#     4  10  19  30  44  59  76 104 137 169 206 245
#     4   9  17  27  40  60  86 117 145 169 201 239
#     4   9  18  30  41  55  75  99 132 171 204 239
#
# _framework density 18.319248000000002
#
# number of rings (size 3 to 8) (size 9 to 14) (size 15 to 20)
#    0.000    3.154    0.000    2.308    1.077    2.154 
#    0.000    4.231    0.000   10.154    0.000    4.308 
#    0.000    0.615    0.000    7.692    0.000    1.538 
#
# Total GULP energy -289602.944509 kJ/mol
# GULP energy per Si atom -5569.287394 kJ/mol
# Density = 1.827755 g / cm^3
# Si number density = 18.319248 Si / 1000 Ang^3
#
#
#
# Elastic Constant Matrix: (Units=GPa)
#
#
# Indices 1 2 3 4 5 6 
#
# 1 106.0301 57.7459 -0.7525 0.0000 0.0000 0.0000
# 2 57.7459 125.6413 -0.4557 0.0000 0.0000 0.0000
# 3 -0.7525 -0.4557 57.2497 0.0000 0.0000 0.0000
# 4 0.0000 0.0000 0.0000 12.2818 0.0000 0.0000
# 5 0.0000 0.0000 0.0000 0.0000 14.8808 0.0000
# 6 0.0000 0.0000 0.0000 0.0000 0.0000 24.7440
#
#
#
# Elastic Compliance Matrix: (Units=1/GPa)
#
#
# Indices 1 2 3 4 5 6 
#
# 1 0.012581 -0.005782 0.000119 0.000000 0.000000 0.000000
# 2 -0.005782 0.010617 0.000009 0.000000 0.000000 0.000000
# 3 0.000119 0.000009 0.017469 0.000000 0.000000 0.000000
# 4 0.000000 0.000000 0.000000 0.081421 0.000000 0.000000
# 5 0.000000 0.000000 0.000000 0.000000 0.067201 0.000000
# 6 0.000000 0.000000 0.000000 0.000000 0.000000 0.040414
#
#
# Mechanical properties :
#
#
# Convention : Reuss Voigt Hill
#
# Bulk Modulus (GPa) = 34.06165 44.66626 39.36396
# Shear Modulus (GPa) = 19.93648 25.87355 22.90501
#
# Velocity S-wave (km/s) = 3.30249 3.76223 3.53983
# Velocity P-wave (km/s) = 5.75983 6.58085 6.18398
#
# Compressibility (1/GPa) = 0.02935853
#
# Stress axis : x y z
#
# Youngs Moduli (GPa) = 79.48433 94.19175 57.24429
#
# Poissons Ratio (x) = 0.54461 -0.00683
# Poissons Ratio (y) = 0.45958 -0.00049
# Poissons Ratio (z) = -0.00949 -0.00080
#
# Static dielectric constant tensor:
#      x y z
#    x 1.635780 0.000000 0.000000 
#    y 0.000000 1.657150 0.000000 
#    z 0.000000 0.000000 1.693990 
# 
# From -- ./inp_files/12489.got.cif
#   From: 2010.05.17/outbox.cif.g08.bks.cpg/sg47_7_cif.got.tgz:12489.got - 2010.06.03 20:15:42.
