data_PCOD9382937
_publ_section_title
;
Structure prediction by ZEFSAII (Michael W. Deem and Ramdas Pophale) SiO2 
 PCOD9382937
Probable space group: P M M M
;
_chemical_formula_sum "Si O2"
_cell_formula_units_Z 60
_cell_length_a 25.009038
_cell_length_b 19.212233
_cell_length_c 8.662450
_cell_angle_alpha 90.000000
_cell_angle_beta 90.000000
_cell_angle_gamma 90.000000
_cell_volume 4162.129343
_symmetry_space_group_name_H-M "P M M M"
_symmetry_group_IT_number 47
_symmetry_cell_setting 'orthorhombic'
loop_
_space_group_symop_operation_xyz
x,y,z
-x,-y,z
x,-y,-z
-x,y,-z
-x,-y,-z
x,y,-z
-x,y,z
x,-y,z
loop_
_atom_site_type_symbol
_atom_site_label
_atom_site_fract_x
_atom_site_fract_y
_atom_site_fract_z
Si Si1 0.724522 0.163556 0.815246
Si Si2 0.382838 0.080018 0.813913
Si Si3 0.057461 0.915834 0.316863
Si Si4 0.174942 0.918504 0.687194
Si Si5 0.500000 0.584379 0.325473
Si Si6 0.664112 0.289397 0.315022
Si Si7 0.385299 0.419165 0.815680
Si Si8 0.441344 0.793457 0.314300
O O1 0.674381 0.113827 0.770392
O O2 0.778125 0.129329 0.750631
O O3 0.710452 0.239858 0.749989
O O4 0.726570 0.166354 0.000000
O O5 0.427972 0.128891 0.741702
O O6 0.385914 0.000000 0.765163
O O7 0.386831 0.082839 0.000000
O O8 0.056878 0.899623 0.500000
O O9 0.115802 0.894496 0.257188
O O10 0.000000 0.891593 0.251293
O O11 0.057743 0.000000 0.305839
O O12 0.175051 0.916635 0.500000
O O13 0.182885 0.000000 0.731508
O O14 0.500000 0.500000 0.331786
O O15 0.500000 0.612566 0.500000
O O16 0.444410 0.602463 0.244009
O O17 0.665972 0.288911 0.500000
O O18 0.658627 0.367586 0.254268
O O19 0.608474 0.252978 0.261095
O O20 0.377251 0.500000 0.770347
O O21 0.384776 0.415035 0.000000
O O22 0.441050 0.791810 0.500000
O O23 0.500000 0.770795 0.260196
#
# Coordination Sequence:
#
# PCOD9382937 Si02
#       8
#     8   8   8   8   4   8   8   8
#     4  10  19  31  44  58  80 107 137 171 211 254
#     4   9  18  31  44  57  73  95 125 161 199 241
#     4   7  10  18  33  54  80 108 138 174 214 251
#     4   9  16  25  40  62  84 108 143 184 219 252
#     4   9  17  29  45  65  87 109 132 157 186 225
#     4  10  20  33  49  64  81 105 133 166 202 244
#     4  10  20  33  48  68  91 110 130 158 196 244
#     4   9  19  33  45  59  77  96 120 153 196 243
#
# _framework density 14.415699
#
# number of rings (size 3 to 8) (size 9 to 14) (size 15 to 20)
#    0.000    2.867    0.000    3.000    0.933    4.267 
#    0.000    1.333    0.000    0.400    0.000    1.867 
#    0.000    0.000    0.000    0.000    0.000    0.667 
#
# Total GULP energy -334233.092191 kJ/mol
# GULP energy per Si atom -5570.551537 kJ/mol
# Density = 1.438289 g / cm^3
# Si number density = 14.415699 Si / 1000 Ang^3
#
#
#
# Elastic Constant Matrix: (Units=GPa)
#
#
# Indices 1 2 3 4 5 6 
#
# 1 98.9468 34.8059 20.1636 0.0000 0.0000 0.0000
# 2 34.8059 73.7640 19.7478 0.0000 0.0000 0.0000
# 3 20.1636 19.7478 19.9727 0.0000 0.0000 0.0000
# 4 0.0000 0.0000 0.0000 18.9338 0.0000 0.0000
# 5 0.0000 0.0000 0.0000 0.0000 9.3442 0.0000
# 6 0.0000 0.0000 0.0000 0.0000 0.0000 13.1148
#
#
#
# Elastic Compliance Matrix: (Units=1/GPa)
#
#
# Indices 1 2 3 4 5 6 
#
# 1 0.013420 -0.003679 -0.009911 0.000000 0.000000 0.000000
# 2 -0.003679 0.019446 -0.015513 0.000000 0.000000 0.000000
# 3 -0.009911 -0.015513 0.075412 0.000000 0.000000 0.000000
# 4 0.000000 0.000000 0.000000 0.052816 0.000000 0.000000
# 5 0.000000 0.000000 0.000000 0.000000 0.107018 0.000000
# 6 0.000000 0.000000 0.000000 0.000000 0.000000 0.076250
#
#
# Mechanical properties :
#
#
# Convention : Reuss Voigt Hill
#
# Bulk Modulus (GPa) = 19.97088 38.01312 28.99200
# Shear Modulus (GPa) = 11.92585 16.14297 14.03441
#
# Velocity S-wave (km/s) = 2.87937 3.35000 3.12356
# Velocity P-wave (km/s) = 4.99380 6.43349 5.75881
#
# Compressibility (1/GPa) = 0.05007291
#
# Stress axis : x y z
#
# Youngs Moduli (GPa) = 74.51404 51.42519 13.26049
#
# Poissons Ratio (x) = 0.18920 0.13142
# Poissons Ratio (y) = 0.27415 0.20570
# Poissons Ratio (z) = 0.73850 0.79774
#
# Static dielectric constant tensor:
#      x y z
#    x 1.488860 0.000000 0.000000 
#    y 0.000000 1.482810 0.000000 
#    z 0.000000 0.000000 1.484770 
# 
# From -- ./inp_files/12902.got.cif
#   From: 2010.05.17/outbox.cif.g08.bks.cpg/sg47_7_cif.got.tgz:12902.got - 2010.06.03 20:15:42.
