data_PCOD9382581
_publ_section_title
;
Structure prediction by ZEFSAII (Michael W. Deem and Ramdas Pophale) SiO2 
 PCOD9382581
Probable space group: P M M M
;
_chemical_formula_sum "Si O2"
_cell_formula_units_Z 64
_cell_length_a 7.876142
_cell_length_b 18.935027
_cell_length_c 20.394511
_cell_angle_alpha 90.000000
_cell_angle_beta 90.000000
_cell_angle_gamma 90.000000
_cell_volume 3041.534611
_symmetry_space_group_name_H-M "P M M M"
_symmetry_group_IT_number 47
_symmetry_cell_setting 'orthorhombic'
loop_
_space_group_symop_operation_xyz
x,y,z
-x,-y,z
x,-y,-z
-x,y,-z
-x,-y,-z
x,y,-z
-x,y,z
x,-y,z
loop_
_atom_site_type_symbol
_atom_site_label
_atom_site_fract_x
_atom_site_fract_y
_atom_site_fract_z
Si Si1 0.794557 0.922299 0.397430
Si Si2 0.202685 0.925931 0.115802
Si Si3 0.792762 0.874677 0.253990
Si Si4 0.685894 0.775330 0.923139
Si Si5 0.203901 0.423663 0.215006
Si Si6 0.798524 0.281425 0.715109
Si Si7 0.293345 0.374240 0.075460
Si Si8 0.299062 0.763843 0.570955
O O1 0.747699 0.913516 0.320911
O O2 0.731163 0.848672 0.426904
O O3 0.000000 0.921113 0.403262
O O4 0.737701 0.000000 0.420957
O O5 0.265619 0.915236 0.189899
O O6 0.237936 0.852009 0.082370
O O7 0.000000 0.930842 0.117423
O O8 0.268871 0.000000 0.087695
O O9 0.732851 0.793105 0.255084
O O10 0.000000 0.873064 0.252402
O O11 0.500000 0.778451 0.891805
O O12 0.776138 0.703478 0.902361
O O13 0.667775 0.761389 0.000000
O O14 0.266723 0.500000 0.240219
O O15 0.270642 0.353562 0.252734
O O16 0.243007 0.420718 0.137250
O O17 0.000000 0.422972 0.222503
O O18 0.774462 0.271502 0.636683
O O19 0.000000 0.281325 0.727462
O O20 0.500000 0.370889 0.073762
O O21 0.240044 0.392043 0.000000
O O22 0.232820 0.738587 0.500000
O O23 0.500000 0.752040 0.573219
#
# Coordination Sequence:
#
# PCOD9382581 Si02
#       8
#     8   8   8   8   8   8   8   8
#     4   9  17  30  49  72 100 136 175 212 253 307
#     4  10  19  29  44  67  93 121 157 205 258 308
#     4   8  14  27  47  68  90 120 159 199 240 287
#     4   9  19  35  50  63  85 121 164 208 251 294
#     4  10  21  36  56  85 116 140 166 206 256 308
#     4   9  18  34  56  78 101 133 172 212 254 308
#     4   9  19  36  56  78 106 142 182 217 250 299
#     4  10  21  35  51  74 104 137 175 221 269 312
#
# _framework density 21.042007999999999
#
# number of rings (size 3 to 8) (size 9 to 14) (size 15 to 20)
#    0.000    2.750    0.000    3.000    0.000    6.500 
#    0.000    8.750    0.000    3.375    0.000    2.625 
#    0.000    0.000    0.000    0.000    0.000    0.000 
#
# Total GULP energy -356493.128153 kJ/mol
# GULP energy per Si atom -5570.205127 kJ/mol
# Density = 2.099412 g / cm^3
# Si number density = 21.042008 Si / 1000 Ang^3
#
#
#
# Elastic Constant Matrix: (Units=GPa)
#
#
# Indices 1 2 3 4 5 6 
#
# 1 16.8697 6.6273 -5.1263 0.0000 0.0000 0.0000
# 2 6.6273 151.2356 41.4420 0.0000 0.0000 0.0000
# 3 -5.1263 41.4420 62.4372 0.0000 0.0000 0.0000
# 4 0.0000 0.0000 0.0000 -15.2125 0.0000 0.0000
# 5 0.0000 0.0000 0.0000 0.0000 19.3310 0.0000
# 6 0.0000 0.0000 0.0000 0.0000 0.0000 -6.4657
#
#
#
# Elastic Compliance Matrix: (Units=1/GPa)
#
#
# Indices 1 2 3 4 5 6 
#
# 1 0.063956 -0.005184 0.008692 0.000000 0.000000 0.000000
# 2 -0.005184 0.008502 -0.006069 0.000000 0.000000 0.000000
# 3 0.008692 -0.006069 0.020758 0.000000 0.000000 0.000000
# 4 0.000000 0.000000 0.000000 -0.065736 0.000000 0.000000
# 5 0.000000 0.000000 0.000000 0.000000 0.051730 0.000000
# 6 0.000000 0.000000 0.000000 0.000000 0.000000 -0.154662
#
#
# Mechanical properties :
#
#
# Convention : Reuss Voigt Hill
#
# Bulk Modulus (GPa) = 11.35154 35.15873 23.25514
# Shear Modulus (GPa) = -122.05956 12.03720 -55.01118
#
# Velocity S-wave (km/s) = -7.62453 2.39436 -5.11862
# Velocity P-wave (km/s) = 8.49146 4.93853 4.88446
#
# Compressibility (1/GPa) = 0.08809378
#
# Stress axis : x y z
#
# Youngs Moduli (GPa) = 15.63572 117.61309 48.17411
#
# Poissons Ratio (x) = 0.60976 -0.41874
# Poissons Ratio (y) = 0.08106 0.29237
# Poissons Ratio (z) = -0.13591 0.71380
#
# Static dielectric constant tensor:
#      x y z
#    x 1.780170 0.000000 0.000000 
#    y 0.000000 1.938800 0.000000 
#    z 0.000000 0.000000 1.781450 
# 
# From -- ./inp_files/29995.got.cif
#   From: 2010.05.17/outbox.cif.g08.bks.cpg/sg47_15_cif.got.tgz:29995.got - 2010.06.03 20:15:42.
