data_PCOD9382064
_publ_section_title
;
Structure prediction by ZEFSAII (Michael W. Deem and Ramdas Pophale) SiO2 
 PCOD9382064
Probable space group: P M M M
;
_chemical_formula_sum "Si O2"
_cell_formula_units_Z 52
_cell_length_a 28.015967
_cell_length_b 8.611383
_cell_length_c 12.379671
_cell_angle_alpha 90.000000
_cell_angle_beta 90.000000
_cell_angle_gamma 90.000000
_cell_volume 2986.672654
_symmetry_space_group_name_H-M "P M M M"
_symmetry_group_IT_number 47
_symmetry_cell_setting 'orthorhombic'
loop_
_space_group_symop_operation_xyz
x,y,z
-x,-y,z
x,-y,-z
-x,y,-z
-x,-y,-z
x,y,-z
-x,y,z
x,-y,z
loop_
_atom_site_type_symbol
_atom_site_label
_atom_site_fract_x
_atom_site_fract_y
_atom_site_fract_z
Si Si1 0.325959 0.815119 0.124961
Si Si2 0.944975 0.689826 0.000000
Si Si3 0.052688 0.185861 0.627366
Si Si4 0.120396 0.313544 0.199860
Si Si5 0.500000 0.813489 0.125708
Si Si6 0.222524 0.682552 0.871267
Si Si7 0.444271 0.310990 0.500000
Si Si8 0.411507 0.686206 0.736717
O O1 0.271411 0.771473 0.151446
O O2 0.362398 0.739038 0.208452
O O3 0.332195 0.000000 0.127442
O O4 0.334935 0.762881 0.000000
O O5 0.914805 0.740735 0.104185
O O6 0.945871 0.500000 0.000000
O O7 0.000000 0.742102 0.000000
O O8 0.055207 0.216753 0.500000
O O9 0.095106 0.265233 0.690669
O O10 0.000000 0.238634 0.666298
O O11 0.055046 0.000000 0.642014
O O12 0.122924 0.500000 0.191136
O O13 0.174567 0.257217 0.185386
O O14 0.546108 0.752299 0.189073
O O15 0.500000 0.000000 0.127432
O O16 0.500000 0.763643 0.000000
O O17 0.229575 0.500000 0.845316
O O18 0.213408 0.692009 0.000000
O O19 0.444003 0.500000 0.500000
O O20 0.500000 0.262812 0.500000
O O21 0.419666 0.261368 0.387646
O O22 0.414358 0.500000 0.737619
#
# Coordination Sequence:
#
# PCOD9382064 Si02
#       8
#     8   4   8   8   4   8   4   8
#     4  10  21  36  54  79 111 141 173 217 267 310
#     4   9  16  26  43  73 111 141 161 196 259 316
#     4   9  19  35  51  68  96 135 174 212 258 309
#     4  10  18  30  51  78 104 132 169 214 258 306
#     4  11  23  36  51  78 118 151 176 215 264 309
#     4   9  17  32  53  77 105 137 174 212 256 314
#     4   9  18  36  58  82 110 140 176 220 261 302
#     4  11  21  36  59  82 107 142 182 220 262 312
#
# _framework density 17.410678000000001
#
# number of rings (size 3 to 8) (size 9 to 14) (size 15 to 20)
#    0.000    2.231    1.538    2.538    0.000    5.231 
#    0.000    3.077    1.692    1.385    0.000    0.000 
#    0.000    0.000    0.000    0.000    0.000    0.000 
#
# Total GULP energy -290087.947688 kJ/mol
# GULP energy per Si atom -5578.614379 kJ/mol
# Density = 1.737105 g / cm^3
# Si number density = 17.410678 Si / 1000 Ang^3
#
#
#
# Elastic Constant Matrix: (Units=GPa)
#
#
# Indices 1 2 3 4 5 6 
#
# 1 138.0314 23.9427 74.8692 0.0000 0.0000 0.0000
# 2 23.9427 21.0314 25.7523 0.0000 0.0000 0.0000
# 3 74.8692 25.7523 103.4472 0.0000 0.0000 0.0000
# 4 0.0000 0.0000 0.0000 4.3255 0.0000 0.0000
# 5 0.0000 0.0000 0.0000 0.0000 24.3715 0.0000
# 6 0.0000 0.0000 0.0000 0.0000 0.0000 8.8212
#
#
#
# Elastic Compliance Matrix: (Units=1/GPa)
#
#
# Indices 1 2 3 4 5 6 
#
# 1 0.012207 -0.004429 -0.007732 0.000000 0.000000 0.000000
# 2 -0.004429 0.070004 -0.014221 0.000000 0.000000 0.000000
# 3 -0.007732 -0.014221 0.018803 0.000000 0.000000 0.000000
# 4 0.000000 0.000000 0.000000 0.231187 0.000000 0.000000
# 5 0.000000 0.000000 0.000000 0.000000 0.041032 0.000000
# 6 0.000000 0.000000 0.000000 0.000000 0.000000 0.113364
#
#
# Mechanical properties :
#
#
# Convention : Reuss Voigt Hill
#
# Bulk Modulus (GPa) = 20.72588 56.84869 38.78729
# Shear Modulus (GPa) = 9.00181 16.70002 12.85091
#
# Velocity S-wave (km/s) = 2.27629 3.10043 2.71976
# Velocity P-wave (km/s) = 4.34035 6.74829 5.67354
#
# Compressibility (1/GPa) = 0.04824885
#
# Stress axis : x y z
#
# Youngs Moduli (GPa) = 81.92073 14.28495 53.18262
#
# Poissons Ratio (x) = 0.06327 0.41121
# Poissons Ratio (y) = 0.36282 0.75633
# Poissons Ratio (z) = 0.63342 0.20315
#
# Static dielectric constant tensor:
#      x y z
#    x 1.590560 0.000000 0.000000 
#    y 0.000000 1.594880 0.000000 
#    z 0.000000 0.000000 1.585260 
# 
# From -- ./inp_files/19893.got.cif
#   From: 2010.05.17/outbox.cif.g08.bks.cpg/sg47_10_cif.got.tgz:19893.got - 2010.06.03 20:15:42.
