data_PCOD9382276
_publ_section_title
;
Structure prediction by ZEFSAII (Michael W. Deem and Ramdas Pophale) SiO2 
 PCOD9382276
Probable space group: P M M M
;
_chemical_formula_sum "Si O2"
_cell_formula_units_Z 30
_cell_length_a 7.537436
_cell_length_b 10.068400
_cell_length_c 18.646302
_cell_angle_alpha 90.000000
_cell_angle_beta 90.000000
_cell_angle_gamma 90.000000
_cell_volume 1415.066379
_symmetry_space_group_name_H-M "P M M M"
_symmetry_group_IT_number 47
_symmetry_cell_setting 'orthorhombic'
loop_
_space_group_symop_operation_xyz
x,y,z
-x,-y,z
x,-y,-z
-x,y,-z
-x,-y,-z
x,y,-z
-x,y,z
x,-y,z
loop_
_atom_site_type_symbol
_atom_site_label
_atom_site_fract_x
_atom_site_fract_y
_atom_site_fract_z
Si Si1 0.216372 0.652813 0.080463
Si Si2 0.787156 0.500000 0.582801
Si Si3 0.215406 0.849072 0.205095
Si Si4 0.000000 0.000000 0.409362
Si Si5 0.696578 0.206625 0.369273
O O1 0.269688 0.500000 0.091893
O O2 0.275919 0.747871 0.144066
O O3 0.000000 0.655228 0.080927
O O4 0.271493 0.693089 0.000000
O O5 0.730581 0.500000 0.500000
O O6 0.724417 0.636994 0.617751
O O7 0.000000 0.500000 0.585867
O O8 0.286116 0.819336 0.284039
O O9 0.000000 0.841516 0.210639
O O10 0.260679 0.000000 0.185491
O O11 0.845718 0.116345 0.405758
O O12 0.500000 0.169885 0.393611
#
# Coordination Sequence:
#
# PCOD9382276 Si02
#       5
#     8   4   8   2   8
#     4   8  15  27  45  74 112 160 215 265 318 382
#     4  11  25  49  75 100 138 179 221 273 325 387
#     4  10  18  32  53  83 123 161 208 270 326 386
#     4  12  22  46  67 100 141 172 220 268 336 392
#     4  12  24  42  70 100 134 176 221 273 332 395
#
# _framework density 21.200419
#
# number of rings (size 3 to 8) (size 9 to 14) (size 15 to 20)
#    0.000    1.733    4.000    1.600    1.867    1.600 
#    0.000    4.000    0.000    2.400    0.000    3.733 
#    0.000    0.000    0.000    0.000    0.000    0.000 
#
# Total GULP energy -167187.748646 kJ/mol
# GULP energy per Si atom -5572.924955 kJ/mol
# Density = 2.115217 g / cm^3
# Si number density = 21.200419 Si / 1000 Ang^3
#
#
#
# Elastic Constant Matrix: (Units=GPa)
#
#
# Indices 1 2 3 4 5 6 
#
# 1 135.4012 48.4436 12.1326 0.0000 0.0000 0.0000
# 2 48.4436 146.3301 36.4601 0.0000 0.0000 0.0000
# 3 12.1326 36.4601 63.0366 0.0000 0.0000 0.0000
# 4 0.0000 0.0000 0.0000 231.2075 0.0000 0.0000
# 5 0.0000 0.0000 0.0000 0.0000 -181.8124 0.0000
# 6 0.0000 0.0000 0.0000 0.0000 0.0000 -13.8225
#
#
#
# Elastic Compliance Matrix: (Units=1/GPa)
#
#
# Indices 1 2 3 4 5 6 
#
# 1 0.008378 -0.002771 -0.000010 0.000000 0.000000 0.000000
# 2 -0.002771 0.008901 -0.004615 0.000000 0.000000 0.000000
# 3 -0.000010 -0.004615 0.018535 0.000000 0.000000 0.000000
# 4 0.000000 0.000000 0.000000 0.004325 0.000000 0.000000
# 5 0.000000 0.000000 0.000000 0.000000 -0.005500 0.000000
# 6 0.000000 0.000000 0.000000 0.000000 0.000000 -0.072346
#
#
# Mechanical properties :
#
#
# Convention : Reuss Voigt Hill
#
# Bulk Modulus (GPa) = 47.56857 59.87117 53.71987
# Shear Modulus (GPa) = -314.30781 23.62996 -145.33893
#
# Velocity S-wave (km/s) = -12.18923 3.34218 -8.28876
# Velocity P-wave (km/s) = 13.25205 6.57232 8.13700
#
# Compressibility (1/GPa) = 0.02102228
#
# Stress axis : x y z
#
# Youngs Moduli (GPa) = 119.36357 112.34496 53.95202
#
# Poissons Ratio (x) = 0.31132 0.00052
# Poissons Ratio (y) = 0.33077 0.24899
# Poissons Ratio (z) = 0.00115 0.51848
#
# Static dielectric constant tensor:
#      x y z
#    x 1.817060 0.000000 0.000000 
#    y 0.000000 1.736600 0.000000 
#    z 0.000000 0.000000 1.755810 
# 
# From -- ./inp_files/29063.got.cif
#   From: 2010.05.17/outbox.cif.g08.bks.cpg/sg47_15_cif.got.tgz:29063.got - 2010.06.03 20:15:42.
