data_PCOD9382530
_publ_section_title
;
Structure prediction by ZEFSAII (Michael W. Deem and Ramdas Pophale) SiO2 
 PCOD9382530
Probable space group: P M M M
;
_chemical_formula_sum "Si O2"
_cell_formula_units_Z 64
_cell_length_a 20.480371
_cell_length_b 20.790941
_cell_length_c 8.384135
_cell_angle_alpha 90.000000
_cell_angle_beta 90.000000
_cell_angle_gamma 90.000000
_cell_volume 3570.016540
_symmetry_space_group_name_H-M "P M M M"
_symmetry_group_IT_number 47
_symmetry_cell_setting 'orthorhombic'
loop_
_space_group_symop_operation_xyz
x,y,z
-x,-y,z
x,-y,-z
-x,y,-z
-x,-y,-z
x,y,-z
-x,y,z
x,-y,z
loop_
_atom_site_type_symbol
_atom_site_label
_atom_site_fract_x
_atom_site_fract_y
_atom_site_fract_z
Si Si1 0.604299 0.929797 0.190426
Si Si2 0.170553 0.682172 0.309626
Si Si3 0.926568 0.425149 0.807637
Si Si4 0.752094 0.107976 0.809753
Si Si5 0.928136 0.208938 0.694692
Si Si6 0.428827 0.210610 0.689656
Si Si7 0.110591 0.930772 0.689491
Si Si8 0.709594 0.249679 0.189848
O O1 0.682581 0.926013 0.212963
O O2 0.577130 0.865247 0.268334
O O3 0.580977 0.000000 0.246076
O O4 0.592074 0.925435 0.000000
O O5 0.171376 0.684186 0.500000
O O6 0.130890 0.619504 0.256504
O O7 0.127407 0.742735 0.248274
O O8 0.244087 0.693473 0.250227
O O9 0.918087 0.500000 0.762509
O O10 0.000000 0.405082 0.754064
O O11 0.925976 0.421948 0.000000
O O12 0.812119 0.076420 0.719607
O O13 0.740884 0.181536 0.754098
O O14 0.766042 0.107365 0.000000
O O15 0.924780 0.207579 0.500000
O O16 0.918921 0.135821 0.752568
O O17 0.000000 0.232488 0.739349
O O18 0.426724 0.217074 0.500000
O O19 0.500000 0.233021 0.748533
O O20 0.365732 0.246790 0.758238
O O21 0.097568 0.931519 0.500000
O O22 0.088492 0.000000 0.754908
O O23 0.711152 0.248443 0.000000
#
# Coordination Sequence:
#
# PCOD9382530 Si02
#       8
#     8   8   8   8   8   8   8   8
#     4   9  18  31  46  65  89 121 161 202 251 318
#     4  11  20  32  54  80 107 137 173 221 266 306
#     4   9  19  36  56  80 115 156 190 219 255 304
#     4   9  17  30  46  63  86 115 151 200 255 307
#     4   9  18  31  45  65  94 125 160 206 259 309
#     4  10  21  35  50  70  98 129 162 208 266 320
#     4  10  19  29  43  62  84 115 157 205 258 313
#     4  10  20  34  53  74  97 129 170 211 256 313
#
# _framework density 17.927088000000001
#
# number of rings (size 3 to 8) (size 9 to 14) (size 15 to 20)
#    0.000    2.375    1.250    3.000    0.000    5.500 
#    0.000    3.125    0.000    1.125    0.000    0.875 
#    0.000    0.500    0.000    5.250    0.000    2.250 
#
# Total GULP energy -356989.639696 kJ/mol
# GULP energy per Si atom -5577.963120 kJ/mol
# Density = 1.788628 g / cm^3
# Si number density = 17.927088 Si / 1000 Ang^3
#
#
#
# Elastic Constant Matrix: (Units=GPa)
#
#
# Indices 1 2 3 4 5 6 
#
# 1 117.8943 53.2032 18.1740 0.0000 0.0000 0.0000
# 2 53.2032 75.7654 17.5586 0.0000 0.0000 0.0000
# 3 18.1740 17.5586 16.5685 0.0000 0.0000 0.0000
# 4 0.0000 0.0000 0.0000 17.8243 0.0000 0.0000
# 5 0.0000 0.0000 0.0000 0.0000 -23.8743 0.0000
# 6 0.0000 0.0000 0.0000 0.0000 0.0000 9.5517
#
#
#
# Elastic Compliance Matrix: (Units=1/GPa)
#
#
# Indices 1 2 3 4 5 6 
#
# 1 0.012853 -0.007633 -0.006010 0.000000 0.000000 0.000000
# 2 -0.007633 0.022028 -0.014972 0.000000 0.000000 0.000000
# 3 -0.006010 -0.014972 0.082814 0.000000 0.000000 0.000000
# 4 0.000000 0.000000 0.000000 0.056103 0.000000 0.000000
# 5 0.000000 0.000000 0.000000 0.000000 -0.041886 0.000000
# 6 0.000000 0.000000 0.000000 0.000000 0.000000 0.104693
#
#
# Mechanical properties :
#
#
# Convention : Reuss Voigt Hill
#
# Bulk Modulus (GPa) = 16.53813 43.12221 29.83017
# Shear Modulus (GPa) = 15.92406 8.78651 12.35529
#
# Velocity S-wave (km/s) = 2.98362 2.21628 2.62810
# Velocity P-wave (km/s) = 4.59506 5.53675 5.08774
#
# Compressibility (1/GPa) = 0.06046631
#
# Stress axis : x y z
#
# Youngs Moduli (GPa) = 77.80203 45.39615 12.07523
#
# Poissons Ratio (x) = 0.34650 0.07257
# Poissons Ratio (y) = 0.59385 0.18079
# Poissons Ratio (z) = 0.46756 0.67968
#
# Static dielectric constant tensor:
#      x y z
#    x 1.639590 0.000000 0.000000 
#    y 0.000000 1.619190 0.000000 
#    z 0.000000 0.000000 1.616160 
# 
# From -- ./inp_files/11859.got.cif
#   From: 2010.05.17/outbox.cif.g08.bks.cpg/sg47_6_cif.got.tgz:11859.got - 2010.06.03 20:15:42.
