data_PCOD9382853
_publ_section_title
;
Structure prediction by ZEFSAII (Michael W. Deem and Ramdas Pophale) SiO2 
 PCOD9382853
Probable space group: P M M M
;
_chemical_formula_sum "Si O2"
_cell_formula_units_Z 64
_cell_length_a 7.635336
_cell_length_b 21.011846
_cell_length_c 18.220836
_cell_angle_alpha 90.000000
_cell_angle_beta 90.000000
_cell_angle_gamma 90.000000
_cell_volume 2923.214348
_symmetry_space_group_name_H-M "P M M M"
_symmetry_group_IT_number 47
_symmetry_cell_setting 'orthorhombic'
loop_
_space_group_symop_operation_xyz
x,y,z
-x,-y,z
x,-y,-z
-x,y,-z
-x,-y,-z
x,y,-z
-x,y,z
x,-y,z
loop_
_atom_site_type_symbol
_atom_site_label
_atom_site_fract_x
_atom_site_fract_y
_atom_site_fract_z
Si Si1 0.794936 0.207804 0.617556
Si Si2 0.712449 0.206866 0.789409
Si Si3 0.704107 0.347136 0.421276
Si Si4 0.707981 0.426991 0.713449
Si Si5 0.296201 0.291472 0.921110
Si Si6 0.793936 0.068850 0.389043
Si Si7 0.201621 0.429708 0.118364
Si Si8 0.288294 0.067824 0.783478
O O1 0.777855 0.212995 0.706090
O O2 0.711635 0.271157 0.585808
O O3 0.722639 0.138895 0.591609
O O4 0.000000 0.209012 0.598769
O O5 0.500000 0.211252 0.783534
O O6 0.777207 0.258468 0.847942
O O7 0.762007 0.135734 0.816394
O O8 0.781963 0.365764 0.500000
O O9 0.500000 0.366499 0.421999
O O10 0.778949 0.379817 0.348489
O O11 0.500000 0.414327 0.725190
O O12 0.726758 0.500000 0.688086
O O13 0.791505 0.422214 0.793408
O O14 0.500000 0.272325 0.922586
O O15 0.289237 0.367470 0.913897
O O16 0.217557 0.273207 0.000000
O O17 0.777459 0.068279 0.300506
O O18 0.000000 0.068908 0.408164
O O19 0.720668 0.000000 0.413875
O O20 0.275880 0.500000 0.101392
O O21 0.000000 0.429136 0.094652
O O22 0.500000 0.067706 0.780520
O O23 0.231987 0.000000 0.816724
#
# Coordination Sequence:
#
# PCOD9382853 Si02
#       8
#     8   8   8   8   8   8   8   8
#     4  10  19  30  48  73  97 123 158 198 238 283
#     4   9  17  30  48  69  95 126 159 197 239 281
#     4  10  21  35  50  70  98 130 160 192 232 276
#     4   9  18  34  56  78  98 123 157 194 230 273
#     4  10  21  35  50  69  95 129 166 200 234 276
#     4   8  14  25  41  63  91 119 149 190 237 279
#     4  10  21  36  54  76 100 124 152 191 239 287
#     4   8  13  22  39  64  91 118 150 189 233 279
#
# _framework density 21.893706999999999
#
# number of rings (size 3 to 8) (size 9 to 14) (size 15 to 20)
#    0.000    2.750    0.000    1.500    0.000    6.250 
#    0.000    2.500    0.000    0.750    0.000    7.875 
#    0.000    0.000    0.000   21.375    0.000   10.750 
#
# Total GULP energy -356853.020080 kJ/mol
# GULP energy per Si atom -5575.828439 kJ/mol
# Density = 2.184388 g / cm^3
# Si number density = 21.893707 Si / 1000 Ang^3
#
#
#
# Elastic Constant Matrix: (Units=GPa)
#
#
# Indices 1 2 3 4 5 6 
#
# 1 46.0327 -1.3105 -2.3011 0.0000 0.0000 0.0000
# 2 -1.3105 81.8910 35.0468 0.0000 0.0000 0.0000
# 3 -2.3011 35.0468 76.4223 0.0000 0.0000 0.0000
# 4 0.0000 0.0000 0.0000 -205.4595 0.0000 0.0000
# 5 0.0000 0.0000 0.0000 0.0000 30.9667 0.0000
# 6 0.0000 0.0000 0.0000 0.0000 0.0000 9.4482
#
#
#
# Elastic Compliance Matrix: (Units=1/GPa)
#
#
# Indices 1 2 3 4 5 6 
#
# 1 0.021757 0.000084 0.000616 0.000000 0.000000 0.000000
# 2 0.000084 0.015194 -0.006965 0.000000 0.000000 0.000000
# 3 0.000616 -0.006965 0.016298 0.000000 0.000000 0.000000
# 4 0.000000 0.000000 0.000000 -0.004867 0.000000 0.000000
# 5 0.000000 0.000000 0.000000 0.000000 0.032293 0.000000
# 6 0.000000 0.000000 0.000000 0.000000 0.000000 0.105840
#
#
# Mechanical properties :
#
#
# Convention : Reuss Voigt Hill
#
# Bulk Modulus (GPa) = 24.55813 29.69069 27.12441
# Shear Modulus (GPa) = 23.51655 -21.48153 1.01751
#
# Velocity S-wave (km/s) = 3.28094 -3.13577 0.68246
# Velocity P-wave (km/s) = 5.05906 0.69283 3.61068
#
# Compressibility (1/GPa) = 0.04071972
#
# Stress axis : x y z
#
# Youngs Moduli (GPa) = 45.96239 65.81732 61.35750
#
# Poissons Ratio (x) = -0.00555 -0.03782
# Poissons Ratio (y) = -0.00388 0.42736
# Poissons Ratio (z) = -0.02833 0.45843
#
# Static dielectric constant tensor:
#      x y z
#    x 1.815620 0.000000 0.000000 
#    y 0.000000 1.840940 0.000000 
#    z 0.000000 0.000000 1.804380 
# 
# From -- ./inp_files/9915.got.cif
#   From: 2010.05.17/outbox.cif.g08.bks.cpg/sg47_5_cif.got.tgz:9915.got - 2010.06.03 20:15:42.
