data_PCOD9382623
_publ_section_title
;
Structure prediction by ZEFSAII (Michael W. Deem and Ramdas Pophale) SiO2 
 PCOD9382623
Probable space group: P M M M
;
_chemical_formula_sum "Si O2"
_cell_formula_units_Z 40
_cell_length_a 7.313035
_cell_length_b 29.571741
_cell_length_c 8.228383
_cell_angle_alpha 90.000000
_cell_angle_beta 90.000000
_cell_angle_gamma 90.000000
_cell_volume 1779.463335
_symmetry_space_group_name_H-M "P M M M"
_symmetry_group_IT_number 47
_symmetry_cell_setting 'orthorhombic'
loop_
_space_group_symop_operation_xyz
x,y,z
-x,-y,z
x,-y,-z
-x,y,-z
-x,-y,-z
x,y,-z
-x,y,z
x,-y,z
loop_
_atom_site_type_symbol
_atom_site_label
_atom_site_fract_x
_atom_site_fract_y
_atom_site_fract_z
Si Si1 0.221164 0.787654 0.689161
Si Si2 0.723120 0.447416 0.000000
Si Si3 0.712789 0.400498 0.674535
Si Si4 0.222991 0.947814 0.000000
Si Si5 0.220808 0.692580 0.180205
Si Si6 0.777066 0.889486 0.688636
O O1 0.265292 0.781326 0.500000
O O2 0.285162 0.743319 0.782466
O O3 0.280855 0.838230 0.733575
O O4 0.000000 0.788293 0.703778
O O5 0.790223 0.423163 0.163644
O O6 0.770457 0.500000 0.000000
O O7 0.500000 0.444107 0.000000
O O8 0.793247 0.412990 0.500000
O O9 0.500000 0.413510 0.670291
O O10 0.721756 0.346434 0.697686
O O11 0.280627 0.922821 0.833218
O O12 0.000000 0.946585 0.000000
O O13 0.278869 0.000000 0.000000
O O14 0.000000 0.693659 0.183655
O O15 0.280823 0.679089 0.000000
O O16 0.721417 0.898982 0.500000
O O17 0.000000 0.890093 0.685813
#
# Coordination Sequence:
#
# PCOD9382623 Si02
#       6
#     8   4   8   4   8   8
#     4   8  14  24  37  55  79 107 140 179 220 261
#     4   9  18  34  54  75  99 123 153 197 236 269
#     4  10  20  34  53  75  99 128 158 189 231 278
#     4   9  16  22  29  42  60  88 127 171 218 263
#     4  10  19  29  46  72  98 126 158 192 231 274
#     4   8  14  23  33  45  64  92 127 169 214 256
#
# _framework density 22.478687000000001
#
# number of rings (size 3 to 8) (size 9 to 14) (size 15 to 20)
#    0.000    3.000    1.000    1.800    1.400    2.000 
#    0.000    4.000    0.000    1.200    0.000    1.400 
#    0.000    0.000    0.000    0.000    0.000    2.000 
#
# Total GULP energy -223259.686868 kJ/mol
# GULP energy per Si atom -5581.492172 kJ/mol
# Density = 2.242752 g / cm^3
# Si number density = 22.478687 Si / 1000 Ang^3
#
#
#
# Elastic Constant Matrix: (Units=GPa)
#
#
# Indices 1 2 3 4 5 6 
#
# 1 91.0304 -3.2948 9.1039 0.0000 0.0000 0.0000
# 2 -3.2948 137.0754 105.1239 0.0000 0.0000 0.0000
# 3 9.1039 105.1239 191.2873 0.0000 0.0000 0.0000
# 4 0.0000 0.0000 0.0000 -14.5688 0.0000 0.0000
# 5 0.0000 0.0000 0.0000 0.0000 -11.6082 0.0000
# 6 0.0000 0.0000 0.0000 0.0000 0.0000 4.0143
#
#
#
# Elastic Compliance Matrix: (Units=1/GPa)
#
#
# Indices 1 2 3 4 5 6 
#
# 1 0.011145 0.001166 -0.001171 0.000000 0.000000 0.000000
# 2 0.001166 0.012732 -0.007052 0.000000 0.000000 0.000000
# 3 -0.001171 -0.007052 0.009159 0.000000 0.000000 0.000000
# 4 0.000000 0.000000 0.000000 -0.068640 0.000000 0.000000
# 5 0.000000 0.000000 0.000000 0.000000 -0.086146 0.000000
# 6 0.000000 0.000000 0.000000 0.000000 0.000000 0.249111
#
#
# Mechanical properties :
#
#
# Convention : Reuss Voigt Hill
#
# Bulk Modulus (GPa) = 52.85236 71.25099 62.05167
# Shear Modulus (GPa) = 33.83333 16.13146 24.98240
#
# Velocity S-wave (km/s) = 3.88381 2.68177 3.33736
# Velocity P-wave (km/s) = 6.60872 6.43080 6.52037
#
# Compressibility (1/GPa) = 0.01892063
#
# Stress axis : x y z
#
# Youngs Moduli (GPa) = 89.72885 78.54346 109.17987
#
# Poissons Ratio (x) = -0.09159 0.12788
# Poissons Ratio (y) = -0.10464 0.76998
# Poissons Ratio (z) = 0.10510 0.55392
#
# Static dielectric constant tensor:
#      x y z
#    x 2.024500 0.000000 0.000000 
#    y 0.000000 1.785130 0.000000 
#    z 0.000000 0.000000 1.819140 
# 
# From -- ./inp_files/1807.got.cif
#   From: 2010.05.17/outbox.cif.g08.bks.cpg/sg47_1_cif.got.tgz:1807.got - 2010.06.03 20:15:42.
