data_PCOD9382609
_publ_section_title
;
Structure prediction by ZEFSAII (Michael W. Deem and Ramdas Pophale) SiO2 
 PCOD9382609
Probable space group: P M M M
;
_chemical_formula_sum "Si O2"
_cell_formula_units_Z 60
_cell_length_a 8.935698
_cell_length_b 18.851090
_cell_length_c 22.202484
_cell_angle_alpha 90.000000
_cell_angle_beta 90.000000
_cell_angle_gamma 90.000000
_cell_volume 3739.956192
_symmetry_space_group_name_H-M "P M M M"
_symmetry_group_IT_number 47
_symmetry_cell_setting 'orthorhombic'
loop_
_space_group_symop_operation_xyz
x,y,z
-x,-y,z
x,-y,-z
-x,y,-z
-x,-y,-z
x,y,-z
-x,y,z
x,-y,z
loop_
_atom_site_type_symbol
_atom_site_label
_atom_site_fract_x
_atom_site_fract_y
_atom_site_fract_z
Si Si1 0.826383 0.418557 0.227292
Si Si2 0.678176 0.290871 0.826999
Si Si3 0.820608 0.081491 0.724107
Si Si4 0.320583 0.375656 0.352134
Si Si5 0.329308 0.917029 0.855540
Si Si6 0.175500 0.500000 0.428095
Si Si7 0.178778 0.197616 0.069429
Si Si8 0.320631 0.224482 0.695115
O O1 0.818386 0.500000 0.209271
O O2 0.755978 0.366614 0.178848
O O3 0.733448 0.407052 0.288357
O O4 0.000000 0.400245 0.238900
O O5 0.500000 0.297151 0.830145
O O6 0.743646 0.250565 0.883905
O O7 0.713604 0.250645 0.763660
O O8 0.749873 0.090449 0.790729
O O9 0.757457 0.148285 0.686391
O O10 0.000000 0.086374 0.727544
O O11 0.783027 0.000000 0.704440
O O12 0.500000 0.378802 0.356495
O O13 0.249234 0.428427 0.401026
O O14 0.278420 0.291559 0.347768
O O15 0.500000 0.888815 0.851400
O O16 0.237609 0.877735 0.906871
O O17 0.336258 0.000000 0.868445
O O18 0.189192 0.500000 0.500000
O O19 0.000000 0.500000 0.411148
O O20 0.000000 0.201801 0.075054
O O21 0.219591 0.209736 0.000000
O O22 0.500000 0.215536 0.691036
#
# Coordination Sequence:
#
# PCOD9382609 Si02
#       8
#     8   8   8   8   8   4   8   8
#     4  10  19  31  51  77 104 129 157 197 244 292
#     4  10  20  33  50  71  94 122 157 196 245 300
#     4  10  19  29  45  70  98 129 163 201 250 306
#     4  10  20  33  51  75 105 139 179 218 249 288
#     4  10  20  33  48  65  88 119 155 196 242 296
#     4  11  23  37  53  77 113 153 188 217 250 293
#     4  11  23  36  50  67  88 116 153 199 249 302
#     4   9  18  31  48  72  98 128 165 207 253 298
#
# _framework density 16.042968999999999
#
# number of rings (size 3 to 8) (size 9 to 14) (size 15 to 20)
#    0.000    1.933    2.000    3.400    0.000    6.933 
#    0.000    1.333    0.000    0.400    0.000    2.800 
#    0.000    0.533    0.000    5.867    0.000    4.267 
#
# Total GULP energy -334509.551470 kJ/mol
# GULP energy per Si atom -5575.159191 kJ/mol
# Density = 1.600645 g / cm^3
# Si number density = 16.042969 Si / 1000 Ang^3
#
#
#
# Elastic Constant Matrix: (Units=GPa)
#
#
# Indices 1 2 3 4 5 6 
#
# 1 66.2020 54.9240 25.0058 0.0000 0.0000 0.0000
# 2 54.9240 116.5797 37.7456 0.0000 0.0000 0.0000
# 3 25.0058 37.7456 45.2645 0.0000 0.0000 0.0000
# 4 0.0000 0.0000 0.0000 18.1073 0.0000 0.0000
# 5 0.0000 0.0000 0.0000 0.0000 3.2139 0.0000
# 6 0.0000 0.0000 0.0000 0.0000 0.0000 31.0931
#
#
#
# Elastic Compliance Matrix: (Units=1/GPa)
#
#
# Indices 1 2 3 4 5 6 
#
# 1 0.025808 -0.010333 -0.005641 0.000000 0.000000 0.000000
# 2 -0.010333 0.015887 -0.007540 0.000000 0.000000 0.000000
# 3 -0.005641 -0.007540 0.031496 0.000000 0.000000 0.000000
# 4 0.000000 0.000000 0.000000 0.055226 0.000000 0.000000
# 5 0.000000 0.000000 0.000000 0.000000 0.311144 0.000000
# 6 0.000000 0.000000 0.000000 0.000000 0.000000 0.032161
#
#
# Mechanical properties :
#
#
# Convention : Reuss Voigt Hill
#
# Bulk Modulus (GPa) = 38.22030 51.48856 44.85443
# Shear Modulus (GPa) = 9.47916 17.84092 13.66004
#
# Velocity S-wave (km/s) = 2.43340 3.33839 2.92115
# Velocity P-wave (km/s) = 5.63655 6.85738 6.27672
#
# Compressibility (1/GPa) = 0.02616411
#
# Stress axis : x y z
#
# Youngs Moduli (GPa) = 38.74698 62.94447 31.74979
#
# Poissons Ratio (x) = 0.65038 0.17911
# Poissons Ratio (y) = 0.40036 0.23939
# Poissons Ratio (z) = 0.21859 0.47459
#
# Static dielectric constant tensor:
#      x y z
#    x 1.541240 0.000000 0.000000 
#    y 0.000000 1.601890 0.000000 
#    z 0.000000 0.000000 1.498150 
# 
# From -- ./inp_files/30024.got.cif
#   From: 2010.05.17/outbox.cif.g08.bks.cpg/sg47_16_cif.got.tgz:30024.got - 2010.06.03 20:15:42.
