data_PCOD9382135
_publ_section_title
;
Structure prediction by ZEFSAII (Michael W. Deem and Ramdas Pophale) SiO2 
 PCOD9382135
Probable space group: P M M M
;
_chemical_formula_sum "Si O2"
_cell_formula_units_Z 60
_cell_length_a 8.605742
_cell_length_b 19.596999
_cell_length_c 21.614793
_cell_angle_alpha 90.000000
_cell_angle_beta 90.000000
_cell_angle_gamma 90.000000
_cell_volume 3645.263886
_symmetry_space_group_name_H-M "P M M M"
_symmetry_group_IT_number 47
_symmetry_cell_setting 'orthorhombic'
loop_
_space_group_symop_operation_xyz
x,y,z
-x,-y,z
x,-y,-z
-x,y,-z
-x,-y,-z
x,y,-z
-x,y,z
x,-y,z
loop_
_atom_site_type_symbol
_atom_site_label
_atom_site_fract_x
_atom_site_fract_y
_atom_site_fract_z
Si Si1 0.810336 0.289345 0.930416
Si Si2 0.185982 0.282204 0.313502
Si Si3 0.186351 0.920517 0.500000
Si Si4 0.187186 0.794879 0.187346
Si Si5 0.312708 0.922511 0.251768
Si Si6 0.686304 0.846927 0.378360
Si Si7 0.813200 0.423403 0.858959
Si Si8 0.314280 0.576979 0.279860
O O1 0.759038 0.236823 0.877357
O O2 0.765727 0.364391 0.905975
O O3 0.000000 0.287575 0.931459
O O4 0.755898 0.276019 0.000000
O O5 0.235099 0.252372 0.245839
O O6 0.253422 0.229132 0.363291
O O7 0.243750 0.359744 0.317227
O O8 0.000000 0.280615 0.316143
O O9 0.246731 0.881177 0.560411
O O10 0.000000 0.920138 0.500000
O O11 0.238658 0.000000 0.500000
O O12 0.248291 0.870008 0.201604
O O13 0.000000 0.795414 0.187209
O O14 0.500000 0.921615 0.249513
O O15 0.266615 0.892756 0.318911
O O16 0.259045 0.000000 0.244162
O O17 0.500000 0.845955 0.381730
O O18 0.778168 0.500000 0.881045
O O19 0.737974 0.414492 0.791604
O O20 0.000000 0.417985 0.850423
O O21 0.500000 0.580156 0.283222
O O22 0.264552 0.500000 0.298577
#
# Coordination Sequence:
#
# PCOD9382135 Si02
#       8
#     8   8   4   8   8   8   8   8
#     4   9  16  27  43  64  90 119 155 199 245 295
#     4  10  18  31  50  72  99 128 164 208 251 295
#     4  11  23  37  53  77 112 149 180 207 237 277
#     4   9  17  29  45  67  91 118 152 194 244 292
#     4   9  18  32  50  72  95 120 153 194 239 286
#     4  10  20  34  53  77 104 136 170 203 242 289
#     4   9  16  27  43  63  88 120 158 198 243 293
#     4  10  19  29  44  68  97 129 164 204 250 296
#
# _framework density 16.459714999999999
#
# number of rings (size 3 to 8) (size 9 to 14) (size 15 to 20)
#    0.000    2.467    1.333    1.800    0.000    3.467 
#    0.000    1.333    0.000    2.000    0.000    5.133 
#    0.000    3.733    0.000    0.000    0.000    0.000 
#
# Total GULP energy -334530.867110 kJ/mol
# GULP energy per Si atom -5575.514452 kJ/mol
# Density = 1.642225 g / cm^3
# Si number density = 16.459715 Si / 1000 Ang^3
#
#
#
# Elastic Constant Matrix: (Units=GPa)
#
#
# Indices 1 2 3 4 5 6 
#
# 1 20.3706 32.1240 25.8522 0.0000 0.0000 0.0000
# 2 32.1240 161.8173 80.2504 0.0000 0.0000 0.0000
# 3 25.8522 80.2504 103.8493 0.0000 0.0000 0.0000
# 4 0.0000 0.0000 0.0000 23.3655 0.0000 0.0000
# 5 0.0000 0.0000 0.0000 0.0000 11.5859 0.0000
# 6 0.0000 0.0000 0.0000 0.0000 0.0000 25.8290
#
#
#
# Elastic Compliance Matrix: (Units=1/GPa)
#
#
# Indices 1 2 3 4 5 6 
#
# 1 0.080278 -0.009770 -0.012434 0.000000 0.000000 0.000000
# 2 -0.009770 0.011209 -0.006230 0.000000 0.000000 0.000000
# 3 -0.012434 -0.006230 0.017539 0.000000 0.000000 0.000000
# 4 0.000000 0.000000 0.000000 0.042798 0.000000 0.000000
# 5 0.000000 0.000000 0.000000 0.000000 0.086312 0.000000
# 6 0.000000 0.000000 0.000000 0.000000 0.000000 0.038716
#
#
# Mechanical properties :
#
#
# Convention : Reuss Voigt Hill
#
# Bulk Modulus (GPa) = 19.17279 62.49894 40.83587
# Shear Modulus (GPa) = 14.24075 22.01012 18.12544
#
# Velocity S-wave (km/s) = 2.94460 3.66076 3.32203
# Velocity P-wave (km/s) = 4.82022 7.47807 6.29110
#
# Compressibility (1/GPa) = 0.05215726
#
# Stress axis : x y z
#
# Youngs Moduli (GPa) = 12.45673 89.21564 57.01693
#
# Poissons Ratio (x) = 0.87165 0.70897
# Poissons Ratio (y) = 0.12170 0.35519
# Poissons Ratio (z) = 0.15489 0.55577
#
# Static dielectric constant tensor:
#      x y z
#    x 1.558620 0.000000 0.000000 
#    y 0.000000 1.566000 0.000000 
#    z 0.000000 0.000000 1.531480 
# 
# From -- ./inp_files/29944.got.cif
#   From: 2010.05.17/outbox.cif.g08.bks.cpg/sg47_15_cif.got.tgz:29944.got - 2010.06.03 20:15:42.
