data_PCOD9382142
_publ_section_title
;
Structure prediction by ZEFSAII (Michael W. Deem and Ramdas Pophale) SiO2 
 PCOD9382142
Probable space group: P M M M
;
_chemical_formula_sum "Si O2"
_cell_formula_units_Z 52
_cell_length_a 7.595262
_cell_length_b 17.530143
_cell_length_c 17.177187
_cell_angle_alpha 90.000000
_cell_angle_beta 90.000000
_cell_angle_gamma 90.000000
_cell_volume 2287.074238
_symmetry_space_group_name_H-M "P M M M"
_symmetry_group_IT_number 47
_symmetry_cell_setting 'orthorhombic'
loop_
_space_group_symop_operation_xyz
x,y,z
-x,-y,z
x,-y,-z
-x,y,-z
-x,-y,-z
x,y,-z
-x,y,z
x,-y,z
loop_
_atom_site_type_symbol
_atom_site_label
_atom_site_fract_x
_atom_site_fract_y
_atom_site_fract_z
Si Si1 0.715656 0.166788 0.912767
Si Si2 0.299885 0.334590 0.123093
Si Si3 0.285459 0.911289 0.250558
Si Si4 0.296572 0.500000 0.908581
Si Si5 0.714611 0.170715 0.588833
Si Si6 0.795497 0.585919 0.258525
Si Si7 0.288107 0.652891 0.415321
O O1 0.500000 0.166245 0.911478
O O2 0.774756 0.255172 0.904926
O O3 0.771944 0.125225 0.832674
O O4 0.766489 0.138437 0.000000
O O5 0.500000 0.337616 0.093100
O O6 0.213804 0.416419 0.105932
O O7 0.301552 0.343780 0.216438
O O8 0.500000 0.906150 0.250263
O O9 0.227145 0.873122 0.332565
O O10 0.236694 0.000000 0.251021
O O11 0.500000 0.500000 0.880311
O O12 0.310000 0.500000 0.000000
O O13 0.768473 0.145895 0.500000
O O14 0.500000 0.167029 0.588343
O O15 0.767380 0.259302 0.597481
O O16 0.736354 0.500000 0.235977
O O17 0.771920 0.596968 0.349076
O O18 0.000000 0.592363 0.241799
O O19 0.226468 0.629019 0.500000
O O20 0.500000 0.653729 0.414842
#
# Coordination Sequence:
#
# PCOD9382142 Si02
#       7
#     8   8   8   4   8   8   8
#     4   9  17  28  44  67  93 124 165 213 258 296
#     4  10  18  31  51  71  92 122 163 208 249 293
#     4   9  16  24  36  60  97 138 170 193 233 300
#     4   9  16  26  45  73  94 109 144 201 251 288
#     4   8  14  26  44  67  94 123 160 205 245 284
#     4  11  23  35  47  67  99 133 163 200 250 305
#     4   9  18  33  53  73  93 124 168 212 250 292
#
# _framework density 22.736473
#
# number of rings (size 3 to 8) (size 9 to 14) (size 15 to 20)
#    0.000    2.692    0.769    2.769    0.000    6.462 
#    0.000    4.615    0.000    2.308    0.000    0.000 
#    0.000    9.846    0.000   19.077    0.000   19.692 
#
# Total GULP energy -289725.929008 kJ/mol
# GULP energy per Si atom -5571.652481 kJ/mol
# Density = 2.268472 g / cm^3
# Si number density = 22.736473 Si / 1000 Ang^3
#
#
#
# Elastic Constant Matrix: (Units=GPa)
#
#
# Indices 1 2 3 4 5 6 
#
# 1 52.0620 15.9527 28.4270 0.0000 0.0000 0.0000
# 2 15.9527 46.6317 30.3174 0.0000 0.0000 0.0000
# 3 28.4270 30.3174 137.8275 0.0000 0.0000 0.0000
# 4 0.0000 0.0000 0.0000 18.8702 0.0000 0.0000
# 5 0.0000 0.0000 0.0000 0.0000 -193.9009 0.0000
# 6 0.0000 0.0000 0.0000 0.0000 0.0000 -59.7146
#
#
#
# Elastic Compliance Matrix: (Units=1/GPa)
#
#
# Indices 1 2 3 4 5 6 
#
# 1 0.022808 -0.005536 -0.003486 0.000000 0.000000 0.000000
# 2 -0.005536 0.026367 -0.004658 0.000000 0.000000 0.000000
# 3 -0.003486 -0.004658 0.008999 0.000000 0.000000 0.000000
# 4 0.000000 0.000000 0.000000 0.052994 0.000000 0.000000
# 5 0.000000 0.000000 0.000000 0.000000 -0.005157 0.000000
# 6 0.000000 0.000000 0.000000 0.000000 0.000000 -0.016746
#
#
# Mechanical properties :
#
#
# Convention : Reuss Voigt Hill
#
# Bulk Modulus (GPa) = 32.45367 42.87948 37.66658
# Shear Modulus (GPa) = 39.40246 -36.16080 1.62083
#
# Velocity S-wave (km/s) = 4.16746 -3.99235 0.84524
# Velocity P-wave (km/s) = 6.12060 1.53346 4.18988
#
# Compressibility (1/GPa) = 0.03081315
#
# Stress axis : x y z
#
# Youngs Moduli (GPa) = 43.84457 37.92642 111.12178
#
# Poissons Ratio (x) = 0.20996 0.38742
# Poissons Ratio (y) = 0.24272 0.51761
# Poissons Ratio (z) = 0.15286 0.17666
#
# Static dielectric constant tensor:
#      x y z
#    x 1.918830 0.000000 0.000000 
#    y 0.000000 1.814040 0.000000 
#    z 0.000000 0.000000 1.981330 
# 
# From -- ./inp_files/26744.got.cif
#   From: 2010.05.17/outbox.cif.g08.bks.cpg/sg47_14_cif.got.tgz:26744.got - 2010.06.03 20:15:42.
