data_PCOD9382748
_publ_section_title
;
Structure prediction by ZEFSAII (Michael W. Deem and Ramdas Pophale) SiO2 
 PCOD9382748
Probable space group: P M M M
;
_chemical_formula_sum "Si O2"
_cell_formula_units_Z 64
_cell_length_a 8.683367
_cell_length_b 19.658330
_cell_length_c 24.255385
_cell_angle_alpha 90.000000
_cell_angle_beta 90.000000
_cell_angle_gamma 90.000000
_cell_volume 4140.406202
_symmetry_space_group_name_H-M "P M M M"
_symmetry_group_IT_number 47
_symmetry_cell_setting 'orthorhombic'
loop_
_space_group_symop_operation_xyz
x,y,z
-x,-y,z
x,-y,-z
-x,y,-z
-x,-y,-z
x,y,-z
-x,y,z
x,-y,z
loop_
_atom_site_type_symbol
_atom_site_label
_atom_site_fract_x
_atom_site_fract_y
_atom_site_fract_z
Si Si1 0.815590 0.339061 0.336067
Si Si2 0.815073 0.708671 0.834315
Si Si3 0.686061 0.214161 0.937447
Si Si4 0.187035 0.576641 0.228027
Si Si5 0.184003 0.076769 0.755295
Si Si6 0.316851 0.215415 0.727289
Si Si7 0.685120 0.076017 0.878592
Si Si8 0.685611 0.421683 0.563807
O O1 0.768165 0.391168 0.286952
O O2 0.744655 0.266584 0.319372
O O3 0.759716 0.370089 0.393339
O O4 0.000000 0.333650 0.334897
O O5 0.753278 0.734689 0.892361
O O6 0.767971 0.631792 0.818040
O O7 0.750325 0.755813 0.785115
O O8 0.000000 0.712943 0.833032
O O9 0.500000 0.217956 0.935756
O O10 0.729780 0.137837 0.918090
O O11 0.736387 0.227108 0.000000
O O12 0.244614 0.500000 0.220757
O O13 0.000000 0.574232 0.227747
O O14 0.259791 0.138193 0.722002
O O15 0.237397 0.083906 0.818918
O O16 0.000000 0.082785 0.752882
O O17 0.227825 0.000000 0.737869
O O18 0.500000 0.217750 0.729675
O O19 0.500000 0.079632 0.870747
O O20 0.721506 0.000000 0.899612
O O21 0.727178 0.408409 0.500000
O O22 0.500000 0.418019 0.567831
O O23 0.730727 0.500000 0.576654
#
# Coordination Sequence:
#
# PCOD9382748 Si02
#       8
#     8   8   8   8   8   8   8   8
#     4  10  19  30  47  72  99 127 163 204 242 280
#     4  10  19  31  48  68  89 114 146 185 233 282
#     4  10  20  32  46  64  87 117 150 186 228 277
#     4   8  15  28  46  68  91 113 141 185 236 280
#     4  10  19  30  46  68  94 122 152 189 232 278
#     4  11  20  31  48  68  94 126 157 191 235 285
#     4   9  17  29  45  64  86 115 149 183 222 271
#     4   9  18  32  48  68 100 141 178 209 242 281
#
# _framework density 15.457420000000001
#
# number of rings (size 3 to 8) (size 9 to 14) (size 15 to 20)
#    0.000    2.375    1.250    3.750    0.000    2.250 
#    0.000    1.875    0.000    7.875    0.000    5.250 
#    0.000    0.500    0.000    5.250    0.000    2.250 
#
# Total GULP energy -356871.158432 kJ/mol
# GULP energy per Si atom -5576.111850 kJ/mol
# Density = 1.542224 g / cm^3
# Si number density = 15.457420 Si / 1000 Ang^3
#
#
#
# Elastic Constant Matrix: (Units=GPa)
#
#
# Indices 1 2 3 4 5 6 
#
# 1 39.7235 39.6997 31.4588 0.0000 0.0000 0.0000
# 2 39.6997 137.5619 67.4057 0.0000 0.0000 0.0000
# 3 31.4588 67.4057 90.5919 0.0000 0.0000 0.0000
# 4 0.0000 0.0000 0.0000 25.4497 0.0000 0.0000
# 5 0.0000 0.0000 0.0000 0.0000 -29.3262 0.0000
# 6 0.0000 0.0000 0.0000 0.0000 0.0000 20.2819
#
#
#
# Elastic Compliance Matrix: (Units=1/GPa)
#
#
# Indices 1 2 3 4 5 6 
#
# 1 0.038816 -0.007235 -0.008096 0.000000 0.000000 0.000000
# 2 -0.007235 0.012789 -0.007003 0.000000 0.000000 0.000000
# 3 -0.008096 -0.007003 0.019061 0.000000 0.000000 0.000000
# 4 0.000000 0.000000 0.000000 0.039293 0.000000 0.000000
# 5 0.000000 0.000000 0.000000 0.000000 -0.034099 0.000000
# 6 0.000000 0.000000 0.000000 0.000000 0.000000 0.049305
#
#
# Mechanical properties :
#
#
# Convention : Reuss Voigt Hill
#
# Bulk Modulus (GPa) = 38.46546 60.55621 49.51084
# Shear Modulus (GPa) = 28.01116 11.90196 19.95656
#
# Velocity S-wave (km/s) = 4.26155 2.77787 3.59704
# Velocity P-wave (km/s) = 7.01094 7.03917 7.02507
#
# Compressibility (1/GPa) = 0.02599735
#
# Stress axis : x y z
#
# Youngs Moduli (GPa) = 25.76230 78.19097 52.46361
#
# Poissons Ratio (x) = 0.56573 0.42474
# Poissons Ratio (y) = 0.18640 0.36742
# Poissons Ratio (z) = 0.20857 0.54760
#
# Static dielectric constant tensor:
#      x y z
#    x 1.520410 0.000000 0.000000 
#    y 0.000000 1.535060 0.000000 
#    z 0.000000 0.000000 1.485360 
# 
# From -- ./inp_files/29977.got.cif
#   From: 2010.05.17/outbox.cif.g08.bks.cpg/sg47_15_cif.got.tgz:29977.got - 2010.06.03 20:15:42.
