data_PCOD9382113
_publ_section_title
;
Structure prediction by ZEFSAII (Michael W. Deem and Ramdas Pophale) SiO2 
 PCOD9382113
Probable space group: P M M M
;
_chemical_formula_sum "Si O2"
_cell_formula_units_Z 52
_cell_length_a 9.195278
_cell_length_b 18.068921
_cell_length_c 18.157339
_cell_angle_alpha 90.000000
_cell_angle_beta 90.000000
_cell_angle_gamma 90.000000
_cell_volume 3016.819210
_symmetry_space_group_name_H-M "P M M M"
_symmetry_group_IT_number 47
_symmetry_cell_setting 'orthorhombic'
loop_
_space_group_symop_operation_xyz
x,y,z
-x,-y,z
x,-y,-z
-x,y,-z
-x,-y,-z
x,y,-z
-x,y,z
x,-y,z
loop_
_atom_site_type_symbol
_atom_site_label
_atom_site_fract_x
_atom_site_fract_y
_atom_site_fract_z
Si Si1 0.671201 0.411761 0.500000
Si Si2 0.174808 0.920831 0.126628
Si Si3 0.828443 0.150781 0.415848
Si Si4 0.333374 0.711140 0.227114
Si Si5 0.828359 0.323912 0.628389
Si Si6 0.824911 0.756285 0.082653
Si Si7 0.665614 0.884357 0.726355
O O1 0.686828 0.500000 0.500000
O O2 0.500000 0.393220 0.500000
O O3 0.747274 0.376389 0.571162
O O4 0.218111 0.843510 0.089074
O O5 0.238072 0.918326 0.208956
O O6 0.000000 0.919616 0.128859
O O7 0.219101 0.000000 0.092695
O O8 0.785354 0.135286 0.500000
O O9 0.811967 0.239015 0.400502
O O10 0.737188 0.109036 0.353675
O O11 0.000000 0.134215 0.407431
O O12 0.500000 0.685246 0.222681
O O13 0.242374 0.670928 0.290800
O O14 0.255254 0.713263 0.148018
O O15 0.336524 0.796831 0.253826
O O16 0.000000 0.339403 0.630774
O O17 0.000000 0.752387 0.093292
O O18 0.791209 0.730636 0.000000
O O19 0.500000 0.910950 0.728022
#
# Coordination Sequence:
#
# PCOD9382113 Si02
#       7
#     4   8   8   8   8   8   8
#     4  11  23  35  47  69 105 143 172 199 230 263
#     4   9  17  29  44  60  80 112 150 185 226 279
#     4   9  16  27  43  64  86 108 139 182 230 274
#     4   9  17  29  45  66  91 121 154 191 237 285
#     4  10  18  31  49  69  93 125 165 200 231 270
#     4   9  17  29  45  67  94 121 151 192 239 285
#     4   9  17  27  40  60  82 107 140 181 228 275
#
# _framework density 17.236698000000001
#
# number of rings (size 3 to 8) (size 9 to 14) (size 15 to 20)
#    0.000    2.692    0.769    1.615    0.000    6.154 
#    0.000    1.538    0.000    0.462    0.000    7.538 
#    0.000    0.615    0.000    6.462    0.000    2.769 
#
# Total GULP energy -289830.715902 kJ/mol
# GULP energy per Si atom -5573.667614 kJ/mol
# Density = 1.719747 g / cm^3
# Si number density = 17.236698 Si / 1000 Ang^3
#
#
#
# Elastic Constant Matrix: (Units=GPa)
#
#
# Indices 1 2 3 4 5 6 
#
# 1 59.5884 25.7395 53.2275 0.0000 0.0000 0.0000
# 2 25.7395 27.9129 18.9600 0.0000 0.0000 0.0000
# 3 53.2275 18.9600 148.4660 0.0000 0.0000 0.0000
# 4 0.0000 0.0000 0.0000 -1.8474 0.0000 0.0000
# 5 0.0000 0.0000 0.0000 0.0000 9.6821 0.0000
# 6 0.0000 0.0000 0.0000 0.0000 0.0000 8.7566
#
#
#
# Elastic Compliance Matrix: (Units=1/GPa)
#
#
# Indices 1 2 3 4 5 6 
#
# 1 0.037835 -0.028114 -0.009974 0.000000 0.000000 0.000000
# 2 -0.028114 0.060119 0.002402 0.000000 0.000000 0.000000
# 3 -0.009974 0.002402 0.010005 0.000000 0.000000 0.000000
# 4 0.000000 0.000000 0.000000 -0.541311 0.000000 0.000000
# 5 0.000000 0.000000 0.000000 0.000000 0.103283 0.000000
# 6 0.000000 0.000000 0.000000 0.000000 0.000000 0.114200
#
#
# Mechanical properties :
#
#
# Convention : Reuss Voigt Hill
#
# Bulk Modulus (GPa) = 27.33275 47.98013 37.65644
# Shear Modulus (GPa) = -37.79283 12.52097 -12.63593
#
# Velocity S-wave (km/s) = -4.68758 2.69813 -2.71049
# Velocity P-wave (km/s) = 3.66144 6.13213 3.47828
#
# Compressibility (1/GPa) = 0.03658614
#
# Stress axis : x y z
#
# Youngs Moduli (GPa) = 26.43035 16.63360 99.95262
#
# Poissons Ratio (x) = 0.46764 0.99695
# Poissons Ratio (y) = 0.74307 -0.24007
# Poissons Ratio (z) = 0.26362 -0.03995
#
# Static dielectric constant tensor:
#      x y z
#    x 1.578720 0.000000 0.000000 
#    y 0.000000 1.588540 0.000000 
#    z 0.000000 0.000000 1.577640 
# 
# From -- ./inp_files/9525.got.cif
#   From: 2010.05.17/outbox.cif.g08.bks.cpg/sg47_5_cif.got.tgz:9525.got - 2010.06.03 20:15:42.
