data_PCOD9382377
_publ_section_title
;
Structure prediction by ZEFSAII (Michael W. Deem and Ramdas Pophale) SiO2 
 PCOD9382377
Probable space group: P M M M
;
_chemical_formula_sum "Si O2"
_cell_formula_units_Z 52
_cell_length_a 7.667518
_cell_length_b 29.180109
_cell_length_c 14.158664
_cell_angle_alpha 90.000000
_cell_angle_beta 90.000000
_cell_angle_gamma 90.000000
_cell_volume 3167.845480
_symmetry_space_group_name_H-M "P M M M"
_symmetry_group_IT_number 47
_symmetry_cell_setting 'orthorhombic'
loop_
_space_group_symop_operation_xyz
x,y,z
-x,-y,z
x,-y,-z
-x,y,-z
-x,-y,-z
x,y,-z
-x,y,z
x,-y,z
loop_
_atom_site_type_symbol
_atom_site_label
_atom_site_fract_x
_atom_site_fract_y
_atom_site_fract_z
Si Si1 0.787511 0.165437 0.894251
Si Si2 0.789038 0.214392 0.394962
Si Si3 0.705784 0.648853 0.106943
Si Si4 0.208747 0.883397 0.298049
Si Si5 0.500000 0.054594 0.387707
Si Si6 0.792376 0.257281 0.206064
Si Si7 0.209494 0.450699 0.109624
O O1 0.742867 0.130764 0.809533
O O2 0.727911 0.216375 0.862290
O O3 0.000000 0.166036 0.896480
O O4 0.726834 0.154518 0.000000
O O5 0.720036 0.222173 0.500000
O O6 0.757874 0.162612 0.359450
O O7 0.723983 0.247421 0.311428
O O8 0.000000 0.219165 0.399472
O O9 0.500000 0.652641 0.098333
O O10 0.763736 0.692380 0.166490
O O11 0.741896 0.598661 0.150243
O O12 0.782578 0.650586 0.000000
O O13 0.330086 0.922785 0.339496
O O14 0.000000 0.892914 0.302107
O O15 0.500000 0.064729 0.500000
O O16 0.500000 0.000000 0.375823
O O17 0.000000 0.250397 0.210662
O O18 0.269579 0.500000 0.149805
O O19 0.000000 0.451879 0.108412
O O20 0.270332 0.449576 0.000000
#
# Coordination Sequence:
#
# PCOD9382377 Si02
#       7
#     8   8   8   8   4   8   8
#     4   8  14  27  49  74  97 124 160 195 227 271
#     4   8  14  27  48  70  90 115 148 183 221 267
#     4  10  19  27  35  52  83 118 145 175 217 260
#     4   9  18  34  55  76 100 130 160 194 237 283
#     4  11  24  38  53  77 103 125 158 202 244 289
#     4   9  16  26  42  63  87 116 148 182 220 263
#     4   8  14  25  40  55  70  96 140 185 219 257
#
# _framework density 16.414940999999999
#
# number of rings (size 3 to 8) (size 9 to 14) (size 15 to 20)
#    0.000    3.154    0.000    3.692    0.000    3.077 
#    5.538    2.692    0.000    0.923    0.000    2.154 
#    0.000    0.615    0.000    7.077    0.000    2.308 
#
# Total GULP energy -289479.790530 kJ/mol
# GULP energy per Si atom -5566.919049 kJ/mol
# Density = 1.637758 g / cm^3
# Si number density = 16.414941 Si / 1000 Ang^3
#
#
#
# Elastic Constant Matrix: (Units=GPa)
#
#
# Indices 1 2 3 4 5 6 
#
# 1 41.7493 26.6206 24.0946 0.0000 0.0000 0.0000
# 2 26.6206 119.5528 71.7799 0.0000 0.0000 0.0000
# 3 24.0946 71.7799 124.3946 0.0000 0.0000 0.0000
# 4 0.0000 0.0000 0.0000 15.5365 0.0000 0.0000
# 5 0.0000 0.0000 0.0000 0.0000 7.6557 0.0000
# 6 0.0000 0.0000 0.0000 0.0000 0.0000 33.0956
#
#
#
# Elastic Compliance Matrix: (Units=1/GPa)
#
#
# Indices 1 2 3 4 5 6 
#
# 1 0.028561 -0.004649 -0.002850 0.000000 0.000000 0.000000
# 2 -0.004649 0.013555 -0.006921 0.000000 0.000000 0.000000
# 3 -0.002850 -0.006921 0.012585 0.000000 0.000000 0.000000
# 4 0.000000 0.000000 0.000000 0.064365 0.000000 0.000000
# 5 0.000000 0.000000 0.000000 0.000000 0.130621 0.000000
# 6 0.000000 0.000000 0.000000 0.000000 0.000000 0.030215
#
#
# Mechanical properties :
#
#
# Convention : Reuss Voigt Hill
#
# Bulk Modulus (GPa) = 38.66721 58.96520 48.81621
# Shear Modulus (GPa) = 15.75484 22.13768 18.94626
#
# Velocity S-wave (km/s) = 3.10140 3.67635 3.40105
# Velocity P-wave (km/s) = 6.03591 7.34986 6.72505
#
# Compressibility (1/GPa) = 0.02586170
#
# Stress axis : x y z
#
# Youngs Moduli (GPa) = 35.01237 73.77212 79.46102
#
# Poissons Ratio (x) = 0.34295 0.22644
# Poissons Ratio (y) = 0.16276 0.54998
# Poissons Ratio (z) = 0.09977 0.51061
#
# Static dielectric constant tensor:
#      x y z
#    x 1.592480 0.000000 0.000000 
#    y 0.000000 1.562180 0.000000 
#    z 0.000000 0.000000 1.575230 
# 
# From -- ./inp_files/21733.got.cif
#   From: 2010.05.17/outbox.cif.g08.bks.cpg/sg47_11_cif.got.tgz:21733.got - 2010.06.03 20:15:42.
