data_PCOD9382207
_publ_section_title
;
Structure prediction by ZEFSAII (Michael W. Deem and Ramdas Pophale) SiO2 
 PCOD9382207
Probable space group: P M M M
;
_chemical_formula_sum "Si O2"
_cell_formula_units_Z 64
_cell_length_a 7.648537
_cell_length_b 20.647749
_cell_length_c 21.074814
_cell_angle_alpha 90.000000
_cell_angle_beta 90.000000
_cell_angle_gamma 90.000000
_cell_volume 3328.241522
_symmetry_space_group_name_H-M "P M M M"
_symmetry_group_IT_number 47
_symmetry_cell_setting 'orthorhombic'
loop_
_space_group_symop_operation_xyz
x,y,z
-x,-y,z
x,-y,-z
-x,y,-z
-x,-y,-z
x,y,-z
-x,y,z
x,-y,z
loop_
_atom_site_type_symbol
_atom_site_label
_atom_site_fract_x
_atom_site_fract_y
_atom_site_fract_z
Si Si1 0.794430 0.209877 0.807805
Si Si2 0.793901 0.929287 0.786273
Si Si3 0.289629 0.202394 0.428916
Si Si4 0.288004 0.928345 0.362301
Si Si5 0.295951 0.289457 0.930937
Si Si6 0.788739 0.428207 0.116883
Si Si7 0.786963 0.428609 0.265578
Si Si8 0.790027 0.707911 0.688447
O O1 0.719813 0.137381 0.814512
O O2 0.781456 0.252455 0.870822
O O3 0.720833 0.248664 0.747175
O O4 0.000000 0.201117 0.793902
O O5 0.774990 0.922221 0.710160
O O6 0.000000 0.932340 0.801833
O O7 0.717680 0.000000 0.803227
O O8 0.224806 0.215268 0.500000
O O9 0.500000 0.198283 0.431674
O O10 0.226205 0.132803 0.402771
O O11 0.247323 0.257041 0.377458
O O12 0.500000 0.926798 0.360983
O O13 0.235667 0.000000 0.385731
O O14 0.500000 0.273293 0.931093
O O15 0.277924 0.366415 0.920474
O O16 0.220614 0.272467 0.000000
O O17 0.732037 0.500000 0.095636
O O18 0.740257 0.420913 0.191220
O O19 0.000000 0.426703 0.113775
O O20 0.727338 0.500000 0.286703
O O21 0.725464 0.365718 0.303540
O O22 0.000000 0.429510 0.267499
O O23 0.000000 0.704836 0.695401
#
# Coordination Sequence:
#
# PCOD9382207 Si02
#       8
#     8   8   8   8   8   8   8   8
#     4  10  19  33  54  78 100 128 169 211 251 301
#     4   9  17  30  50  76 104 129 156 200 256 305
#     4  10  21  34  47  68 101 138 171 204 246 294
#     4   9  17  29  46  69  97 131 170 204 236 285
#     4  11  24  37  49  71 105 141 173 209 254 300
#     4   9  17  32  54  77 102 135 173 208 245 296
#     4   8  14  27  49  75 100 123 153 200 249 289
#     4  10  18  31  53  78  99 124 164 209 252 297
#
# _framework density 19.229374
#
# number of rings (size 3 to 8) (size 9 to 14) (size 15 to 20)
#    0.000    2.500    2.500    1.125    0.000    3.000 
#    0.000    2.500    0.000    1.125    0.000    7.875 
#    0.000    0.000    0.000    0.000    0.000    0.000 
#
# Total GULP energy -356905.612266 kJ/mol
# GULP energy per Si atom -5576.650192 kJ/mol
# Density = 1.918561 g / cm^3
# Si number density = 19.229374 Si / 1000 Ang^3
#
#
#
# Elastic Constant Matrix: (Units=GPa)
#
#
# Indices 1 2 3 4 5 6 
#
# 1 32.4917 0.4766 -11.3798 0.0000 0.0000 0.0000
# 2 0.4766 154.5087 55.5559 0.0000 0.0000 0.0000
# 3 -11.3798 55.5559 72.9340 0.0000 0.0000 0.0000
# 4 0.0000 0.0000 0.0000 13.9183 0.0000 0.0000
# 5 0.0000 0.0000 0.0000 0.0000 16.1827 0.0000
# 6 0.0000 0.0000 0.0000 0.0000 0.0000 7.4431
#
#
#
# Elastic Compliance Matrix: (Units=1/GPa)
#
#
# Indices 1 2 3 4 5 6 
#
# 1 0.033366 -0.002720 0.007278 0.000000 0.000000 0.000000
# 2 -0.002720 0.009135 -0.007383 0.000000 0.000000 0.000000
# 3 0.007278 -0.007383 0.020470 0.000000 0.000000 0.000000
# 4 0.000000 0.000000 0.000000 0.071848 0.000000 0.000000
# 5 0.000000 0.000000 0.000000 0.000000 0.061794 0.000000
# 6 0.000000 0.000000 0.000000 0.000000 0.000000 0.134352
#
#
# Mechanical properties :
#
#
# Convention : Reuss Voigt Hill
#
# Bulk Modulus (GPa) = 17.44539 38.80440 28.12490
# Shear Modulus (GPa) = 14.05591 21.86095 17.95843
#
# Velocity S-wave (km/s) = 2.70656 3.37538 3.05930
# Velocity P-wave (km/s) = 4.34272 5.95101 5.20931
#
# Compressibility (1/GPa) = 0.05732175
#
# Stress axis : x y z
#
# Youngs Moduli (GPa) = 29.97065 109.46754 48.85126
#
# Poissons Ratio (x) = 0.29772 -0.35553
# Poissons Ratio (y) = 0.08151 0.36066
# Poissons Ratio (z) = -0.21812 0.80818
#
# Static dielectric constant tensor:
#      x y z
#    x 1.730790 0.000000 0.000000 
#    y 0.000000 1.711240 0.000000 
#    z 0.000000 0.000000 1.639040 
# 
# From -- ./inp_files/9935.got.cif
#   From: 2010.05.17/outbox.cif.g08.bks.cpg/sg47_5_cif.got.tgz:9935.got - 2010.06.03 20:15:42.
