data_PCOD9382789
_publ_section_title
;
Structure prediction by ZEFSAII (Michael W. Deem and Ramdas Pophale) SiO2 
 PCOD9382789
Probable space group: P M M M
;
_chemical_formula_sum "Si O2"
_cell_formula_units_Z 36
_cell_length_a 7.277529
_cell_length_b 13.976337
_cell_length_c 15.349262
_cell_angle_alpha 90.000000
_cell_angle_beta 90.000000
_cell_angle_gamma 90.000000
_cell_volume 1561.222522
_symmetry_space_group_name_H-M "P M M M"
_symmetry_group_IT_number 47
_symmetry_cell_setting 'orthorhombic'
loop_
_space_group_symop_operation_xyz
x,y,z
-x,-y,z
x,-y,-z
-x,y,-z
-x,-y,-z
x,y,-z
-x,y,z
x,-y,z
loop_
_atom_site_type_symbol
_atom_site_label
_atom_site_fract_x
_atom_site_fract_y
_atom_site_fract_z
Si Si1 0.724123 0.611705 0.194464
Si Si2 0.285702 0.384001 0.000000
Si Si3 0.221465 0.113659 0.000000
Si Si4 0.779981 0.112679 0.184373
Si Si5 0.275098 0.114062 0.500000
Si Si6 0.297145 0.241839 0.338248
O O1 0.500000 0.619219 0.192901
O O2 0.769935 0.500000 0.204948
O O3 0.786665 0.672507 0.279019
O O4 0.789126 0.642342 0.096639
O O5 0.278658 0.500000 0.000000
O O6 0.500000 0.356302 0.000000
O O7 0.288509 0.150860 0.091538
O O8 0.000000 0.123104 0.000000
O O9 0.257543 0.000000 0.000000
O O10 0.688501 0.162419 0.263978
O O11 0.000000 0.127398 0.189914
O O12 0.748645 0.000000 0.186814
O O13 0.500000 0.110475 0.500000
O O14 0.215939 0.179846 0.417709
O O15 0.218734 0.000000 0.500000
O O16 0.500000 0.275082 0.367635
#
# Coordination Sequence:
#
# PCOD9382789 Si02
#       6
#     8   4   4   8   4   8
#     4   8  14  25  41  63  91 119 147 181 222 269
#     4   7  10  19  36  58  88 121 142 167 221 278
#     4   7  12  25  43  61  86 121 150 171 213 278
#     4   9  17  30  47  66  90 120 151 183 222 271
#     4   9  18  32  46  62  90 123 149 183 242 297
#     4  10  19  30  47  68  88 116 155 193 229 271
#
# _framework density 23.058852999999999
#
# number of rings (size 3 to 8) (size 9 to 14) (size 15 to 20)
#    0.000    3.444    0.000    3.333    0.000    2.222 
#    0.000    2.778    0.000    8.000    0.000    0.000 
#    0.000    7.111    0.000    0.000    0.000    0.000 
#
# Total GULP energy -200477.496471 kJ/mol
# GULP energy per Si atom -5568.819346 kJ/mol
# Density = 2.300637 g / cm^3
# Si number density = 23.058853 Si / 1000 Ang^3
#
#
#
# Elastic Constant Matrix: (Units=GPa)
#
#
# Indices 1 2 3 4 5 6 
#
# 1 78.4351 17.6779 6.3158 0.0000 0.0000 0.0000
# 2 17.6779 150.8599 83.8688 0.0000 0.0000 0.0000
# 3 6.3158 83.8688 216.5226 0.0000 0.0000 0.0000
# 4 0.0000 0.0000 0.0000 50.5232 0.0000 0.0000
# 5 0.0000 0.0000 0.0000 0.0000 -13.4792 0.0000
# 6 0.0000 0.0000 0.0000 0.0000 0.0000 12.5256
#
#
#
# Elastic Compliance Matrix: (Units=1/GPa)
#
#
# Indices 1 2 3 4 5 6 
#
# 1 0.013108 -0.001687 0.000271 0.000000 0.000000 0.000000
# 2 -0.001687 0.008665 -0.003307 0.000000 0.000000 0.000000
# 3 0.000271 -0.003307 0.005892 0.000000 0.000000 0.000000
# 4 0.000000 0.000000 0.000000 0.019793 0.000000 0.000000
# 5 0.000000 0.000000 0.000000 0.000000 -0.074188 0.000000
# 6 0.000000 0.000000 0.000000 0.000000 0.000000 0.079837
#
#
# Mechanical properties :
#
#
# Convention : Reuss Voigt Hill
#
# Bulk Modulus (GPa) = 54.88891 73.50473 64.19682
# Shear Modulus (GPa) = 72.86126 32.44426 52.65276
#
# Velocity S-wave (km/s) = 5.62730 3.75510 4.78369
# Velocity P-wave (km/s) = 8.12881 7.12371 7.64280
#
# Compressibility (1/GPa) = 0.01821862
#
# Stress axis : x y z
#
# Youngs Moduli (GPa) = 76.29100 115.40902 169.73517
#
# Poissons Ratio (x) = 0.19465 -0.04599
# Poissons Ratio (y) = 0.12867 0.56133
# Poissons Ratio (z) = -0.02067 0.38167
#
# Static dielectric constant tensor:
#      x y z
#    x 1.918440 0.000000 0.000000 
#    y 0.000000 1.892670 0.000000 
#    z 0.000000 0.000000 1.951440 
# 
# From -- ./inp_files/20601.got.cif
#   From: 2010.05.17/outbox.cif.g08.bks.cpg/sg47_11_cif.got.tgz:20601.got - 2010.06.03 20:15:42.
