data_PCOD9382302
_publ_section_title
;
Structure prediction by ZEFSAII (Michael W. Deem and Ramdas Pophale) SiO2 
 PCOD9382302
Probable space group: P M M M
;
_chemical_formula_sum "Si O2"
_cell_formula_units_Z 40
_cell_length_a 11.716761
_cell_length_b 7.443701
_cell_length_c 21.388612
_cell_angle_alpha 90.000000
_cell_angle_beta 90.000000
_cell_angle_gamma 90.000000
_cell_volume 1865.430587
_symmetry_space_group_name_H-M "P M M M"
_symmetry_group_IT_number 47
_symmetry_cell_setting 'orthorhombic'
loop_
_space_group_symop_operation_xyz
x,y,z
-x,-y,z
x,-y,-z
-x,y,-z
-x,-y,-z
x,y,-z
-x,y,z
x,-y,z
loop_
_atom_site_type_symbol
_atom_site_label
_atom_site_fract_x
_atom_site_fract_y
_atom_site_fract_z
Si Si1 0.865390 0.279457 0.251811
Si Si2 0.000000 0.792410 0.425834
Si Si3 0.759103 0.701661 0.622882
Si Si4 0.252948 0.712739 0.875873
Si Si5 0.633682 0.718149 0.500000
Si Si6 0.131222 0.719808 0.000000
Si Si7 0.500000 0.786621 0.927322
O O1 0.866040 0.500000 0.254632
O O2 0.783934 0.217379 0.308920
O O3 0.806241 0.219781 0.187335
O O4 0.000000 0.226668 0.256736
O O5 0.112575 0.696454 0.402996
O O6 0.000000 0.794262 0.500000
O O7 0.000000 0.000000 0.404006
O O8 0.712201 0.500000 0.632375
O O9 0.688972 0.785176 0.565087
O O10 0.230886 0.500000 0.874179
O O11 0.192365 0.785573 0.937774
O O12 0.387110 0.735355 0.888723
O O13 0.652175 0.500000 0.500000
O O14 0.500000 0.753860 0.500000
O O15 0.137911 0.500000 0.000000
O O16 0.000000 0.769087 0.000000
O O17 0.500000 0.000000 0.932643
O O18 0.500000 0.715670 0.000000
#
# Coordination Sequence:
#
# PCOD9382302 Si02
#       7
#     8   4   8   8   4   4   4
#     4   9  17  30  52  84 113 132 164 216 268 321
#     4  11  21  31  49  79 109 134 173 228 268 306
#     4  10  18  32  55  78 104 140 175 214 268 324
#     4  10  19  33  55  81 107 137 173 217 265 316
#     4   9  18  31  49  76 106 135 176 223 264 311
#     4   9  16  27  49  80 108 133 164 207 264 321
#     4  11  23  39  57  75 103 142 185 232 266 300
#
# _framework density 21.442772000000001
#
# number of rings (size 3 to 8) (size 9 to 14) (size 15 to 20)
#    0.000    2.200    3.000    1.200    0.000    3.200 
#    1.800    1.000    0.000    3.600    0.000    0.000 
#    0.000    0.000    0.000    0.000    0.000    0.000 
#
# Total GULP energy -223098.036057 kJ/mol
# GULP energy per Si atom -5577.450901 kJ/mol
# Density = 2.139397 g / cm^3
# Si number density = 21.442772 Si / 1000 Ang^3
#
#
#
# Elastic Constant Matrix: (Units=GPa)
#
#
# Indices 1 2 3 4 5 6 
#
# 1 133.0333 -10.8137 98.2170 0.0000 0.0000 0.0000
# 2 -10.8137 72.2762 11.1235 0.0000 0.0000 0.0000
# 3 98.2170 11.1235 232.7547 0.0000 0.0000 0.0000
# 4 0.0000 0.0000 0.0000 34.1140 0.0000 0.0000
# 5 0.0000 0.0000 0.0000 0.0000 3.6604 0.0000
# 6 0.0000 0.0000 0.0000 0.0000 0.0000 -66.4666
#
#
#
# Elastic Compliance Matrix: (Units=1/GPa)
#
#
# Indices 1 2 3 4 5 6 
#
# 1 0.011333 0.002450 -0.004899 0.000000 0.000000 0.000000
# 2 0.002450 0.014468 -0.001725 0.000000 0.000000 0.000000
# 3 -0.004899 -0.001725 0.006446 0.000000 0.000000 0.000000
# 4 0.000000 0.000000 0.000000 0.029313 0.000000 0.000000
# 5 0.000000 0.000000 0.000000 0.000000 0.273197 0.000000
# 6 0.000000 0.000000 0.000000 0.000000 0.000000 -0.015045
#
#
# Mechanical properties :
#
#
# Convention : Reuss Voigt Hill
#
# Bulk Modulus (GPa) = 41.84535 70.56867 56.20701
# Shear Modulus (GPa) = 14.87971 16.89738 15.88854
#
# Velocity S-wave (km/s) = 2.63711 2.81022 2.72504
# Velocity P-wave (km/s) = 5.36933 6.59632 6.01420
#
# Compressibility (1/GPa) = 0.02389752
#
# Stress axis : x y z
#
# Youngs Moduli (GPa) = 88.23614 69.11893 155.12883
#
# Poissons Ratio (x) = -0.16932 0.76004
# Poissons Ratio (y) = -0.21615 0.26762
# Poissons Ratio (z) = 0.43231 0.11924
#
# Static dielectric constant tensor:
#      x y z
#    x 1.721240 0.000000 0.000000 
#    y 0.000000 1.818590 0.000000 
#    z 0.000000 0.000000 1.820830 
# 
# From -- ./inp_files/10769.got.cif
#   From: 2010.05.17/outbox.cif.g08.bks.cpg/sg47_6_cif.got.tgz:10769.got - 2010.06.03 20:15:42.
