data_PCOD9382104
_publ_section_title
;
Structure prediction by ZEFSAII (Michael W. Deem and Ramdas Pophale) SiO2 
 PCOD9382104
Probable space group: P M M M
;
_chemical_formula_sum "Si O2"
_cell_formula_units_Z 64
_cell_length_a 21.214276
_cell_length_b 20.609967
_cell_length_c 8.100328
_cell_angle_alpha 90.000000
_cell_angle_beta 90.000000
_cell_angle_gamma 90.000000
_cell_volume 3541.670189
_symmetry_space_group_name_H-M "P M M M"
_symmetry_group_IT_number 47
_symmetry_cell_setting 'orthorhombic'
loop_
_space_group_symop_operation_xyz
x,y,z
-x,-y,z
x,-y,-z
-x,y,-z
-x,-y,-z
x,y,-z
-x,y,z
x,-y,z
loop_
_atom_site_type_symbol
_atom_site_label
_atom_site_fract_x
_atom_site_fract_y
_atom_site_fract_z
Si Si1 0.107739 0.288721 0.196042
Si Si2 0.190398 0.925475 0.300077
Si Si3 0.571505 0.926577 0.301201
Si Si4 0.932224 0.849585 0.696272
Si Si5 0.101675 0.570560 0.303847
Si Si6 0.688719 0.843125 0.196626
Si Si7 0.255539 0.709510 0.201165
Si Si8 0.751450 0.569417 0.200180
O O1 0.074661 0.227245 0.276215
O O2 0.080237 0.359930 0.235515
O O3 0.181649 0.285425 0.248999
O O4 0.105919 0.280317 0.000000
O O5 0.189083 0.925271 0.500000
O O6 0.129249 0.886296 0.237169
O O7 0.253862 0.889541 0.247803
O O8 0.189425 0.000000 0.244783
O O9 0.570393 0.928346 0.500000
O O10 0.500000 0.912509 0.244509
O O11 0.623320 0.874655 0.250981
O O12 0.588258 0.000000 0.244612
O O13 0.932807 0.861494 0.500000
O O14 0.000000 0.871245 0.764496
O O15 0.092392 0.571796 0.500000
O O16 0.077273 0.500000 0.242412
O O17 0.176417 0.569895 0.262581
O O18 0.705296 0.771078 0.262074
O O19 0.687975 0.839177 0.000000
O O20 0.277993 0.637769 0.253799
O O21 0.256438 0.710768 0.000000
O O22 0.723169 0.500000 0.251674
O O23 0.753957 0.570196 0.000000
#
# Coordination Sequence:
#
# PCOD9382104 Si02
#       8
#     8   8   8   8   8   8   8   8
#     4  10  18  31  49  67  92 125 160 196 238 293
#     4  10  21  36  53  73  97 126 161 200 244 296
#     4   9  19  36  54  71  96 131 168 204 242 287
#     4  10  21  36  53  72  93 120 158 204 252 299
#     4   9  16  25  40  65  94 121 152 193 239 284
#     4  11  20  31  49  75 106 133 161 199 241 287
#     4   8  15  26  41  65  95 124 154 193 237 278
#     4   8  13  23  39  59  87 125 164 196 231 279
#
# _framework density 18.07057
#
# number of rings (size 3 to 8) (size 9 to 14) (size 15 to 20)
#    0.000    2.625    1.250    2.625    0.000    3.500 
#    0.000    2.500    0.000    0.375    0.000    4.375 
#    0.000    0.500    0.000    6.250    0.000    1.125 
#
# Total GULP energy -356657.443780 kJ/mol
# GULP energy per Si atom -5572.772559 kJ/mol
# Density = 1.802944 g / cm^3
# Si number density = 18.070570 Si / 1000 Ang^3
#
#
#
# Elastic Constant Matrix: (Units=GPa)
#
#
# Indices 1 2 3 4 5 6 
#
# 1 88.8118 69.4778 7.9033 0.0000 0.0000 0.0000
# 2 69.4778 144.7742 4.6037 0.0000 0.0000 0.0000
# 3 7.9033 4.6037 12.9742 0.0000 0.0000 0.0000
# 4 0.0000 0.0000 0.0000 20.2605 0.0000 0.0000
# 5 0.0000 0.0000 0.0000 0.0000 -26.1137 0.0000
# 6 0.0000 0.0000 0.0000 0.0000 0.0000 193.9852
#
#
#
# Elastic Compliance Matrix: (Units=1/GPa)
#
#
# Indices 1 2 3 4 5 6 
#
# 1 0.018889 -0.008798 -0.008384 0.000000 0.000000 0.000000
# 2 -0.008798 0.011084 0.001426 0.000000 0.000000 0.000000
# 3 -0.008384 0.001426 0.081677 0.000000 0.000000 0.000000
# 4 0.000000 0.000000 0.000000 0.049357 0.000000 0.000000
# 5 0.000000 0.000000 0.000000 0.000000 -0.038294 0.000000
# 6 0.000000 0.000000 0.000000 0.000000 0.000000 0.005155
#
#
# Mechanical properties :
#
#
# Convention : Reuss Voigt Hill
#
# Bulk Modulus (GPa) = 12.47850 45.61444 29.04647
# Shear Modulus (GPa) = 26.86831 48.59808 37.73319
#
# Velocity S-wave (km/s) = 3.86016 5.19152 4.57453
# Velocity P-wave (km/s) = 5.17573 7.82515 6.63405
#
# Compressibility (1/GPa) = 0.08013786
#
# Stress axis : x y z
#
# Youngs Moduli (GPa) = 52.94169 90.21826 12.24335
#
# Poissons Ratio (x) = 0.79375 0.10265
# Poissons Ratio (y) = 0.46579 -0.01746
# Poissons Ratio (z) = 0.44388 -0.12868
#
# Static dielectric constant tensor:
#      x y z
#    x 1.624540 0.000000 0.000000 
#    y 0.000000 1.671420 0.000000 
#    z 0.000000 0.000000 1.639740 
# 
# From -- ./inp_files/11793.got.cif
#   From: 2010.05.17/outbox.cif.g08.bks.cpg/sg47_6_cif.got.tgz:11793.got - 2010.06.03 20:15:42.
