data_PCOD9383874
_publ_section_title
;
Structure prediction by ZEFSAII (Michael W. Deem and Ramdas Pophale) SiO2 
 PCOD9383874
Probable space group: P M M M
;
_chemical_formula_sum "Si O2"
_cell_formula_units_Z 52
_cell_length_a 21.240971
_cell_length_b 13.786823
_cell_length_c 7.489212
_cell_angle_alpha 90.000000
_cell_angle_beta 90.000000
_cell_angle_gamma 90.000000
_cell_volume 2193.182089
_symmetry_space_group_name_H-M "P M M M"
_symmetry_group_IT_number 47
_symmetry_cell_setting 'orthorhombic'
loop_
_space_group_symop_operation_xyz
x,y,z
-x,-y,z
x,-y,-z
-x,y,-z
-x,-y,-z
x,y,-z
-x,y,z
x,-y,z
loop_
_atom_site_type_symbol
_atom_site_label
_atom_site_fract_x
_atom_site_fract_y
_atom_site_fract_z
Si Si1 0.572825 0.891836 0.281802
Si Si2 0.899248 0.394745 0.793937
Si Si3 0.632463 0.297175 0.707531
Si Si4 0.930793 0.179785 0.216865
Si Si5 0.234973 0.677508 0.283427
Si Si6 0.203809 0.105662 0.293307
Si Si7 0.500000 0.385239 0.204814
O O1 0.573501 0.890453 0.500000
O O2 0.500000 0.871915 0.231586
O O3 0.618531 0.808740 0.213869
O O4 0.589334 0.000000 0.225173
O O5 0.916066 0.500000 0.715044
O O6 0.923671 0.292064 0.719887
O O7 0.823560 0.382187 0.789783
O O8 0.920097 0.396433 0.000000
O O9 0.647176 0.281160 0.500000
O O10 0.694538 0.351324 0.774562
O O11 0.565498 0.349399 0.715508
O O12 0.871754 0.119009 0.284634
O O13 0.000000 0.143739 0.265893
O O14 0.926219 0.180252 0.000000
O O15 0.227557 0.671877 0.500000
O O16 0.228232 0.790591 0.224302
O O17 0.224092 0.103527 0.500000
O O18 0.220730 0.000000 0.215366
O O19 0.500000 0.500000 0.213899
O O20 0.500000 0.353047 0.000000
#
# Coordination Sequence:
#
# PCOD9383874 Si02
#       7
#     8   8   8   8   8   8   4
#     4   8  13  23  44  74 100 119 145 185 232 281
#     4   9  18  33  52  72  96 129 166 205 253 306
#     4  10  19  34  56  78 100 128 164 205 248 294
#     4   9  18  32  50  74 102 131 168 213 254 293
#     4   9  19  33  51  76 102 129 164 207 249 291
#     4   9  18  33  51  73 105 141 172 203 242 290
#     4  11  25  41  54  71  98 132 167 205 252 303
#
# _framework density 23.709842999999999
#
# number of rings (size 3 to 8) (size 9 to 14) (size 15 to 20)
#    0.000    2.846    0.769    0.692    0.000    4.000 
#    0.000    9.231    0.000    0.923    0.000    6.462 
#    0.000    0.000    0.000    0.000    0.000    0.000 
#
# Total GULP energy -290113.735616 kJ/mol
# GULP energy per Si atom -5579.110300 kJ/mol
# Density = 2.365588 g / cm^3
# Si number density = 23.709843 Si / 1000 Ang^3
#
#
#
# Elastic Constant Matrix: (Units=GPa)
#
#
# Indices 1 2 3 4 5 6 
#
# 1 98.4727 -17.9912 -4.8374 0.0000 0.0000 0.0000
# 2 -17.9912 50.3315 8.6394 0.0000 0.0000 0.0000
# 3 -4.8374 8.6394 61.6643 0.0000 0.0000 0.0000
# 4 0.0000 0.0000 0.0000 14.2976 0.0000 0.0000
# 5 0.0000 0.0000 0.0000 0.0000 14.2329 0.0000
# 6 0.0000 0.0000 0.0000 0.0000 0.0000 -3.7258
#
#
#
# Elastic Compliance Matrix: (Units=1/GPa)
#
#
# Indices 1 2 3 4 5 6 
#
# 1 0.010871 0.003832 0.000316 0.000000 0.000000 0.000000
# 2 0.003832 0.021708 -0.002741 0.000000 0.000000 0.000000
# 3 0.000316 -0.002741 0.016626 0.000000 0.000000 0.000000
# 4 0.000000 0.000000 0.000000 0.069942 0.000000 0.000000
# 5 0.000000 0.000000 0.000000 0.000000 0.070260 0.000000
# 6 0.000000 0.000000 0.000000 0.000000 0.000000 -0.268401
#
#
# Mechanical properties :
#
#
# Convention : Reuss Voigt Hill
#
# Bulk Modulus (GPa) = 19.22412 20.23221 19.72817
# Shear Modulus (GPa) = -77.55736 19.93811 -28.80962
#
# Velocity S-wave (km/s) = -5.72556 2.90301 -3.48960
# Velocity P-wave (km/s) = 5.96521 4.44842 2.81028
#
# Compressibility (1/GPa) = 0.05201797
#
# Stress axis : x y z
#
# Youngs Moduli (GPa) = 91.99079 46.06522 60.14814
#
# Poissons Ratio (x) = -0.17650 -0.01900
# Poissons Ratio (y) = -0.35247 0.16486
# Poissons Ratio (z) = -0.02907 0.12626
#
# Static dielectric constant tensor:
#      x y z
#    x 1.960310 0.000000 0.000000 
#    y 0.000000 1.897750 0.000000 
#    z 0.000000 0.000000 1.950350 
# 
# From -- ./inp_files/11049.got.cif
#   From: 2010.05.17/outbox.cif.g08.bks.cpg/sg47_6_cif.got.tgz:11049.got - 2010.06.03 20:15:42.
