data_PCOD9383715
_publ_section_title
;
Structure prediction by ZEFSAII (Michael W. Deem and Ramdas Pophale) SiO2 
 PCOD9383715
Probable space group: P M M M
;
_chemical_formula_sum "Si O2"
_cell_formula_units_Z 44
_cell_length_a 32.438278
_cell_length_b 9.114444
_cell_length_c 8.132926
_cell_angle_alpha 90.000000
_cell_angle_beta 90.000000
_cell_angle_gamma 90.000000
_cell_volume 2404.555431
_symmetry_space_group_name_H-M "P M M M"
_symmetry_group_IT_number 47
_symmetry_cell_setting 'orthorhombic'
loop_
_space_group_symop_operation_xyz
x,y,z
-x,-y,z
x,-y,-z
-x,y,-z
-x,-y,-z
x,y,-z
-x,y,z
x,-y,z
loop_
_atom_site_type_symbol
_atom_site_label
_atom_site_fract_x
_atom_site_fract_y
_atom_site_fract_z
Si Si1 0.952173 0.678591 0.185198
Si Si2 0.500000 0.667777 0.302760
Si Si3 0.899689 0.320595 0.500000
Si Si4 0.582675 0.831938 0.196490
Si Si5 0.664525 0.670225 0.693888
Si Si6 0.247383 0.678950 0.817571
Si Si7 0.195557 0.320768 0.500000
O O1 0.951224 0.500000 0.185546
O O2 0.923490 0.727725 0.334991
O O3 0.000000 0.720472 0.211972
O O4 0.939906 0.724972 0.000000
O O5 0.500000 0.500000 0.244281
O O6 0.500000 0.668052 0.500000
O O7 0.541221 0.747375 0.243575
O O8 0.900420 0.500000 0.500000
O O9 0.852060 0.275562 0.500000
O O10 0.623277 0.758703 0.271219
O O11 0.579219 0.000000 0.251716
O O12 0.586916 0.828971 0.000000
O O13 0.674162 0.673771 0.500000
O O14 0.657313 0.500000 0.740348
O O15 0.705233 0.724265 0.787470
O O16 0.247515 0.500000 0.813221
O O17 0.219231 0.727374 0.665247
O O18 0.233495 0.723643 0.000000
O O19 0.196402 0.500000 0.500000
#
# Coordination Sequence:
#
# PCOD9383715 Si02
#       7
#     8   4   4   8   8   8   4
#     4   8  13  20  28  38  54  81 122 169 216 271
#     4  11  24  41  60  82 106 135 172 207 242 292
#     4   9  15  20  29  42  62  89 120 164 222 281
#     4  11  24  39  55  79 109 137 166 202 245 293
#     4  10  19  33  54  77  99 125 164 206 240 290
#     4   9  16  27  43  61  84 113 144 185 234 281
#     4   9  16  25  34  53  79 102 134 177 228 293
#
# _framework density 18.298601000000001
#
# number of rings (size 3 to 8) (size 9 to 14) (size 15 to 20)
#    0.000    2.455    0.909    3.000    0.000    8.364 
#    0.000    3.636    0.000    0.000    0.000    0.000 
#    0.000    0.000    0.000    0.000    0.000    0.000 
#
# Total GULP energy -245411.024739 kJ/mol
# GULP energy per Si atom -5577.523290 kJ/mol
# Density = 1.825695 g / cm^3
# Si number density = 18.298601 Si / 1000 Ang^3
#
#
#
# Elastic Constant Matrix: (Units=GPa)
#
#
# Indices 1 2 3 4 5 6 
#
# 1 138.2838 25.6095 85.2651 0.0000 0.0000 0.0000
# 2 25.6095 36.1164 20.5401 0.0000 0.0000 0.0000
# 3 85.2651 20.5401 130.2246 0.0000 0.0000 0.0000
# 4 0.0000 0.0000 0.0000 16.6205 0.0000 0.0000
# 5 0.0000 0.0000 0.0000 0.0000 8.3887 0.0000
# 6 0.0000 0.0000 0.0000 0.0000 0.0000 -7.1785
#
#
#
# Elastic Compliance Matrix: (Units=1/GPa)
#
#
# Indices 1 2 3 4 5 6 
#
# 1 0.012827 -0.004745 -0.007650 0.000000 0.000000 0.000000
# 2 -0.004745 0.032172 -0.001968 0.000000 0.000000 0.000000
# 3 -0.007650 -0.001968 0.012999 0.000000 0.000000 0.000000
# 4 0.000000 0.000000 0.000000 0.060167 0.000000 0.000000
# 5 0.000000 0.000000 0.000000 0.000000 0.119208 0.000000
# 6 0.000000 0.000000 0.000000 0.000000 0.000000 -0.139305
#
#
# Mechanical properties :
#
#
# Convention : Reuss Voigt Hill
#
# Bulk Modulus (GPa) = 34.16244 63.05046 48.60645
# Shear Modulus (GPa) = 36.61642 15.11347 25.86494
#
# Velocity S-wave (km/s) = 4.47816 2.87703 3.76372
# Velocity P-wave (km/s) = 6.74155 6.75038 6.74597
#
# Compressibility (1/GPa) = 0.02927191
#
# Stress axis : x y z
#
# Youngs Moduli (GPa) = 77.95791 31.08311 76.93152
#
# Poissons Ratio (x) = 0.14748 0.58856
# Poissons Ratio (y) = 0.36989 0.15138
# Poissons Ratio (z) = 0.59641 0.06116
#
# Static dielectric constant tensor:
#      x y z
#    x 1.611680 0.000000 0.000000 
#    y 0.000000 1.604200 0.000000 
#    z 0.000000 0.000000 1.648640 
# 
# From -- ./inp_files/13761.got.cif
#   From: 2010.05.17/outbox.cif.g08.bks.cpg/sg47_7_cif.got.tgz:13761.got - 2010.06.03 20:15:42.
