data_PCOD9383850
_publ_section_title
;
Structure prediction by ZEFSAII (Michael W. Deem and Ramdas Pophale) SiO2 
 PCOD9383850
Probable space group: P M M M
;
_chemical_formula_sum "Si O2"
_cell_formula_units_Z 48
_cell_length_a 15.206485
_cell_length_b 8.828275
_cell_length_c 20.649473
_cell_angle_alpha 90.000000
_cell_angle_beta 90.000000
_cell_angle_gamma 90.000000
_cell_volume 2772.130449
_symmetry_space_group_name_H-M "P M M M"
_symmetry_group_IT_number 47
_symmetry_cell_setting 'orthorhombic'
loop_
_space_group_symop_operation_xyz
x,y,z
-x,-y,z
x,-y,-z
-x,y,-z
-x,-y,-z
x,y,-z
-x,y,z
x,-y,z
loop_
_atom_site_type_symbol
_atom_site_label
_atom_site_fract_x
_atom_site_fract_y
_atom_site_fract_z
Si Si1 0.902981 0.821448 0.209127
Si Si2 0.660257 0.680625 0.670385
Si Si3 0.707101 0.818310 0.807912
Si Si4 0.500000 0.315498 0.576151
Si Si5 0.000000 0.667634 0.424347
Si Si6 0.395180 0.319744 0.073336
Si Si7 0.156712 0.175813 0.356982
O O1 0.808634 0.761046 0.184524
O O2 0.888994 0.812923 0.286423
O O3 0.000000 0.757178 0.192235
O O4 0.905681 0.000000 0.191678
O O5 0.653060 0.500000 0.677747
O O6 0.662168 0.752913 0.742538
O O7 0.584498 0.730050 0.619852
O O8 0.754693 0.727924 0.642405
O O9 0.653796 0.770186 0.870869
O O10 0.710623 0.000000 0.800439
O O11 0.500000 0.500000 0.573754
O O12 0.500000 0.265413 0.500000
O O13 0.085840 0.759492 0.405214
O O14 0.000000 0.500000 0.392911
O O15 0.000000 0.649927 0.500000
O O16 0.500000 0.296435 0.078492
O O17 0.379426 0.500000 0.081123
O O18 0.368591 0.277174 0.000000
O O19 0.177684 0.000000 0.367899
#
# Coordination Sequence:
#
# PCOD9383850 Si02
#       7
#     8   8   8   4   4   8   8
#     4   8  14  28  50  73  99 132 167 205 252 306
#     4  10  20  35  56  80 106 139 179 226 273 322
#     4  10  20  32  52  83 112 139 176 222 268 317
#     4   9  20  38  57  75  98 137 184 223 267 324
#     4  11  23  35  49  73 103 137 176 217 266 329
#     4   9  19  36  56  77 106 146 185 219 264 325
#     4  10  19  34  54  75 101 133 171 219 273 324
#
# _framework density 17.315201999999999
#
# number of rings (size 3 to 8) (size 9 to 14) (size 15 to 20)
#    0.000    2.500    0.833    3.250    1.167    2.000 
#    0.000    3.750    0.000    4.000    0.000    3.500 
#    0.000    0.000    0.000    0.000    0.000    0.000 
#
# Total GULP energy -267323.918945 kJ/mol
# GULP energy per Si atom -5569.248311 kJ/mol
# Density = 1.727579 g / cm^3
# Si number density = 17.315202 Si / 1000 Ang^3
#
#
#
# Elastic Constant Matrix: (Units=GPa)
#
#
# Indices 1 2 3 4 5 6 
#
# 1 103.5529 29.1142 69.0246 0.0000 0.0000 0.0000
# 2 29.1142 39.1767 36.5224 0.0000 0.0000 0.0000
# 3 69.0246 36.5224 104.4409 0.0000 0.0000 0.0000
# 4 0.0000 0.0000 0.0000 9.9253 0.0000 0.0000
# 5 0.0000 0.0000 0.0000 0.0000 171.6744 0.0000
# 6 0.0000 0.0000 0.0000 0.0000 0.0000 22.7002
#
#
#
# Elastic Compliance Matrix: (Units=1/GPa)
#
#
# Indices 1 2 3 4 5 6 
#
# 1 0.017545 -0.003307 -0.010439 0.000000 0.000000 0.000000
# 2 -0.003307 0.038495 -0.011276 0.000000 0.000000 0.000000
# 3 -0.010439 -0.011276 0.020417 0.000000 0.000000 0.000000
# 4 0.000000 0.000000 0.000000 0.100753 0.000000 0.000000
# 5 0.000000 0.000000 0.000000 0.000000 0.005825 0.000000
# 6 0.000000 0.000000 0.000000 0.000000 0.000000 0.044052
#
#
# Mechanical properties :
#
#
# Convention : Reuss Voigt Hill
#
# Bulk Modulus (GPa) = 37.85977 57.38810 47.62394
# Shear Modulus (GPa) = 17.48651 48.36060 32.92356
#
# Velocity S-wave (km/s) = 3.18133 5.29058 4.36526
# Velocity P-wave (km/s) = 5.95038 8.39854 7.27813
#
# Compressibility (1/GPa) = 0.02641326
#
# Stress axis : x y z
#
# Youngs Moduli (GPa) = 56.99690 25.97748 48.97873
#
# Poissons Ratio (x) = 0.08590 0.51129
# Poissons Ratio (y) = 0.18847 0.55229
# Poissons Ratio (z) = 0.59499 0.29292
#
# Static dielectric constant tensor:
#      x y z
#    x 1.586980 0.000000 0.000000 
#    y 0.000000 1.593850 0.000000 
#    z 0.000000 0.000000 1.572420 
# 
# From -- ./inp_files/28019.got.cif
#   From: 2010.05.17/outbox.cif.g08.bks.cpg/sg47_15_cif.got.tgz:28019.got - 2010.06.03 20:15:42.
