data_PCOD9383889
_publ_section_title
;
Structure prediction by ZEFSAII (Michael W. Deem and Ramdas Pophale) SiO2 
 PCOD9383889
Probable space group: P M M M
;
_chemical_formula_sum "Si O2"
_cell_formula_units_Z 52
_cell_length_a 8.599116
_cell_length_b 29.049574
_cell_length_c 12.072204
_cell_angle_alpha 90.000000
_cell_angle_beta 90.000000
_cell_angle_gamma 90.000000
_cell_volume 3015.644486
_symmetry_space_group_name_H-M "P M M M"
_symmetry_group_IT_number 47
_symmetry_cell_setting 'orthorhombic'
loop_
_space_group_symop_operation_xyz
x,y,z
-x,-y,z
x,-y,-z
-x,y,-z
-x,-y,-z
x,y,-z
-x,y,z
x,-y,z
loop_
_atom_site_type_symbol
_atom_site_label
_atom_site_fract_x
_atom_site_fract_y
_atom_site_fract_z
Si Si1 0.312503 0.447306 0.873406
Si Si2 0.813271 0.218252 0.500000
Si Si3 0.812245 0.272185 0.129212
Si Si4 0.179319 0.000000 0.865606
Si Si5 0.315206 0.813701 0.732948
Si Si6 0.188898 0.899045 0.129196
Si Si7 0.189617 0.325731 0.500000
Si Si8 0.812503 0.363260 0.736482
O O1 0.500000 0.446275 0.871913
O O2 0.264126 0.500000 0.849762
O O3 0.249825 0.410236 0.787745
O O4 0.262723 0.436149 0.000000
O O5 0.752948 0.194062 0.610706
O O6 0.762333 0.272106 0.500000
O O7 0.000000 0.218016 0.500000
O O8 0.737156 0.230047 0.194159
O O9 0.766904 0.320336 0.185563
O O10 0.000000 0.267878 0.138654
O O11 0.771404 0.271472 0.000000
O O12 0.246470 0.950144 0.835587
O O13 0.000000 0.000000 0.826966
O O14 0.175284 0.000000 0.000000
O O15 0.500000 0.815846 0.727450
O O16 0.250523 0.859086 0.792874
O O17 0.000000 0.899516 0.132025
O O18 0.232714 0.891060 0.000000
O O19 0.240188 0.351092 0.387901
O O20 0.000000 0.325378 0.500000
O O21 0.000000 0.365230 0.735851
#
# Coordination Sequence:
#
# PCOD9383889 Si02
#       8
#     8   4   8   4   8   8   4   8
#     4   9  19  36  55  76 106 142 175 209 258 319
#     4  11  21  41  63  73  95 141 188 225 264 313
#     4  10  20  34  53  77 105 140 180 218 261 316
#     4   7  12  26  51  80 105 134 181 231 263 303
#     4  12  24  35  50  78 112 141 176 220 268 322
#     4   9  17  32  55  81 109 144 184 223 266 316
#     4   9  18  35  58  78 100 131 172 219 266 308
#     4  10  19  34  56  81 103 131 175 223 263 305
#
# _framework density 17.243411999999999
#
# number of rings (size 3 to 8) (size 9 to 14) (size 15 to 20)
#    0.000    2.231    1.538    3.923    0.000    4.308 
#    0.000    1.923    0.000    4.154    0.000    3.231 
#    0.000    0.000    0.000    0.000    0.000    0.000 
#
# Total GULP energy -290111.924363 kJ/mol
# GULP energy per Si atom -5579.075469 kJ/mol
# Density = 1.720417 g / cm^3
# Si number density = 17.243412 Si / 1000 Ang^3
#
#
#
# Elastic Constant Matrix: (Units=GPa)
#
#
# Indices 1 2 3 4 5 6 
#
# 1 25.1511 34.5927 41.6213 0.0000 0.0000 0.0000
# 2 34.5927 166.2335 103.5241 0.0000 0.0000 0.0000
# 3 41.6213 103.5241 156.6663 0.0000 0.0000 0.0000
# 4 0.0000 0.0000 0.0000 2.4649 0.0000 0.0000
# 5 0.0000 0.0000 0.0000 0.0000 14.6665 0.0000
# 6 0.0000 0.0000 0.0000 0.0000 0.0000 -298.8700
#
#
#
# Elastic Compliance Matrix: (Units=1/GPa)
#
#
# Indices 1 2 3 4 5 6 
#
# 1 0.073639 -0.005337 -0.016037 0.000000 0.000000 0.000000
# 2 -0.005337 0.010609 -0.005593 0.000000 0.000000 0.000000
# 3 -0.016037 -0.005593 0.014339 0.000000 0.000000 0.000000
# 4 0.000000 0.000000 0.000000 0.405694 0.000000 0.000000
# 5 0.000000 0.000000 0.000000 0.000000 0.068182 0.000000
# 6 0.000000 0.000000 0.000000 0.000000 0.000000 -0.003346
#
#
# Mechanical properties :
#
#
# Convention : Reuss Voigt Hill
#
# Bulk Modulus (GPa) = 22.39430 78.61411 50.50420
# Shear Modulus (GPa) = 7.83779 -45.12685 -18.64453
#
# Velocity S-wave (km/s) = 2.13430 -5.12126 -3.29181
# Velocity P-wave (km/s) = 4.36910 3.27415 3.86064
#
# Compressibility (1/GPa) = 0.04465422
#
# Stress axis : x y z
#
# Youngs Moduli (GPa) = 13.57980 94.25915 69.73963
#
# Poissons Ratio (x) = 0.50304 1.11841
# Poissons Ratio (y) = 0.07247 0.39002
# Poissons Ratio (z) = 0.21778 0.52715
#
# Static dielectric constant tensor:
#      x y z
#    x 1.587020 0.000000 0.000000 
#    y 0.000000 1.581160 0.000000 
#    z 0.000000 0.000000 1.564270 
# 
# From -- ./inp_files/15562.got.cif
#   From: 2010.05.17/outbox.cif.g08.bks.cpg/sg47_8_cif.got.tgz:15562.got - 2010.06.03 20:15:42.
