data_PCOD9383274
_publ_section_title
;
Structure prediction by ZEFSAII (Michael W. Deem and Ramdas Pophale) SiO2 
 PCOD9383274
Probable space group: P M M M
;
_chemical_formula_sum "Si O2"
_cell_formula_units_Z 36
_cell_length_a 17.769762
_cell_length_b 7.760526
_cell_length_c 17.613655
_cell_angle_alpha 90.000000
_cell_angle_beta 90.000000
_cell_angle_gamma 90.000000
_cell_volume 2428.970582
_symmetry_space_group_name_H-M "P M M M"
_symmetry_group_IT_number 47
_symmetry_cell_setting 'orthorhombic'
loop_
_space_group_symop_operation_xyz
x,y,z
-x,-y,z
x,-y,-z
-x,y,-z
-x,-y,-z
x,y,-z
-x,y,z
x,-y,z
loop_
_atom_site_type_symbol
_atom_site_label
_atom_site_fract_x
_atom_site_fract_y
_atom_site_fract_z
Si Si1 0.798370 0.795226 0.909244
Si Si2 0.085533 0.500000 0.908062
Si Si3 0.586580 0.793710 0.335364
Si Si4 0.350372 0.794700 0.820895
Si Si5 0.585743 0.295181 0.500000
Si Si6 0.500000 0.706330 0.913578
O O1 0.867423 0.671261 0.887558
O O2 0.724073 0.734358 0.864264
O O3 0.812114 0.000000 0.895480
O O4 0.785064 0.776981 0.000000
O O5 0.000000 0.500000 0.879316
O O6 0.082003 0.500000 0.000000
O O7 0.500000 0.726623 0.331971
O O8 0.633451 0.725906 0.263790
O O9 0.618888 0.757824 0.418996
O O10 0.581938 0.000000 0.327405
O O11 0.425299 0.763123 0.869694
O O12 0.340777 0.000000 0.814856
O O13 0.581569 0.500000 0.500000
O O14 0.500000 0.222114 0.500000
O O15 0.500000 0.500000 0.915474
O O16 0.500000 0.771859 0.000000
#
# Coordination Sequence:
#
# PCOD9383274 Si02
#       6
#     8   4   8   8   4   4
#     4   9  18  31  47  67  91 119 150 185 226 269
#     4   9  18  32  50  69  89 114 145 183 225 272
#     4   9  16  28  43  58  77 107 147 185 220 259
#     4  10  19  32  46  61  83 115 153 190 224 259
#     4   9  17  27  39  57  79 103 137 182 227 260
#     4  11  23  31  39  58  83 116 155 191 224 257
#
# _framework density 14.821094
#
# number of rings (size 3 to 8) (size 9 to 14) (size 15 to 20)
#    0.000    2.556    1.111    1.333    1.556    4.444 
#    0.000    2.222    0.000    0.000    0.000    0.000 
#    0.000    0.000    0.000    2.000    0.000   16.889 
#
# Total GULP energy -200536.126201 kJ/mol
# GULP energy per Si atom -5570.447950 kJ/mol
# Density = 1.478736 g / cm^3
# Si number density = 14.821094 Si / 1000 Ang^3
#
#
#
# Elastic Constant Matrix: (Units=GPa)
#
#
# Indices 1 2 3 4 5 6 
#
# 1 110.7856 31.5268 51.0027 0.0000 0.0000 0.0000
# 2 31.5268 41.0833 20.4762 0.0000 0.0000 0.0000
# 3 51.0027 20.4762 108.8990 0.0000 0.0000 0.0000
# 4 0.0000 0.0000 0.0000 -5.9536 0.0000 0.0000
# 5 0.0000 0.0000 0.0000 0.0000 5.3079 0.0000
# 6 0.0000 0.0000 0.0000 0.0000 0.0000 18.7378
#
#
#
# Elastic Compliance Matrix: (Units=1/GPa)
#
#
# Indices 1 2 3 4 5 6 
#
# 1 0.013518 -0.007965 -0.004834 0.000000 0.000000 0.000000
# 2 -0.007965 0.031550 -0.002202 0.000000 0.000000 0.000000
# 3 -0.004834 -0.002202 0.011861 0.000000 0.000000 0.000000
# 4 0.000000 0.000000 0.000000 -0.167965 0.000000 0.000000
# 5 0.000000 0.000000 0.000000 0.000000 0.188397 0.000000
# 6 0.000000 0.000000 0.000000 0.000000 0.000000 0.053368
#
#
# Mechanical properties :
#
#
# Convention : Reuss Voigt Hill
#
# Bulk Modulus (GPa) = 37.13553 51.86437 44.49995
# Shear Modulus (GPa) = 29.46263 14.13591 21.79927
#
# Velocity S-wave (km/s) = 4.46341 3.09167 3.83930
# Velocity P-wave (km/s) = 7.18839 6.91478 7.05291
#
# Compressibility (1/GPa) = 0.02692839
#
# Stress axis : x y z
#
# Youngs Moduli (GPa) = 73.97389 31.69545 84.31177
#
# Poissons Ratio (x) = 0.25244 0.40754
# Poissons Ratio (y) = 0.58917 0.18567
# Poissons Ratio (z) = 0.35757 0.06980
#
# Static dielectric constant tensor:
#      x y z
#    x 1.416240 0.000000 0.000000 
#    y 0.000000 1.523040 0.000000 
#    z 0.000000 0.000000 1.519720 
# 
# From -- ./inp_files/20597.got.cif
#   From: 2010.05.17/outbox.cif.g08.bks.cpg/sg47_11_cif.got.tgz:20597.got - 2010.06.03 20:15:42.
