data_PCOD9383570
_publ_section_title
;
Structure prediction by ZEFSAII (Michael W. Deem and Ramdas Pophale) SiO2 
 PCOD9383570
Probable space group: P M M M
;
_chemical_formula_sum "Si O2"
_cell_formula_units_Z 40
_cell_length_a 10.682088
_cell_length_b 7.458772
_cell_length_c 24.153785
_cell_angle_alpha 90.000000
_cell_angle_beta 90.000000
_cell_angle_gamma 90.000000
_cell_volume 1924.459073
_symmetry_space_group_name_H-M "P M M M"
_symmetry_group_IT_number 47
_symmetry_cell_setting 'orthorhombic'
loop_
_space_group_symop_operation_xyz
x,y,z
-x,-y,z
x,-y,-z
-x,y,-z
-x,-y,-z
x,y,-z
-x,y,z
x,-y,z
loop_
_atom_site_type_symbol
_atom_site_label
_atom_site_fract_x
_atom_site_fract_y
_atom_site_fract_z
Si Si1 0.500000 0.215852 0.065902
Si Si2 0.146029 0.297293 0.000000
Si Si3 0.765602 0.708293 0.886766
Si Si4 0.143960 0.719862 0.767072
Si Si5 0.356097 0.289780 0.317351
Si Si6 0.646412 0.784195 0.559418
O O1 0.618901 0.281264 0.100761
O O2 0.500000 0.000000 0.065022
O O3 0.500000 0.272089 0.000000
O O4 0.181675 0.206502 0.942810
O O5 0.205027 0.500000 0.000000
O O6 0.000000 0.317858 0.000000
O O7 0.807390 0.500000 0.886477
O O8 0.812654 0.779296 0.828349
O O9 0.144750 0.500000 0.765808
O O10 0.250180 0.782494 0.723884
O O11 0.000000 0.774003 0.755990
O O12 0.500000 0.215755 0.313920
O O13 0.367671 0.500000 0.304603
O O14 0.307727 0.275004 0.380648
O O15 0.701073 0.723593 0.500000
O O16 0.500000 0.730390 0.558912
O O17 0.650811 0.000000 0.559505
#
# Coordination Sequence:
#
# PCOD9383570 Si02
#       6
#     4   4   8   8   8   8
#     4  11  23  37  51  71 103 133 158 197 256 309
#     4   9  16  27  47  76 100 117 154 211 254 287
#     4  10  19  32  54  77  97 125 166 207 245 293
#     4   9  18  32  51  75 103 133 164 204 252 296
#     4   9  17  28  45  72 102 130 162 200 243 292
#     4   8  14  26  45  69  97 128 162 202 247 290
#
# _framework density 20.785063000000001
#
# number of rings (size 3 to 8) (size 9 to 14) (size 15 to 20)
#    0.000    2.800    1.000    1.500    1.400    3.200 
#    0.000    3.000    0.000    5.400    0.000    4.200 
#    0.000    0.000    0.000    0.000    0.000    0.000 
#
# Total GULP energy -222760.072033 kJ/mol
# GULP energy per Si atom -5569.001801 kJ/mol
# Density = 2.073776 g / cm^3
# Si number density = 20.785063 Si / 1000 Ang^3
#
#
#
# Elastic Constant Matrix: (Units=GPa)
#
#
# Indices 1 2 3 4 5 6 
#
# 1 120.2765 -1.0228 90.3721 0.0000 0.0000 0.0000
# 2 -1.0228 64.0186 5.9316 0.0000 0.0000 0.0000
# 3 90.3721 5.9316 207.4723 0.0000 0.0000 0.0000
# 4 0.0000 0.0000 0.0000 74.2678 0.0000 0.0000
# 5 0.0000 0.0000 0.0000 0.0000 -4.0911 0.0000
# 6 0.0000 0.0000 0.0000 0.0000 0.0000 -36.3082
#
#
#
# Elastic Compliance Matrix: (Units=1/GPa)
#
#
# Indices 1 2 3 4 5 6 
#
# 1 0.012390 0.000700 -0.005417 0.000000 0.000000 0.000000
# 2 0.000700 0.015701 -0.000754 0.000000 0.000000 0.000000
# 3 -0.005417 -0.000754 0.007201 0.000000 0.000000 0.000000
# 4 0.000000 0.000000 0.000000 0.013465 0.000000 0.000000
# 5 0.000000 0.000000 0.000000 0.000000 -0.244433 0.000000
# 6 0.000000 0.000000 0.000000 0.000000 0.000000 -0.027542
#
#
# Mechanical properties :
#
#
# Convention : Reuss Voigt Hill
#
# Bulk Modulus (GPa) = 41.06610 64.70323 52.88467
# Shear Modulus (GPa) = -24.49077 26.53948 1.02435
#
# Velocity S-wave (km/s) = -3.43634 3.57718 0.70278
# Velocity P-wave (km/s) = 2.01390 6.94686 5.11443
#
# Compressibility (1/GPa) = 0.02435098
#
# Stress axis : x y z
#
# Youngs Moduli (GPa) = 80.70791 63.68827 138.86813
#
# Poissons Ratio (x) = -0.04457 0.75226
# Poissons Ratio (y) = -0.05649 0.10467
# Poissons Ratio (z) = 0.43720 0.04801
#
# Static dielectric constant tensor:
#      x y z
#    x 1.820830 0.000000 0.000000 
#    y 0.000000 1.815670 0.000000 
#    z 0.000000 0.000000 1.783960 
# 
# From -- ./inp_files/30362.got.cif
#   From: 2010.05.17/outbox.cif.g08.bks.cpg/sg47_16_cif.got.tgz:30362.got - 2010.06.03 20:15:42.
