data_PCOD9383350
_publ_section_title
;
Structure prediction by ZEFSAII (Michael W. Deem and Ramdas Pophale) SiO2 
 PCOD9383350
Probable space group: P M M M
;
_chemical_formula_sum "Si O2"
_cell_formula_units_Z 52
_cell_length_a 26.820703
_cell_length_b 12.901121
_cell_length_c 9.057218
_cell_angle_alpha 90.000000
_cell_angle_beta 90.000000
_cell_angle_gamma 90.000000
_cell_volume 3133.952621
_symmetry_space_group_name_H-M "P M M M"
_symmetry_group_IT_number 47
_symmetry_cell_setting 'orthorhombic'
loop_
_space_group_symop_operation_xyz
x,y,z
-x,-y,z
x,-y,-z
-x,y,-z
-x,-y,-z
x,y,-z
-x,y,z
x,-y,z
loop_
_atom_site_type_symbol
_atom_site_label
_atom_site_fract_x
_atom_site_fract_y
_atom_site_fract_z
Si Si1 0.058867 0.192124 0.175365
Si Si2 0.767029 0.000000 0.676327
Si Si3 0.113659 0.621450 0.675912
Si Si4 0.289863 0.191620 0.822341
Si Si5 0.500000 0.874042 0.670687
Si Si6 0.601990 0.122458 0.176611
Si Si7 0.884849 0.000000 0.323266
Si Si8 0.219651 0.380233 0.824375
O O1 0.076467 0.301149 0.242660
O O2 0.089529 0.101059 0.253864
O O3 0.000000 0.176467 0.199303
O O4 0.068397 0.190094 0.000000
O O5 0.741007 0.899472 0.745532
O O6 0.760791 0.000000 0.500000
O O7 0.825917 0.000000 0.709382
O O8 0.111439 0.636895 0.500000
O O9 0.103438 0.500000 0.707291
O O10 0.169407 0.643930 0.734895
O O11 0.347782 0.181883 0.779010
O O12 0.263435 0.300312 0.788160
O O13 0.287838 0.176040 0.000000
O O14 0.500000 0.844859 0.500000
O O15 0.551144 0.840470 0.748154
O O16 0.500000 0.000000 0.680515
O O17 0.609467 0.000000 0.211947
O O18 0.596144 0.129615 0.000000
O O19 0.891263 0.000000 0.500000
O O20 0.233126 0.500000 0.795594
O O21 0.208829 0.370581 0.000000
#
# Coordination Sequence:
#
# PCOD9383350 Si02
#       8
#     8   4   8   8   4   8   4   8
#     4  11  24  40  58  80 104 132 169 212 256 303
#     4  11  23  34  48  74 105 132 164 203 245 292
#     4  10  21  37  57  80 106 135 168 208 256 310
#     4  10  19  32  50  73 102 135 169 204 247 299
#     4   9  17  27  41  63  92 127 164 204 249 292
#     4   9  16  28  44  64  93 130 168 202 241 293
#     4  11  24  40  57  78 105 139 174 207 248 302
#     4   9  18  33  54  78 103 133 169 209 252 299
#
# _framework density 16.592465000000001
#
# number of rings (size 3 to 8) (size 9 to 14) (size 15 to 20)
#    0.000    2.077    0.769    2.769    0.000    9.231 
#    0.000    1.538    0.000    0.000    0.000    0.538 
#    0.000    4.308    0.000    0.000    0.000    0.000 
#
# Total GULP energy -290259.429176 kJ/mol
# GULP energy per Si atom -5581.912100 kJ/mol
# Density = 1.655470 g / cm^3
# Si number density = 16.592465 Si / 1000 Ang^3
#
#
#
# Elastic Constant Matrix: (Units=GPa)
#
#
# Indices 1 2 3 4 5 6 
#
# 1 130.8618 55.5171 64.7523 0.0000 0.0000 0.0000
# 2 55.5171 57.8755 35.9147 0.0000 0.0000 0.0000
# 3 64.7523 35.9147 49.6936 0.0000 0.0000 0.0000
# 4 0.0000 0.0000 0.0000 18.1440 0.0000 0.0000
# 5 0.0000 0.0000 0.0000 0.0000 0.1950 0.0000
# 6 0.0000 0.0000 0.0000 0.0000 0.0000 -23.0223
#
#
#
# Elastic Compliance Matrix: (Units=1/GPa)
#
#
# Indices 1 2 3 4 5 6 
#
# 1 0.022673 -0.006193 -0.025067 0.000000 0.000000 0.000000
# 2 -0.006193 0.033021 -0.015795 0.000000 0.000000 0.000000
# 3 -0.025067 -0.015795 0.064202 0.000000 0.000000 0.000000
# 4 0.000000 0.000000 0.000000 0.055115 0.000000 0.000000
# 5 0.000000 0.000000 0.000000 0.000000 5.128457 0.000000
# 6 0.000000 0.000000 0.000000 0.000000 0.000000 -0.043436
#
#
# Mechanical properties :
#
#
# Convention : Reuss Voigt Hill
#
# Bulk Modulus (GPa) = 38.78255 61.19992 49.99124
# Shear Modulus (GPa) = 0.93236 4.54645 2.73941
#
# Velocity S-wave (km/s) = 0.75042 1.65711 1.28630
# Velocity P-wave (km/s) = 4.91683 6.37382 5.69213
#
# Compressibility (1/GPa) = 0.02578479
#
# Stress axis : x y z
#
# Youngs Moduli (GPa) = 44.10580 30.28379 15.57582
#
# Poissons Ratio (x) = 0.18756 0.39044
# Poissons Ratio (y) = 0.27316 0.24602
# Poissons Ratio (z) = 1.10561 0.47833
#
# Static dielectric constant tensor:
#      x y z
#    x 1.544920 0.000000 0.000000 
#    y 0.000000 1.541890 0.000000 
#    z 0.000000 0.000000 1.553850 
# 
# From -- ./inp_files/13347.got.cif
#   From: 2010.05.17/outbox.cif.g08.bks.cpg/sg47_7_cif.got.tgz:13347.got - 2010.06.03 20:15:42.
