data_PCOD9383312
_publ_section_title
;
Structure prediction by ZEFSAII (Michael W. Deem and Ramdas Pophale) SiO2 
 PCOD9383312
Probable space group: P M M M
;
_chemical_formula_sum "Si O2"
_cell_formula_units_Z 64
_cell_length_a 31.880473
_cell_length_b 9.286411
_cell_length_c 14.695490
_cell_angle_alpha 90.000000
_cell_angle_beta 90.000000
_cell_angle_gamma 90.000000
_cell_volume 4350.675866
_symmetry_space_group_name_H-M "P M M M"
_symmetry_group_IT_number 47
_symmetry_cell_setting 'orthorhombic'
loop_
_space_group_symop_operation_xyz
x,y,z
-x,-y,z
x,-y,-z
-x,y,-z
-x,-y,-z
x,y,-z
-x,y,z
x,-y,z
loop_
_atom_site_type_symbol
_atom_site_label
_atom_site_fract_x
_atom_site_fract_y
_atom_site_fract_z
Si Si1 0.876978 0.671760 0.106921
Si Si2 0.714212 0.828730 0.108425
Si Si3 0.370821 0.334848 0.110697
Si Si4 0.789991 0.672677 0.791113
Si Si5 0.546807 0.167749 0.889387
Si Si6 0.827787 0.671801 0.602360
Si Si7 0.917047 0.827290 0.601337
Si Si8 0.046833 0.173383 0.793361
O O1 0.883176 0.500000 0.117690
O O2 0.833746 0.708493 0.158255
O O3 0.916261 0.753667 0.149968
O O4 0.872998 0.703631 0.000000
O O5 0.669947 0.757493 0.135758
O O6 0.751974 0.756183 0.162985
O O7 0.713039 0.000000 0.122018
O O8 0.720120 0.802048 0.000000
O O9 0.366983 0.500000 0.140452
O O10 0.414264 0.263050 0.142321
O O11 0.372082 0.334760 0.000000
O O12 0.783494 0.500000 0.799996
O O13 0.797051 0.708800 0.684957
O O14 0.500000 0.214015 0.860282
O O15 0.552615 0.000000 0.864627
O O16 0.546934 0.172566 0.000000
O O17 0.812243 0.702838 0.500000
O O18 0.835661 0.500000 0.608749
O O19 0.871973 0.752587 0.613935
O O20 0.932872 0.788479 0.500000
O O21 0.945898 0.790040 0.686883
O O22 0.911435 0.000000 0.602961
O O23 0.000000 0.217256 0.821825
O O24 0.049810 0.000000 0.801902
#
# Coordination Sequence:
#
# PCOD9383312 Si02
#       8
#     8   8   8   8   8   8   8   8
#     4  10  21  36  52  69  88 112 143 178 214 250
#     4  10  20  31  43  61  85 114 148 184 221 260
#     4   9  16  25  37  53  76 107 143 185 229 268
#     4  10  19  32  50  69  89 111 137 172 211 253
#     4   8  13  21  33  49  71 102 141 185 230 271
#     4   9  17  30  50  73  93 112 134 163 203 250
#     4   9  17  30  49  71  93 115 137 164 201 245
#     4  10  21  35  50  69  92 116 142 172 206 247
#
# _framework density 14.710357999999999
#
# number of rings (size 3 to 8) (size 9 to 14) (size 15 to 20)
#    0.000    2.625    1.250    1.500    0.000    5.000 
#    0.000    3.750    0.000    0.000    0.000    2.625 
#    0.000    0.000    0.000    0.000    0.000    0.625 
#
# Total GULP energy -356601.476188 kJ/mol
# GULP energy per Si atom -5571.898065 kJ/mol
# Density = 1.467688 g / cm^3
# Si number density = 14.710358 Si / 1000 Ang^3
#
#
#
# Elastic Constant Matrix: (Units=GPa)
#
#
# Indices 1 2 3 4 5 6 
#
# 1 129.1818 56.6918 50.2467 0.0000 0.0000 0.0000
# 2 56.6918 43.2221 33.5739 0.0000 0.0000 0.0000
# 3 50.2467 33.5739 63.2594 0.0000 0.0000 0.0000
# 4 0.0000 0.0000 0.0000 16.6206 0.0000 0.0000
# 5 0.0000 0.0000 0.0000 0.0000 3.7901 0.0000
# 6 0.0000 0.0000 0.0000 0.0000 0.0000 11.2767
#
#
#
# Elastic Compliance Matrix: (Units=1/GPa)
#
#
# Indices 1 2 3 4 5 6 
#
# 1 0.018592 -0.021974 -0.003105 0.000000 0.000000 0.000000
# 2 -0.021974 0.065336 -0.017222 0.000000 0.000000 0.000000
# 3 -0.003105 -0.017222 0.027415 0.000000 0.000000 0.000000
# 4 0.000000 0.000000 0.000000 0.060166 0.000000 0.000000
# 5 0.000000 0.000000 0.000000 0.000000 0.263848 0.000000
# 6 0.000000 0.000000 0.000000 0.000000 0.000000 0.088678
#
#
# Mechanical properties :
#
#
# Convention : Reuss Voigt Hill
#
# Bulk Modulus (GPa) = 37.39703 57.40979 47.40341
# Shear Modulus (GPa) = 8.09647 12.68086 10.38867
#
# Velocity S-wave (km/s) = 2.34859 2.93923 2.66035
# Velocity P-wave (km/s) = 5.72992 7.11550 6.45996
#
# Compressibility (1/GPa) = 0.02674009
#
# Stress axis : x y z
#
# Youngs Moduli (GPa) = 53.78536 15.30542 36.47662
#
# Poissons Ratio (x) = 0.33633 0.11327
# Poissons Ratio (y) = 1.18190 0.62820
# Poissons Ratio (z) = 0.16702 0.26359
#
# Static dielectric constant tensor:
#      x y z
#    x 1.470360 0.000000 0.000000 
#    y 0.000000 1.490980 0.000000 
#    z 0.000000 0.000000 1.486860 
# 
# From -- ./inp_files/14315.got.cif
#   From: 2010.05.17/outbox.cif.g08.bks.cpg/sg47_8_cif.got.tgz:14315.got - 2010.06.03 20:15:42.
