data_PCOD9383551
_publ_section_title
;
Structure prediction by ZEFSAII (Michael W. Deem and Ramdas Pophale) SiO2 
 PCOD9383551
Probable space group: P M M M
;
_chemical_formula_sum "Si O2"
_cell_formula_units_Z 64
_cell_length_a 15.488539
_cell_length_b 8.549057
_cell_length_c 25.463529
_cell_angle_alpha 90.000000
_cell_angle_beta 90.000000
_cell_angle_gamma 90.000000
_cell_volume 3371.687058
_symmetry_space_group_name_H-M "P M M M"
_symmetry_group_IT_number 47
_symmetry_cell_setting 'orthorhombic'
loop_
_space_group_symop_operation_xyz
x,y,z
-x,-y,z
x,-y,-z
-x,y,-z
-x,-y,-z
x,y,-z
-x,y,z
x,-y,z
loop_
_atom_site_type_symbol
_atom_site_label
_atom_site_fract_x
_atom_site_fract_y
_atom_site_fract_z
Si Si1 0.095202 0.677880 0.843369
Si Si2 0.278519 0.685037 0.738098
Si Si3 0.270465 0.812555 0.440941
Si Si4 0.904642 0.752960 0.722041
Si Si5 0.094054 0.322080 0.601300
Si Si6 0.723275 0.817919 0.850356
Si Si7 0.600098 0.311676 0.060778
Si Si8 0.399485 0.810691 0.650149
O O1 0.107668 0.500000 0.861747
O O2 0.093863 0.672739 0.779412
O O3 0.175527 0.781825 0.860250
O O4 0.000000 0.733762 0.859580
O O5 0.255977 0.500000 0.730587
O O6 0.196893 0.799735 0.723932
O O7 0.299311 0.716526 0.798802
O O8 0.356503 0.731133 0.700592
O O9 0.281688 0.750968 0.500000
O O10 0.176030 0.769730 0.419402
O O11 0.342888 0.758620 0.399942
O O12 0.276804 0.000000 0.442973
O O13 0.905575 0.673792 0.664927
O O14 0.000000 0.835193 0.722177
O O15 0.099954 0.500000 0.582270
O O16 0.000000 0.256589 0.585683
O O17 0.664766 0.768140 0.898987
O O18 0.711774 0.000000 0.838465
O O19 0.500000 0.271223 0.072060
O O20 0.607851 0.500000 0.065161
O O21 0.617634 0.270006 0.000000
O O22 0.500000 0.772224 0.644491
O O23 0.392437 0.000000 0.654956
#
# Coordination Sequence:
#
# PCOD9383551 Si02
#       8
#     8   8   8   8   8   8   8   8
#     4   9  17  31  52  78 111 152 195 234 272 319
#     4  11  21  35  57  82 111 146 183 222 267 323
#     4  10  22  39  57  77 103 135 172 217 268 325
#     4   9  16  28  50  79 107 136 172 214 260 311
#     4  10  19  32  53  80 108 138 173 212 257 313
#     4  11  22  34  53  84 122 157 187 225 275 332
#     4   9  19  38  63  87 111 144 191 243 286 327
#     4  10  22  40  59  78 102 132 171 223 280 334
#
# _framework density 18.981594999999999
#
# number of rings (size 3 to 8) (size 9 to 14) (size 15 to 20)
#    0.000    2.125    1.250    3.750    0.000    5.250 
#    0.000    3.125    0.000    3.750    0.000    4.375 
#    0.000    0.000    0.000    0.000    0.000    0.000 
#
# Total GULP energy -356274.921191 kJ/mol
# GULP energy per Si atom -5566.795644 kJ/mol
# Density = 1.893839 g / cm^3
# Si number density = 18.981595 Si / 1000 Ang^3
#
#
#
# Elastic Constant Matrix: (Units=GPa)
#
#
# Indices 1 2 3 4 5 6 
#
# 1 153.3394 30.5661 70.8863 0.0000 0.0000 0.0000
# 2 30.5661 37.6180 23.1741 0.0000 0.0000 0.0000
# 3 70.8863 23.1741 82.7230 0.0000 0.0000 0.0000
# 4 0.0000 0.0000 0.0000 -18.2319 0.0000 0.0000
# 5 0.0000 0.0000 0.0000 0.0000 17.5900 0.0000
# 6 0.0000 0.0000 0.0000 0.0000 0.0000 -34.4534
#
#
#
# Elastic Compliance Matrix: (Units=1/GPa)
#
#
# Indices 1 2 3 4 5 6 
#
# 1 0.011247 -0.003869 -0.008554 0.000000 0.000000 0.000000
# 2 -0.003869 0.033459 -0.006058 0.000000 0.000000 0.000000
# 3 -0.008554 -0.006058 0.021115 0.000000 0.000000 0.000000
# 4 0.000000 0.000000 0.000000 -0.054849 0.000000 0.000000
# 5 0.000000 0.000000 0.000000 0.000000 0.056851 0.000000
# 6 0.000000 0.000000 0.000000 0.000000 0.000000 -0.029025
#
#
# Mechanical properties :
#
#
# Convention : Reuss Voigt Hill
#
# Bulk Modulus (GPa) = 34.65021 58.10370 46.37696
# Shear Modulus (GPa) = 58.56249 2.91786 30.74017
#
# Velocity S-wave (km/s) = 5.56051 1.24119 4.02863
# Velocity P-wave (km/s) = 7.71491 5.72111 6.79157
#
# Compressibility (1/GPa) = 0.02885985
#
# Stress axis : x y z
#
# Youngs Moduli (GPa) = 88.91233 29.88773 47.35892
#
# Poissons Ratio (x) = 0.11564 0.40510
# Poissons Ratio (y) = 0.34402 0.28688
# Poissons Ratio (z) = 0.76054 0.18105
#
# Static dielectric constant tensor:
#      x y z
#    x 1.676590 0.000000 0.000000 
#    y 0.000000 1.663130 0.000000 
#    z 0.000000 0.000000 1.640770 
# 
# From -- ./inp_files/32812.got.cif
#   From: 2010.05.17/outbox.cif.g08.bks.cpg/sg47_17_cif.got.tgz:32812.got - 2010.06.03 20:15:42.
