data_PCOD9383717
_publ_section_title
;
Structure prediction by ZEFSAII (Michael W. Deem and Ramdas Pophale) SiO2 
 PCOD9383717
Probable space group: P M M M
;
_chemical_formula_sum "Si O2"
_cell_formula_units_Z 48
_cell_length_a 7.413045
_cell_length_b 15.774082
_cell_length_c 17.550367
_cell_angle_alpha 90.000000
_cell_angle_beta 90.000000
_cell_angle_gamma 90.000000
_cell_volume 2052.234259
_symmetry_space_group_name_H-M "P M M M"
_symmetry_group_IT_number 47
_symmetry_cell_setting 'orthorhombic'
loop_
_space_group_symop_operation_xyz
x,y,z
-x,-y,z
x,-y,-z
-x,y,-z
-x,-y,-z
x,y,-z
-x,y,z
x,-y,z
loop_
_atom_site_type_symbol
_atom_site_label
_atom_site_fract_x
_atom_site_fract_y
_atom_site_fract_z
Si Si1 0.288759 0.590504 0.246978
Si Si2 0.220371 0.833461 0.153871
Si Si3 0.221241 0.402295 0.500000
Si Si4 0.792176 0.722805 0.369055
Si Si5 0.220895 0.097225 0.682259
Si Si6 0.801275 0.902617 0.000000
Si Si7 0.783370 0.652632 0.912244
O O1 0.500000 0.593818 0.263526
O O2 0.215719 0.500000 0.277183
O O3 0.210032 0.673999 0.287658
O O4 0.265455 0.589742 0.155765
O O5 0.278206 0.876215 0.232171
O O6 0.284668 0.883259 0.079968
O O7 0.276130 0.739861 0.128037
O O8 0.000000 0.834785 0.158477
O O9 0.281968 0.500000 0.500000
O O10 0.282442 0.346441 0.427655
O O11 0.000000 0.405966 0.500000
O O12 0.718518 0.818939 0.365063
O O13 0.000000 0.734287 0.391236
O O14 0.000000 0.096571 0.679941
O O15 0.276710 0.000000 0.663739
O O16 0.000000 0.856645 0.000000
O O17 0.831383 0.000000 0.000000
O O18 0.000000 0.653041 0.917342
O O19 0.718058 0.642450 0.000000
#
# Coordination Sequence:
#
# PCOD9383717 Si02
#       7
#     8   8   4   8   8   4   8
#     4  11  24  39  55  77 106 142 184 229 281 336
#     4   9  14  23  39  65  99 131 167 214 262 308
#     4   9  18  32  54  86 116 143 179 225 278 327
#     4  10  19  35  59  84 112 144 180 223 269 325
#     4   9  16  26  45  76 110 142 176 216 265 319
#     4   9  14  18  30  58  96 131 160 202 263 313
#     4  10  19  33  54  78 104 138 185 234 276 323
#
# _framework density 23.389140999999999
#
# number of rings (size 3 to 8) (size 9 to 14) (size 15 to 20)
#    0.000    2.333    2.500    1.500    0.000    4.667 
#    0.000    2.500    0.000    4.500    0.000    0.000 
#    0.000    3.333    0.000    0.000    0.000    0.000 
#
# Total GULP energy -267399.623910 kJ/mol
# GULP energy per Si atom -5570.825498 kJ/mol
# Density = 2.333591 g / cm^3
# Si number density = 23.389141 Si / 1000 Ang^3
#
#
#
# Elastic Constant Matrix: (Units=GPa)
#
#
# Indices 1 2 3 4 5 6 
#
# 1 77.2040 6.0141 -3.5059 0.0000 0.0000 0.0000
# 2 6.0141 223.7115 63.9277 0.0000 0.0000 0.0000
# 3 -3.5059 63.9277 116.6581 0.0000 0.0000 0.0000
# 4 0.0000 0.0000 0.0000 274.1674 0.0000 0.0000
# 5 0.0000 0.0000 0.0000 0.0000 -54.3767 0.0000
# 6 0.0000 0.0000 0.0000 0.0000 0.0000 3.9291
#
#
#
# Elastic Compliance Matrix: (Units=1/GPa)
#
#
# Indices 1 2 3 4 5 6 
#
# 1 0.013027 -0.000548 0.000692 0.000000 0.000000 0.000000
# 2 -0.000548 0.005323 -0.002933 0.000000 0.000000 0.000000
# 3 0.000692 -0.002933 0.010200 0.000000 0.000000 0.000000
# 4 0.000000 0.000000 0.000000 0.003647 0.000000 0.000000
# 5 0.000000 0.000000 0.000000 0.000000 -0.018390 0.000000
# 6 0.000000 0.000000 0.000000 0.000000 0.000000 0.254513
#
#
# Mechanical properties :
#
#
# Convention : Reuss Voigt Hill
#
# Bulk Modulus (GPa) = 43.53319 61.16059 52.34689
# Shear Modulus (GPa) = 17.75840 68.15314 42.95577
#
# Velocity S-wave (km/s) = 2.75845 5.40389 4.29017
# Velocity P-wave (km/s) = 5.36641 8.07106 6.85348
#
# Compressibility (1/GPa) = 0.02297098
#
# Stress axis : x y z
#
# Youngs Moduli (GPa) = 76.76488 187.86292 98.03591
#
# Poissons Ratio (x) = 0.10292 -0.06781
# Poissons Ratio (y) = 0.04206 0.28758
# Poissons Ratio (z) = -0.05310 0.55108
#
# Static dielectric constant tensor:
#      x y z
#    x 1.895770 0.000000 0.000000 
#    y 0.000000 1.954290 0.000000 
#    z 0.000000 0.000000 1.715580 
# 
# From -- ./inp_files/26519.got.cif
#   From: 2010.05.17/outbox.cif.g08.bks.cpg/sg47_14_cif.got.tgz:26519.got - 2010.06.03 20:15:42.
