data_PCOD9383246
_publ_section_title
;
Structure prediction by ZEFSAII (Michael W. Deem and Ramdas Pophale) SiO2 
 PCOD9383246
Probable space group: P M M M
;
_chemical_formula_sum "Si O2"
_cell_formula_units_Z 52
_cell_length_a 7.376186
_cell_length_b 23.082601
_cell_length_c 14.331763
_cell_angle_alpha 90.000000
_cell_angle_beta 90.000000
_cell_angle_gamma 90.000000
_cell_volume 2440.148302
_symmetry_space_group_name_H-M "P M M M"
_symmetry_group_IT_number 47
_symmetry_cell_setting 'orthorhombic'
loop_
_space_group_symop_operation_xyz
x,y,z
-x,-y,z
x,-y,-z
-x,y,-z
-x,-y,-z
x,y,-z
-x,y,z
x,-y,z
loop_
_atom_site_type_symbol
_atom_site_label
_atom_site_fract_x
_atom_site_fract_y
_atom_site_fract_z
Si Si1 0.715839 0.114407 0.500000
Si Si2 0.778603 0.721012 0.894745
Si Si3 0.786506 0.251975 0.500000
Si Si4 0.210241 0.935676 0.696574
Si Si5 0.207328 0.313297 0.310141
Si Si6 0.219839 0.064253 0.000000
Si Si7 0.780530 0.849063 0.159327
Si Si8 0.719101 0.435705 0.608645
O O1 0.500000 0.113541 0.500000
O O2 0.770810 0.182325 0.500000
O O3 0.782929 0.079134 0.588829
O O4 0.718899 0.692782 0.795721
O O5 0.719870 0.787498 0.878138
O O6 0.000000 0.717262 0.897422
O O7 0.720005 0.702383 0.000000
O O8 0.713934 0.279490 0.598205
O O9 0.000000 0.267513 0.500000
O O10 0.283611 0.876847 0.744177
O O11 0.000000 0.939164 0.727316
O O12 0.287738 0.000000 0.716219
O O13 0.210426 0.380784 0.336156
O O14 0.000000 0.291319 0.303354
O O15 0.272305 0.100719 0.088793
O O16 0.000000 0.062017 0.000000
O O17 0.289699 0.000000 0.000000
O O18 0.000000 0.842813 0.161260
O O19 0.771817 0.429806 0.500000
O O20 0.500000 0.433748 0.611870
O O21 0.775203 0.500000 0.640588
#
# Coordination Sequence:
#
# PCOD9383246 Si02
#       8
#     4   8   4   8   8   4   8   8
#     4  12  25  37  50  68  93 130 173 211 247 298
#     4   9  16  27  44  69 102 139 172 205 253 306
#     4  10  20  35  52  77 108 134 165 208 261 310
#     4  10  20  34  52  72  95 125 160 203 260 318
#     4  10  19  31  52  80 108 138 173 213 252 295
#     4   9  14  20  36  66  99 123 150 195 248 302
#     4   9  15  26  44  68  97 127 158 198 251 305
#     4   9  18  33  53  78 110 144 172 204 253 306
#
# _framework density 21.310181
#
# number of rings (size 3 to 8) (size 9 to 14) (size 15 to 20)
#    0.000    2.385    1.538    2.769    0.000    6.462 
#    0.000    0.769    0.000    0.923    0.000    3.769 
#    0.000    1.846    0.000    0.000    0.000    0.000 
#
# Total GULP energy -289830.856912 kJ/mol
# GULP energy per Si atom -5573.670325 kJ/mol
# Density = 2.126168 g / cm^3
# Si number density = 21.310181 Si / 1000 Ang^3
#
#
#
# Elastic Constant Matrix: (Units=GPa)
#
#
# Indices 1 2 3 4 5 6 
#
# 1 72.5733 -5.1763 2.2924 0.0000 0.0000 0.0000
# 2 -5.1763 104.0506 36.4750 0.0000 0.0000 0.0000
# 3 2.2924 36.4750 131.8564 0.0000 0.0000 0.0000
# 4 0.0000 0.0000 0.0000 -273.7128 0.0000 0.0000
# 5 0.0000 0.0000 0.0000 0.0000 -72.9315 0.0000
# 6 0.0000 0.0000 0.0000 0.0000 0.0000 36.0342
#
#
#
# Elastic Compliance Matrix: (Units=1/GPa)
#
#
# Indices 1 2 3 4 5 6 
#
# 1 0.013855 0.000857 -0.000478 0.000000 0.000000 0.000000
# 2 0.000857 0.010696 -0.002974 0.000000 0.000000 0.000000
# 3 -0.000478 -0.002974 0.008415 0.000000 0.000000 0.000000
# 4 0.000000 0.000000 0.000000 -0.003653 0.000000 0.000000
# 5 0.000000 0.000000 0.000000 0.000000 -0.013711 0.000000
# 6 0.000000 0.000000 0.000000 0.000000 0.000000 0.027751
#
#
# Mechanical properties :
#
#
# Convention : Reuss Voigt Hill
#
# Bulk Modulus (GPa) = 36.00155 41.74028 38.87091
# Shear Modulus (GPa) = 86.50400 -43.79608 21.35396
#
# Velocity S-wave (km/s) = 6.37816 -4.53832 3.16896
# Velocity P-wave (km/s) = 8.43635 2.79861 5.62760
#
# Compressibility (1/GPa) = 0.02777658
#
# Stress axis : x y z
#
# Youngs Moduli (GPa) = 72.17411 93.49523 118.83682
#
# Poissons Ratio (x) = -0.08011 0.05679
# Poissons Ratio (y) = -0.06184 0.35338
# Poissons Ratio (z) = 0.03449 0.27802
#
# Static dielectric constant tensor:
#      x y z
#    x 1.887270 0.000000 0.000000 
#    y 0.000000 1.736510 0.000000 
#    z 0.000000 0.000000 1.808530 
# 
# From -- ./inp_files/21543.got.cif
#   From: 2010.05.17/outbox.cif.g08.bks.cpg/sg47_11_cif.got.tgz:21543.got - 2010.06.03 20:15:42.
