data_PCOD9383467
_publ_section_title
;
Structure prediction by ZEFSAII (Michael W. Deem and Ramdas Pophale) SiO2 
 PCOD9383467
Probable space group: P M M M
;
_chemical_formula_sum "Si O2"
_cell_formula_units_Z 48
_cell_length_a 15.992299
_cell_length_b 7.822798
_cell_length_c 19.543434
_cell_angle_alpha 90.000000
_cell_angle_beta 90.000000
_cell_angle_gamma 90.000000
_cell_volume 2444.972020
_symmetry_space_group_name_H-M "P M M M"
_symmetry_group_IT_number 47
_symmetry_cell_setting 'orthorhombic'
loop_
_space_group_symop_operation_xyz
x,y,z
-x,-y,z
x,-y,-z
-x,y,-z
-x,-y,-z
x,y,-z
-x,y,z
x,-y,z
loop_
_atom_site_type_symbol
_atom_site_label
_atom_site_fract_x
_atom_site_fract_y
_atom_site_fract_z
Si Si1 0.500000 0.708870 0.421927
Si Si2 0.339221 0.706895 0.663966
Si Si3 0.727289 0.204536 0.921980
Si Si4 0.090352 0.705797 0.919829
Si Si5 0.595579 0.795053 0.187681
Si Si6 0.000000 0.203672 0.578271
Si Si7 0.818608 0.704316 0.578780
O O1 0.500000 0.500000 0.422350
O O2 0.500000 0.766120 0.500000
O O3 0.582465 0.764064 0.381969
O O4 0.337733 0.500000 0.663185
O O5 0.357837 0.760321 0.741100
O O6 0.254268 0.769351 0.628226
O O7 0.820117 0.237187 0.891849
O O8 0.653382 0.271814 0.873971
O O9 0.718144 0.000000 0.926026
O O10 0.723833 0.272722 0.000000
O O11 0.090110 0.500000 0.918143
O O12 0.000000 0.764025 0.890991
O O13 0.090983 0.758988 0.000000
O O14 0.500000 0.728416 0.189182
O O15 0.590102 0.000000 0.179982
O O16 0.088774 0.260416 0.607407
O O17 0.000000 0.272572 0.500000
O O18 0.000000 0.000000 0.576070
O O19 0.812623 0.771257 0.500000
O O20 0.808849 0.500000 0.574124
#
# Coordination Sequence:
#
# PCOD9383467 Si02
#       7
#     4   8   8   8   8   4   8
#     4   9  16  28  49  77 104 127 160 206 247 287
#     4  10  19  32  52  76 100 131 168 205 248 298
#     4   9  18  32  51  75  99 127 168 211 246 287
#     4   8  14  26  46  73 103 130 154 188 242 299
#     4  10  21  36  52  70  98 135 168 204 254 304
#     4   9  17  29  47  73 103 135 168 203 248 297
#     4   9  17  30  50  76 103 131 166 208 249 289
#
# _framework density 19.632127000000001
#
# number of rings (size 3 to 8) (size 9 to 14) (size 15 to 20)
#    0.000    2.833    0.833    1.250    0.000    5.000 
#    0.000    3.333    1.833    2.000    0.000    3.500 
#    0.000    0.000    0.000    0.000    0.000    0.000 
#
# Total GULP energy -267471.003875 kJ/mol
# GULP energy per Si atom -5572.312581 kJ/mol
# Density = 1.958744 g / cm^3
# Si number density = 19.632127 Si / 1000 Ang^3
#
#
#
# Elastic Constant Matrix: (Units=GPa)
#
#
# Indices 1 2 3 4 5 6 
#
# 1 214.3504 7.8699 84.5124 0.0000 0.0000 0.0000
# 2 7.8699 21.9029 2.7666 0.0000 0.0000 0.0000
# 3 84.5124 2.7666 92.7684 0.0000 0.0000 0.0000
# 4 0.0000 0.0000 0.0000 16.7570 0.0000 0.0000
# 5 0.0000 0.0000 0.0000 0.0000 57.0383 0.0000
# 6 0.0000 0.0000 0.0000 0.0000 0.0000 44.9921
#
#
#
# Elastic Compliance Matrix: (Units=1/GPa)
#
#
# Indices 1 2 3 4 5 6 
#
# 1 0.007350 -0.001802 -0.006642 0.000000 0.000000 0.000000
# 2 -0.001802 0.046270 0.000262 0.000000 0.000000 0.000000
# 3 -0.006642 0.000262 0.016823 0.000000 0.000000 0.000000
# 4 0.000000 0.000000 0.000000 0.059676 0.000000 0.000000
# 5 0.000000 0.000000 0.000000 0.000000 0.017532 0.000000
# 6 0.000000 0.000000 0.000000 0.000000 0.000000 0.022226
#
#
# Mechanical properties :
#
#
# Convention : Reuss Voigt Hill
#
# Bulk Modulus (GPa) = 18.49171 57.70216 38.09693
# Shear Modulus (GPa) = 24.47741 39.34903 31.91322
#
# Velocity S-wave (km/s) = 3.53484 4.48182 4.03620
# Velocity P-wave (km/s) = 5.10879 7.49918 6.41629
#
# Compressibility (1/GPa) = 0.05407830
#
# Stress axis : x y z
#
# Youngs Moduli (GPa) = 136.04783 21.61210 59.44228
#
# Poissons Ratio (x) = 0.03895 0.39484
# Poissons Ratio (y) = 0.24516 -0.01556
# Poissons Ratio (z) = 0.90369 -0.00566
#
# Static dielectric constant tensor:
#      x y z
#    x 1.724010 0.000000 0.000000 
#    y 0.000000 1.722170 0.000000 
#    z 0.000000 0.000000 1.674070 
# 
# From -- ./inp_files/28044.got.cif
#   From: 2010.05.17/outbox.cif.g08.bks.cpg/sg47_15_cif.got.tgz:28044.got - 2010.06.03 20:15:42.
