data_PCOD9383592
_publ_section_title
;
Structure prediction by ZEFSAII (Michael W. Deem and Ramdas Pophale) SiO2 
 PCOD9383592
Probable space group: P M M M
;
_chemical_formula_sum "Si O2"
_cell_formula_units_Z 52
_cell_length_a 21.205852
_cell_length_b 14.697769
_cell_length_c 8.754459
_cell_angle_alpha 90.000000
_cell_angle_beta 90.000000
_cell_angle_gamma 90.000000
_cell_volume 2728.578524
_symmetry_space_group_name_H-M "P M M M"
_symmetry_group_IT_number 47
_symmetry_cell_setting 'orthorhombic'
loop_
_space_group_symop_operation_xyz
x,y,z
-x,-y,z
x,-y,-z
-x,y,-z
-x,-y,-z
x,y,-z
-x,y,z
x,-y,z
loop_
_atom_site_type_symbol
_atom_site_label
_atom_site_fract_x
_atom_site_fract_y
_atom_site_fract_z
Si Si1 0.174508 0.395286 0.317540
Si Si2 0.000000 0.894682 0.813546
Si Si3 0.619053 0.101484 0.683515
Si Si4 0.877808 0.779689 0.184508
Si Si5 0.756076 0.106266 0.818798
Si Si6 0.689563 0.608943 0.823673
Si Si7 0.430803 0.291748 0.684726
O O1 0.172467 0.392129 0.500000
O O2 0.162815 0.500000 0.268293
O O3 0.126805 0.321893 0.248659
O O4 0.245177 0.370201 0.262129
O O5 0.937990 0.838770 0.766357
O O6 0.000000 0.000000 0.762711
O O7 0.000000 0.896990 0.000000
O O8 0.616418 0.098003 0.500000
O O9 0.690569 0.122800 0.733540
O O10 0.576532 0.186013 0.731628
O O11 0.602921 0.000000 0.741658
O O12 0.813994 0.831953 0.232092
O O13 0.878335 0.776101 0.000000
O O14 0.772810 0.000000 0.797610
O O15 0.745957 0.120637 0.000000
O O16 0.681630 0.500000 0.817458
O O17 0.628306 0.654940 0.752092
O O18 0.696416 0.637112 0.000000
O O19 0.427405 0.296176 0.500000
O O20 0.500000 0.326141 0.731568
#
# Coordination Sequence:
#
# PCOD9383592 Si02
#       7
#     8   4   8   8   8   8   8
#     4  10  21  37  57  80 106 137 173 216 268 320
#     4   9  18  34  56  83 116 152 187 219 256 307
#     4   9  18  32  49  70  97 130 169 212 257 305
#     4  10  19  32  54  81 108 142 181 219 258 302
#     4   9  17  29  47  73 102 130 164 209 260 310
#     4  10  21  37  57  80 105 133 168 215 268 318
#     4  10  21  35  51  73 102 138 177 214 257 313
#
# _framework density 19.057542000000002
#
# number of rings (size 3 to 8) (size 9 to 14) (size 15 to 20)
#    0.000    2.385    0.000    2.308    0.000    8.308 
#    0.000    3.846    0.000    4.154    0.000    3.231 
#    0.000    0.000    0.000    0.000    0.000    0.000 
#
# Total GULP energy -290213.564303 kJ/mol
# GULP energy per Si atom -5581.030083 kJ/mol
# Density = 1.901417 g / cm^3
# Si number density = 19.057542 Si / 1000 Ang^3
#
#
#
# Elastic Constant Matrix: (Units=GPa)
#
#
# Indices 1 2 3 4 5 6 
#
# 1 67.0803 67.4753 11.6414 0.0000 0.0000 0.0000
# 2 67.4753 101.2923 23.1316 0.0000 0.0000 0.0000
# 3 11.6414 23.1316 12.9761 0.0000 0.0000 0.0000
# 4 0.0000 0.0000 0.0000 25.6823 0.0000 0.0000
# 5 0.0000 0.0000 0.0000 0.0000 20.7133 0.0000
# 6 0.0000 0.0000 0.0000 0.0000 0.0000 24.9893
#
#
#
# Elastic Compliance Matrix: (Units=1/GPa)
#
#
# Indices 1 2 3 4 5 6 
#
# 1 0.049293 -0.038348 0.024139 0.000000 0.000000 0.000000
# 2 -0.038348 0.046485 -0.048462 0.000000 0.000000 0.000000
# 3 0.024139 -0.048462 0.141799 0.000000 0.000000 0.000000
# 4 0.000000 0.000000 0.000000 0.038937 0.000000 0.000000
# 5 0.000000 0.000000 0.000000 0.000000 0.048278 0.000000
# 6 0.000000 0.000000 0.000000 0.000000 0.000000 0.040017
#
#
# Mechanical properties :
#
#
# Convention : Reuss Voigt Hill
#
# Bulk Modulus (GPa) = 8.90998 42.87168 25.89083
# Shear Modulus (GPa) = 9.47754 19.55034 14.51394
#
# Velocity S-wave (km/s) = 2.23247 3.20638 2.76268
# Velocity P-wave (km/s) = 3.36611 6.02101 4.87766
#
# Compressibility (1/GPa) = 0.11223365
#
# Stress axis : x y z
#
# Youngs Moduli (GPa) = 20.28700 21.51230 7.05224
#
# Poissons Ratio (x) = 0.82496 -0.17023
# Poissons Ratio (y) = 0.77798 0.34177
# Poissons Ratio (z) = -0.48971 1.04253
#
# Static dielectric constant tensor:
#      x y z
#    x 1.636690 0.000000 0.000000 
#    y 0.000000 1.691360 0.000000 
#    z 0.000000 0.000000 1.647780 
# 
# From -- ./inp_files/6991.got.cif
#   From: 2010.05.17/outbox.cif.g08.bks.cpg/sg47_4_cif.got.tgz:6991.got - 2010.06.03 20:15:42.
