data_PCOD9383527
_publ_section_title
;
Structure prediction by ZEFSAII (Michael W. Deem and Ramdas Pophale) SiO2 
 PCOD9383527
Probable space group: P M M M
;
_chemical_formula_sum "Si O2"
_cell_formula_units_Z 60
_cell_length_a 20.101279
_cell_length_b 19.965488
_cell_length_c 8.631120
_cell_angle_alpha 90.000000
_cell_angle_beta 90.000000
_cell_angle_gamma 90.000000
_cell_volume 3463.943311
_symmetry_space_group_name_H-M "P M M M"
_symmetry_group_IT_number 47
_symmetry_cell_setting 'orthorhombic'
loop_
_space_group_symop_operation_xyz
x,y,z
-x,-y,z
x,-y,-z
-x,y,-z
-x,-y,-z
x,y,-z
-x,y,z
x,-y,z
loop_
_atom_site_type_symbol
_atom_site_label
_atom_site_fract_x
_atom_site_fract_y
_atom_site_fract_z
Si Si1 0.189287 0.789176 0.185596
Si Si2 0.237901 0.922680 0.684847
Si Si3 0.711738 0.678647 0.685419
Si Si4 0.423074 0.287437 0.186763
Si Si5 0.827445 0.423229 0.313108
Si Si6 0.372429 0.138765 0.816816
Si Si7 0.500000 0.078032 0.673717
Si Si8 0.075950 0.313778 0.187031
O O1 0.190506 0.865080 0.245800
O O2 0.252061 0.745325 0.246879
O O3 0.123870 0.747670 0.234685
O O4 0.193402 0.789766 0.000000
O O5 0.231485 0.922881 0.500000
O O6 0.310286 0.893977 0.730572
O O7 0.229721 0.000000 0.739197
O O8 0.710697 0.684925 0.500000
O O9 0.636836 0.668224 0.745941
O O10 0.760778 0.617733 0.730099
O O11 0.500000 0.297330 0.238229
O O12 0.396723 0.213160 0.228652
O O13 0.423254 0.292264 0.000000
O O14 0.831206 0.422605 0.500000
O O15 0.826554 0.500000 0.260453
O O16 0.889011 0.380932 0.247737
O O17 0.436078 0.096161 0.772456
O O18 0.358028 0.139299 0.000000
O O19 0.500000 0.109802 0.500000
O O20 0.500000 0.000000 0.651822
O O21 0.000000 0.307134 0.240063
O O22 0.076213 0.315359 0.000000
#
# Coordination Sequence:
#
# PCOD9383527 Si02
#       8
#     8   8   8   8   8   8   4   8
#     4  10  19  33  54  76 101 135 174 213 256 308
#     4  11  23  36  50  71  99 129 166 216 268 312
#     4  10  19  32  53  77 101 133 174 216 257 303
#     4  10  20  34  50  70  98 129 165 214 267 313
#     4   9  19  35  54  80 114 147 176 207 246 296
#     4  11  21  34  50  68  92 126 166 209 261 319
#     4  11  23  35  45  61  91 129 166 207 258 315
#     4   9  19  35  55  82 114 144 174 210 250 294
#
# _framework density 17.321300999999998
#
# number of rings (size 3 to 8) (size 9 to 14) (size 15 to 20)
#    0.000    1.933    2.000    2.200    0.000    5.867 
#    0.000    1.333    0.000    0.800    0.000    5.600 
#    0.000    0.000    0.000    0.000    0.000    0.000 
#
# Total GULP energy -334519.684275 kJ/mol
# GULP energy per Si atom -5575.328071 kJ/mol
# Density = 1.728188 g / cm^3
# Si number density = 17.321301 Si / 1000 Ang^3
#
#
#
# Elastic Constant Matrix: (Units=GPa)
#
#
# Indices 1 2 3 4 5 6 
#
# 1 144.4871 68.0207 23.5806 0.0000 0.0000 0.0000
# 2 68.0207 109.3948 20.5709 0.0000 0.0000 0.0000
# 3 23.5806 20.5709 16.1016 0.0000 0.0000 0.0000
# 4 0.0000 0.0000 0.0000 20.3411 0.0000 0.0000
# 5 0.0000 0.0000 0.0000 0.0000 13.1027 0.0000
# 6 0.0000 0.0000 0.0000 0.0000 0.0000 11.9269
#
#
#
# Elastic Compliance Matrix: (Units=1/GPa)
#
#
# Indices 1 2 3 4 5 6 
#
# 1 0.010790 -0.004920 -0.009517 0.000000 0.000000 0.000000
# 2 -0.004920 0.014275 -0.011032 0.000000 0.000000 0.000000
# 3 -0.009517 -0.011032 0.090138 0.000000 0.000000 0.000000
# 4 0.000000 0.000000 0.000000 0.049162 0.000000 0.000000
# 5 0.000000 0.000000 0.000000 0.000000 0.076320 0.000000
# 6 0.000000 0.000000 0.000000 0.000000 0.000000 0.083844
#
#
# Mechanical properties :
#
#
# Convention : Reuss Voigt Hill
#
# Bulk Modulus (GPa) = 15.56058 54.92534 35.24296
# Shear Modulus (GPa) = 12.59803 19.59490 16.09646
#
# Velocity S-wave (km/s) = 2.69980 3.36707 3.05173
# Velocity P-wave (km/s) = 4.32684 6.84797 5.72784
#
# Compressibility (1/GPa) = 0.06426495
#
# Stress axis : x y z
#
# Youngs Moduli (GPa) = 92.67580 70.05377 11.09414
#
# Poissons Ratio (x) = 0.34464 0.10558
# Poissons Ratio (y) = 0.45594 0.12239
# Poissons Ratio (z) = 0.88200 0.77284
#
# Static dielectric constant tensor:
#      x y z
#    x 1.634160 0.000000 0.000000 
#    y 0.000000 1.602620 0.000000 
#    z 0.000000 0.000000 1.595410 
# 
# From -- ./inp_files/11669.got.cif
#   From: 2010.05.17/outbox.cif.g08.bks.cpg/sg47_6_cif.got.tgz:11669.got - 2010.06.03 20:15:42.
