data_PCOD9383283
_publ_section_title
;
Structure prediction by ZEFSAII (Michael W. Deem and Ramdas Pophale) SiO2 
 PCOD9383283
Probable space group: P M M M
;
_chemical_formula_sum "Si O2"
_cell_formula_units_Z 52
_cell_length_a 8.545075
_cell_length_b 17.473853
_cell_length_c 27.910654
_cell_angle_alpha 90.000000
_cell_angle_beta 90.000000
_cell_angle_gamma 90.000000
_cell_volume 4167.490032
_symmetry_space_group_name_H-M "P M M M"
_symmetry_group_IT_number 47
_symmetry_cell_setting 'orthorhombic'
loop_
_space_group_symop_operation_xyz
x,y,z
-x,-y,z
x,-y,-z
-x,y,-z
-x,-y,-z
x,y,-z
-x,y,z
x,-y,z
loop_
_atom_site_type_symbol
_atom_site_label
_atom_site_fract_x
_atom_site_fract_y
_atom_site_fract_z
Si Si1 0.000000 0.406982 0.444307
Si Si2 0.812558 0.412084 0.000000
Si Si3 0.317851 0.406675 0.611246
Si Si4 0.813157 0.837156 0.944198
Si Si5 0.815274 0.589329 0.820105
Si Si6 0.682256 0.000000 0.942037
Si Si7 0.684843 0.680457 0.909131
Si Si8 0.681905 0.408225 0.279690
O O1 0.165709 0.382788 0.419825
O O2 0.000000 0.500000 0.441807
O O3 0.000000 0.384807 0.500000
O O4 0.756087 0.368318 0.952840
O O5 0.757300 0.500000 0.000000
O O6 0.000000 0.412004 0.000000
O O7 0.500000 0.384379 0.598457
O O8 0.319915 0.500000 0.610266
O O9 0.286893 0.381057 0.666253
O O10 0.747061 0.766686 0.914327
O O11 0.000000 0.833882 0.944236
O O12 0.759549 0.920496 0.926356
O O13 0.759996 0.828231 0.000000
O O14 0.763039 0.500000 0.823864
O O15 0.732190 0.640535 0.859638
O O16 0.781087 0.617055 0.765975
O O17 0.000000 0.590846 0.829108
O O18 0.500000 0.000000 0.929826
O O19 0.697382 0.000000 0.000000
O O20 0.500000 0.680949 0.914338
O O21 0.500000 0.393020 0.269141
O O22 0.702832 0.500000 0.282252
#
# Coordination Sequence:
#
# PCOD9383283 Si02
#       8
#     4   4   8   8   8   4   8   8
#     4   9  16  22  30  46  66  88 114 141 175 222
#     4  11  23  37  49  58  73  98 127 155 183 225
#     4   8  14  23  34  47  64  86 112 143 180 221
#     4  10  19  32  49  65  83 103 123 145 175 216
#     4  10  20  31  43  58  75  96 123 157 194 230
#     4   9  17  29  47  69  89 101 119 145 170 206
#     4  12  23  33  46  61  79 100 124 152 186 225
#     4   8  14  25  39  53  67  85 113 150 188 223
#
# _framework density 12.477535
#
# number of rings (size 3 to 8) (size 9 to 14) (size 15 to 20)
#    0.000    2.385    0.769    4.154    1.077    5.231 
#    0.000    1.538    0.000    0.000    0.000    0.000 
#    0.000    0.000    0.000    0.000    0.000    0.000 
#
# Total GULP energy -289569.959211 kJ/mol
# GULP energy per Si atom -5568.653062 kJ/mol
# Density = 1.244914 g / cm^3
# Si number density = 12.477535 Si / 1000 Ang^3
#
#
#
# Elastic Constant Matrix: (Units=GPa)
#
#
# Indices 1 2 3 4 5 6 
#
# 1 78.5110 42.8070 14.6106 0.0000 0.0000 0.0000
# 2 42.8070 68.7588 -1.4199 0.0000 0.0000 0.0000
# 3 14.6106 -1.4199 125.2343 0.0000 0.0000 0.0000
# 4 0.0000 0.0000 0.0000 -0.0902 0.0000 0.0000
# 5 0.0000 0.0000 0.0000 0.0000 22.0663 0.0000
# 6 0.0000 0.0000 0.0000 0.0000 0.0000 19.8893
#
#
#
# Elastic Compliance Matrix: (Units=1/GPa)
#
#
# Indices 1 2 3 4 5 6 
#
# 1 0.020023 -0.012517 -0.002478 0.000000 0.000000 0.000000
# 2 -0.012517 0.022371 0.001714 0.000000 0.000000 0.000000
# 3 -0.002478 0.001714 0.008294 0.000000 0.000000 0.000000
# 4 0.000000 0.000000 0.000000-11.086742 0.000000 0.000000
# 5 0.000000 0.000000 0.000000 0.000000 0.045318 0.000000
# 6 0.000000 0.000000 0.000000 0.000000 0.000000 0.050278
#
#
# Mechanical properties :
#
#
# Convention : Reuss Voigt Hill
#
# Bulk Modulus (GPa) = 41.44828 42.72216 42.08522
# Shear Modulus (GPa) = -0.45847 22.80684 11.17418
#
# Velocity S-wave (km/s) = -0.60682 4.27995 2.99581
# Velocity P-wave (km/s) = 5.72708 7.66405 6.76524
#
# Compressibility (1/GPa) = 0.02412645
#
# Stress axis : x y z
#
# Youngs Moduli (GPa) = 49.94328 44.69986 120.57564
#
# Poissons Ratio (x) = 0.55949 0.29877
# Poissons Ratio (y) = 0.62512 -0.20666
# Poissons Ratio (z) = 0.12375 -0.07661
#
# Static dielectric constant tensor:
#      x y z
#    x 1.426900 0.000000 0.000000 
#    y 0.000000 1.382100 0.000000 
#    z 0.000000 0.000000 1.408260 
# 
# From -- ./inp_files/32032.got.cif
#   From: 2010.05.17/outbox.cif.g08.bks.cpg/sg47_17_cif.got.tgz:32032.got - 2010.06.03 20:15:42.
