data_PCOD9383016
_publ_section_title
;
Structure prediction by ZEFSAII (Michael W. Deem and Ramdas Pophale) SiO2 
 PCOD9383016
Probable space group: P M M M
;
_chemical_formula_sum "Si O2"
_cell_formula_units_Z 64
_cell_length_a 8.433822
_cell_length_b 20.657403
_cell_length_c 20.536740
_cell_angle_alpha 90.000000
_cell_angle_beta 90.000000
_cell_angle_gamma 90.000000
_cell_volume 3577.928502
_symmetry_space_group_name_H-M "P M M M"
_symmetry_group_IT_number 47
_symmetry_cell_setting 'orthorhombic'
loop_
_space_group_symop_operation_xyz
x,y,z
-x,-y,z
x,-y,-z
-x,y,-z
-x,-y,-z
x,y,-z
-x,y,z
x,-y,z
loop_
_atom_site_type_symbol
_atom_site_label
_atom_site_fract_x
_atom_site_fract_y
_atom_site_fract_z
Si Si1 0.310729 0.292385 0.246660
Si Si2 0.691183 0.926998 0.076124
Si Si3 0.691960 0.111709 0.428963
Si Si4 0.190814 0.070377 0.709352
Si Si5 0.189307 0.429161 0.286505
Si Si6 0.308247 0.603693 0.570807
Si Si7 0.810642 0.170578 0.183373
Si Si8 0.692074 0.253894 0.390270
O O1 0.500000 0.291690 0.247438
O O2 0.256704 0.366937 0.248738
O O3 0.251842 0.243515 0.191341
O O4 0.252234 0.262678 0.315928
O O5 0.500000 0.925605 0.080953
O O6 0.759891 0.870462 0.120650
O O7 0.743927 0.000000 0.095678
O O8 0.732408 0.918608 0.000000
O O9 0.742332 0.087012 0.500000
O O10 0.500000 0.109220 0.427095
O O11 0.755340 0.077471 0.364886
O O12 0.743697 0.186815 0.421459
O O13 0.251288 0.127969 0.755101
O O14 0.000000 0.072478 0.710963
O O15 0.242933 0.000000 0.734448
O O16 0.242345 0.500000 0.262296
O O17 0.239320 0.424372 0.362614
O O18 0.000000 0.425956 0.283260
O O19 0.258518 0.577704 0.500000
O O20 0.500000 0.597840 0.574651
O O21 0.266410 0.680002 0.573534
O O22 0.000000 0.172814 0.186209
O O23 0.500000 0.251714 0.389405
#
# Coordination Sequence:
#
# PCOD9383016 Si02
#       8
#     8   8   8   8   8   8   8   8
#     4  10  19  33  55  77  98 128 170 215 259 309
#     4   9  19  36  57  83 117 155 191 224 259 303
#     4  10  19  31  48  67  87 114 156 211 265 315
#     4  10  22  37  49  65  94 130 165 205 256 312
#     4  10  21  35  49  68  99 134 165 206 264 323
#     4   9  17  29  46  67  90 120 161 206 254 316
#     4  11  21  34  55  81 109 139 176 220 263 312
#     4   8  14  27  46  66  88 113 148 201 260 310
#
# _framework density 17.887445
#
# number of rings (size 3 to 8) (size 9 to 14) (size 15 to 20)
#    0.000    2.375    1.250    3.000    0.000    5.250 
#    0.000    3.125    0.000    1.500    0.000    0.000 
#    0.000    0.500    0.000    5.250    0.000    2.250 
#
# Total GULP energy -356925.757938 kJ/mol
# GULP energy per Si atom -5576.964968 kJ/mol
# Density = 1.784673 g / cm^3
# Si number density = 17.887445 Si / 1000 Ang^3
#
#
#
# Elastic Constant Matrix: (Units=GPa)
#
#
# Indices 1 2 3 4 5 6 
#
# 1 24.8956 28.6200 16.6311 0.0000 0.0000 0.0000
# 2 28.6200 137.5944 52.1955 0.0000 0.0000 0.0000
# 3 16.6311 52.1955 68.2430 0.0000 0.0000 0.0000
# 4 0.0000 0.0000 0.0000 63.6261 0.0000 0.0000
# 5 0.0000 0.0000 0.0000 0.0000 16.6647 0.0000
# 6 0.0000 0.0000 0.0000 0.0000 0.0000 21.2661
#
#
#
# Elastic Compliance Matrix: (Units=1/GPa)
#
#
# Indices 1 2 3 4 5 6 
#
# 1 0.054782 -0.008918 -0.006530 0.000000 0.000000 0.000000
# 2 -0.008918 0.011690 -0.006768 0.000000 0.000000 0.000000
# 3 -0.006530 -0.006768 0.021421 0.000000 0.000000 0.000000
# 4 0.000000 0.000000 0.000000 0.015717 0.000000 0.000000
# 5 0.000000 0.000000 0.000000 0.000000 0.060007 0.000000
# 6 0.000000 0.000000 0.000000 0.000000 0.000000 0.047023
#
#
# Mechanical properties :
#
#
# Convention : Reuss Voigt Hill
#
# Bulk Modulus (GPa) = 23.00846 47.29179 35.15013
# Shear Modulus (GPa) = 18.54888 29.19714 23.87301
#
# Velocity S-wave (km/s) = 3.22371 4.04452 3.65721
# Velocity P-wave (km/s) = 5.17177 6.95031 6.12593
#
# Compressibility (1/GPa) = 0.04346227
#
# Stress axis : x y z
#
# Youngs Moduli (GPa) = 18.25424 85.54369 46.68278
#
# Poissons Ratio (x) = 0.76285 0.30483
# Poissons Ratio (y) = 0.16279 0.31594
# Poissons Ratio (z) = 0.11920 0.57894
#
# Static dielectric constant tensor:
#      x y z
#    x 1.612420 0.000000 0.000000 
#    y 0.000000 1.649590 0.000000 
#    z 0.000000 0.000000 1.602210 
# 
# From -- ./inp_files/30170.got.cif
#   From: 2010.05.17/outbox.cif.g08.bks.cpg/sg47_16_cif.got.tgz:30170.got - 2010.06.03 20:15:42.
