data_PCOD9383534
_publ_section_title
;
Structure prediction by ZEFSAII (Michael W. Deem and Ramdas Pophale) SiO2 
 PCOD9383534
Probable space group: P M M M
;
_chemical_formula_sum "Si O2"
_cell_formula_units_Z 52
_cell_length_a 8.025174
_cell_length_b 25.613706
_cell_length_c 14.699583
_cell_angle_alpha 90.000000
_cell_angle_beta 90.000000
_cell_angle_gamma 90.000000
_cell_volume 3021.564661
_symmetry_space_group_name_H-M "P M M M"
_symmetry_group_IT_number 47
_symmetry_cell_setting 'orthorhombic'
loop_
_space_group_symop_operation_xyz
x,y,z
-x,-y,z
x,-y,-z
-x,y,-z
-x,-y,-z
x,y,-z
-x,y,z
x,-y,z
loop_
_atom_site_type_symbol
_atom_site_label
_atom_site_fract_x
_atom_site_fract_y
_atom_site_fract_z
Si Si1 0.195421 0.404187 0.602461
Si Si2 0.196229 0.865255 0.109162
Si Si3 0.697274 0.713931 0.398061
Si Si4 0.799549 0.759167 0.785388
Si Si5 0.500000 0.059500 0.110183
Si Si6 0.801305 0.659482 0.897372
Si Si7 0.304924 0.442900 0.792391
O O1 0.258036 0.415058 0.500000
O O2 0.215230 0.341915 0.618036
O O3 0.283112 0.433285 0.684771
O O4 0.000000 0.417159 0.605614
O O5 0.241786 0.812349 0.162500
O O6 0.331244 0.909264 0.134862
O O7 0.000000 0.877972 0.127358
O O8 0.208689 0.856338 0.000000
O O9 0.743216 0.731708 0.500000
O O10 0.500000 0.703633 0.396530
O O11 0.739503 0.753499 0.317849
O O12 0.734094 0.708620 0.840354
O O13 0.000000 0.756289 0.783600
O O14 0.500000 0.000000 0.143979
O O15 0.500000 0.057564 0.000000
O O16 0.772955 0.605528 0.845221
O O17 0.000000 0.667149 0.903398
O O18 0.733977 0.657919 0.000000
O O19 0.500000 0.442636 0.813835
O O20 0.234908 0.500000 0.816061
#
# Coordination Sequence:
#
# PCOD9383534 Si02
#       7
#     8   8   8   8   4   8   8
#     4  10  20  35  55  76  97 123 158 201 251 310
#     4   9  18  32  50  76 111 148 184 223 266 308
#     4  10  20  32  49  75 105 135 165 201 252 313
#     4  10  19  32  53  78 104 136 171 211 258 307
#     4   9  18  32  50  76 111 151 194 230 258 297
#     4  10  21  37  56  76  97 126 165 207 254 307
#     4  11  24  39  53  71  96 125 161 207 256 309
#
# _framework density 17.209627000000001
#
# number of rings (size 3 to 8) (size 9 to 14) (size 15 to 20)
#    0.000    2.077    1.538    1.846    1.077    6.154 
#    0.000    4.615    0.000    0.000    0.000    0.000 
#    0.000    1.231    0.000    3.385    0.000    0.154 
#
# Total GULP energy -290112.306307 kJ/mol
# GULP energy per Si atom -5579.082814 kJ/mol
# Density = 1.717046 g / cm^3
# Si number density = 17.209627 Si / 1000 Ang^3
#
#
#
# Elastic Constant Matrix: (Units=GPa)
#
#
# Indices 1 2 3 4 5 6 
#
# 1 39.3253 37.3729 17.3955 0.0000 0.0000 0.0000
# 2 37.3729 116.7014 50.7884 0.0000 0.0000 0.0000
# 3 17.3955 50.7884 83.9723 0.0000 0.0000 0.0000
# 4 0.0000 0.0000 0.0000 13.9014 0.0000 0.0000
# 5 0.0000 0.0000 0.0000 0.0000 10.8186 0.0000
# 6 0.0000 0.0000 0.0000 0.0000 0.0000 23.0343
#
#
#
# Elastic Compliance Matrix: (Units=1/GPa)
#
#
# Indices 1 2 3 4 5 6 
#
# 1 0.036582 -0.011424 -0.000669 0.000000 0.000000 0.000000
# 2 -0.011424 0.015198 -0.006825 0.000000 0.000000 0.000000
# 3 -0.000669 -0.006825 0.016175 0.000000 0.000000 0.000000
# 4 0.000000 0.000000 0.000000 0.071935 0.000000 0.000000
# 5 0.000000 0.000000 0.000000 0.000000 0.092434 0.000000
# 6 0.000000 0.000000 0.000000 0.000000 0.000000 0.043414
#
#
# Mechanical properties :
#
#
# Convention : Reuss Voigt Hill
#
# Bulk Modulus (GPa) = 33.20208 50.12363 41.66286
# Shear Modulus (GPa) = 15.45057 18.51366 16.98211
#
# Velocity S-wave (km/s) = 2.99956 3.28346 3.14471
# Velocity P-wave (km/s) = 5.59742 6.60025 6.11941
#
# Compressibility (1/GPa) = 0.03011859
#
# Stress axis : x y z
#
# Youngs Moduli (GPa) = 27.33615 65.79910 61.82238
#
# Poissons Ratio (x) = 0.75169 0.04134
# Poissons Ratio (y) = 0.31229 0.42196
# Poissons Ratio (z) = 0.01828 0.44911
#
# Static dielectric constant tensor:
#      x y z
#    x 1.606070 0.000000 0.000000 
#    y 0.000000 1.568560 0.000000 
#    z 0.000000 0.000000 1.592720 
# 
# From -- ./inp_files/7578.got.cif
#   From: 2010.05.17/outbox.cif.g08.bks.cpg/sg47_4_cif.got.tgz:7578.got - 2010.06.03 20:15:42.
