data_PCOD9383100
_publ_section_title
;
Structure prediction by ZEFSAII (Michael W. Deem and Ramdas Pophale) SiO2 
 PCOD9383100
Probable space group: P M M M
;
_chemical_formula_sum "Si O2"
_cell_formula_units_Z 40
_cell_length_a 19.365479
_cell_length_b 7.568104
_cell_length_c 13.718280
_cell_angle_alpha 90.000000
_cell_angle_beta 90.000000
_cell_angle_gamma 90.000000
_cell_volume 2010.550555
_symmetry_space_group_name_H-M "P M M M"
_symmetry_group_IT_number 47
_symmetry_cell_setting 'orthorhombic'
loop_
_space_group_symop_operation_xyz
x,y,z
-x,-y,z
x,-y,-z
-x,y,-z
-x,-y,-z
x,y,-z
-x,y,z
x,-y,z
loop_
_atom_site_type_symbol
_atom_site_label
_atom_site_fract_x
_atom_site_fract_y
_atom_site_fract_z
Si Si1 0.655206 0.702253 0.000000
Si Si2 0.579246 0.786810 0.391234
Si Si3 0.833317 0.794323 0.210562
Si Si4 0.673906 0.708405 0.207792
Si Si5 0.919754 0.215761 0.608540
Si Si6 0.182779 0.783117 0.000000
O O1 0.639222 0.779792 0.892807
O O2 0.629505 0.500000 0.000000
O O3 0.738849 0.712591 0.000000
O O4 0.601439 0.728088 0.500000
O O5 0.500000 0.728047 0.376509
O O6 0.627644 0.732510 0.302757
O O7 0.578870 0.000000 0.392516
O O8 0.750488 0.784843 0.222292
O O9 0.872561 0.717457 0.303411
O O10 0.849602 0.723941 0.102258
O O11 0.853038 0.000000 0.207459
O O12 0.683993 0.500000 0.191678
O O13 0.898324 0.274168 0.500000
O O14 0.000000 0.262879 0.622996
O O15 0.916590 0.000000 0.607308
O O16 0.186756 0.000000 0.000000
#
# Coordination Sequence:
#
# PCOD9383100 Si02
#       6
#     4   8   8   8   8   4
#     4   8  16  30  45  64  93 126 153 180 223 272
#     4   9  19  36  54  70  92 123 155 187 227 274
#     4   9  16  27  44  65  89 117 149 186 226 268
#     4  10  19  31  49  72  96 122 154 191 228 270
#     4   8  14  25  41  61  85 114 148 184 223 269
#     4   8  14  24  39  61  87 114 145 181 223 268
#
# _framework density 19.895047999999999
#
# number of rings (size 3 to 8) (size 9 to 14) (size 15 to 20)
#    0.000    3.200    0.000    1.800    0.000    2.400 
#    0.000    4.000    0.000    6.600    0.000    1.400 
#    0.000    8.000    0.000    0.000    0.000    0.000 
#
# Total GULP energy -222729.935525 kJ/mol
# GULP energy per Si atom -5568.248388 kJ/mol
# Density = 1.984977 g / cm^3
# Si number density = 19.895048 Si / 1000 Ang^3
#
#
#
# Elastic Constant Matrix: (Units=GPa)
#
#
# Indices 1 2 3 4 5 6 
#
# 1 44.5261 -6.1828 86.5653 0.0000 0.0000 0.0000
# 2 -6.1828 47.0983 0.8687 0.0000 0.0000 0.0000
# 3 86.5653 0.8687 250.0114 0.0000 0.0000 0.0000
# 4 0.0000 0.0000 0.0000 10.6358 0.0000 0.0000
# 5 0.0000 0.0000 0.0000 0.0000 -52.2622 0.0000
# 6 0.0000 0.0000 0.0000 0.0000 0.0000-3111.5110
#
#
#
# Elastic Compliance Matrix: (Units=1/GPa)
#
#
# Indices 1 2 3 4 5 6 
#
# 1 0.073203 0.010078 -0.025381 0.000000 0.000000 0.000000
# 2 0.010078 0.022621 -0.003568 0.000000 0.000000 0.000000
# 3 -0.025381 -0.003568 0.012800 0.000000 0.000000 0.000000
# 4 0.000000 0.000000 0.000000 0.094023 0.000000 0.000000
# 5 0.000000 0.000000 0.000000 0.000000 -0.019134 0.000000
# 6 0.000000 0.000000 0.000000 0.000000 0.000000 -0.000321
#
#
# Mechanical properties :
#
#
# Convention : Reuss Voigt Hill
#
# Bulk Modulus (GPa) = 14.10807 56.01534 35.06170
# Shear Modulus (GPa) = 20.44482 -613.26852 -296.41185
#
# Velocity S-wave (km/s) = 3.20915 -17.57615 -12.21930
# Velocity P-wave (km/s) = 4.56488 19.58770 13.46922
#
# Compressibility (1/GPa) = 0.07088143
#
# Stress axis : x y z
#
# Youngs Moduli (GPa) = 13.66067 44.20679 78.12308
#
# Poissons Ratio (x) = -0.44551 1.98285
# Poissons Ratio (y) = -0.13767 0.27874
# Poissons Ratio (z) = 0.34672 0.15773
#
# Static dielectric constant tensor:
#      x y z
#    x 1.641430 0.000000 0.000000 
#    y 0.000000 1.752420 0.000000 
#    z 0.000000 0.000000 1.774920 
# 
# From -- ./inp_files/18973.got.cif
#   From: 2010.05.17/outbox.cif.g08.bks.cpg/sg47_10_cif.got.tgz:18973.got - 2010.06.03 20:15:42.
