data_PCOD9383344
_publ_section_title
;
Structure prediction by ZEFSAII (Michael W. Deem and Ramdas Pophale) SiO2 
 PCOD9383344
Probable space group: P M M M
;
_chemical_formula_sum "Si O2"
_cell_formula_units_Z 52
_cell_length_a 16.897491
_cell_length_b 21.495516
_cell_length_c 8.542328
_cell_angle_alpha 90.000000
_cell_angle_beta 90.000000
_cell_angle_gamma 90.000000
_cell_volume 3102.746838
_symmetry_space_group_name_H-M "P M M M"
_symmetry_group_IT_number 47
_symmetry_cell_setting 'orthorhombic'
loop_
_space_group_symop_operation_xyz
x,y,z
-x,-y,z
x,-y,-z
-x,y,-z
-x,-y,-z
x,y,-z
-x,y,z
x,-y,z
loop_
_atom_site_type_symbol
_atom_site_label
_atom_site_fract_x
_atom_site_fract_y
_atom_site_fract_z
Si Si1 0.831219 0.194545 0.311474
Si Si2 0.592048 0.000000 0.691105
Si Si3 0.000000 0.639386 0.809194
Si Si4 0.160709 0.571263 0.810849
Si Si5 0.673302 0.128096 0.310499
Si Si6 0.738702 0.680852 0.687120
Si Si7 0.590069 0.251085 0.812411
Si Si8 0.000000 0.216735 0.813019
O O1 0.835660 0.194387 0.500000
O O2 0.763643 0.144850 0.264250
O O3 0.796731 0.262240 0.261425
O O4 0.918664 0.186171 0.245048
O O5 0.638342 0.062103 0.741111
O O6 0.500000 0.000000 0.741128
O O7 0.591476 0.000000 0.500000
O O8 0.921701 0.602784 0.758530
O O9 0.000000 0.711036 0.756196
O O10 0.000000 0.640146 0.000000
O O11 0.166856 0.500000 0.757712
O O12 0.229573 0.616295 0.752566
O O13 0.160567 0.571142 0.000000
O O14 0.670904 0.130060 0.500000
O O15 0.619208 0.183988 0.247967
O O16 0.739524 0.680100 0.500000
O O17 0.652153 0.699451 0.745950
O O18 0.500000 0.262419 0.762799
O O19 0.593822 0.251587 0.000000
O O20 0.000000 0.217460 0.000000
#
# Coordination Sequence:
#
# PCOD9383344 Si02
#       8
#     8   4   4   8   8   8   8   4
#     4   9  18  31  46  68  98 129 162 204 249 289
#     4   9  16  28  51  80 107 134 164 199 239 291
#     4   9  17  29  46  71  98 128 166 204 240 287
#     4  10  19  32  50  71  99 133 165 199 243 296
#     4   9  18  32  51  76 104 135 167 199 241 293
#     4  10  20  33  50  71  97 129 164 204 248 295
#     4  10  20  33  51  75 101 128 161 203 248 294
#     4  11  19  28  49  72  93 126 168 210 248 289
#
# _framework density 16.759343000000001
#
# number of rings (size 3 to 8) (size 9 to 14) (size 15 to 20)
#    0.000    2.385    1.538    2.769    0.000    5.538 
#    0.000    0.769    0.000    3.231    0.000    6.462 
#    0.000    0.000    0.000    0.000    0.000    0.000 
#
# Total GULP energy -290032.321462 kJ/mol
# GULP energy per Si atom -5577.544644 kJ/mol
# Density = 1.672120 g / cm^3
# Si number density = 16.759343 Si / 1000 Ang^3
#
#
#
# Elastic Constant Matrix: (Units=GPa)
#
#
# Indices 1 2 3 4 5 6 
#
# 1 162.1769 74.6301 23.0837 0.0000 0.0000 0.0000
# 2 74.6301 114.1551 15.5868 0.0000 0.0000 0.0000
# 3 23.0837 15.5868 10.6535 0.0000 0.0000 0.0000
# 4 0.0000 0.0000 0.0000 17.3430 0.0000 0.0000
# 5 0.0000 0.0000 0.0000 0.0000 21.5141 0.0000
# 6 0.0000 0.0000 0.0000 0.0000 0.0000 20.5451
#
#
#
# Elastic Compliance Matrix: (Units=1/GPa)
#
#
# Indices 1 2 3 4 5 6 
#
# 1 0.010651 -0.004764 -0.016109 0.000000 0.000000 0.000000
# 2 -0.004764 0.013077 -0.008811 0.000000 0.000000 0.000000
# 3 -0.016109 -0.008811 0.141662 0.000000 0.000000 0.000000
# 4 0.000000 0.000000 0.000000 0.057660 0.000000 0.000000
# 5 0.000000 0.000000 0.000000 0.000000 0.046481 0.000000
# 6 0.000000 0.000000 0.000000 0.000000 0.000000 0.048673
#
#
# Mechanical properties :
#
#
# Convention : Reuss Voigt Hill
#
# Bulk Modulus (GPa) = 9.43196 57.06520 33.24858
# Shear Modulus (GPa) = 12.10906 23.45942 17.78424
#
# Velocity S-wave (km/s) = 2.69090 3.74542 3.26107
# Velocity P-wave (km/s) = 3.91084 7.26829 5.83621
#
# Compressibility (1/GPa) = 0.10602250
#
# Stress axis : x y z
#
# Youngs Moduli (GPa) = 93.88621 76.46732 7.05907
#
# Poissons Ratio (x) = 0.36428 0.11371
# Poissons Ratio (y) = 0.44726 0.06220
# Poissons Ratio (z) = 1.51241 0.67377
#
# Static dielectric constant tensor:
#      x y z
#    x 1.564300 0.000000 0.000000 
#    y 0.000000 1.549330 0.000000 
#    z 0.000000 0.000000 1.569440 
# 
# From -- ./inp_files/7163.got.cif
#   From: 2010.05.17/outbox.cif.g08.bks.cpg/sg47_4_cif.got.tgz:7163.got - 2010.06.03 20:15:42.
