data_PCOD9383980
_publ_section_title
;
Structure prediction by ZEFSAII (Michael W. Deem and Ramdas Pophale) SiO2 
 PCOD9383980
Probable space group: P M M M
;
_chemical_formula_sum "Si O2"
_cell_formula_units_Z 40
_cell_length_a 19.625477
_cell_length_b 8.123823
_cell_length_c 13.061343
_cell_angle_alpha 90.000000
_cell_angle_beta 90.000000
_cell_angle_gamma 90.000000
_cell_volume 2082.420873
_symmetry_space_group_name_H-M "P M M M"
_symmetry_group_IT_number 47
_symmetry_cell_setting 'orthorhombic'
loop_
_space_group_symop_operation_xyz
x,y,z
-x,-y,z
x,-y,-z
-x,y,-z
-x,-y,-z
x,y,-z
-x,y,z
x,-y,z
loop_
_atom_site_type_symbol
_atom_site_label
_atom_site_fract_x
_atom_site_fract_y
_atom_site_fract_z
Si Si1 0.812113 0.198376 0.882853
Si Si2 0.577978 0.200972 0.616565
Si Si3 0.333805 0.801882 0.194722
Si Si4 0.578373 0.697731 0.000000
Si Si5 0.078026 0.696086 0.280337
Si Si6 0.921544 0.196360 0.500000
O O1 0.741789 0.260019 0.831910
O O2 0.875416 0.243373 0.811815
O O3 0.808014 0.000000 0.887172
O O4 0.817958 0.258390 0.000000
O O5 0.592980 0.252301 0.500000
O O6 0.500000 0.249987 0.641665
O O7 0.631302 0.260064 0.701095
O O8 0.578743 0.000000 0.617472
O O9 0.382544 0.760572 0.099947
O O10 0.329488 0.000000 0.202977
O O11 0.579612 0.500000 0.000000
O O12 0.500000 0.753489 0.000000
O O13 0.075117 0.500000 0.276956
O O14 0.107674 0.746404 0.391516
O O15 0.000000 0.761104 0.273172
O O16 0.000000 0.259978 0.500000
O O17 0.922341 0.000000 0.500000
#
# Coordination Sequence:
#
# PCOD9383980 Si02
#       6
#     8   8   8   4   8   4
#     4  10  21  37  54  77 110 144 185 236 284 330
#     4   8  14  26  48  79 109 135 169 217 268 314
#     4  10  19  35  56  78 106 142 185 227 269 325
#     4  11  23  35  51  79 110 141 182 229 277 326
#     4  10  21  37  58  84 113 146 185 226 271 332
#     4   9  17  33  59  87 113 141 176 223 276 321
#
# _framework density 19.208411999999999
#
# number of rings (size 3 to 8) (size 9 to 14) (size 15 to 20)
#    0.000    2.400    1.000    2.400    0.000    5.600 
#    1.800    2.000    0.000    0.600    0.000    2.800 
#    0.000    0.000    0.000    0.000    0.000    0.000 
#
# Total GULP energy -223161.786579 kJ/mol
# GULP energy per Si atom -5579.044664 kJ/mol
# Density = 1.916469 g / cm^3
# Si number density = 19.208412 Si / 1000 Ang^3
#
#
#
# Elastic Constant Matrix: (Units=GPa)
#
#
# Indices 1 2 3 4 5 6 
#
# 1 121.9324 7.5097 99.3943 0.0000 0.0000 0.0000
# 2 7.5097 10.2264 11.1717 0.0000 0.0000 0.0000
# 3 99.3943 11.1717 190.0815 0.0000 0.0000 0.0000
# 4 0.0000 0.0000 0.0000 -2.9918 0.0000 0.0000
# 5 0.0000 0.0000 0.0000 0.0000 29.5340 0.0000
# 6 0.0000 0.0000 0.0000 0.0000 0.0000 11.7428
#
#
#
# Elastic Compliance Matrix: (Units=1/GPa)
#
#
# Indices 1 2 3 4 5 6 
#
# 1 0.014354 -0.002502 -0.007359 0.000000 0.000000 0.000000
# 2 -0.002502 0.104931 -0.004859 0.000000 0.000000 0.000000
# 3 -0.007359 -0.004859 0.009394 0.000000 0.000000 0.000000
# 4 0.000000 0.000000 0.000000 -0.334245 0.000000 0.000000
# 5 0.000000 0.000000 0.000000 0.000000 0.033859 0.000000
# 6 0.000000 0.000000 0.000000 0.000000 0.000000 0.085159
#
#
# Mechanical properties :
#
#
# Convention : Reuss Voigt Hill
#
# Bulk Modulus (GPa) = 10.07651 62.04352 36.06001
# Shear Modulus (GPa) = -208.08033 21.26797 -93.40618
#
# Velocity S-wave (km/s) = -10.41935 3.33110 -6.98092
# Velocity P-wave (km/s) = 11.81073 6.86770 6.79441
#
# Compressibility (1/GPa) = 0.09924075
#
# Stress axis : x y z
#
# Youngs Moduli (GPa) = 69.66807 9.53004 106.44732
#
# Poissons Ratio (x) = 0.02384 0.78330
# Poissons Ratio (y) = 0.17429 0.51723
# Poissons Ratio (z) = 0.51266 0.04631
#
# Static dielectric constant tensor:
#      x y z
#    x 1.669740 0.000000 0.000000 
#    y 0.000000 1.671730 0.000000 
#    z 0.000000 0.000000 1.660150 
# 
# From -- ./inp_files/18923.got.cif
#   From: 2010.05.17/outbox.cif.g08.bks.cpg/sg47_10_cif.got.tgz:18923.got - 2010.06.03 20:15:42.
