data_PCOD9383477
_publ_section_title
;
Structure prediction by ZEFSAII (Michael W. Deem and Ramdas Pophale) SiO2 
 PCOD9383477
Probable space group: P M M M
;
_chemical_formula_sum "Si O2"
_cell_formula_units_Z 64
_cell_length_a 8.628846
_cell_length_b 25.614211
_cell_length_c 15.494866
_cell_angle_alpha 90.000000
_cell_angle_beta 90.000000
_cell_angle_gamma 90.000000
_cell_volume 3424.692051
_symmetry_space_group_name_H-M "P M M M"
_symmetry_group_IT_number 47
_symmetry_cell_setting 'orthorhombic'
loop_
_space_group_symop_operation_xyz
x,y,z
-x,-y,z
x,-y,-z
-x,y,-z
-x,-y,-z
x,y,-z
-x,y,z
x,-y,z
loop_
_atom_site_type_symbol
_atom_site_label
_atom_site_fract_x
_atom_site_fract_y
_atom_site_fract_z
Si Si1 0.319092 0.334539 0.165328
Si Si2 0.185912 0.766930 0.906218
Si Si3 0.682792 0.299578 0.363328
Si Si4 0.185238 0.557398 0.779008
Si Si5 0.814507 0.853791 0.773182
Si Si6 0.313520 0.061402 0.902166
Si Si7 0.687574 0.183374 0.596717
Si Si8 0.311774 0.413766 0.406069
O O1 0.500000 0.336054 0.144146
O O2 0.233761 0.292940 0.105949
O O3 0.301820 0.310379 0.261646
O O4 0.254650 0.393101 0.170907
O O5 0.243530 0.803600 0.828756
O O6 0.000000 0.770015 0.904907
O O7 0.241424 0.785838 0.000000
O O8 0.500000 0.297651 0.384709
O O9 0.745703 0.243306 0.389816
O O10 0.741201 0.353073 0.405085
O O11 0.231156 0.500000 0.812279
O O12 0.241477 0.561376 0.679519
O O13 0.000000 0.561398 0.780625
O O14 0.762557 0.903391 0.829009
O O15 0.748675 0.849981 0.676807
O O16 0.000000 0.852009 0.768680
O O17 0.500000 0.067127 0.898008
O O18 0.278405 0.000000 0.890992
O O19 0.264131 0.076282 0.000000
O O20 0.731366 0.166212 0.500000
O O21 0.500000 0.183915 0.601323
O O22 0.273099 0.436372 0.500000
O O23 0.500000 0.414896 0.397165
#
# Coordination Sequence:
#
# PCOD9383477 Si02
#       8
#     8   8   8   8   8   8   8   8
#     4  10  19  33  55  78 101 131 172 222 269 316
#     4  10  21  36  54  80 116 152 179 209 262 332
#     4   8  14  27  47  70  97 130 171 218 265 313
#     4  10  21  35  50  68  94 131 171 212 265 329
#     4  11  22  35  54  83 122 158 188 228 275 327
#     4   9  19  37  61  88 117 151 193 238 280 326
#     4  10  19  32  52  76 107 150 197 239 277 322
#     4   9  17  29  46  69  96 126 166 218 270 319
#
# _framework density 18.687811
#
# number of rings (size 3 to 8) (size 9 to 14) (size 15 to 20)
#    0.000    2.375    1.250    3.000    0.000    5.000 
#    0.000    1.875    0.000    2.250    0.000    5.250 
#    0.000    0.000    0.000    0.000    0.000    0.000 
#
# Total GULP energy -356900.274813 kJ/mol
# GULP energy per Si atom -5576.566794 kJ/mol
# Density = 1.864528 g / cm^3
# Si number density = 18.687811 Si / 1000 Ang^3
#
#
#
# Elastic Constant Matrix: (Units=GPa)
#
#
# Indices 1 2 3 4 5 6 
#
# 1 17.8777 16.7447 29.6759 0.0000 0.0000 0.0000
# 2 16.7447 91.3189 54.9513 0.0000 0.0000 0.0000
# 3 29.6759 54.9513 92.0689 0.0000 0.0000 0.0000
# 4 0.0000 0.0000 0.0000 3.1498 0.0000 0.0000
# 5 0.0000 0.0000 0.0000 0.0000 16.5837 0.0000
# 6 0.0000 0.0000 0.0000 0.0000 0.0000 23.6360
#
#
#
# Elastic Compliance Matrix: (Units=1/GPa)
#
#
# Indices 1 2 3 4 5 6 
#
# 1 0.120533 0.001992 -0.040039 0.000000 0.000000 0.000000
# 2 0.001992 0.017121 -0.010861 0.000000 0.000000 0.000000
# 3 -0.040039 -0.010861 0.030249 0.000000 0.000000 0.000000
# 4 0.000000 0.000000 0.000000 0.317481 0.000000 0.000000
# 5 0.000000 0.000000 0.000000 0.000000 0.060300 0.000000
# 6 0.000000 0.000000 0.000000 0.000000 0.000000 0.042308
#
#
# Mechanical properties :
#
#
# Convention : Reuss Voigt Hill
#
# Bulk Modulus (GPa) = 14.26799 44.88993 29.57896
# Shear Modulus (GPa) = 7.05050 15.33347 11.19198
#
# Velocity S-wave (km/s) = 1.94447 2.86756 2.44988
# Velocity P-wave (km/s) = 3.56269 5.91920 4.88517
#
# Compressibility (1/GPa) = 0.07008697
#
# Stress axis : x y z
#
# Youngs Moduli (GPa) = 8.29651 58.40862 33.05868
#
# Poissons Ratio (x) = -0.11637 1.32365
# Poissons Ratio (y) = -0.01653 0.35904
# Poissons Ratio (z) = 0.33219 0.63436
#
# Static dielectric constant tensor:
#      x y z
#    x 1.634830 0.000000 0.000000 
#    y 0.000000 1.659130 0.000000 
#    z 0.000000 0.000000 1.657090 
# 
# From -- ./inp_files/21908.got.cif
#   From: 2010.05.17/outbox.cif.g08.bks.cpg/sg47_11_cif.got.tgz:21908.got - 2010.06.03 20:15:42.
