data_PCOD9383671
_publ_section_title
;
Structure prediction by ZEFSAII (Michael W. Deem and Ramdas Pophale) SiO2 
 PCOD9383671
Probable space group: P M M M
;
_chemical_formula_sum "Si O2"
_cell_formula_units_Z 56
_cell_length_a 7.367104
_cell_length_b 20.715126
_cell_length_c 16.169058
_cell_angle_alpha 90.000000
_cell_angle_beta 90.000000
_cell_angle_gamma 90.000000
_cell_volume 2467.567826
_symmetry_space_group_name_H-M "P M M M"
_symmetry_group_IT_number 47
_symmetry_cell_setting 'orthorhombic'
loop_
_space_group_symop_operation_xyz
x,y,z
-x,-y,z
x,-y,-z
-x,y,-z
-x,-y,-z
x,y,-z
-x,y,z
x,-y,z
loop_
_atom_site_type_symbol
_atom_site_label
_atom_site_fract_x
_atom_site_fract_y
_atom_site_fract_z
Si Si1 0.778909 0.571527 0.722441
Si Si2 0.293967 0.740559 0.095853
Si Si3 0.221150 0.926071 0.500000
Si Si4 0.219783 0.169291 0.644813
Si Si5 0.278657 0.000000 0.096243
Si Si6 0.290816 0.867098 0.828041
Si Si7 0.778716 0.315008 0.596229
Si Si8 0.206387 0.594413 0.092627
O O1 0.733757 0.500000 0.689560
O O2 0.720189 0.629792 0.661894
O O3 0.714364 0.574150 0.818498
O O4 0.000000 0.576136 0.726574
O O5 0.500000 0.730276 0.127659
O O6 0.205076 0.800910 0.139814
O O7 0.201602 0.671789 0.100679
O O8 0.303823 0.758063 0.000000
O O9 0.276747 0.882708 0.422813
O O10 0.000000 0.928183 0.500000
O O11 0.283691 0.000000 0.500000
O O12 0.286643 0.141377 0.730854
O O13 0.277725 0.242800 0.624598
O O14 0.000000 0.171050 0.646262
O O15 0.214691 0.065504 0.140041
O O16 0.500000 0.000000 0.101803
O O17 0.230129 0.000000 0.000000
O O18 0.500000 0.865185 0.858646
O O19 0.724347 0.325973 0.500000
O O20 0.000000 0.315586 0.596590
O O21 0.000000 0.570541 0.089954
O O22 0.285985 0.580498 0.000000
#
# Coordination Sequence:
#
# PCOD9383671 Si02
#       8
#     8   8   4   8   4   8   8   8
#     4   9  17  27  41  65  95 125 158 196 239 288
#     4   9  17  30  48  69  93 123 160 199 236 279
#     4   9  18  32  51  73  96 126 164 199 233 289
#     4  10  19  33  53  74  97 127 162 200 243 290
#     4   9  18  34  53  70  95 134 172 201 235 287
#     4  10  20  32  49  73  98 124 160 202 243 287
#     4   9  16  28  46  67  92 124 163 202 240 286
#     4   9  17  29  46  69  96 124 155 193 240 291
#
# _framework density 22.694410000000001
#
# number of rings (size 3 to 8) (size 9 to 14) (size 15 to 20)
#    0.000    2.714    0.714    1.286    1.000    4.000 
#    0.000    3.214    0.000    2.571    0.000    2.000 
#    0.000    0.000    0.000    6.000    0.000    5.714 
#
# Total GULP energy -312456.169979 kJ/mol
# GULP energy per Si atom -5579.574464 kJ/mol
# Density = 2.264276 g / cm^3
# Si number density = 22.694410 Si / 1000 Ang^3
#
#
#
# Elastic Constant Matrix: (Units=GPa)
#
#
# Indices 1 2 3 4 5 6 
#
# 1 83.7390 11.7602 -0.4786 0.0000 0.0000 0.0000
# 2 11.7602 222.4745 115.0622 0.0000 0.0000 0.0000
# 3 -0.4786 115.0622 145.2495 0.0000 0.0000 0.0000
# 4 0.0000 0.0000 0.0000 45.6528 0.0000 0.0000
# 5 0.0000 0.0000 0.0000 0.0000 -9.2930 0.0000
# 6 0.0000 0.0000 0.0000 0.0000 0.0000 -13.6168
#
#
#
# Elastic Compliance Matrix: (Units=1/GPa)
#
#
# Indices 1 2 3 4 5 6 
#
# 1 0.012104 -0.001119 0.000926 0.000000 0.000000 0.000000
# 2 -0.001119 0.007718 -0.006118 0.000000 0.000000 0.000000
# 3 0.000926 -0.006118 0.011734 0.000000 0.000000 0.000000
# 4 0.000000 0.000000 0.000000 0.021904 0.000000 0.000000
# 5 0.000000 0.000000 0.000000 0.000000 -0.107608 0.000000
# 6 0.000000 0.000000 0.000000 0.000000 0.000000 -0.073439
#
#
# Mechanical properties :
#
#
# Convention : Reuss Voigt Hill
#
# Bulk Modulus (GPa) = 52.81039 78.23895 65.52467
# Shear Modulus (GPa) = -46.01794 26.22322 -9.89736
#
# Velocity S-wave (km/s) = -4.50791 3.40294 -2.09060
# Velocity P-wave (km/s) = 1.94274 7.07035 4.80706
#
# Compressibility (1/GPa) = 0.01893567
#
# Stress axis : x y z
#
# Youngs Moduli (GPa) = 82.61528 129.56596 85.22226
#
# Poissons Ratio (x) = 0.14497 -0.07893
# Poissons Ratio (y) = 0.09244 0.52137
# Poissons Ratio (z) = -0.07652 0.79265
#
# Static dielectric constant tensor:
#      x y z
#    x 1.906890 0.000000 0.000000 
#    y 0.000000 1.820290 0.000000 
#    z 0.000000 0.000000 1.870100 
# 
# From -- ./inp_files/21669.got.cif
#   From: 2010.05.17/outbox.cif.g08.bks.cpg/sg47_11_cif.got.tgz:21669.got - 2010.06.03 20:15:42.
