data_PCOD9383331
_publ_section_title
;
Structure prediction by ZEFSAII (Michael W. Deem and Ramdas Pophale) SiO2 
 PCOD9383331
Probable space group: P M M M
;
_chemical_formula_sum "Si O2"
_cell_formula_units_Z 64
_cell_length_a 21.730708
_cell_length_b 18.061574
_cell_length_c 8.057511
_cell_angle_alpha 90.000000
_cell_angle_beta 90.000000
_cell_angle_gamma 90.000000
_cell_volume 3162.498863
_symmetry_space_group_name_H-M "P M M M"
_symmetry_group_IT_number 47
_symmetry_cell_setting 'orthorhombic'
loop_
_space_group_symop_operation_xyz
x,y,z
-x,-y,z
x,-y,-z
-x,y,-z
-x,-y,-z
x,y,-z
-x,y,z
x,-y,z
loop_
_atom_site_type_symbol
_atom_site_label
_atom_site_fract_x
_atom_site_fract_y
_atom_site_fract_z
Si Si1 0.569633 0.118156 0.700954
Si Si2 0.707660 0.081074 0.198148
Si Si3 0.933144 0.747509 0.297603
Si Si4 0.796664 0.215702 0.301630
Si Si5 0.088585 0.580816 0.693180
Si Si6 0.352953 0.577773 0.199433
Si Si7 0.219769 0.619075 0.804826
Si Si8 0.566599 0.712425 0.698638
O O1 0.569105 0.113774 0.500000
O O2 0.500000 0.092379 0.753156
O O3 0.634825 0.085147 0.756996
O O4 0.575053 0.203798 0.756996
O O5 0.750889 0.147822 0.262336
O O6 0.729966 0.000000 0.256957
O O7 0.711549 0.083841 0.000000
O O8 0.932079 0.745400 0.500000
O O9 0.869394 0.788389 0.249143
O O10 0.931509 0.661262 0.238463
O O11 0.000000 0.778934 0.247686
O O12 0.795942 0.225780 0.500000
O O13 0.774488 0.292582 0.221060
O O14 0.070421 0.580015 0.500000
O O15 0.070748 0.500000 0.764539
O O16 0.161891 0.588351 0.706992
O O17 0.381077 0.500000 0.258916
O O18 0.282469 0.582412 0.251629
O O19 0.384554 0.652383 0.254010
O O20 0.353940 0.577534 0.000000
O O21 0.209932 0.604020 0.000000
O O22 0.565623 0.717766 0.500000
O O23 0.500000 0.686226 0.758505
#
# Coordination Sequence:
#
# PCOD9383331 Si02
#       8
#     8   8   8   8   8   8   8   8
#     4   9  19  37  60  84 110 141 177 216 257 305
#     4  11  24  39  56  82 115 146 174 207 251 307
#     4   8  15  29  50  77 106 136 175 225 277 322
#     4  10  20  35  57  82 106 135 174 219 264 314
#     4   9  17  28  44  70 103 138 177 219 262 310
#     4  10  21  33  44  63  91 124 165 211 257 303
#     4  10  19  32  50  70  96 132 172 213 261 315
#     4   9  19  35  52  70  92 120 158 203 250 300
#
# _framework density 20.237161
#
# number of rings (size 3 to 8) (size 9 to 14) (size 15 to 20)
#    0.000    2.500    0.000    3.750    0.000    6.750 
#    0.000    5.000    0.000    9.750    0.000    6.125 
#    0.000    0.000    0.000    0.000    0.000    0.000 
#
# Total GULP energy -356606.858264 kJ/mol
# GULP energy per Si atom -5571.982160 kJ/mol
# Density = 2.019110 g / cm^3
# Si number density = 20.237161 Si / 1000 Ang^3
#
#
#
# Elastic Constant Matrix: (Units=GPa)
#
#
# Indices 1 2 3 4 5 6 
#
# 1 116.2177 58.3380 10.3214 0.0000 0.0000 0.0000
# 2 58.3380 94.8253 3.3647 0.0000 0.0000 0.0000
# 3 10.3214 3.3647 16.8826 0.0000 0.0000 0.0000
# 4 0.0000 0.0000 0.0000 12.3868 0.0000 0.0000
# 5 0.0000 0.0000 0.0000 0.0000 8.9647 0.0000
# 6 0.0000 0.0000 0.0000 0.0000 0.0000 -42.9366
#
#
#
# Elastic Compliance Matrix: (Units=1/GPa)
#
#
# Indices 1 2 3 4 5 6 
#
# 1 0.013112 -0.007838 -0.006454 0.000000 0.000000 0.000000
# 2 -0.007838 0.015306 0.001741 0.000000 0.000000 0.000000
# 3 -0.006454 0.001741 0.062832 0.000000 0.000000 0.000000
# 4 0.000000 0.000000 0.000000 0.080731 0.000000 0.000000
# 5 0.000000 0.000000 0.000000 0.000000 0.111548 0.000000
# 6 0.000000 0.000000 0.000000 0.000000 0.000000 -0.023290
#
#
# Mechanical properties :
#
#
# Convention : Reuss Voigt Hill
#
# Bulk Modulus (GPa) = 15.11760 41.33041 28.22401
# Shear Modulus (GPa) = 16.26603 6.07642 11.17122
#
# Velocity S-wave (km/s) = 2.83816 1.73468 2.35205
# Velocity P-wave (km/s) = 4.26927 4.94768 4.62094
#
# Compressibility (1/GPa) = 0.06614806
#
# Stress axis : x y z
#
# Youngs Moduli (GPa) = 76.26565 65.33467 15.91558
#
# Poissons Ratio (x) = 0.51208 0.10272
# Poissons Ratio (y) = 0.59775 -0.02771
# Poissons Ratio (z) = 0.49223 -0.11376
#
# Static dielectric constant tensor:
#      x y z
#    x 1.750720 0.000000 0.000000 
#    y 0.000000 1.751160 0.000000 
#    z 0.000000 0.000000 1.729650 
# 
# From -- ./inp_files/12775.got.cif
#   From: 2010.05.17/outbox.cif.g08.bks.cpg/sg47_7_cif.got.tgz:12775.got - 2010.06.03 20:15:42.
