data_PCOD9383303
_publ_section_title
;
Structure prediction by ZEFSAII (Michael W. Deem and Ramdas Pophale) SiO2 
 PCOD9383303
Probable space group: P M M M
;
_chemical_formula_sum "Si O2"
_cell_formula_units_Z 52
_cell_length_a 12.540337
_cell_length_b 18.055771
_cell_length_c 14.478762
_cell_angle_alpha 90.000000
_cell_angle_beta 90.000000
_cell_angle_gamma 90.000000
_cell_volume 3278.360247
_symmetry_space_group_name_H-M "P M M M"
_symmetry_group_IT_number 47
_symmetry_cell_setting 'orthorhombic'
loop_
_space_group_symop_operation_xyz
x,y,z
-x,-y,z
x,-y,-z
-x,y,-z
-x,-y,-z
x,y,-z
-x,y,z
x,-y,z
loop_
_atom_site_type_symbol
_atom_site_label
_atom_site_fract_x
_atom_site_fract_y
_atom_site_fract_z
Si Si1 0.500000 0.585250 0.888093
Si Si2 0.500000 0.914960 0.887811
Si Si3 0.129254 0.786558 0.394825
Si Si4 0.870714 0.500000 0.605178
Si Si5 0.128081 0.913605 0.256987
Si Si6 0.128511 0.356985 0.724692
Si Si7 0.721237 0.336186 0.107999
Si Si8 0.278628 0.158361 0.108035
O O1 0.500000 0.500000 0.855765
O O2 0.608196 0.628229 0.862630
O O3 0.500000 0.583954 0.000000
O O4 0.392030 0.874127 0.859654
O O5 0.500000 0.000000 0.857459
O O6 0.500000 0.914031 0.000000
O O7 0.168306 0.779911 0.500000
O O8 0.157992 0.863508 0.345374
O O9 0.160599 0.718037 0.329393
O O10 0.000000 0.783921 0.398782
O O11 0.831129 0.500000 0.500000
O O12 0.841172 0.573399 0.661093
O O13 0.000000 0.500000 0.600722
O O14 0.186662 0.877066 0.169916
O O15 0.000000 0.908545 0.245791
O O16 0.156062 0.000000 0.266533
O O17 0.186905 0.361789 0.822576
O O18 0.000000 0.356226 0.736139
O O19 0.717414 0.247074 0.113954
O O20 0.740318 0.355580 0.000000
O O21 0.263459 0.138721 0.000000
#
# Coordination Sequence:
#
# PCOD9383303 Si02
#       8
#     4   4   8   4   8   8   8   8
#     4   9  19  35  53  73  98 131 172 209 240 286
#     4   9  17  29  47  69  91 120 163 212 254 286
#     4   9  17  31  50  70  96 131 169 209 251 294
#     4   9  18  32  51  76 103 130 163 206 249 291
#     4  10  20  32  46  70 103 135 170 208 250 304
#     4  10  19  32  51  78 107 133 164 200 245 301
#     4  10  20  33  51  74 102 136 170 203 240 289
#     4  10  19  32  49  70  99 132 167 206 246 290
#
# _framework density 15.861587999999999
#
# number of rings (size 3 to 8) (size 9 to 14) (size 15 to 20)
#    0.000    2.385    1.538    1.385    1.077    5.538 
#    0.000    3.846    0.000    1.385    0.000    4.308 
#    0.000    1.846    0.000    0.000    0.000    0.000 
#
# Total GULP energy -289772.000836 kJ/mol
# GULP energy per Si atom -5572.538478 kJ/mol
# Density = 1.582549 g / cm^3
# Si number density = 15.861588 Si / 1000 Ang^3
#
#
#
# Elastic Constant Matrix: (Units=GPa)
#
#
# Indices 1 2 3 4 5 6 
#
# 1 49.0405 34.9687 43.7612 0.0000 0.0000 0.0000
# 2 34.9687 107.0031 52.0003 0.0000 0.0000 0.0000
# 3 43.7612 52.0003 102.7887 0.0000 0.0000 0.0000
# 4 0.0000 0.0000 0.0000 8.0856 0.0000 0.0000
# 5 0.0000 0.0000 0.0000 0.0000 -2.2082 0.0000
# 6 0.0000 0.0000 0.0000 0.0000 0.0000 21.9222
#
#
#
# Elastic Compliance Matrix: (Units=1/GPa)
#
#
# Indices 1 2 3 4 5 6 
#
# 1 0.035249 -0.005604 -0.012172 0.000000 0.000000 0.000000
# 2 -0.005604 0.013283 -0.004334 0.000000 0.000000 0.000000
# 3 -0.012172 -0.004334 0.017103 0.000000 0.000000 0.000000
# 4 0.000000 0.000000 0.000000 0.123676 0.000000 0.000000
# 5 0.000000 0.000000 0.000000 0.000000 -0.452860 0.000000
# 6 0.000000 0.000000 0.000000 0.000000 0.000000 0.045616
#
#
# Mechanical properties :
#
#
# Convention : Reuss Voigt Hill
#
# Bulk Modulus (GPa) = 46.69530 57.81032 52.25281
# Shear Modulus (GPa) = -30.01650 14.10008 -7.95821
#
# Velocity S-wave (km/s) = -4.35489 2.98475 -2.24236
# Velocity P-wave (km/s) = 2.05337 6.95731 5.12935
#
# Compressibility (1/GPa) = 0.02141543
#
# Stress axis : x y z
#
# Youngs Moduli (GPa) = 28.36978 75.28324 58.46886
#
# Poissons Ratio (x) = 0.42191 0.71166
# Poissons Ratio (y) = 0.15899 0.25340
# Poissons Ratio (z) = 0.34531 0.32627
#
# Static dielectric constant tensor:
#      x y z
#    x 1.511630 0.000000 0.000000 
#    y 0.000000 1.539980 0.000000 
#    z 0.000000 0.000000 1.521250 
# 
# From -- ./inp_files/22931.got.cif
#   From: 2010.05.17/outbox.cif.g08.bks.cpg/sg47_12_cif.got.tgz:22931.got - 2010.06.03 20:15:42.
