data_PCOD9383524
_publ_section_title
;
Structure prediction by ZEFSAII (Michael W. Deem and Ramdas Pophale) SiO2 
 PCOD9383524
Probable space group: P M M M
;
_chemical_formula_sum "Si O2"
_cell_formula_units_Z 52
_cell_length_a 12.096051
_cell_length_b 28.726069
_cell_length_c 9.108867
_cell_angle_alpha 90.000000
_cell_angle_beta 90.000000
_cell_angle_gamma 90.000000
_cell_volume 3165.076195
_symmetry_space_group_name_H-M "P M M M"
_symmetry_group_IT_number 47
_symmetry_cell_setting 'orthorhombic'
loop_
_space_group_symop_operation_xyz
x,y,z
-x,-y,z
x,-y,-z
-x,y,-z
-x,-y,-z
x,y,-z
-x,y,z
x,-y,z
loop_
_atom_site_type_symbol
_atom_site_label
_atom_site_fract_x
_atom_site_fract_y
_atom_site_fract_z
Si Si1 0.133137 0.368416 0.330234
Si Si2 0.274504 0.911958 0.322494
Si Si3 0.125602 0.000000 0.678190
Si Si4 0.500000 0.055532 0.823692
Si Si5 0.134260 0.725673 0.168405
Si Si6 0.870699 0.177950 0.323750
Si Si7 0.727382 0.445371 0.824704
Si Si8 0.500000 0.556420 0.667749
O O1 0.167643 0.370570 0.500000
O O2 0.170848 0.320016 0.256589
O O3 0.180576 0.412031 0.242338
O O4 0.000000 0.369227 0.325603
O O5 0.289478 0.913339 0.500000
O O6 0.193393 0.954294 0.279648
O O7 0.390965 0.920860 0.244557
O O8 0.210944 0.864230 0.285595
O O9 0.120622 0.000000 0.500000
O O10 0.000000 0.000000 0.732811
O O11 0.500000 0.000000 0.786834
O O12 0.500000 0.059584 0.000000
O O13 0.163239 0.774116 0.246126
O O14 0.000000 0.724436 0.167877
O O15 0.171831 0.724163 0.000000
O O16 0.867525 0.184131 0.500000
O O17 0.000000 0.167491 0.286087
O O18 0.746522 0.500000 0.789084
O O19 0.610741 0.430589 0.753685
O O20 0.722673 0.441260 0.000000
O O21 0.500000 0.500000 0.663689
O O22 0.500000 0.573268 0.500000
#
# Coordination Sequence:
#
# PCOD9383524 Si02
#       8
#     8   8   4   4   8   8   8   4
#     4  10  20  33  50  73 102 136 173 213 256 303
#     4  10  19  32  53  76  99 130 168 206 242 289
#     4   9  16  27  47  76 104 127 156 197 242 285
#     4  11  23  37  51  68  97 136 177 215 248 288
#     4   9  17  30  49  72  99 133 169 203 244 301
#     4   9  17  30  50  78 106 128 156 200 253 302
#     4  10  20  33  50  73 102 135 171 212 257 307
#     4   9  17  31  51  72  95 126 167 211 251 293
#
# _framework density 16.429303000000001
#
# number of rings (size 3 to 8) (size 9 to 14) (size 15 to 20)
#    0.000    2.385    0.769    2.308    0.000    7.692 
#    0.000    1.538    0.000    2.769    0.000    3.231 
#    0.000    0.000    0.000    0.000    0.000    0.000 
#
# Total GULP energy -289949.708402 kJ/mol
# GULP energy per Si atom -5575.955931 kJ/mol
# Density = 1.639191 g / cm^3
# Si number density = 16.429303 Si / 1000 Ang^3
#
#
#
# Elastic Constant Matrix: (Units=GPa)
#
#
# Indices 1 2 3 4 5 6 
#
# 1 81.6423 53.7475 42.1891 0.0000 0.0000 0.0000
# 2 53.7475 127.2976 67.0320 0.0000 0.0000 0.0000
# 3 42.1891 67.0320 78.0840 0.0000 0.0000 0.0000
# 4 0.0000 0.0000 0.0000 24.6013 0.0000 0.0000
# 5 0.0000 0.0000 0.0000 0.0000 20.9550 0.0000
# 6 0.0000 0.0000 0.0000 0.0000 0.0000 -0.4194
#
#
#
# Elastic Compliance Matrix: (Units=1/GPa)
#
#
# Indices 1 2 3 4 5 6 
#
# 1 0.018368 -0.004616 -0.005962 0.000000 0.000000 0.000000
# 2 -0.004616 0.015496 -0.010809 0.000000 0.000000 0.000000
# 3 -0.005962 -0.010809 0.025307 0.000000 0.000000 0.000000
# 4 0.000000 0.000000 0.000000 0.040648 0.000000 0.000000
# 5 0.000000 0.000000 0.000000 0.000000 0.047721 0.000000
# 6 0.000000 0.000000 0.000000 0.000000 0.000000 -2.384635
#
#
# Mechanical properties :
#
#
# Convention : Reuss Voigt Hill
#
# Bulk Modulus (GPa) = 60.98286 68.10678 64.54482
# Shear Modulus (GPa) = -2.28430 17.29775 7.50673
#
# Velocity S-wave (km/s) = -1.18042 3.24830 2.13987
# Velocity P-wave (km/s) = 5.94484 7.45742 6.74367
#
# Compressibility (1/GPa) = 0.01639805
#
# Stress axis : x y z
#
# Youngs Moduli (GPa) = 54.44191 64.53140 39.51512
#
# Poissons Ratio (x) = 0.29789 0.23557
# Poissons Ratio (y) = 0.25131 0.42711
# Poissons Ratio (z) = 0.32456 0.69751
#
# Static dielectric constant tensor:
#      x y z
#    x 1.536620 0.000000 0.000000 
#    y 0.000000 1.536750 0.000000 
#    z 0.000000 0.000000 1.551100 
# 
# From -- ./inp_files/4622.got.cif
#   From: 2010.05.17/outbox.cif.g08.bks.cpg/sg47_3_cif.got.tgz:4622.got - 2010.06.03 20:15:42.
