data_PCOD9383805
_publ_section_title
;
Structure prediction by ZEFSAII (Michael W. Deem and Ramdas Pophale) SiO2 
 PCOD9383805
Probable space group: P M M M
;
_chemical_formula_sum "Si O2"
_cell_formula_units_Z 48
_cell_length_a 9.890555
_cell_length_b 19.573612
_cell_length_c 14.196998
_cell_angle_alpha 90.000000
_cell_angle_beta 90.000000
_cell_angle_gamma 90.000000
_cell_volume 2748.452013
_symmetry_space_group_name_H-M "P M M M"
_symmetry_group_IT_number 47
_symmetry_cell_setting 'orthorhombic'
loop_
_space_group_symop_operation_xyz
x,y,z
-x,-y,z
x,-y,-z
-x,y,-z
-x,-y,-z
x,y,-z
-x,y,z
x,-y,z
loop_
_atom_site_type_symbol
_atom_site_label
_atom_site_fract_x
_atom_site_fract_y
_atom_site_fract_z
Si Si1 0.752797 0.655918 0.204564
Si Si2 0.659306 0.855335 0.609783
Si Si3 0.500000 0.417791 0.887154
Si Si4 0.157276 0.077709 0.759610
Si Si5 0.839267 0.792960 0.110050
Si Si6 0.160332 0.717879 0.609289
Si Si7 0.000000 0.581553 0.891107
O O1 0.624375 0.616390 0.166476
O O2 0.760549 0.732410 0.161886
O O3 0.778633 0.665078 0.315675
O O4 0.873426 0.613050 0.160373
O O5 0.664476 0.875807 0.500000
O O6 0.500000 0.845294 0.634041
O O7 0.736340 0.908232 0.676715
O O8 0.748869 0.786174 0.618449
O O9 0.500000 0.500000 0.878788
O O10 0.500000 0.402452 0.000000
O O11 0.182577 0.134792 0.838939
O O12 0.000000 0.086781 0.727644
O O13 0.169743 0.000000 0.794145
O O14 0.000000 0.777379 0.118276
O O15 0.805256 0.795501 0.000000
O O16 0.167693 0.696148 0.500000
O O17 0.000000 0.730572 0.631156
O O18 0.000000 0.500000 0.887852
O O19 0.000000 0.603212 0.000000
#
# Coordination Sequence:
#
# PCOD9383805 Si02
#       7
#     8   8   4   8   8   8   4
#     4  12  21  37  62  89 118 157 200 245 295 349
#     4  10  21  36  56  83 114 151 195 244 301 360
#     4  11  26  44  61  89 130 166 194 235 299 365
#     4  10  21  36  55  80 115 157 197 244 300 353
#     4  10  19  33  56  85 114 146 193 246 290 342
#     4  10  20  36  60  91 123 155 196 251 305 352
#     4  11  22  36  59  89 118 150 192 241 297 355
#
# _framework density 17.464376000000001
#
# number of rings (size 3 to 8) (size 9 to 14) (size 15 to 20)
#    0.000    1.500    3.333    2.500    1.167    3.333 
#    0.000    3.333    0.000    3.000    0.000    1.167 
#    0.000    0.000    0.000    0.000    0.000    0.000 
#
# Total GULP energy -267800.720527 kJ/mol
# GULP energy per Si atom -5579.181678 kJ/mol
# Density = 1.742463 g / cm^3
# Si number density = 17.464376 Si / 1000 Ang^3
#
#
#
# Elastic Constant Matrix: (Units=GPa)
#
#
# Indices 1 2 3 4 5 6 
#
# 1 125.1819 49.7275 51.3429 0.0000 0.0000 0.0000
# 2 49.7275 92.8979 54.9741 0.0000 0.0000 0.0000
# 3 51.3429 54.9741 109.2624 0.0000 0.0000 0.0000
# 4 0.0000 0.0000 0.0000 22.9109 0.0000 0.0000
# 5 0.0000 0.0000 0.0000 0.0000 23.6614 0.0000
# 6 0.0000 0.0000 0.0000 0.0000 0.0000 25.2344
#
#
#
# Elastic Compliance Matrix: (Units=1/GPa)
#
#
# Indices 1 2 3 4 5 6 
#
# 1 0.010834 -0.003968 -0.003094 0.000000 0.000000 0.000000
# 2 -0.003968 0.016782 -0.006579 0.000000 0.000000 0.000000
# 3 -0.003094 -0.006579 0.013916 0.000000 0.000000 0.000000
# 4 0.000000 0.000000 0.000000 0.043647 0.000000 0.000000
# 5 0.000000 0.000000 0.000000 0.000000 0.042263 0.000000
# 6 0.000000 0.000000 0.000000 0.000000 0.000000 0.039628
#
#
# Mechanical properties :
#
#
# Convention : Reuss Voigt Hill
#
# Bulk Modulus (GPa) = 70.17904 71.04792 70.61348
# Shear Modulus (GPa) = 25.11259 25.78119 25.44689
#
# Velocity S-wave (km/s) = 3.79612 3.84632 3.82131
# Velocity P-wave (km/s) = 7.71268 7.77789 7.74535
#
# Compressibility (1/GPa) = 0.01424927
#
# Stress axis : x y z
#
# Youngs Moduli (GPa) = 92.30363 59.58832 71.85742
#
# Poissons Ratio (x) = 0.23645 0.22235
# Poissons Ratio (y) = 0.36627 0.47275
# Poissons Ratio (z) = 0.28562 0.39203
#
# Static dielectric constant tensor:
#      x y z
#    x 1.570500 0.000000 0.000000 
#    y 0.000000 1.582070 0.000000 
#    z 0.000000 0.000000 1.595040 
# 
# From -- ./inp_files/9206.got.cif
#   From: 2010.05.17/outbox.cif.g08.bks.cpg/sg47_5_cif.got.tgz:9206.got - 2010.06.03 20:15:42.
