data_PCOD9383439
_publ_section_title
;
Structure prediction by ZEFSAII (Michael W. Deem and Ramdas Pophale) SiO2 
 PCOD9383439
Probable space group: P M M M
;
_chemical_formula_sum "Si O2"
_cell_formula_units_Z 64
_cell_length_a 20.747637
_cell_length_b 18.463220
_cell_length_c 8.223925
_cell_angle_alpha 90.000000
_cell_angle_beta 90.000000
_cell_angle_gamma 90.000000
_cell_volume 3150.324035
_symmetry_space_group_name_H-M "P M M M"
_symmetry_group_IT_number 47
_symmetry_cell_setting 'orthorhombic'
loop_
_space_group_symop_operation_xyz
x,y,z
-x,-y,z
x,-y,-z
-x,y,-z
-x,-y,-z
x,y,-z
-x,y,z
x,-y,z
loop_
_atom_site_type_symbol
_atom_site_label
_atom_site_fract_x
_atom_site_fract_y
_atom_site_fract_z
Si Si1 0.210539 0.718100 0.302035
Si Si2 0.380046 0.922182 0.190121
Si Si3 0.289220 0.421610 0.306215
Si Si4 0.102729 0.920337 0.805124
Si Si5 0.755452 0.880997 0.695646
Si Si6 0.930615 0.238324 0.694992
Si Si7 0.573780 0.619376 0.187100
Si Si8 0.423453 0.229827 0.323489
O O1 0.208977 0.715459 0.500000
O O2 0.250192 0.648391 0.242335
O O3 0.243696 0.795122 0.262430
O O4 0.135992 0.725412 0.244655
O O5 0.303624 0.918746 0.216783
O O6 0.403966 0.850310 0.276634
O O7 0.404286 0.000000 0.252561
O O8 0.396044 0.917434 0.000000
O O9 0.279525 0.421455 0.500000
O O10 0.267023 0.500000 0.241631
O O11 0.365809 0.415913 0.275387
O O12 0.177344 0.913788 0.753752
O O13 0.072738 0.847537 0.732029
O O14 0.078749 0.000000 0.752743
O O15 0.096461 0.916478 0.000000
O O16 0.749746 0.888167 0.500000
O O17 0.929907 0.246600 0.500000
O O18 0.000000 0.265871 0.756745
O O19 0.500000 0.607818 0.250416
O O20 0.589414 0.705216 0.200579
O O21 0.573802 0.596730 0.000000
O O22 0.394464 0.249361 0.500000
O O23 0.500000 0.228917 0.336573
#
# Coordination Sequence:
#
# PCOD9383439 Si02
#       8
#     8   8   8   8   8   8   8   8
#     4   8  16  32  52  75 102 131 168 214 260 307
#     4  11  23  35  48  70 101 135 172 218 271 322
#     4  10  20  34  55  82 111 143 176 212 257 312
#     4  10  20  32  46  68 102 138 168 208 266 323
#     4  10  19  32  52  73  95 130 176 221 262 309
#     4   9  18  33  53  74  97 133 180 224 265 314
#     4  10  21  37  57  80 108 142 176 213 261 317
#     4  10  21  37  56  75  96 127 171 220 265 314
#
# _framework density 20.315370000000001
#
# number of rings (size 3 to 8) (size 9 to 14) (size 15 to 20)
#    0.000    2.250    0.000    3.750    0.000    7.250 
#    0.000    6.250    0.000    0.375    0.000    2.625 
#    0.000    0.000    0.000    5.625    0.000    6.250 
#
# Total GULP energy -357013.901658 kJ/mol
# GULP energy per Si atom -5578.342213 kJ/mol
# Density = 2.026913 g / cm^3
# Si number density = 20.315370 Si / 1000 Ang^3
#
#
#
# Elastic Constant Matrix: (Units=GPa)
#
#
# Indices 1 2 3 4 5 6 
#
# 1 54.7452 48.7493 0.2621 0.0000 0.0000 0.0000
# 2 48.7493 119.3027 1.0478 0.0000 0.0000 0.0000
# 3 0.2621 1.0478 13.6928 0.0000 0.0000 0.0000
# 4 0.0000 0.0000 0.0000 -9.6756 0.0000 0.0000
# 5 0.0000 0.0000 0.0000 0.0000 1.4281 0.0000
# 6 0.0000 0.0000 0.0000 0.0000 0.0000 -12.3587
#
#
#
# Elastic Compliance Matrix: (Units=1/GPa)
#
#
# Indices 1 2 3 4 5 6 
#
# 1 0.028716 -0.011737 0.000348 0.000000 0.000000 0.000000
# 2 -0.011737 0.013185 -0.000784 0.000000 0.000000 0.000000
# 3 0.000348 -0.000784 0.073085 0.000000 0.000000 0.000000
# 4 0.000000 0.000000 0.000000 -0.103352 0.000000 0.000000
# 5 0.000000 0.000000 0.000000 0.000000 0.700250 0.000000
# 6 0.000000 0.000000 0.000000 0.000000 0.000000 -0.080915
#
#
# Mechanical properties :
#
#
# Convention : Reuss Voigt Hill
#
# Bulk Modulus (GPa) = 11.03265 31.98432 21.50849
# Shear Modulus (GPa) = 7.29366 5.05752 6.17559
#
# Velocity S-wave (km/s) = 1.89684 1.57953 1.74541
# Velocity P-wave (km/s) = 3.19997 4.37088 3.83043
#
# Compressibility (1/GPa) = 0.09064007
#
# Stress axis : x y z
#
# Youngs Moduli (GPa) = 34.82335 75.84419 13.68277
#
# Poissons Ratio (x) = 0.89019 -0.00477
# Poissons Ratio (y) = 0.40873 0.01073
# Poissons Ratio (z) = -0.01213 0.05948
#
# Static dielectric constant tensor:
#      x y z
#    x 1.803500 0.000000 0.000000 
#    y 0.000000 1.754170 0.000000 
#    z 0.000000 0.000000 1.721550 
# 
# From -- ./inp_files/11631.got.cif
#   From: 2010.05.17/outbox.cif.g08.bks.cpg/sg47_6_cif.got.tgz:11631.got - 2010.06.03 20:15:42.
