data_PCOD9383065
_publ_section_title
;
Structure prediction by ZEFSAII (Michael W. Deem and Ramdas Pophale) SiO2 
 PCOD9383065
Probable space group: P M M M
;
_chemical_formula_sum "Si O2"
_cell_formula_units_Z 52
_cell_length_a 26.892949
_cell_length_b 12.806814
_cell_length_c 8.972520
_cell_angle_alpha 90.000000
_cell_angle_beta 90.000000
_cell_angle_gamma 90.000000
_cell_volume 3090.252493
_symmetry_space_group_name_H-M "P M M M"
_symmetry_group_IT_number 47
_symmetry_cell_setting 'orthorhombic'
loop_
_space_group_symop_operation_xyz
x,y,z
-x,-y,z
x,-y,-z
-x,y,-z
-x,-y,-z
x,y,-z
-x,y,z
x,-y,z
loop_
_atom_site_type_symbol
_atom_site_label
_atom_site_fract_x
_atom_site_fract_y
_atom_site_fract_z
Si Si1 0.057813 0.202764 0.179448
Si Si2 0.769559 0.000000 0.678839
Si Si3 0.123068 0.622522 0.677294
Si Si4 0.296289 0.202553 0.678900
Si Si5 0.500000 0.873155 0.327987
Si Si6 0.603425 0.124894 0.177329
Si Si7 0.878228 0.000000 0.179550
Si Si8 0.229546 0.376723 0.822598
O O1 0.080687 0.304196 0.256554
O O2 0.000000 0.187171 0.217121
O O3 0.090763 0.102724 0.223243
O O4 0.061230 0.213822 0.000000
O O5 0.738166 0.897124 0.719988
O O6 0.823499 0.000000 0.752315
O O7 0.775273 0.000000 0.500000
O O8 0.127546 0.637004 0.500000
O O9 0.113239 0.500000 0.706471
O O10 0.175554 0.649616 0.754447
O O11 0.298634 0.208258 0.500000
O O12 0.350626 0.182053 0.745474
O O13 0.270493 0.304655 0.745994
O O14 0.500000 0.839625 0.500000
O O15 0.449516 0.841301 0.245059
O O16 0.500000 0.000000 0.326354
O O17 0.608837 0.000000 0.205393
O O18 0.604020 0.140575 0.000000
O O19 0.874322 0.000000 0.000000
O O20 0.238156 0.500000 0.795143
O O21 0.228847 0.359426 0.000000
#
# Coordination Sequence:
#
# PCOD9383065 Si02
#       8
#     8   4   8   8   4   8   4   8
#     4  10  21  37  56  77 101 131 168 209 253 303
#     4  10  22  35  49  74 107 138 168 207 255 307
#     4  10  21  37  56  78 104 132 164 206 258 312
#     4  11  21  34  52  76 109 143 177 217 263 313
#     4   9  17  29  47  69 100 143 184 223 269 316
#     4  10  19  31  48  73 106 143 184 224 264 312
#     4  10  21  36  54  74  99 133 170 207 248 299
#     4  10  21  37  56  78 104 135 174 217 261 311
#
# _framework density 16.827103999999999
#
# number of rings (size 3 to 8) (size 9 to 14) (size 15 to 20)
#    0.000    1.923    0.769    3.231    0.000    9.231 
#    0.000    1.538    0.000    1.385    0.000    0.538 
#    0.000    4.308    0.000    0.000    0.000    0.000 
#
# Total GULP energy -290416.833873 kJ/mol
# GULP energy per Si atom -5584.939113 kJ/mol
# Density = 1.678880 g / cm^3
# Si number density = 16.827104 Si / 1000 Ang^3
#
#
#
# Elastic Constant Matrix: (Units=GPa)
#
#
# Indices 1 2 3 4 5 6 
#
# 1 161.2269 57.4295 56.3031 0.0000 0.0000 0.0000
# 2 57.4295 53.3399 36.0235 0.0000 0.0000 0.0000
# 3 56.3031 36.0235 51.5079 0.0000 0.0000 0.0000
# 4 0.0000 0.0000 0.0000 20.4826 0.0000 0.0000
# 5 0.0000 0.0000 0.0000 0.0000 49.9718 0.0000
# 6 0.0000 0.0000 0.0000 0.0000 0.0000 3.3818
#
#
#
# Elastic Compliance Matrix: (Units=1/GPa)
#
#
# Indices 1 2 3 4 5 6 
#
# 1 0.011350 -0.007280 -0.007316 0.000000 0.000000 0.000000
# 2 -0.007280 0.040199 -0.020156 0.000000 0.000000 0.000000
# 3 -0.007316 -0.020156 0.041508 0.000000 0.000000 0.000000
# 4 0.000000 0.000000 0.000000 0.048822 0.000000 0.000000
# 5 0.000000 0.000000 0.000000 0.000000 0.020011 0.000000
# 6 0.000000 0.000000 0.000000 0.000000 0.000000 0.295698
#
#
# Mechanical properties :
#
#
# Convention : Reuss Voigt Hill
#
# Bulk Modulus (GPa) = 42.45700 62.84299 52.64999
# Shear Modulus (GPa) = 9.34679 22.52182 15.93430
#
# Velocity S-wave (km/s) = 2.35938 3.66242 3.08058
# Velocity P-wave (km/s) = 5.71912 7.43719 6.63401
#
# Compressibility (1/GPa) = 0.02355324
#
# Stress axis : x y z
#
# Youngs Moduli (GPa) = 88.10364 24.87652 24.09172
#
# Poissons Ratio (x) = 0.18110 0.17624
# Poissons Ratio (y) = 0.64139 0.48560
# Poissons Ratio (z) = 0.64452 0.50142
#
# Static dielectric constant tensor:
#      x y z
#    x 1.539420 0.000000 0.000000 
#    y 0.000000 1.552920 0.000000 
#    z 0.000000 0.000000 1.559710 
# 
# From -- ./inp_files/13348.got.cif
#   From: 2010.05.17/outbox.cif.g08.bks.cpg/sg47_7_cif.got.tgz:13348.got - 2010.06.03 20:15:42.
