data_PCOD9383316
_publ_section_title
;
Structure prediction by ZEFSAII (Michael W. Deem and Ramdas Pophale) SiO2 
 PCOD9383316
Probable space group: P M M M
;
_chemical_formula_sum "Si O2"
_cell_formula_units_Z 64
_cell_length_a 19.449025
_cell_length_b 14.454338
_cell_length_c 13.574103
_cell_angle_alpha 90.000000
_cell_angle_beta 90.000000
_cell_angle_gamma 90.000000
_cell_volume 3815.989587
_symmetry_space_group_name_H-M "P M M M"
_symmetry_group_IT_number 47
_symmetry_cell_setting 'orthorhombic'
loop_
_space_group_symop_operation_xyz
x,y,z
-x,-y,z
x,-y,-z
-x,y,-z
-x,-y,-z
x,y,-z
-x,y,z
x,-y,z
loop_
_atom_site_type_symbol
_atom_site_label
_atom_site_fract_x
_atom_site_fract_y
_atom_site_fract_z
Si Si1 0.364900 0.606742 0.384579
Si Si2 0.721992 0.604747 0.196734
Si Si3 0.075122 0.802335 0.118110
Si Si4 0.422839 0.207591 0.311125
Si Si5 0.654497 0.216718 0.110877
Si Si6 0.126696 0.396790 0.882971
Si Si7 0.783908 0.889306 0.192166
Si Si8 0.288957 0.111097 0.608596
O O1 0.349804 0.622040 0.500000
O O2 0.389147 0.500000 0.374531
O O3 0.299984 0.617279 0.310738
O O4 0.416186 0.685415 0.345380
O O5 0.703083 0.500000 0.168535
O O6 0.681769 0.679976 0.133142
O O7 0.802574 0.615061 0.176561
O O8 0.080411 0.692081 0.136680
O O9 0.142007 0.849762 0.163878
O O10 0.000000 0.836509 0.151396
O O11 0.079112 0.815558 0.000000
O O12 0.500000 0.174574 0.328025
O O13 0.400503 0.197366 0.196797
O O14 0.363480 0.154180 0.370092
O O15 0.722042 0.152879 0.127014
O O16 0.628879 0.207095 0.000000
O O17 0.098416 0.500000 0.863381
O O18 0.143743 0.393751 0.000000
O O19 0.761844 0.861780 0.303221
O O20 0.784318 0.000000 0.183598
O O21 0.265280 0.139004 0.500000
O O22 0.294853 0.000000 0.611789
#
# Coordination Sequence:
#
# PCOD9383316 Si02
#       8
#     8   8   8   8   8   8   8   8
#     4   9  18  31  46  67  96 127 159 196 239 288
#     4   9  16  27  46  70  93 119 157 204 247 283
#     4  10  20  32  47  71 103 135 166 199 236 282
#     4  10  21  34  48  71 101 128 158 198 241 288
#     4  10  19  32  50  69  93 128 166 201 238 282
#     4   9  16  27  45  68  96 129 162 197 238 281
#     4  10  20  34  52  73  98 127 160 200 241 283
#     4   9  19  36  57  78  96 119 155 199 249 297
#
# _framework density 16.771533999999999
#
# number of rings (size 3 to 8) (size 9 to 14) (size 15 to 20)
#    0.000    2.500    1.250    1.125    0.000    4.000 
#    0.000    3.125    0.000    0.375    0.000    8.750 
#    0.000    0.000    0.000    6.000    0.000    0.250 
#
# Total GULP energy -356593.699211 kJ/mol
# GULP energy per Si atom -5571.776550 kJ/mol
# Density = 1.673336 g / cm^3
# Si number density = 16.771534 Si / 1000 Ang^3
#
#
#
# Elastic Constant Matrix: (Units=GPa)
#
#
# Indices 1 2 3 4 5 6 
#
# 1 78.5116 23.0365 13.9647 0.0000 0.0000 0.0000
# 2 23.0365 38.2709 14.1132 0.0000 0.0000 0.0000
# 3 13.9647 14.1132 76.5177 0.0000 0.0000 0.0000
# 4 0.0000 0.0000 0.0000 20.4572 0.0000 0.0000
# 5 0.0000 0.0000 0.0000 0.0000 5.7825 0.0000
# 6 0.0000 0.0000 0.0000 0.0000 0.0000 5.2525
#
#
#
# Elastic Compliance Matrix: (Units=1/GPa)
#
#
# Indices 1 2 3 4 5 6 
#
# 1 0.015570 -0.008932 -0.001194 0.000000 0.000000 0.000000
# 2 -0.008932 0.033160 -0.004486 0.000000 0.000000 0.000000
# 3 -0.001194 -0.004486 0.014114 0.000000 0.000000 0.000000
# 4 0.000000 0.000000 0.000000 0.048883 0.000000 0.000000
# 5 0.000000 0.000000 0.000000 0.000000 0.172936 0.000000
# 6 0.000000 0.000000 0.000000 0.000000 0.000000 0.190385
#
#
# Mechanical properties :
#
#
# Convention : Reuss Voigt Hill
#
# Bulk Modulus (GPa) = 29.74386 32.83658 31.29022
# Shear Modulus (GPa) = 9.69973 15.77749 12.73861
#
# Velocity S-wave (km/s) = 2.40749 3.07046 2.75896
# Velocity P-wave (km/s) = 5.04987 5.67376 5.37088
#
# Compressibility (1/GPa) = 0.03362038
#
# Stress axis : x y z
#
# Youngs Moduli (GPa) = 64.22563 30.15663 70.85035
#
# Poissons Ratio (x) = 0.26935 0.08461
# Poissons Ratio (y) = 0.57365 0.31784
# Poissons Ratio (z) = 0.07670 0.13529
#
# Static dielectric constant tensor:
#      x y z
#    x 1.539590 0.000000 0.000000 
#    y 0.000000 1.601760 0.000000 
#    z 0.000000 0.000000 1.569370 
# 
# From -- ./inp_files/18678.got.cif
#   From: 2010.05.17/outbox.cif.g08.bks.cpg/sg47_10_cif.got.tgz:18678.got - 2010.06.03 20:15:42.
