data_PCOD9383967
_publ_section_title
;
Structure prediction by ZEFSAII (Michael W. Deem and Ramdas Pophale) SiO2 
 PCOD9383967
Probable space group: P M M M
;
_chemical_formula_sum "Si O2"
_cell_formula_units_Z 37
_cell_length_a 9.473264
_cell_length_b 11.998638
_cell_length_c 18.063577
_cell_angle_alpha 90.000000
_cell_angle_beta 90.000000
_cell_angle_gamma 90.000000
_cell_volume 2053.219338
_symmetry_space_group_name_H-M "P M M M"
_symmetry_group_IT_number 47
_symmetry_cell_setting 'orthorhombic'
loop_
_space_group_symop_operation_xyz
x,y,z
-x,-y,z
x,-y,-z
-x,y,-z
-x,-y,-z
x,y,-z
-x,y,z
x,-y,z
loop_
_atom_site_type_symbol
_atom_site_label
_atom_site_fract_x
_atom_site_fract_y
_atom_site_fract_z
Si Si1 0.338023 0.633836 0.414612
Si Si2 0.744847 0.000000 0.877900
Si Si3 0.160723 0.247579 0.871239
Si Si4 0.500000 0.000000 0.000000
Si Si5 0.168598 0.224726 0.699218
Si Si6 0.335425 0.000000 0.293118
Si Si7 0.666796 0.366335 0.000000
O O1 0.311259 0.666838 0.500000
O O2 0.500000 0.666733 0.395924
O O3 0.331802 0.500000 0.411445
O O4 0.228116 0.686357 0.358288
O O5 0.830220 0.885200 0.885686
O O6 0.678543 0.000000 0.795954
O O7 0.622034 0.000000 0.936591
O O8 0.198344 0.260885 0.784429
O O9 0.000000 0.285628 0.882764
O O10 0.262187 0.311363 0.927717
O O11 0.251834 0.110407 0.682941
O O12 0.000000 0.208596 0.693942
O O13 0.500000 0.000000 0.314537
O O14 0.685477 0.500000 0.000000
O O15 0.500000 0.340873 0.000000
#
# Coordination Sequence:
#
# PCOD9383967 Si02
#       7
#     8   4   8   1   8   4   4
#     4   9  19  37  60  86 116 149 187 233 283 335
#     4  10  21  32  55  86 112 134 178 229 281 329
#     4  10  22  39  59  80 111 149 184 227 281 341
#     4  12  20  28  46  84 110 136 168 228 276 322
#     4  10  21  36  57  86 116 149 187 229 281 339
#     4  10  19  35  55  80 114 152 187 225 276 330
#     4  11  26  42  55  75 106 144 189 240 284 324
#
# _framework density 18.020482000000001
#
# number of rings (size 3 to 8) (size 9 to 14) (size 15 to 20)
#    0.000    2.054    0.541    2.919    3.027    6.919 
#    0.000    7.568    0.000    3.243    0.000    0.000 
#    0.000    0.000    0.000    0.000    0.000    0.000 
#
# Total GULP energy -206240.048411 kJ/mol
# GULP energy per Si atom -5574.055362 kJ/mol
# Density = 1.797947 g / cm^3
# Si number density = 18.020482 Si / 1000 Ang^3
#
#
#
# Elastic Constant Matrix: (Units=GPa)
#
#
# Indices 1 2 3 4 5 6 
#
# 1 122.7541 50.2627 67.6891 0.0000 0.0000 0.0000
# 2 50.2627 64.2274 47.4406 0.0000 0.0000 0.0000
# 3 67.6891 47.4406 82.9886 0.0000 0.0000 0.0000
# 4 0.0000 0.0000 0.0000 37.0196 0.0000 0.0000
# 5 0.0000 0.0000 0.0000 0.0000 35.5378 0.0000
# 6 0.0000 0.0000 0.0000 0.0000 0.0000 -13.1460
#
#
#
# Elastic Compliance Matrix: (Units=1/GPa)
#
#
# Indices 1 2 3 4 5 6 
#
# 1 0.015640 -0.004876 -0.009970 0.000000 0.000000 0.000000
# 2 -0.004876 0.028468 -0.012297 0.000000 0.000000 0.000000
# 3 -0.009970 -0.012297 0.027211 0.000000 0.000000 0.000000
# 4 0.000000 0.000000 0.000000 0.027013 0.000000 0.000000
# 5 0.000000 0.000000 0.000000 0.000000 0.028139 0.000000
# 6 0.000000 0.000000 0.000000 0.000000 0.000000 -0.076069
#
#
# Mechanical properties :
#
#
# Convention : Reuss Voigt Hill
#
# Bulk Modulus (GPa) = 58.70335 66.75055 62.72695
# Shear Modulus (GPa) = 45.30378 18.85414 32.07896
#
# Velocity S-wave (km/s) = 5.01944 3.23811 4.22375
# Velocity P-wave (km/s) = 8.13877 7.14859 7.65970
#
# Compressibility (1/GPa) = 0.01703480
#
# Stress axis : x y z
#
# Youngs Moduli (GPa) = 63.93771 35.12662 36.74951
#
# Poissons Ratio (x) = 0.17127 0.36638
# Poissons Ratio (y) = 0.31174 0.45192
# Poissons Ratio (z) = 0.63744 0.43196
#
# Static dielectric constant tensor:
#      x y z
#    x 1.602550 0.000000 0.000000 
#    y 0.000000 1.620250 0.000000 
#    z 0.000000 0.000000 1.598580 
# 
# From -- ./inp_files/3781.got.cif
#   From: 2010.05.17/outbox.cif.g08.bks.cpg/sg47_2_cif.got.tgz:3781.got - 2010.06.03 20:15:42.
