data_PCOD9383711
_publ_section_title
;
Structure prediction by ZEFSAII (Michael W. Deem and Ramdas Pophale) SiO2 
 PCOD9383711
Probable space group: P M M M
;
_chemical_formula_sum "Si O2"
_cell_formula_units_Z 48
_cell_length_a 9.998237
_cell_length_b 16.837246
_cell_length_c 15.587592
_cell_angle_alpha 90.000000
_cell_angle_beta 90.000000
_cell_angle_gamma 90.000000
_cell_volume 2624.058507
_symmetry_space_group_name_H-M "P M M M"
_symmetry_group_IT_number 47
_symmetry_cell_setting 'orthorhombic'
loop_
_space_group_symop_operation_xyz
x,y,z
-x,-y,z
x,-y,-z
-x,y,-z
-x,-y,-z
x,y,-z
-x,y,z
x,-y,z
loop_
_atom_site_type_symbol
_atom_site_label
_atom_site_fract_x
_atom_site_fract_y
_atom_site_fract_z
Si Si1 0.157178 0.686482 0.900893
Si Si2 0.657545 0.314077 0.406289
Si Si3 0.658880 0.594102 0.767210
Si Si4 0.148550 0.171084 0.372374
Si Si5 0.151486 0.142614 0.829380
Si Si6 0.734282 0.000000 0.595151
Si Si7 0.345578 0.000000 0.206220
O O1 0.252392 0.638135 0.837842
O O2 0.179385 0.780702 0.886934
O O3 0.000000 0.672286 0.880793
O O4 0.180274 0.665587 0.000000
O O5 0.679287 0.351792 0.500000
O O6 0.500000 0.294919 0.399278
O O7 0.691978 0.369653 0.326205
O O8 0.741752 0.233413 0.402195
O O9 0.500000 0.607738 0.782191
O O10 0.682187 0.500000 0.768582
O O11 0.149997 0.172039 0.269117
O O12 0.180904 0.081204 0.400295
O O13 0.000000 0.193498 0.400839
O O14 0.000000 0.112670 0.848069
O O15 0.263777 0.075357 0.829396
O O16 0.660121 0.000000 0.688267
O O17 0.666755 0.000000 0.500000
O O18 0.500000 0.000000 0.181167
#
# Coordination Sequence:
#
# PCOD9383711 Si02
#       7
#     8   8   8   8   8   4   4
#     4  10  21  39  64  91 116 146 186 232 285 345
#     4  10  21  36  55  81 113 150 192 236 281 330
#     4  10  22  40  61  85 116 152 187 229 283 343
#     4  10  19  33  54  77 106 148 193 235 279 328
#     4   9  18  35  56  79 110 148 186 228 279 333
#     4  10  21  33  45  72 113 151 188 235 282 328
#     4  10  21  34  53  79 107 149 196 236 278 325
#
# _framework density 18.292273999999999
#
# number of rings (size 3 to 8) (size 9 to 14) (size 15 to 20)
#    0.000    2.167    1.667    1.000    0.000    8.500 
#    0.000    3.750    0.000    2.500    0.000    2.333 
#    0.000    0.000    0.000    0.000    0.000    0.000 
#
# Total GULP energy -267683.701523 kJ/mol
# GULP energy per Si atom -5576.743782 kJ/mol
# Density = 1.825064 g / cm^3
# Si number density = 18.292274 Si / 1000 Ang^3
#
#
#
# Elastic Constant Matrix: (Units=GPa)
#
#
# Indices 1 2 3 4 5 6 
#
# 1 105.5360 73.4871 62.8578 0.0000 0.0000 0.0000
# 2 73.4871 98.0356 62.3331 0.0000 0.0000 0.0000
# 3 62.8578 62.3331 102.9760 0.0000 0.0000 0.0000
# 4 0.0000 0.0000 0.0000 -7.8940 0.0000 0.0000
# 5 0.0000 0.0000 0.0000 0.0000 10.5472 0.0000
# 6 0.0000 0.0000 0.0000 0.0000 0.0000 22.6760
#
#
#
# Elastic Compliance Matrix: (Units=1/GPa)
#
#
# Indices 1 2 3 4 5 6 
#
# 1 0.021579 -0.012681 -0.005496 0.000000 0.000000 0.000000
# 2 -0.012681 0.024035 -0.006808 0.000000 0.000000 0.000000
# 3 -0.005496 -0.006808 0.017187 0.000000 0.000000 0.000000
# 4 0.000000 0.000000 0.000000 -0.126679 0.000000 0.000000
# 5 0.000000 0.000000 0.000000 0.000000 0.094812 0.000000
# 6 0.000000 0.000000 0.000000 0.000000 0.000000 0.044099
#
#
# Mechanical properties :
#
#
# Convention : Reuss Voigt Hill
#
# Bulk Modulus (GPa) = 77.93954 78.21152 78.07553
# Shear Modulus (GPa) = 38.67574 12.25715 25.46645
#
# Velocity S-wave (km/s) = 4.60316 2.59138 3.73526
# Velocity P-wave (km/s) = 8.42333 7.19744 7.83440
#
# Compressibility (1/GPa) = 0.01283046
#
# Stress axis : x y z
#
# Youngs Moduli (GPa) = 46.34126 41.60656 58.18414
#
# Poissons Ratio (x) = 0.52762 0.31978
# Poissons Ratio (y) = 0.58766 0.39611
# Poissons Ratio (z) = 0.25469 0.28325
#
# Static dielectric constant tensor:
#      x y z
#    x 1.615430 0.000000 0.000000 
#    y 0.000000 1.596020 0.000000 
#    z 0.000000 0.000000 1.656560 
# 
# From -- ./inp_files/21102.got.cif
#   From: 2010.05.17/outbox.cif.g08.bks.cpg/sg47_11_cif.got.tgz:21102.got - 2010.06.03 20:15:42.
