data_PCOD9383491
_publ_section_title
;
Structure prediction by ZEFSAII (Michael W. Deem and Ramdas Pophale) SiO2 
 PCOD9383491
Probable space group: P M M M
;
_chemical_formula_sum "Si O2"
_cell_formula_units_Z 52
_cell_length_a 9.538917
_cell_length_b 18.067720
_cell_length_c 16.739177
_cell_angle_alpha 90.000000
_cell_angle_beta 90.000000
_cell_angle_gamma 90.000000
_cell_volume 2884.938258
_symmetry_space_group_name_H-M "P M M M"
_symmetry_group_IT_number 47
_symmetry_cell_setting 'orthorhombic'
loop_
_space_group_symop_operation_xyz
x,y,z
-x,-y,z
x,-y,-z
-x,y,-z
-x,-y,-z
x,y,-z
-x,y,z
x,-y,z
loop_
_atom_site_type_symbol
_atom_site_label
_atom_site_fract_x
_atom_site_fract_y
_atom_site_fract_z
Si Si1 0.662417 0.000000 0.902061
Si Si2 0.337957 0.294980 0.315374
Si Si3 0.664067 0.710946 0.874620
Si Si4 0.159470 0.858615 0.095129
Si Si5 0.832234 0.583458 0.406982
Si Si6 0.330584 0.585530 0.000000
Si Si7 0.160032 0.000000 0.402759
Si Si8 0.333859 0.144245 0.594645
O O1 0.745834 0.073193 0.874554
O O2 0.500000 0.000000 0.876363
O O3 0.660586 0.000000 0.000000
O O4 0.500000 0.307873 0.338452
O O5 0.328487 0.299011 0.220178
O O6 0.241663 0.356382 0.353988
O O7 0.299914 0.214945 0.351289
O O8 0.500000 0.726748 0.895527
O O9 0.760820 0.781044 0.894117
O O10 0.706712 0.637238 0.923758
O O11 0.000000 0.857918 0.127400
O O12 0.148428 0.870391 0.000000
O O13 0.796011 0.594776 0.500000
O O14 0.790562 0.500000 0.384613
O O15 0.000000 0.588481 0.400551
O O16 0.278233 0.500000 0.000000
O O17 0.500000 0.580231 0.000000
O O18 0.243820 0.073599 0.380008
O O19 0.157984 0.000000 0.500000
O O20 0.000000 0.000000 0.374496
O O21 0.307487 0.159873 0.500000
O O22 0.500000 0.128256 0.602089
#
# Coordination Sequence:
#
# PCOD9383491 Si02
#       8
#     4   8   8   8   8   4   4   8
#     4   9  17  29  50  79 106 135 173 215 262 318
#     4  10  21  34  52  81 110 139 179 226 270 317
#     4  10  20  35  55  78 106 141 180 222 273 329
#     4  10  19  32  52  77 106 137 174 219 267 317
#     4   9  19  36  56  78 107 144 180 213 260 324
#     4   9  18  34  57  80 101 132 175 221 268 323
#     4   9  17  29  48  75 102 132 178 224 256 297
#     4   9  17  31  50  72 103 140 174 212 264 316
#
# _framework density 18.024650000000001
#
# number of rings (size 3 to 8) (size 9 to 14) (size 15 to 20)
#    0.000    2.538    0.769    1.846    0.000    5.538 
#    0.000    4.615    0.000    2.769    0.000    0.000 
#    0.000    0.000    0.000    0.000    0.000    0.000 
#
# Total GULP energy -289962.966151 kJ/mol
# GULP energy per Si atom -5576.210888 kJ/mol
# Density = 1.798362 g / cm^3
# Si number density = 18.024650 Si / 1000 Ang^3
#
#
#
# Elastic Constant Matrix: (Units=GPa)
#
#
# Indices 1 2 3 4 5 6 
#
# 1 87.1999 79.2226 36.5502 0.0000 0.0000 0.0000
# 2 79.2226 150.5821 60.9131 0.0000 0.0000 0.0000
# 3 36.5502 60.9131 51.6363 0.0000 0.0000 0.0000
# 4 0.0000 0.0000 0.0000 22.8249 0.0000 0.0000
# 5 0.0000 0.0000 0.0000 0.0000 15.8401 0.0000
# 6 0.0000 0.0000 0.0000 0.0000 0.0000 35.3072
#
#
#
# Elastic Compliance Matrix: (Units=1/GPa)
#
#
# Indices 1 2 3 4 5 6 
#
# 1 0.022337 -0.010244 -0.003726 0.000000 0.000000 0.000000
# 2 -0.010244 0.017401 -0.013275 0.000000 0.000000 0.000000
# 3 -0.003726 -0.013275 0.037664 0.000000 0.000000 0.000000
# 4 0.000000 0.000000 0.000000 0.043812 0.000000 0.000000
# 5 0.000000 0.000000 0.000000 0.000000 0.063131 0.000000
# 6 0.000000 0.000000 0.000000 0.000000 0.000000 0.028323
#
#
# Mechanical properties :
#
#
# Convention : Reuss Voigt Hill
#
# Bulk Modulus (GPa) = 43.64926 71.42112 57.53519
# Shear Modulus (GPa) = 18.19532 22.30993 20.25263
#
# Velocity S-wave (km/s) = 3.18066 3.52198 3.35566
# Velocity P-wave (km/s) = 6.14474 7.49995 6.85591
#
# Compressibility (1/GPa) = 0.02290990
#
# Stress axis : x y z
#
# Youngs Moduli (GPa) = 44.76896 57.46892 26.55040
#
# Poissons Ratio (x) = 0.58873 0.09893
# Poissons Ratio (y) = 0.45863 0.35247
# Poissons Ratio (z) = 0.16681 0.76293
#
# Static dielectric constant tensor:
#      x y z
#    x 1.612270 0.000000 0.000000 
#    y 0.000000 1.598710 0.000000 
#    z 0.000000 0.000000 1.612800 
# 
# From -- ./inp_files/26825.got.cif
#   From: 2010.05.17/outbox.cif.g08.bks.cpg/sg47_14_cif.got.tgz:26825.got - 2010.06.03 20:15:42.
