data_PCOD9383010
_publ_section_title
;
Structure prediction by ZEFSAII (Michael W. Deem and Ramdas Pophale) SiO2 
 PCOD9383010
Probable space group: P M M M
;
_chemical_formula_sum "Si O2"
_cell_formula_units_Z 64
_cell_length_a 19.229448
_cell_length_b 9.134068
_cell_length_c 23.152816
_cell_angle_alpha 90.000000
_cell_angle_beta 90.000000
_cell_angle_gamma 90.000000
_cell_volume 4066.632043
_symmetry_space_group_name_H-M "P M M M"
_symmetry_group_IT_number 47
_symmetry_cell_setting 'orthorhombic'
loop_
_space_group_symop_operation_xyz
x,y,z
-x,-y,z
x,-y,-z
-x,y,-z
-x,-y,-z
x,y,-z
-x,y,z
x,-y,z
loop_
_atom_site_type_symbol
_atom_site_label
_atom_site_fract_x
_atom_site_fract_y
_atom_site_fract_z
Si Si1 0.921238 0.337702 0.255427
Si Si2 0.771545 0.332194 0.433930
Si Si3 0.171755 0.171513 0.667856
Si Si4 0.377872 0.175865 0.565423
Si Si5 0.813954 0.667281 0.850386
Si Si6 0.284078 0.322842 0.751638
Si Si7 0.078548 0.175036 0.068615
Si Si8 0.577751 0.325586 0.316910
O O1 0.912768 0.500000 0.282531
O O2 0.898275 0.213024 0.299108
O O3 0.870277 0.333740 0.201303
O O4 0.000000 0.321786 0.236502
O O5 0.794425 0.333951 0.500000
O O6 0.758927 0.500000 0.415121
O O7 0.824958 0.251405 0.393006
O O8 0.699640 0.242383 0.431326
O O9 0.232873 0.245067 0.706184
O O10 0.182917 0.000000 0.663070
O O11 0.404621 0.211982 0.500000
O O12 0.414508 0.243817 0.621574
O O13 0.376967 0.000000 0.569941
O O14 0.802562 0.500000 0.870027
O O15 0.743971 0.718657 0.816047
O O16 0.854902 0.756775 0.899180
O O17 0.275626 0.500000 0.748329
O O18 0.361520 0.286876 0.728900
O O19 0.000000 0.225947 0.087157
O O20 0.079900 0.000000 0.077489
O O21 0.083163 0.203013 0.000000
O O22 0.500000 0.297851 0.294265
O O23 0.584688 0.500000 0.328045
#
# Coordination Sequence:
#
# PCOD9383010 Si02
#       8
#     8   8   8   8   8   8   8   8
#     4   9  18  32  48  66  91 122 153 186 226 270
#     4  10  19  31  48  66  84 110 145 184 225 274
#     4  11  20  29  46  69  91 114 143 183 230 276
#     4  10  20  32  46  66  91 117 147 187 235 284
#     4   9  17  29  47  69  92 122 158 195 229 261
#     4   9  18  33  48  64  91 121 153 192 232 275
#     4   9  18  31  45  65  98 136 166 192 226 267
#     4  10  20  33  50  68  88 121 160 193 230 284
#
# _framework density 15.73784
#
# number of rings (size 3 to 8) (size 9 to 14) (size 15 to 20)
#    0.000    2.375    1.250    3.375    0.000    5.250 
#    0.000    1.875    0.000    0.375    0.000    2.625 
#    0.000    0.500    0.000    6.250    0.000    1.000 
#
# Total GULP energy -356292.187006 kJ/mol
# GULP energy per Si atom -5567.065422 kJ/mol
# Density = 1.570202 g / cm^3
# Si number density = 15.737840 Si / 1000 Ang^3
#
#
#
# Elastic Constant Matrix: (Units=GPa)
#
#
# Indices 1 2 3 4 5 6 
#
# 1 68.5038 20.0660 33.2180 0.0000 0.0000 0.0000
# 2 20.0660 46.6400 30.2469 0.0000 0.0000 0.0000
# 3 33.2180 30.2469 61.2374 0.0000 0.0000 0.0000
# 4 0.0000 0.0000 0.0000 15.5768 0.0000 0.0000
# 5 0.0000 0.0000 0.0000 0.0000 23.1116 0.0000
# 6 0.0000 0.0000 0.0000 0.0000 0.0000 2.6495
#
#
#
# Elastic Compliance Matrix: (Units=1/GPa)
#
#
# Indices 1 2 3 4 5 6 
#
# 1 0.019975 -0.002305 -0.009697 0.000000 0.000000 0.000000
# 2 -0.002305 0.031812 -0.014462 0.000000 0.000000 0.000000
# 3 -0.009697 -0.014462 0.028733 0.000000 0.000000 0.000000
# 4 0.000000 0.000000 0.000000 0.064198 0.000000 0.000000
# 5 0.000000 0.000000 0.000000 0.000000 0.043268 0.000000
# 6 0.000000 0.000000 0.000000 0.000000 0.000000 0.377432
#
#
# Mechanical properties :
#
#
# Convention : Reuss Voigt Hill
#
# Bulk Modulus (GPa) = 36.24325 38.16032 37.20179
# Shear Modulus (GPa) = 7.96757 14.45759 11.21258
#
# Velocity S-wave (km/s) = 2.25248 3.03421 2.67209
# Velocity P-wave (km/s) = 5.46299 6.04776 5.76280
#
# Compressibility (1/GPa) = 0.02759134
#
# Stress axis : x y z
#
# Youngs Moduli (GPa) = 50.06257 31.43501 34.80306
#
# Poissons Ratio (x) = 0.07247 0.33747
# Poissons Ratio (y) = 0.11541 0.50333
# Poissons Ratio (z) = 0.48544 0.45462
#
# Static dielectric constant tensor:
#      x y z
#    x 1.545160 0.000000 0.000000 
#    y 0.000000 1.541780 0.000000 
#    z 0.000000 0.000000 1.535460 
# 
# From -- ./inp_files/31504.got.cif
#   From: 2010.05.17/outbox.cif.g08.bks.cpg/sg47_16_cif.got.tgz:31504.got - 2010.06.03 20:15:42.
