data_PCOD9383473
_publ_section_title
;
Structure prediction by ZEFSAII (Michael W. Deem and Ramdas Pophale) SiO2 
 PCOD9383473
Probable space group: P M M M
;
_chemical_formula_sum "Si O2"
_cell_formula_units_Z 52
_cell_length_a 7.526777
_cell_length_b 16.202435
_cell_length_c 20.343627
_cell_angle_alpha 90.000000
_cell_angle_beta 90.000000
_cell_angle_gamma 90.000000
_cell_volume 2480.948341
_symmetry_space_group_name_H-M "P M M M"
_symmetry_group_IT_number 47
_symmetry_cell_setting 'orthorhombic'
loop_
_space_group_symop_operation_xyz
x,y,z
-x,-y,z
x,-y,-z
-x,y,-z
-x,-y,-z
x,y,-z
-x,y,z
x,-y,z
loop_
_atom_site_type_symbol
_atom_site_label
_atom_site_fract_x
_atom_site_fract_y
_atom_site_fract_z
Si Si1 0.798712 0.000000 0.920015
Si Si2 0.782040 0.181942 0.074424
Si Si3 0.782523 0.089675 0.713060
Si Si4 0.706725 0.410034 0.287165
Si Si5 0.216308 0.852826 0.427801
Si Si6 0.214460 0.659772 0.572465
Si Si7 0.790636 0.752420 0.206767
O O1 0.721873 0.910446 0.904461
O O2 0.000000 0.000000 0.892799
O O3 0.808669 0.000000 0.000000
O O4 0.725012 0.243886 0.131738
O O5 0.000000 0.178911 0.071372
O O6 0.722646 0.199357 0.000000
O O7 0.726711 0.099457 0.636999
O O8 0.718001 0.169750 0.752259
O O9 0.000000 0.091319 0.713480
O O10 0.728565 0.000000 0.739341
O O11 0.500000 0.414250 0.271787
O O12 0.787568 0.500000 0.273163
O O13 0.724956 0.390323 0.364507
O O14 0.773550 0.332481 0.245734
O O15 0.275522 0.881727 0.500000
O O16 0.266025 0.756173 0.420669
O O17 0.000000 0.855326 0.428385
O O18 0.273206 0.630976 0.500000
O O19 0.000000 0.657848 0.573105
O O20 0.000000 0.768217 0.202015
#
# Coordination Sequence:
#
# PCOD9383473 Si02
#       7
#     4   8   8   8   8   8   8
#     4   7  10  18  34  64 107 143 164 189 236 295
#     4   8  14  24  42  72 107 138 167 202 247 299
#     4   9  16  24  39  69 103 132 166 206 246 287
#     4  11  24  39  54  73  99 132 171 215 261 310
#     4   8  13  23  40  63  94 128 161 199 239 279
#     4   9  17  32  55  80 104 130 164 208 256 306
#     4  10  19  32  52  76 104 135 168 209 255 303
#
# _framework density 20.959726
#
# number of rings (size 3 to 8) (size 9 to 14) (size 15 to 20)
#    0.000    3.000    1.538    2.308    1.077    2.154 
#    0.000    3.077    0.000    1.385    0.000    3.231 
#    0.000    4.308    0.000    0.000    0.000    0.000 
#
# Total GULP energy -289991.525926 kJ/mol
# GULP energy per Si atom -5576.760114 kJ/mol
# Density = 2.091202 g / cm^3
# Si number density = 20.959726 Si / 1000 Ang^3
#
#
#
# Elastic Constant Matrix: (Units=GPa)
#
#
# Indices 1 2 3 4 5 6 
#
# 1 45.2981 -2.7851 1.2497 0.0000 0.0000 0.0000
# 2 -2.7851 124.5843 83.0044 0.0000 0.0000 0.0000
# 3 1.2497 83.0044 146.8062 0.0000 0.0000 0.0000
# 4 0.0000 0.0000 0.0000 0.8186 0.0000 0.0000
# 5 0.0000 0.0000 0.0000 0.0000 -39.6185 0.0000
# 6 0.0000 0.0000 0.0000 0.0000 0.0000 19.7555
#
#
#
# Elastic Compliance Matrix: (Units=1/GPa)
#
#
# Indices 1 2 3 4 5 6 
#
# 1 0.022158 0.000996 -0.000752 0.000000 0.000000 0.000000
# 2 0.000996 0.012923 -0.007315 0.000000 0.000000 0.000000
# 3 -0.000752 -0.007315 0.010954 0.000000 0.000000 0.000000
# 4 0.000000 0.000000 0.000000 1.221552 0.000000 0.000000
# 5 0.000000 0.000000 0.000000 0.000000 -0.025241 0.000000
# 6 0.000000 0.000000 0.000000 0.000000 0.000000 0.050619
#
#
# Mechanical properties :
#
#
# Convention : Reuss Voigt Hill
#
# Bulk Modulus (GPa) = 31.35438 53.29184 42.32311
# Shear Modulus (GPa) = 3.79438 11.87244 7.83341
#
# Velocity S-wave (km/s) = 1.34694 2.38258 1.93532
# Velocity P-wave (km/s) = 4.17263 5.74891 5.02299
#
# Compressibility (1/GPa) = 0.03189347
#
# Stress axis : x y z
#
# Youngs Moduli (GPa) = 45.13041 77.38434 91.29132
#
# Poissons Ratio (x) = -0.07710 0.06865
# Poissons Ratio (y) = -0.04496 0.66779
# Poissons Ratio (z) = 0.03394 0.56606
#
# Static dielectric constant tensor:
#      x y z
#    x 1.812030 0.000000 0.000000 
#    y 0.000000 1.773710 0.000000 
#    z 0.000000 0.000000 1.768900 
# 
# From -- ./inp_files/29556.got.cif
#   From: 2010.05.17/outbox.cif.g08.bks.cpg/sg47_15_cif.got.tgz:29556.got - 2010.06.03 20:15:42.
