data_PCOD9383990
_publ_section_title
;
Structure prediction by ZEFSAII (Michael W. Deem and Ramdas Pophale) SiO2 
 PCOD9383990
Probable space group: P M M M
;
_chemical_formula_sum "Si O2"
_cell_formula_units_Z 64
_cell_length_a 13.713064
_cell_length_b 18.353483
_cell_length_c 13.935795
_cell_angle_alpha 90.000000
_cell_angle_beta 90.000000
_cell_angle_gamma 90.000000
_cell_volume 3507.395544
_symmetry_space_group_name_H-M "P M M M"
_symmetry_group_IT_number 47
_symmetry_cell_setting 'orthorhombic'
loop_
_space_group_symop_operation_xyz
x,y,z
-x,-y,z
x,-y,-z
-x,y,-z
-x,-y,-z
x,y,-z
-x,y,z
x,-y,z
loop_
_atom_site_type_symbol
_atom_site_label
_atom_site_fract_x
_atom_site_fract_y
_atom_site_fract_z
Si Si1 0.683910 0.914364 0.193114
Si Si2 0.885846 0.221906 0.611772
Si Si3 0.751250 0.318481 0.250450
Si Si4 0.614801 0.413326 0.612286
Si Si5 0.611602 0.772490 0.888946
Si Si6 0.244456 0.916436 0.392187
Si Si7 0.885653 0.413022 0.888250
Si Si8 0.893974 0.088127 0.888608
O O1 0.618761 0.858348 0.135335
O O2 0.678193 0.903586 0.307652
O O3 0.796094 0.893523 0.167032
O O4 0.668978 0.000000 0.170625
O O5 0.874011 0.245127 0.500000
O O6 0.821233 0.270379 0.682250
O O7 0.843606 0.140022 0.617090
O O8 0.000000 0.224823 0.635116
O O9 0.682423 0.367109 0.318219
O O10 0.683699 0.268418 0.183020
O O11 0.817224 0.368843 0.182470
O O12 0.634706 0.397090 0.500000
O O13 0.500000 0.398646 0.629510
O O14 0.630121 0.500000 0.626110
O O15 0.500000 0.748033 0.875720
O O16 0.639049 0.760853 0.000000
O O17 0.284573 0.908797 0.500000
O O18 0.210398 0.000000 0.379710
O O19 0.872559 0.500000 0.876201
O O20 0.000000 0.396919 0.870717
O O21 0.865029 0.395738 0.000000
O O22 0.000000 0.114461 0.852662
O O23 0.897457 0.000000 0.888205
O O24 0.884319 0.110916 0.000000
#
# Coordination Sequence:
#
# PCOD9383990 Si02
#       8
#     8   8   8   8   8   8   8   8
#     4  10  19  35  57  78  99 137 185 230 280 337
#     4  10  21  35  53  82 117 150 185 224 267 323
#     4  12  20  36  58  83 112 155 185 218 273 338
#     4   9  19  36  59  88 116 142 182 233 276 319
#     4  11  25  41  55  78 110 142 185 242 291 331
#     4   9  18  34  55  78 105 139 181 228 273 321
#     4   9  19  36  58  85 115 147 186 226 261 312
#     4   8  14  25  43  69  98 124 156 207 267 321
#
# _framework density 18.247157999999999
#
# number of rings (size 3 to 8) (size 9 to 14) (size 15 to 20)
#    0.000    2.250    1.250    3.375    0.000    1.750 
#    0.000    3.125    0.000    3.375    0.000   12.250 
#    0.000    0.000    0.000    0.000    0.000    0.000 
#
# Total GULP energy -357057.779147 kJ/mol
# GULP energy per Si atom -5579.027799 kJ/mol
# Density = 1.820563 g / cm^3
# Si number density = 18.247158 Si / 1000 Ang^3
#
#
#
# Elastic Constant Matrix: (Units=GPa)
#
#
# Indices 1 2 3 4 5 6 
#
# 1 49.8006 35.1812 51.4732 0.0000 0.0000 0.0000
# 2 35.1812 64.5673 53.3551 0.0000 0.0000 0.0000
# 3 51.4732 53.3551 108.7209 0.0000 0.0000 0.0000
# 4 0.0000 0.0000 0.0000 23.6439 0.0000 0.0000
# 5 0.0000 0.0000 0.0000 0.0000 28.8928 0.0000
# 6 0.0000 0.0000 0.0000 0.0000 0.0000 13.2447
#
#
#
# Elastic Compliance Matrix: (Units=1/GPa)
#
#
# Indices 1 2 3 4 5 6 
#
# 1 0.043732 -0.011303 -0.015157 0.000000 0.000000 0.000000
# 2 -0.011303 0.028974 -0.008868 0.000000 0.000000 0.000000
# 3 -0.015157 -0.008868 0.020726 0.000000 0.000000 0.000000
# 4 0.000000 0.000000 0.000000 0.042294 0.000000 0.000000
# 5 0.000000 0.000000 0.000000 0.000000 0.034611 0.000000
# 6 0.000000 0.000000 0.000000 0.000000 0.000000 0.075502
#
#
# Mechanical properties :
#
#
# Convention : Reuss Voigt Hill
#
# Bulk Modulus (GPa) = 43.90731 55.90088 49.90410
# Shear Modulus (GPa) = 15.42795 18.69490 17.06142
#
# Velocity S-wave (km/s) = 2.91090 3.20431 3.06112
# Velocity P-wave (km/s) = 5.95085 6.66274 6.31683
#
# Compressibility (1/GPa) = 0.02277525
#
# Stress axis : x y z
#
# Youngs Moduli (GPa) = 22.86680 34.51312 48.24845
#
# Poissons Ratio (x) = 0.39010 0.73132
# Poissons Ratio (y) = 0.25846 0.42787
# Poissons Ratio (z) = 0.34660 0.30606
#
# Static dielectric constant tensor:
#      x y z
#    x 1.612560 0.000000 0.000000 
#    y 0.000000 1.615640 0.000000 
#    z 0.000000 0.000000 1.644070 
# 
# From -- ./inp_files/22971.got.cif
#   From: 2010.05.17/outbox.cif.g08.bks.cpg/sg47_12_cif.got.tgz:22971.got - 2010.06.03 20:15:42.
