data_PCOD9383270
_publ_section_title
;
Structure prediction by ZEFSAII (Michael W. Deem and Ramdas Pophale) SiO2 
 PCOD9383270
Probable space group: P M M M
;
_chemical_formula_sum "Si O2"
_cell_formula_units_Z 48
_cell_length_a 21.017415
_cell_length_b 20.082964
_cell_length_c 9.425474
_cell_angle_alpha 90.000000
_cell_angle_beta 90.000000
_cell_angle_gamma 90.000000
_cell_volume 3978.417066
_symmetry_space_group_name_H-M "P M M M"
_symmetry_group_IT_number 47
_symmetry_cell_setting 'orthorhombic'
loop_
_space_group_symop_operation_xyz
x,y,z
-x,-y,z
x,-y,-z
-x,y,-z
-x,-y,-z
x,y,-z
-x,y,z
x,-y,z
loop_
_atom_site_type_symbol
_atom_site_label
_atom_site_fract_x
_atom_site_fract_y
_atom_site_fract_z
Si Si1 0.615686 0.850653 0.329996
Si Si2 0.875016 0.918963 0.163503
Si Si3 0.500000 0.079688 0.832100
Si Si4 0.422822 0.426550 0.166242
Si Si5 0.000000 0.081193 0.663963
Si Si6 0.575308 0.296261 0.331407
Si Si7 0.250961 0.921042 0.332439
O O1 0.603459 0.857570 0.500000
O O2 0.561728 0.889480 0.243775
O O3 0.610298 0.772409 0.295187
O O4 0.684858 0.881057 0.300475
O O5 0.936612 0.897455 0.252853
O O6 0.809411 0.899611 0.239735
O O7 0.875890 0.000000 0.163739
O O8 0.878108 0.897388 0.000000
O O9 0.500000 0.000000 0.815450
O O10 0.500000 0.095065 0.000000
O O11 0.500000 0.426727 0.176568
O O12 0.401342 0.500000 0.216305
O O13 0.401008 0.362023 0.251622
O O14 0.407180 0.420408 0.000000
O O15 0.000000 0.102362 0.500000
O O16 0.000000 0.000000 0.663755
O O17 0.580132 0.306784 0.500000
O O18 0.500000 0.286514 0.298542
O O19 0.236299 0.913236 0.500000
O O20 0.262270 0.000000 0.308052
#
# Coordination Sequence:
#
# PCOD9383270 Si02
#       7
#     8   8   4   8   4   8   8
#     4  10  19  32  45  55  69  92 121 152 188 230
#     4   9  16  25  37  53  73  93 111 138 178 217
#     4  11  23  33  41  55  70  85 114 157 199 234
#     4   8  14  24  37  53  72  92 111 131 163 211
#     4   9  15  23  37  55  73  91 113 139 166 207
#     4   9  16  26  39  55  72  88 112 146 181 217
#     4   9  17  28  41  54  67  89 121 152 183 220
#
# _framework density 12.065099
#
# number of rings (size 3 to 8) (size 9 to 14) (size 15 to 20)
#    0.000    2.833    0.833    2.000    0.000    6.000 
#    0.000    3.333    0.000    0.000    0.000    0.000 
#    0.000    0.000    0.000    0.000    0.000    0.000 
#
# Total GULP energy -267280.865733 kJ/mol
# GULP energy per Si atom -5568.351369 kJ/mol
# Density = 1.203764 g / cm^3
# Si number density = 12.065099 Si / 1000 Ang^3
#
#
#
# Elastic Constant Matrix: (Units=GPa)
#
#
# Indices 1 2 3 4 5 6 
#
# 1 86.1548 42.4341 59.4000 0.0000 0.0000 0.0000
# 2 42.4341 72.9285 45.1733 0.0000 0.0000 0.0000
# 3 59.4000 45.1733 69.2362 0.0000 0.0000 0.0000
# 4 0.0000 0.0000 0.0000 16.1872 0.0000 0.0000
# 5 0.0000 0.0000 0.0000 0.0000 10.1209 0.0000
# 6 0.0000 0.0000 0.0000 0.0000 0.0000 1.3668
#
#
#
# Elastic Compliance Matrix: (Units=1/GPa)
#
#
# Indices 1 2 3 4 5 6 
#
# 1 0.028668 -0.002427 -0.023012 0.000000 0.000000 0.000000
# 2 -0.002427 0.023218 -0.013066 0.000000 0.000000 0.000000
# 3 -0.023012 -0.013066 0.042711 0.000000 0.000000 0.000000
# 4 0.000000 0.000000 0.000000 0.061777 0.000000 0.000000
# 5 0.000000 0.000000 0.000000 0.000000 0.098805 0.000000
# 6 0.000000 0.000000 0.000000 0.000000 0.000000 0.731616
#
#
# Mechanical properties :
#
#
# Convention : Reuss Voigt Hill
#
# Bulk Modulus (GPa) = 56.86103 58.03714 57.44909
# Shear Modulus (GPa) = 4.67435 10.95579 7.81507
#
# Velocity S-wave (km/s) = 1.97045 3.01667 2.54784
# Velocity P-wave (km/s) = 7.23932 7.76798 7.50830
#
# Compressibility (1/GPa) = 0.01758674
#
# Stress axis : x y z
#
# Youngs Moduli (GPa) = 34.88219 43.07060 23.41310
#
# Poissons Ratio (x) = 0.10452 0.53878
# Poissons Ratio (y) = 0.08465 0.30593
# Poissons Ratio (z) = 0.80270 0.56278
#
# Static dielectric constant tensor:
#      x y z
#    x 1.372000 0.000000 0.000000 
#    y 0.000000 1.379460 0.000000 
#    z 0.000000 0.000000 1.404260 
# 
# From -- ./inp_files/11405.got.cif
#   From: 2010.05.17/outbox.cif.g08.bks.cpg/sg47_6_cif.got.tgz:11405.got - 2010.06.03 20:15:42.
