data_PCOD9383598
_publ_section_title
;
Structure prediction by ZEFSAII (Michael W. Deem and Ramdas Pophale) SiO2 
 PCOD9383598
Probable space group: P M M M
;
_chemical_formula_sum "Si O2"
_cell_formula_units_Z 52
_cell_length_a 20.297830
_cell_length_b 15.940544
_cell_length_c 7.596418
_cell_angle_alpha 90.000000
_cell_angle_beta 90.000000
_cell_angle_gamma 90.000000
_cell_volume 2457.885250
_symmetry_space_group_name_H-M "P M M M"
_symmetry_group_IT_number 47
_symmetry_cell_setting 'orthorhombic'
loop_
_space_group_symop_operation_xyz
x,y,z
-x,-y,z
x,-y,-z
-x,y,-z
-x,-y,-z
x,y,-z
-x,y,z
x,-y,z
loop_
_atom_site_type_symbol
_atom_site_label
_atom_site_fract_x
_atom_site_fract_y
_atom_site_fract_z
Si Si1 0.500000 0.902223 0.196802
Si Si2 0.075974 0.405048 0.785344
Si Si3 0.814513 0.726483 0.212224
Si Si4 0.712680 0.589323 0.210508
Si Si5 0.631482 0.177111 0.702162
Si Si6 0.235652 0.094898 0.289741
Si Si7 0.425475 0.650197 0.711913
O O1 0.566275 0.878026 0.294422
O O2 0.500000 0.000000 0.178249
O O3 0.500000 0.864061 0.000000
O O4 0.095108 0.500000 0.730720
O O5 0.123936 0.330328 0.727378
O O6 0.000000 0.391582 0.733554
O O7 0.078015 0.405307 0.000000
O O8 0.750628 0.672524 0.275307
O O9 0.811605 0.824594 0.260974
O O10 0.814233 0.725742 0.000000
O O11 0.740479 0.500000 0.275545
O O12 0.635147 0.589965 0.249700
O O13 0.720965 0.590054 0.000000
O O14 0.649528 0.195925 0.500000
O O15 0.693700 0.128646 0.781495
O O16 0.604552 0.262850 0.784757
O O17 0.241556 0.086446 0.500000
O O18 0.220053 0.000000 0.223717
O O19 0.430945 0.657054 0.500000
O O20 0.500000 0.632722 0.775614
#
# Coordination Sequence:
#
# PCOD9383598 Si02
#       7
#     4   8   8   8   8   8   8
#     4  11  23  33  45  71 100 123 156 209 271 328
#     4   8  14  27  51  84 118 148 177 209 249 302
#     4  10  19  32  54  82 110 138 170 214 261 304
#     4  10  21  35  51  74 103 134 167 205 256 315
#     4  10  19  35  54  69  90 126 170 213 261 317
#     4  10  21  36  54  75 100 134 176 218 260 311
#     4  10  20  35  53  71  92 123 168 218 261 304
#
# _framework density 21.156397999999999
#
# number of rings (size 3 to 8) (size 9 to 14) (size 15 to 20)
#    0.000    2.231    2.308    1.615    0.000    5.538 
#    0.000    1.538    0.000    2.308    0.000    4.308 
#    0.000    0.000    0.000    0.000    0.000    0.000 
#
# Total GULP energy -289800.179117 kJ/mol
# GULP energy per Si atom -5573.080368 kJ/mol
# Density = 2.110825 g / cm^3
# Si number density = 21.156398 Si / 1000 Ang^3
#
#
#
# Elastic Constant Matrix: (Units=GPa)
#
#
# Indices 1 2 3 4 5 6 
#
# 1 120.7276 74.2510 0.6582 0.0000 0.0000 0.0000
# 2 74.2510 180.3746 7.8138 0.0000 0.0000 0.0000
# 3 0.6582 7.8138 51.2986 0.0000 0.0000 0.0000
# 4 0.0000 0.0000 0.0000 23.7794 0.0000 0.0000
# 5 0.0000 0.0000 0.0000 0.0000 16.7708 0.0000
# 6 0.0000 0.0000 0.0000 0.0000 0.0000 8.3021
#
#
#
# Elastic Compliance Matrix: (Units=1/GPa)
#
#
# Indices 1 2 3 4 5 6 
#
# 1 0.011107 -0.004596 0.000558 0.000000 0.000000 0.000000
# 2 -0.004596 0.007483 -0.001081 0.000000 0.000000 0.000000
# 3 0.000558 -0.001081 0.019651 0.000000 0.000000 0.000000
# 4 0.000000 0.000000 0.000000 0.042053 0.000000 0.000000
# 5 0.000000 0.000000 0.000000 0.000000 0.059628 0.000000
# 6 0.000000 0.000000 0.000000 0.000000 0.000000 0.120451
#
#
# Mechanical properties :
#
#
# Convention : Reuss Voigt Hill
#
# Bulk Modulus (GPa) = 35.71181 57.53854 46.62517
# Shear Modulus (GPa) = 17.86061 27.74900 22.80480
#
# Velocity S-wave (km/s) = 2.90869 3.62555 3.28672
# Velocity P-wave (km/s) = 5.31011 6.69193 6.04066
#
# Compressibility (1/GPa) = 0.02800194
#
# Stress axis : x y z
#
# Youngs Moduli (GPa) = 90.03388 133.63801 50.88754
#
# Poissons Ratio (x) = 0.61424 -0.02837
# Poissons Ratio (y) = 0.41382 0.05500
# Poissons Ratio (z) = -0.05020 0.14444
#
# Static dielectric constant tensor:
#      x y z
#    x 1.731780 0.000000 0.000000 
#    y 0.000000 1.853450 0.000000 
#    z 0.000000 0.000000 1.829420 
# 
# From -- ./inp_files/7071.got.cif
#   From: 2010.05.17/outbox.cif.g08.bks.cpg/sg47_4_cif.got.tgz:7071.got - 2010.06.03 20:15:42.
