data_PCOD9383318
_publ_section_title
;
Structure prediction by ZEFSAII (Michael W. Deem and Ramdas Pophale) SiO2 
 PCOD9383318
Probable space group: P M M M
;
_chemical_formula_sum "Si O2"
_cell_formula_units_Z 44
_cell_length_a 7.353042
_cell_length_b 31.993239
_cell_length_c 8.371697
_cell_angle_alpha 90.000000
_cell_angle_beta 90.000000
_cell_angle_gamma 90.000000
_cell_volume 1969.421879
_symmetry_space_group_name_H-M "P M M M"
_symmetry_group_IT_number 47
_symmetry_cell_setting 'orthorhombic'
loop_
_space_group_symop_operation_xyz
x,y,z
-x,-y,z
x,-y,-z
-x,y,-z
-x,-y,-z
x,y,-z
-x,y,z
x,-y,z
loop_
_atom_site_type_symbol
_atom_site_label
_atom_site_fract_x
_atom_site_fract_y
_atom_site_fract_z
Si Si1 0.221999 0.500000 0.684134
Si Si2 0.721185 0.048798 0.178581
Si Si3 0.721586 0.806977 0.500000
Si Si4 0.716397 0.676735 0.675985
Si Si5 0.721887 0.760317 0.175390
Si Si6 0.721959 0.903747 0.500000
Si Si7 0.217536 0.587964 0.177325
O O1 0.272857 0.500000 0.500000
O O2 0.285374 0.456757 0.761733
O O3 0.000000 0.500000 0.692444
O O4 0.500000 0.050379 0.178652
O O5 0.781498 0.073914 0.335440
O O6 0.771858 0.000000 0.194037
O O7 0.778365 0.063283 0.000000
O O8 0.500000 0.804800 0.500000
O O9 0.779989 0.784921 0.334747
O O10 0.774600 0.855346 0.500000
O O11 0.789762 0.685849 0.500000
O O12 0.500000 0.681993 0.669513
O O13 0.779213 0.711955 0.799058
O O14 0.747597 0.628669 0.718214
O O15 0.500000 0.762204 0.174045
O O16 0.781394 0.775338 0.000000
O O17 0.500000 0.905423 0.500000
O O18 0.000000 0.583874 0.170599
O O19 0.287038 0.596292 0.000000
#
# Coordination Sequence:
#
# PCOD9383318 Si02
#       7
#     4   8   4   8   8   4   8
#     4   9  17  31  50  69  92 123 152 178 218 269
#     4   8  13  20  28  38  54  79 113 152 197 250
#     4   9  16  25  34  51  73  94 126 165 209 266
#     4  10  19  32  50  70  92 118 152 190 225 270
#     4   9  16  27  42  57  77 105 135 171 215 262
#     4   9  15  20  29  42  60  83 112 154 202 252
#     4  10  20  33  50  73  98 122 150 184 222 268
#
# _framework density 22.341581999999999
#
# number of rings (size 3 to 8) (size 9 to 14) (size 15 to 20)
#    0.000    2.818    0.909    2.182    0.000    5.091 
#    0.000    4.091    0.000    2.727    0.000    0.000 
#    0.000    0.000    0.000    0.000    0.000    0.000 
#
# Total GULP energy -245579.979815 kJ/mol
# GULP energy per Si atom -5581.363178 kJ/mol
# Density = 2.229073 g / cm^3
# Si number density = 22.341582 Si / 1000 Ang^3
#
#
#
# Elastic Constant Matrix: (Units=GPa)
#
#
# Indices 1 2 3 4 5 6 
#
# 1 81.2182 -0.9103 5.9953 0.0000 0.0000 0.0000
# 2 -0.9103 135.1648 98.2637 0.0000 0.0000 0.0000
# 3 5.9953 98.2637 212.2940 0.0000 0.0000 0.0000
# 4 0.0000 0.0000 0.0000 94.7279 0.0000 0.0000
# 5 0.0000 0.0000 0.0000 0.0000 -7.9291 0.0000
# 6 0.0000 0.0000 0.0000 0.0000 0.0000 -16.1982
#
#
#
# Elastic Compliance Matrix: (Units=1/GPa)
#
#
# Indices 1 2 3 4 5 6 
#
# 1 0.012361 0.000508 -0.000584 0.000000 0.000000 0.000000
# 2 0.000508 0.011171 -0.005185 0.000000 0.000000 0.000000
# 3 -0.000584 -0.005185 0.007127 0.000000 0.000000 0.000000
# 4 0.000000 0.000000 0.000000 0.010557 0.000000 0.000000
# 5 0.000000 0.000000 0.000000 0.000000 -0.126118 0.000000
# 6 0.000000 0.000000 0.000000 0.000000 0.000000 -0.061735
#
#
# Mechanical properties :
#
#
# Convention : Reuss Voigt Hill
#
# Bulk Modulus (GPa) = 49.66028 70.59717 60.12873
# Shear Modulus (GPa) = -38.63945 35.80866 -1.41540
#
# Velocity S-wave (km/s) = -4.16322 4.00782 -0.79681
# Velocity P-wave (km/s) = 0.91317 7.28590 5.11129
#
# Compressibility (1/GPa) = 0.02013682
#
# Stress axis : x y z
#
# Youngs Moduli (GPa) = 80.89750 89.51424 140.31132
#
# Poissons Ratio (x) = -0.04547 0.08197
# Poissons Ratio (y) = -0.04109 0.72754
# Poissons Ratio (z) = 0.04726 0.46415
#
# Static dielectric constant tensor:
#      x y z
#    x 1.918360 0.000000 0.000000 
#    y 0.000000 1.810110 0.000000 
#    z 0.000000 0.000000 1.833760 
# 
# From -- ./inp_files/2334.got.cif
#   From: 2010.05.17/outbox.cif.g08.bks.cpg/sg47_2_cif.got.tgz:2334.got - 2010.06.03 20:15:42.
