data_PCOD9383130
_publ_section_title
;
Structure prediction by ZEFSAII (Michael W. Deem and Ramdas Pophale) SiO2 
 PCOD9383130
Probable space group: P M M M
;
_chemical_formula_sum "Si O2"
_cell_formula_units_Z 64
_cell_length_a 23.252270
_cell_length_b 16.957776
_cell_length_c 7.827094
_cell_angle_alpha 90.000000
_cell_angle_beta 90.000000
_cell_angle_gamma 90.000000
_cell_volume 3086.276280
_symmetry_space_group_name_H-M "P M M M"
_symmetry_group_IT_number 47
_symmetry_cell_setting 'orthorhombic'
loop_
_space_group_symop_operation_xyz
x,y,z
-x,-y,z
x,-y,-z
-x,y,-z
-x,-y,-z
x,y,-z
-x,y,z
x,-y,z
loop_
_atom_site_type_symbol
_atom_site_label
_atom_site_fract_x
_atom_site_fract_y
_atom_site_fract_z
Si Si1 0.229263 0.118242 0.301174
Si Si2 0.641515 0.087117 0.798299
Si Si3 0.591207 0.588473 0.694668
Si Si4 0.563720 0.767794 0.795376
Si Si5 0.100898 0.084781 0.707300
Si Si6 0.187483 0.287953 0.208390
Si Si7 0.938057 0.255360 0.201202
Si Si8 0.280396 0.409797 0.803869
O O1 0.233417 0.097034 0.500000
O O2 0.289497 0.094914 0.219628
O O3 0.167965 0.085792 0.236328
O O4 0.219143 0.210964 0.277649
O O5 0.610009 0.166859 0.730222
O O6 0.624940 0.000000 0.727023
O O7 0.628614 0.084645 0.000000
O O8 0.571510 0.585206 0.500000
O O9 0.577305 0.500000 0.771485
O O10 0.571783 0.673844 0.762961
O O11 0.660343 0.594885 0.703525
O O12 0.500000 0.789551 0.732162
O O13 0.564741 0.774261 0.000000
O O14 0.100602 0.091994 0.500000
O O15 0.070034 0.161191 0.779736
O O16 0.075608 0.000000 0.752776
O O17 0.121675 0.290166 0.270875
O O18 0.227493 0.359534 0.260201
O O19 0.185992 0.283041 0.000000
O O20 0.000000 0.278197 0.276144
O O21 0.939428 0.274266 0.000000
O O22 0.262628 0.500000 0.808526
O O23 0.293979 0.384434 0.000000
#
# Coordination Sequence:
#
# PCOD9383130 Si02
#       8
#     8   8   8   8   8   8   8   8
#     4  10  19  31  49  73  99 125 157 198 245 296
#     4  10  21  36  54  76 102 133 169 210 255 299
#     4  10  21  36  55  81 111 138 163 198 249 305
#     4  10  22  39  57  77 102 135 175 213 247 289
#     4   9  18  31  45  63  89 119 150 188 235 284
#     4   9  17  30  48  69  95 127 161 198 241 289
#     4   9  18  31  45  62  86 119 158 196 234 277
#     4   9  17  30  50  75 101 128 158 193 235 287
#
# _framework density 20.736964
#
# number of rings (size 3 to 8) (size 9 to 14) (size 15 to 20)
#    0.000    2.500    0.000    1.875    0.000    7.500 
#    0.000    3.750    0.000    0.375    0.000    4.375 
#    0.000    0.000    0.000    9.375    0.000    9.750 
#
# Total GULP energy -356586.845131 kJ/mol
# GULP energy per Si atom -5571.669455 kJ/mol
# Density = 2.068977 g / cm^3
# Si number density = 20.736964 Si / 1000 Ang^3
#
#
#
# Elastic Constant Matrix: (Units=GPa)
#
#
# Indices 1 2 3 4 5 6 
#
# 1 102.8210 59.7442 4.7493 0.0000 0.0000 0.0000
# 2 59.7442 81.4129 9.5261 0.0000 0.0000 0.0000
# 3 4.7493 9.5261 25.3254 0.0000 0.0000 0.0000
# 4 0.0000 0.0000 0.0000 -96.2752 0.0000 0.0000
# 5 0.0000 0.0000 0.0000 0.0000 83.7911 0.0000
# 6 0.0000 0.0000 0.0000 0.0000 0.0000 113.5851
#
#
#
# Elastic Compliance Matrix: (Units=1/GPa)
#
#
# Indices 1 2 3 4 5 6 
#
# 1 0.017015 -0.012671 0.001575 0.000000 0.000000 0.000000
# 2 -0.012671 0.022284 -0.006006 0.000000 0.000000 0.000000
# 3 0.001575 -0.006006 0.041450 0.000000 0.000000 0.000000
# 4 0.000000 0.000000 0.000000 -0.010387 0.000000 0.000000
# 5 0.000000 0.000000 0.000000 0.000000 0.011934 0.000000
# 6 0.000000 0.000000 0.000000 0.000000 0.000000 0.008804
#
#
# Mechanical properties :
#
#
# Convention : Reuss Voigt Hill
#
# Bulk Modulus (GPa) = 21.48412 39.73316 30.60864
# Shear Modulus (GPa) = 35.50653 29.25617 32.38135
#
# Velocity S-wave (km/s) = 4.14240 3.76017 3.95590
# Velocity P-wave (km/s) = 5.76733 6.16879 5.97144
#
# Compressibility (1/GPa) = 0.04654600
#
# Stress axis : x y z
#
# Youngs Moduli (GPa) = 58.77074 44.87487 24.12563
#
# Poissons Ratio (x) = 0.56860 -0.03800
# Poissons Ratio (y) = 0.74467 0.14490
# Poissons Ratio (z) = -0.09257 0.26951
#
# Static dielectric constant tensor:
#      x y z
#    x 1.754930 0.000000 0.000000 
#    y 0.000000 1.776520 0.000000 
#    z 0.000000 0.000000 1.789320 
# 
# From -- ./inp_files/11606.got.cif
#   From: 2010.05.17/outbox.cif.g08.bks.cpg/sg47_6_cif.got.tgz:11606.got - 2010.06.03 20:15:42.
