data_PCOD9383315
_publ_section_title
;
Structure prediction by ZEFSAII (Michael W. Deem and Ramdas Pophale) SiO2 
 PCOD9383315
Probable space group: P M M M
;
_chemical_formula_sum "Si O2"
_cell_formula_units_Z 36
_cell_length_a 25.705163
_cell_length_b 7.952606
_cell_length_c 9.543995
_cell_angle_alpha 90.000000
_cell_angle_beta 90.000000
_cell_angle_gamma 90.000000
_cell_volume 1951.012410
_symmetry_space_group_name_H-M "P M M M"
_symmetry_group_IT_number 47
_symmetry_cell_setting 'orthorhombic'
loop_
_space_group_symop_operation_xyz
x,y,z
-x,-y,z
x,-y,-z
-x,y,-z
-x,-y,-z
x,y,-z
-x,y,z
x,-y,z
loop_
_atom_site_type_symbol
_atom_site_label
_atom_site_fract_x
_atom_site_fract_y
_atom_site_fract_z
Si Si1 0.843100 0.296354 0.160231
Si Si2 0.370815 0.686019 0.670579
Si Si3 0.941591 0.705141 0.661697
Si Si4 0.257135 0.799768 0.338694
Si Si5 0.440059 0.000000 0.328715
O O1 0.844447 0.500000 0.159709
O O2 0.895092 0.236615 0.239621
O O3 0.792063 0.242832 0.244451
O O4 0.841639 0.238132 0.000000
O O5 0.370572 0.691400 0.500000
O O6 0.387689 0.500000 0.713928
O O7 0.311001 0.718087 0.711914
O O8 0.408605 0.834781 0.717428
O O9 0.932704 0.755223 0.500000
O O10 0.941411 0.500000 0.663913
O O11 0.000000 0.758268 0.702912
O O12 0.247431 0.745127 0.500000
O O13 0.265416 0.000000 0.340215
O O14 0.500000 0.000000 0.284350
O O15 0.439815 0.000000 0.500000
#
# Coordination Sequence:
#
# PCOD9383315 Si02
#       5
#     8   8   8   8   4
#     4  10  20  31  45  70 101 129 161 204 256 315
#     4   9  16  27  44  66  94 130 171 213 257 305
#     4   8  14  26  45  68  94 126 165 207 250 301
#     4  10  19  32  50  69  92 126 170 216 259 307
#     4   9  16  26  40  64 101 137 170 209 252 305
#
# _framework density 18.45196
#
# number of rings (size 3 to 8) (size 9 to 14) (size 15 to 20)
#    0.000    2.778    1.111    2.000    0.000    3.556 
#    0.000    4.444    0.000    0.667    0.000    4.667 
#    0.000    1.778    0.000    4.667    0.000    4.444 
#
# Total GULP energy -200769.482473 kJ/mol
# GULP energy per Si atom -5576.930069 kJ/mol
# Density = 1.840996 g / cm^3
# Si number density = 18.451960 Si / 1000 Ang^3
#
#
#
# Elastic Constant Matrix: (Units=GPa)
#
#
# Indices 1 2 3 4 5 6 
#
# 1 173.4441 61.2140 63.1300 0.0000 0.0000 0.0000
# 2 61.2140 79.5119 24.4504 0.0000 0.0000 0.0000
# 3 63.1300 24.4504 54.4962 0.0000 0.0000 0.0000
# 4 0.0000 0.0000 0.0000 9.1775 0.0000 0.0000
# 5 0.0000 0.0000 0.0000 0.0000 -4.2256 0.0000
# 6 0.0000 0.0000 0.0000 0.0000 0.0000 25.0927
#
#
#
# Elastic Compliance Matrix: (Units=1/GPa)
#
#
# Indices 1 2 3 4 5 6 
#
# 1 0.011830 -0.005677 -0.011157 0.000000 0.000000 0.000000
# 2 -0.005677 0.017314 -0.001192 0.000000 0.000000 0.000000
# 3 -0.011157 -0.001192 0.031810 0.000000 0.000000 0.000000
# 4 0.000000 0.000000 0.000000 0.108962 0.000000 0.000000
# 5 0.000000 0.000000 0.000000 0.000000 -0.236655 0.000000
# 6 0.000000 0.000000 0.000000 0.000000 0.000000 0.039852
#
#
# Mechanical properties :
#
#
# Convention : Reuss Voigt Hill
#
# Bulk Modulus (GPa) = 40.15839 67.22676 53.69258
# Shear Modulus (GPa) = 286.29849 16.58613 151.44231
#
# Velocity S-wave (km/s) = 12.46979 3.00139 9.06929
# Velocity P-wave (km/s) = 15.13732 6.96589 11.78266
#
# Compressibility (1/GPa) = 0.02490139
#
# Stress axis : x y z
#
# Youngs Moduli (GPa) = 84.53020 57.75814 31.43688
#
# Poissons Ratio (x) = 0.32787 0.35075
# Poissons Ratio (y) = 0.47985 0.03747
# Poissons Ratio (z) = 0.94314 0.06884
#
# Static dielectric constant tensor:
#      x y z
#    x 1.613430 0.000000 0.000000 
#    y 0.000000 1.671200 0.000000 
#    z 0.000000 0.000000 1.603940 
# 
# From -- ./inp_files/12047.got.cif
#   From: 2010.05.17/outbox.cif.g08.bks.cpg/sg47_7_cif.got.tgz:12047.got - 2010.06.03 20:15:42.
