data_PCOD9383399
_publ_section_title
;
Structure prediction by ZEFSAII (Michael W. Deem and Ramdas Pophale) SiO2 
 PCOD9383399
Probable space group: P M M M
;
_chemical_formula_sum "Si O2"
_cell_formula_units_Z 52
_cell_length_a 7.473516
_cell_length_b 12.858551
_cell_length_c 25.499666
_cell_angle_alpha 90.000000
_cell_angle_beta 90.000000
_cell_angle_gamma 90.000000
_cell_volume 2450.481862
_symmetry_space_group_name_H-M "P M M M"
_symmetry_group_IT_number 47
_symmetry_cell_setting 'orthorhombic'
loop_
_space_group_symop_operation_xyz
x,y,z
-x,-y,z
x,-y,-z
-x,y,-z
-x,-y,-z
x,y,-z
-x,y,z
x,-y,z
loop_
_atom_site_type_symbol
_atom_site_label
_atom_site_fract_x
_atom_site_fract_y
_atom_site_fract_z
Si Si1 0.290127 0.112382 0.086394
Si Si2 0.279913 0.500000 0.262354
Si Si3 0.718163 0.500000 0.141531
Si Si4 0.281114 0.335005 0.057056
Si Si5 0.214755 0.884454 0.209412
Si Si6 0.291766 0.276480 0.701763
Si Si7 0.786598 0.881384 0.500000
Si Si8 0.288959 0.880937 0.615703
O O1 0.500000 0.109435 0.072523
O O2 0.216507 0.216969 0.061939
O O3 0.276128 0.123348 0.149368
O O4 0.212098 0.000000 0.072161
O O5 0.500000 0.500000 0.262267
O O6 0.223169 0.500000 0.201421
O O7 0.219060 0.607723 0.288969
O O8 0.500000 0.500000 0.142634
O O9 0.776241 0.598517 0.106964
O O10 0.500000 0.334955 0.058557
O O11 0.230359 0.377382 0.000000
O O12 0.282601 0.790827 0.244950
O O13 0.000000 0.881428 0.209995
O O14 0.270806 0.000000 0.229177
O O15 0.500000 0.291794 0.688026
O O16 0.211930 0.200596 0.657369
O O17 0.730247 0.838837 0.443640
O O18 0.000000 0.883860 0.500000
O O19 0.715688 0.000000 0.500000
O O20 0.500000 0.890055 0.626768
O O21 0.215443 0.000000 0.618391
#
# Coordination Sequence:
#
# PCOD9383399 Si02
#       8
#     8   4   4   8   8   8   4   8
#     4   9  17  29  45  64  88 119 151 185 231 288
#     4   9  18  31  49  73  99 128 163 202 241 288
#     4   9  15  24  39  61  91 121 146 182 237 288
#     4   9  16  25  40  64  90 114 145 188 235 282
#     4  10  20  32  47  69  97 127 159 198 243 292
#     4  10  19  32  51  74 100 130 165 204 246 290
#     4   9  17  29  47  72 101 132 164 199 240 283
#     4   9  17  29  47  72 101 131 162 198 240 285
#
# _framework density 21.220317999999999
#
# number of rings (size 3 to 8) (size 9 to 14) (size 15 to 20)
#    0.000    2.692    0.000    2.308    0.000    6.769 
#    0.000    3.462    0.000    0.923    0.000    5.385 
#    0.000    2.462    0.000    0.000    0.000    0.000 
#
# Total GULP energy -290185.160012 kJ/mol
# GULP energy per Si atom -5580.483846 kJ/mol
# Density = 2.117202 g / cm^3
# Si number density = 21.220318 Si / 1000 Ang^3
#
#
#
# Elastic Constant Matrix: (Units=GPa)
#
#
# Indices 1 2 3 4 5 6 
#
# 1 65.1402 7.7602 -1.5120 0.0000 0.0000 0.0000
# 2 7.7602 168.6881 74.1028 0.0000 0.0000 0.0000
# 3 -1.5120 74.1028 111.5429 0.0000 0.0000 0.0000
# 4 0.0000 0.0000 0.0000 21.3767 0.0000 0.0000
# 5 0.0000 0.0000 0.0000 0.0000 140.5575 0.0000
# 6 0.0000 0.0000 0.0000 0.0000 0.0000 -5.9627
#
#
#
# Elastic Compliance Matrix: (Units=1/GPa)
#
#
# Indices 1 2 3 4 5 6 
#
# 1 0.015509 -0.001138 0.000966 0.000000 0.000000 0.000000
# 2 -0.001138 0.008455 -0.005632 0.000000 0.000000 0.000000
# 3 0.000966 -0.005632 0.012720 0.000000 0.000000 0.000000
# 4 0.000000 0.000000 0.000000 0.046780 0.000000 0.000000
# 5 0.000000 0.000000 0.000000 0.000000 0.007115 0.000000
# 6 0.000000 0.000000 0.000000 0.000000 0.000000 -0.167710
#
#
# Mechanical properties :
#
#
# Convention : Reuss Voigt Hill
#
# Bulk Modulus (GPa) = 39.87837 56.23036 48.05436
# Shear Modulus (GPa) = -87.46547 48.86232 -19.30158
#
# Velocity S-wave (km/s) = -6.42707 4.80377 -3.01920
# Velocity P-wave (km/s) = 6.02022 7.57127 3.24662
#
# Compressibility (1/GPa) = 0.02507625
#
# Stress axis : x y z
#
# Youngs Moduli (GPa) = 64.47662 118.27868 78.61656
#
# Poissons Ratio (x) = 0.13459 -0.07596
# Poissons Ratio (y) = 0.07337 0.44278
# Poissons Ratio (z) = -0.06230 0.66617
#
# Static dielectric constant tensor:
#      x y z
#    x 1.780300 0.000000 0.000000 
#    y 0.000000 1.788640 0.000000 
#    z 0.000000 0.000000 1.749380 
# 
# From -- ./inp_files/33294.got.cif
#   From: 2010.05.17/outbox.cif.g08.bks.cpg/sg47_17_cif.got.tgz:33294.got - 2010.06.03 20:15:42.
