data_PCOD9383622
_publ_section_title
;
Structure prediction by ZEFSAII (Michael W. Deem and Ramdas Pophale) SiO2 
 PCOD9383622
Probable space group: P M M M
;
_chemical_formula_sum "Si O2"
_cell_formula_units_Z 48
_cell_length_a 13.792526
_cell_length_b 17.367659
_cell_length_c 9.885438
_cell_angle_alpha 90.000000
_cell_angle_beta 90.000000
_cell_angle_gamma 90.000000
_cell_volume 2367.996256
_symmetry_space_group_name_H-M "P M M M"
_symmetry_group_IT_number 47
_symmetry_cell_setting 'orthorhombic'
loop_
_space_group_symop_operation_xyz
x,y,z
-x,-y,z
x,-y,-z
-x,y,-z
-x,-y,-z
x,y,-z
-x,y,z
x,-y,z
loop_
_atom_site_type_symbol
_atom_site_label
_atom_site_fract_x
_atom_site_fract_y
_atom_site_fract_z
Si Si1 0.112698 0.714954 0.654565
Si Si2 0.617761 0.912309 0.500000
Si Si3 0.693090 0.639839 0.659576
Si Si4 0.383365 0.500000 0.159236
Si Si5 0.118098 0.000000 0.341945
Si Si6 0.617021 0.806905 0.254555
Si Si7 0.618702 0.909994 0.000000
Si Si8 0.117621 0.141774 0.156288
O O1 0.122240 0.746899 0.500000
O O2 0.190171 0.646814 0.664673
O O3 0.138284 0.778508 0.766844
O O4 0.000000 0.693111 0.671466
O O5 0.500000 0.914046 0.500000
O O6 0.648416 0.862569 0.374147
O O7 0.648936 0.000000 0.500000
O O8 0.665155 0.630762 0.500000
O O9 0.653982 0.573558 0.756639
O O10 0.654823 0.721706 0.715630
O O11 0.500000 0.500000 0.161138
O O12 0.353560 0.500000 0.000000
O O13 0.150211 0.073411 0.254690
O O14 0.145218 0.000000 0.500000
O O15 0.000000 0.000000 0.342188
O O16 0.500000 0.801192 0.251796
O O17 0.646939 0.856197 0.125115
O O18 0.500000 0.914900 0.000000
O O19 0.651761 0.000000 0.000000
O O20 0.000000 0.136690 0.151876
O O21 0.149754 0.136528 0.000000
#
# Coordination Sequence:
#
# PCOD9383622 Si02
#       8
#     8   4   8   4   4   8   4   8
#     4   9  19  37  61  86 115 154 202 252 305 364
#     4   9  16  28  50  81 118 156 197 251 308 360
#     4  11  23  41  66  94 126 162 208 255 311 369
#     4  11  27  47  70 101 134 166 197 239 298 371
#     4   9  15  23  41  69 101 141 192 251 314 373
#     4  10  19  32  55  86 119 159 206 251 302 369
#     4   9  18  32  52  81 120 166 209 249 302 366
#     4   9  16  27  46  73 104 142 192 251 312 370
#
# _framework density 20.270302000000001
#
# number of rings (size 3 to 8) (size 9 to 14) (size 15 to 20)
#    0.000    2.333    0.833    2.000    1.167    7.000 
#    0.000    0.417    3.667    2.500    0.000    0.000 
#    0.000    0.000    0.000    0.000    0.000    0.000 
#
# Total GULP energy -267987.150953 kJ/mol
# GULP energy per Si atom -5583.065645 kJ/mol
# Density = 2.022417 g / cm^3
# Si number density = 20.270302 Si / 1000 Ang^3
#
#
#
# Elastic Constant Matrix: (Units=GPa)
#
#
# Indices 1 2 3 4 5 6 
#
# 1 86.3564 45.9904 52.2980 0.0000 0.0000 0.0000
# 2 45.9904 165.1398 105.0463 0.0000 0.0000 0.0000
# 3 52.2980 105.0463 219.3416 0.0000 0.0000 0.0000
# 4 0.0000 0.0000 0.0000 18.6434 0.0000 0.0000
# 5 0.0000 0.0000 0.0000 0.0000 22.2252 0.0000
# 6 0.0000 0.0000 0.0000 0.0000 0.0000 15.5859
#
#
#
# Elastic Compliance Matrix: (Units=1/GPa)
#
#
# Indices 1 2 3 4 5 6 
#
# 1 0.014272 -0.002603 -0.002156 0.000000 0.000000 0.000000
# 2 -0.002603 0.009183 -0.003777 0.000000 0.000000 0.000000
# 3 -0.002156 -0.003777 0.006882 0.000000 0.000000 0.000000
# 4 0.000000 0.000000 0.000000 0.053638 0.000000 0.000000
# 5 0.000000 0.000000 0.000000 0.000000 0.044994 0.000000
# 6 0.000000 0.000000 0.000000 0.000000 0.000000 0.064161
#
#
# Mechanical properties :
#
#
# Convention : Reuss Voigt Hill
#
# Bulk Modulus (GPa) = 75.39100 97.50083 86.44591
# Shear Modulus (GPa) = 23.29646 29.12445 26.21045
#
# Velocity S-wave (km/s) = 3.39380 3.79463 3.59980
# Velocity P-wave (km/s) = 7.25470 8.20998 7.74708
#
# Compressibility (1/GPa) = 0.01326418
#
# Stress axis : x y z
#
# Youngs Moduli (GPa) = 70.06692 108.89451 145.30143
#
# Poissons Ratio (x) = 0.28346 0.31331
# Poissons Ratio (y) = 0.18239 0.54885
# Poissons Ratio (z) = 0.15108 0.41133
#
# Static dielectric constant tensor:
#      x y z
#    x 1.776310 0.000000 0.000000 
#    y 0.000000 1.569610 0.000000 
#    z 0.000000 0.000000 1.685320 
# 
# From -- ./inp_files/6567.got.cif
#   From: 2010.05.17/outbox.cif.g08.bks.cpg/sg47_4_cif.got.tgz:6567.got - 2010.06.03 20:15:42.
