data_PCOD9383169
_publ_section_title
;
Structure prediction by ZEFSAII (Michael W. Deem and Ramdas Pophale) SiO2 
 PCOD9383169
Probable space group: P M M M
;
_chemical_formula_sum "Si O2"
_cell_formula_units_Z 64
_cell_length_a 20.809771
_cell_length_b 7.746987
_cell_length_c 18.163842
_cell_angle_alpha 90.000000
_cell_angle_beta 90.000000
_cell_angle_gamma 90.000000
_cell_volume 2928.247922
_symmetry_space_group_name_H-M "P M M M"
_symmetry_group_IT_number 47
_symmetry_cell_setting 'orthorhombic'
loop_
_space_group_symop_operation_xyz
x,y,z
-x,-y,z
x,-y,-z
-x,y,-z
-x,-y,-z
x,y,-z
-x,y,z
x,-y,z
loop_
_atom_site_type_symbol
_atom_site_label
_atom_site_fract_x
_atom_site_fract_y
_atom_site_fract_z
Si Si1 0.073951 0.703606 0.215946
Si Si2 0.290626 0.299943 0.285145
Si Si3 0.569655 0.793807 0.710452
Si Si4 0.151525 0.701133 0.920943
Si Si5 0.569030 0.792406 0.887260
Si Si6 0.071210 0.199278 0.383496
Si Si7 0.291364 0.799347 0.883883
Si Si8 0.789151 0.701675 0.420896
O O1 0.088908 0.500000 0.228972
O O2 0.119630 0.775787 0.152467
O O3 0.078345 0.791440 0.295036
O O4 0.000000 0.715221 0.190929
O O5 0.273610 0.500000 0.270851
O O6 0.363777 0.288342 0.314777
O O7 0.288990 0.211064 0.205419
O O8 0.243456 0.225055 0.347227
O O9 0.500000 0.733206 0.681751
O O10 0.568077 0.767244 0.798903
O O11 0.573627 0.000000 0.698660
O O12 0.131818 0.500000 0.921429
O O13 0.228126 0.709882 0.913550
O O14 0.132684 0.777591 0.000000
O O15 0.500000 0.726302 0.915219
O O16 0.639355 0.727758 0.909880
O O17 0.569447 0.000000 0.900211
O O18 0.133998 0.288001 0.415126
O O19 0.000000 0.270722 0.401168
O O20 0.072464 0.000000 0.406663
O O21 0.288116 0.000000 0.905079
O O22 0.769524 0.777594 0.500000
O O23 0.770526 0.500000 0.421066
#
# Coordination Sequence:
#
# PCOD9383169 Si02
#       8
#     8   8   8   8   8   8   8   8
#     4   9  18  34  56  78  99 128 166 202 239 291
#     4  10  19  31  50  75 101 129 166 212 256 297
#     4   8  14  26  45  70 100 131 163 202 249 300
#     4  10  21  35  50  71 101 133 164 204 250 290
#     4   7  11  22  41  65  91 118 151 193 237 278
#     4  10  21  36  55  80 106 129 158 202 253 301
#     4  10  19  31  50  74  99 129 165 203 246 301
#     4  10  22  38  53  71  99 136 174 209 247 296
#
# _framework density 21.856072999999999
#
# number of rings (size 3 to 8) (size 9 to 14) (size 15 to 20)
#    0.000    2.750    0.000    3.375    0.000    6.500 
#    0.000    2.500    0.000    1.875    0.000    7.875 
#    0.000    0.000    0.000    0.000    0.000    0.000 
#
# Total GULP energy -356953.976778 kJ/mol
# GULP energy per Si atom -5577.405887 kJ/mol
# Density = 2.180633 g / cm^3
# Si number density = 21.856073 Si / 1000 Ang^3
#
#
#
# Elastic Constant Matrix: (Units=GPa)
#
#
# Indices 1 2 3 4 5 6 
#
# 1 81.0121 -2.2371 38.4630 0.0000 0.0000 0.0000
# 2 -2.2371 35.3135 -1.3689 0.0000 0.0000 0.0000
# 3 38.4630 -1.3689 85.0661 0.0000 0.0000 0.0000
# 4 0.0000 0.0000 0.0000 21.8891 0.0000 0.0000
# 5 0.0000 0.0000 0.0000 0.0000 -298.4274 0.0000
# 6 0.0000 0.0000 0.0000 0.0000 0.0000 23.7607
#
#
#
# Elastic Compliance Matrix: (Units=1/GPa)
#
#
# Indices 1 2 3 4 5 6 
#
# 1 0.015736 0.000722 -0.007104 0.000000 0.000000 0.000000
# 2 0.000722 0.028369 0.000130 0.000000 0.000000 0.000000
# 3 -0.007104 0.000130 0.014970 0.000000 0.000000 0.000000
# 4 0.000000 0.000000 0.000000 0.045685 0.000000 0.000000
# 5 0.000000 0.000000 0.000000 0.000000 -0.003351 0.000000
# 6 0.000000 0.000000 0.000000 0.000000 0.000000 0.042086
#
#
# Mechanical properties :
#
#
# Convention : Reuss Voigt Hill
#
# Bulk Modulus (GPa) = 21.47267 30.12285 25.79776
# Shear Modulus (GPa) = 29.15073 -39.45320 -5.15124
#
# Velocity S-wave (km/s) = 3.65603 -4.25330 -1.53688
# Velocity P-wave (km/s) = 5.26003 3.21068 2.94614
#
# Compressibility (1/GPa) = 0.04657083
#
# Stress axis : x y z
#
# Youngs Moduli (GPa) = 63.54668 35.25032 66.80195
#
# Poissons Ratio (x) = -0.02543 0.47454
# Poissons Ratio (y) = -0.04585 -0.00870
# Poissons Ratio (z) = 0.45142 -0.00459
#
# Static dielectric constant tensor:
#      x y z
#    x 1.841910 0.000000 0.000000 
#    y 0.000000 1.794750 0.000000 
#    z 0.000000 0.000000 1.826940 
# 
# From -- ./inp_files/28768.got.cif
#   From: 2010.05.17/outbox.cif.g08.bks.cpg/sg47_15_cif.got.tgz:28768.got - 2010.06.03 20:15:42.
