data_PCOD9383748
_publ_section_title
;
Structure prediction by ZEFSAII (Michael W. Deem and Ramdas Pophale) SiO2 
 PCOD9383748
Probable space group: P M M M
;
_chemical_formula_sum "Si O2"
_cell_formula_units_Z 52
_cell_length_a 8.537920
_cell_length_b 22.597641
_cell_length_c 15.213693
_cell_angle_alpha 90.000000
_cell_angle_beta 90.000000
_cell_angle_gamma 90.000000
_cell_volume 2935.282020
_symmetry_space_group_name_H-M "P M M M"
_symmetry_group_IT_number 47
_symmetry_cell_setting 'orthorhombic'
loop_
_space_group_symop_operation_xyz
x,y,z
-x,-y,z
x,-y,-z
-x,y,-z
-x,-y,-z
x,y,-z
-x,y,z
x,-y,z
loop_
_atom_site_type_symbol
_atom_site_label
_atom_site_fract_x
_atom_site_fract_y
_atom_site_fract_z
Si Si1 0.190143 0.433351 0.000000
Si Si2 0.189892 0.651118 0.159145
Si Si3 0.187731 0.567847 0.686438
Si Si4 0.809130 0.000000 0.898048
Si Si5 0.187781 0.886584 0.216794
Si Si6 0.312501 0.778564 0.898078
Si Si7 0.311014 0.930647 0.599592
Si Si8 0.323629 0.571388 0.500000
O O1 0.234733 0.395528 0.915969
O O2 0.250601 0.500000 0.000000
O O3 0.000000 0.436739 0.000000
O O4 0.242958 0.618498 0.247629
O O5 0.260480 0.714398 0.136593
O O6 0.000000 0.657017 0.159776
O O7 0.245126 0.500000 0.704060
O O8 0.234200 0.586081 0.588666
O O9 0.000000 0.564968 0.694412
O O10 0.759189 0.942380 0.843110
O O11 0.000000 0.000000 0.899918
O O12 0.756594 0.000000 0.000000
O O13 0.245599 0.828330 0.166650
O O14 0.246967 0.895141 0.316694
O O15 0.000000 0.886709 0.218769
O O16 0.500000 0.782246 0.898062
O O17 0.258318 0.786189 0.000000
O O18 0.262124 0.912340 0.500000
O O19 0.500000 0.928059 0.601763
O O20 0.265590 0.000000 0.610164
O O21 0.332228 0.500000 0.500000
O O22 0.500000 0.594915 0.500000
#
# Coordination Sequence:
#
# PCOD9383748 Si02
#       8
#     4   8   8   4   8   8   8   4
#     4   9  16  28  51  83 113 138 173 222 271 323
#     4  10  19  33  55  80 107 141 181 223 271 322
#     4   9  17  30  51  80 109 136 170 217 271 322
#     4   9  18  32  50  79 114 142 173 223 278 321
#     4  11  21  35  58  85 113 145 185 233 280 322
#     4  11  24  40  56  76 107 149 191 227 271 330
#     4   9  18  34  57  85 119 155 184 217 269 332
#     4   9  17  29  47  73 105 141 177 212 259 322
#
# _framework density 17.715503999999999
#
# number of rings (size 3 to 8) (size 9 to 14) (size 15 to 20)
#    0.000    2.231    1.538    2.538    0.000    5.231 
#    0.000    0.769    1.692    3.692    0.000    0.000 
#    0.000    0.000    0.000    0.000    0.000    0.000 
#
# Total GULP energy -289956.197274 kJ/mol
# GULP energy per Si atom -5576.080717 kJ/mol
# Density = 1.767518 g / cm^3
# Si number density = 17.715504 Si / 1000 Ang^3
#
#
#
# Elastic Constant Matrix: (Units=GPa)
#
#
# Indices 1 2 3 4 5 6 
#
# 1 22.4873 24.6345 30.3542 0.0000 0.0000 0.0000
# 2 24.6345 139.0682 92.7442 0.0000 0.0000 0.0000
# 3 30.3542 92.7442 188.7718 0.0000 0.0000 0.0000
# 4 0.0000 0.0000 0.0000 59.9854 0.0000 0.0000
# 5 0.0000 0.0000 0.0000 0.0000 19.2614 0.0000
# 6 0.0000 0.0000 0.0000 0.0000 0.0000 15.0548
#
#
#
# Elastic Compliance Matrix: (Units=1/GPa)
#
#
# Indices 1 2 3 4 5 6 
#
# 1 0.060257 -0.006265 -0.006611 0.000000 0.000000 0.000000
# 2 -0.006265 0.011346 -0.004567 0.000000 0.000000 0.000000
# 3 -0.006611 -0.004567 0.008604 0.000000 0.000000 0.000000
# 4 0.000000 0.000000 0.000000 0.016671 0.000000 0.000000
# 5 0.000000 0.000000 0.000000 0.000000 0.051917 0.000000
# 6 0.000000 0.000000 0.000000 0.000000 0.000000 0.066424
#
#
# Mechanical properties :
#
#
# Convention : Reuss Voigt Hill
#
# Bulk Modulus (GPa) = 22.06485 71.75479 46.90982
# Shear Modulus (GPa) = 18.85280 32.36662 25.60971
#
# Velocity S-wave (km/s) = 3.26574 4.27901 3.80624
# Velocity P-wave (km/s) = 5.16742 8.06257 6.77153
#
# Compressibility (1/GPa) = 0.04532096
#
# Stress axis : x y z
#
# Youngs Moduli (GPa) = 16.59565 88.13497 116.22116
#
# Poissons Ratio (x) = 0.55215 0.76837
# Poissons Ratio (y) = 0.10397 0.53079
# Poissons Ratio (z) = 0.10972 0.40252
#
# Static dielectric constant tensor:
#      x y z
#    x 1.610850 0.000000 0.000000 
#    y 0.000000 1.582520 0.000000 
#    z 0.000000 0.000000 1.646190 
# 
# From -- ./inp_files/21521.got.cif
#   From: 2010.05.17/outbox.cif.g08.bks.cpg/sg47_11_cif.got.tgz:21521.got - 2010.06.03 20:15:42.
