data_PCOD9383112
_publ_section_title
;
Structure prediction by ZEFSAII (Michael W. Deem and Ramdas Pophale) SiO2 
 PCOD9383112
Probable space group: P M M M
;
_chemical_formula_sum "Si O2"
_cell_formula_units_Z 40
_cell_length_a 8.367020
_cell_length_b 7.560366
_cell_length_c 30.121335
_cell_angle_alpha 90.000000
_cell_angle_beta 90.000000
_cell_angle_gamma 90.000000
_cell_volume 1905.407383
_symmetry_space_group_name_H-M "P M M M"
_symmetry_group_IT_number 47
_symmetry_cell_setting 'orthorhombic'
loop_
_space_group_symop_operation_xyz
x,y,z
-x,-y,z
x,-y,-z
-x,y,-z
-x,-y,-z
x,y,-z
-x,y,z
x,-y,z
loop_
_atom_site_type_symbol
_atom_site_label
_atom_site_fract_x
_atom_site_fract_y
_atom_site_fract_z
Si Si1 0.677387 0.711090 0.191129
Si Si2 0.692595 0.797099 0.618782
Si Si3 0.180365 0.787456 0.286291
Si Si4 0.823876 0.283800 0.898566
Si Si5 0.304400 0.500000 0.550809
Si Si6 0.500000 0.284166 0.051387
O O1 0.500000 0.782723 0.182808
O O2 0.670190 0.500000 0.185879
O O3 0.726475 0.744265 0.241554
O O4 0.796785 0.772223 0.152701
O O5 0.500000 0.798865 0.618808
O O6 0.746235 0.727761 0.667015
O O7 0.746486 0.670838 0.579091
O O8 0.747924 0.000000 0.613200
O O9 0.000000 0.721094 0.282016
O O10 0.177823 0.000000 0.288959
O O11 0.825078 0.500000 0.900456
O O12 0.665154 0.226925 0.925086
O O13 0.000000 0.225771 0.914161
O O14 0.500000 0.500000 0.550147
O O15 0.250174 0.500000 0.500000
O O16 0.500000 0.500000 0.053599
O O17 0.500000 0.232590 0.000000
#
# Coordination Sequence:
#
# PCOD9383112 Si02
#       6
#     8   8   8   8   4   4
#     4  10  19  31  49  72  99 133 171 212 261 319
#     4   9  18  33  52  74 104 139 174 220 276 327
#     4  10  21  35  50  72 103 136 171 213 260 315
#     4   9  16  27  42  62  93 129 169 218 268 321
#     4   9  18  32  53  81 107 133 177 231 275 328
#     4   9  16  26  40  60  91 131 175 221 269 324
#
# _framework density 20.992888000000001
#
# number of rings (size 3 to 8) (size 9 to 14) (size 15 to 20)
#    0.000    2.600    1.000    1.200    1.400    3.200 
#    0.000    4.000    0.000    1.200    0.000    2.800 
#    0.000    1.600    0.000    4.200    0.000    4.000 
#
# Total GULP energy -223203.076688 kJ/mol
# GULP energy per Si atom -5580.076917 kJ/mol
# Density = 2.094511 g / cm^3
# Si number density = 20.992888 Si / 1000 Ang^3
#
#
#
# Elastic Constant Matrix: (Units=GPa)
#
#
# Indices 1 2 3 4 5 6 
#
# 1 118.3811 19.3017 66.3447 0.0000 0.0000 0.0000
# 2 19.3017 57.3186 23.8898 0.0000 0.0000 0.0000
# 3 66.3447 23.8898 159.7029 0.0000 0.0000 0.0000
# 4 0.0000 0.0000 0.0000 56.1471 0.0000 0.0000
# 5 0.0000 0.0000 0.0000 0.0000 0.0500 0.0000
# 6 0.0000 0.0000 0.0000 0.0000 0.0000 -12.7110
#
#
#
# Elastic Compliance Matrix: (Units=1/GPa)
#
#
# Indices 1 2 3 4 5 6 
#
# 1 0.011213 -0.001956 -0.004365 0.000000 0.000000 0.000000
# 2 -0.001956 0.018948 -0.002022 0.000000 0.000000 0.000000
# 3 -0.004365 -0.002022 0.008378 0.000000 0.000000 0.000000
# 4 0.000000 0.000000 0.000000 0.017810 0.000000 0.000000
# 5 0.000000 0.000000 0.000000 0.000000 20.019436 0.000000
# 6 0.000000 0.000000 0.000000 0.000000 0.000000 -0.078672
#
#
# Mechanical properties :
#
#
# Convention : Reuss Voigt Hill
#
# Bulk Modulus (GPa) = 45.76407 61.60831 53.68619
# Shear Modulus (GPa) = 0.24974 23.75499 12.00236
#
# Velocity S-wave (km/s) = 0.34528 3.36754 2.39369
# Velocity P-wave (km/s) = 4.69106 6.67318 5.76790
#
# Compressibility (1/GPa) = 0.02185121
#
# Stress axis : x y z
#
# Youngs Moduli (GPa) = 89.18371 52.77674 119.36656
#
# Poissons Ratio (x) = 0.10325 0.52109
# Poissons Ratio (y) = 0.17448 0.24132
# Poissons Ratio (z) = 0.38933 0.10670
#
# Static dielectric constant tensor:
#      x y z
#    x 1.761240 0.000000 0.000000 
#    y 0.000000 1.751170 0.000000 
#    z 0.000000 0.000000 1.720210 
# 
# From -- ./inp_files/33096.got.cif
#   From: 2010.05.17/outbox.cif.g08.bks.cpg/sg47_17_cif.got.tgz:33096.got - 2010.06.03 20:15:42.
