data_PCOD9383991
_publ_section_title
;
Structure prediction by ZEFSAII (Michael W. Deem and Ramdas Pophale) SiO2 
 PCOD9383991
Probable space group: P M M M
;
_chemical_formula_sum "Si O2"
_cell_formula_units_Z 56
_cell_length_a 22.778039
_cell_length_b 15.536602
_cell_length_c 8.490805
_cell_angle_alpha 90.000000
_cell_angle_beta 90.000000
_cell_angle_gamma 90.000000
_cell_volume 3004.839224
_symmetry_space_group_name_H-M "P M M M"
_symmetry_group_IT_number 47
_symmetry_cell_setting 'orthorhombic'
loop_
_space_group_symop_operation_xyz
x,y,z
-x,-y,z
x,-y,-z
-x,y,-z
-x,-y,-z
x,y,-z
-x,y,z
x,-y,z
loop_
_atom_site_type_symbol
_atom_site_label
_atom_site_fract_x
_atom_site_fract_y
_atom_site_fract_z
Si Si1 0.932242 0.597304 0.308007
Si Si2 0.624687 0.659642 0.315186
Si Si3 0.500000 0.603124 0.184264
Si Si4 0.346331 0.152588 0.190982
Si Si5 0.214046 0.903429 0.189561
Si Si6 0.258283 0.405397 0.813377
Si Si7 0.833329 0.271481 0.312708
Si Si8 0.566817 0.000000 0.808529
O O1 0.930421 0.597212 0.500000
O O2 0.915463 0.500000 0.257517
O O3 0.888293 0.671582 0.252702
O O4 0.000000 0.611952 0.262430
O O5 0.631540 0.644139 0.500000
O O6 0.558971 0.638506 0.262538
O O7 0.639917 0.757606 0.271897
O O8 0.673010 0.603930 0.223272
O O9 0.500000 0.500000 0.197516
O O10 0.500000 0.626799 0.000000
O O11 0.281635 0.118030 0.233365
O O12 0.395672 0.083441 0.236220
O O13 0.347326 0.163518 0.000000
O O14 0.174480 0.824295 0.246730
O O15 0.198810 0.000000 0.245551
O O16 0.212146 0.904335 0.000000
O O17 0.237888 0.500000 0.759508
O O18 0.223421 0.328613 0.731082
O O19 0.249023 0.398226 0.000000
O O20 0.837708 0.265214 0.500000
O O21 0.500000 0.000000 0.750786
O O22 0.564981 0.000000 0.000000
#
# Coordination Sequence:
#
# PCOD9383991 Si02
#       8
#     8   8   4   8   8   8   8   4
#     4   8  15  30  53  82 118 158 195 232 281 343
#     4  12  25  39  57  83 112 140 177 229 285 334
#     4  11  25  45  65  80  99 138 187 227 272 337
#     4  10  19  35  57  79 106 141 181 224 274 336
#     4  10  20  36  57  79 109 152 196 234 280 344
#     4  11  23  38  56  79 111 151 190 227 274 337
#     4  11  21  33  55  88 119 147 187 240 293 339
#     4   9  18  32  55  85 105 131 181 230 271 327
#
# _framework density 18.636603999999998
#
# number of rings (size 3 to 8) (size 9 to 14) (size 15 to 20)
#    0.000    1.714    2.143    3.643    1.000    4.286 
#    0.000    0.357    0.000    2.571    0.000    8.000 
#    0.000    0.000    0.000    0.000    0.000    0.000 
#
# Total GULP energy -312768.175675 kJ/mol
# GULP energy per Si atom -5585.145994 kJ/mol
# Density = 1.859419 g / cm^3
# Si number density = 18.636604 Si / 1000 Ang^3
#
#
#
# Elastic Constant Matrix: (Units=GPa)
#
#
# Indices 1 2 3 4 5 6 
#
# 1 106.2846 58.2474 3.7606 0.0000 0.0000 0.0000
# 2 58.2474 143.8633 21.3951 0.0000 0.0000 0.0000
# 3 3.7606 21.3951 18.6016 0.0000 0.0000 0.0000
# 4 0.0000 0.0000 0.0000 141.0657 0.0000 0.0000
# 5 0.0000 0.0000 0.0000 0.0000 3.0477 0.0000
# 6 0.0000 0.0000 0.0000 0.0000 0.0000 38.4904
#
#
#
# Elastic Compliance Matrix: (Units=1/GPa)
#
#
# Indices 1 2 3 4 5 6 
#
# 1 0.012324 -0.005572 0.003918 0.000000 0.000000 0.000000
# 2 -0.005572 0.010905 -0.011416 0.000000 0.000000 0.000000
# 3 0.003918 -0.011416 0.066097 0.000000 0.000000 0.000000
# 4 0.000000 0.000000 0.000000 0.007089 0.000000 0.000000
# 5 0.000000 0.000000 0.000000 0.000000 0.328114 0.000000
# 6 0.000000 0.000000 0.000000 0.000000 0.000000 0.025981
#
#
# Mechanical properties :
#
#
# Convention : Reuss Voigt Hill
#
# Bulk Modulus (GPa) = 15.82660 48.39507 32.11083
# Shear Modulus (GPa) = 10.04596 48.87718 29.46157
#
# Velocity S-wave (km/s) = 2.32425 5.12673 3.98030
# Velocity P-wave (km/s) = 3.96403 7.81464 6.19605
#
# Compressibility (1/GPa) = 0.06318478
#
# Stress axis : x y z
#
# Youngs Moduli (GPa) = 81.14309 91.70145 15.12919
#
# Poissons Ratio (x) = 0.51099 -0.05927
# Poissons Ratio (y) = 0.45216 0.17272
# Poissons Ratio (z) = -0.31789 1.04687
#
# Static dielectric constant tensor:
#      x y z
#    x 1.637040 0.000000 0.000000 
#    y 0.000000 1.652720 0.000000 
#    z 0.000000 0.000000 1.634890 
# 
# From -- ./inp_files/11357.got.cif
#   From: 2010.05.17/outbox.cif.g08.bks.cpg/sg47_6_cif.got.tgz:11357.got - 2010.06.03 20:15:42.
