data_PCOD9383564
_publ_section_title
;
Structure prediction by ZEFSAII (Michael W. Deem and Ramdas Pophale) SiO2 
 PCOD9383564
Probable space group: P M M M
;
_chemical_formula_sum "Si O2"
_cell_formula_units_Z 60
_cell_length_a 15.650887
_cell_length_b 15.010437
_cell_length_c 13.103448
_cell_angle_alpha 90.000000
_cell_angle_beta 90.000000
_cell_angle_gamma 90.000000
_cell_volume 3078.349185
_symmetry_space_group_name_H-M "P M M M"
_symmetry_group_IT_number 47
_symmetry_cell_setting 'orthorhombic'
loop_
_space_group_symop_operation_xyz
x,y,z
-x,-y,z
x,-y,-z
-x,y,-z
-x,-y,-z
x,y,-z
-x,y,z
x,-y,z
loop_
_atom_site_type_symbol
_atom_site_label
_atom_site_fract_x
_atom_site_fract_y
_atom_site_fract_z
Si Si1 0.598937 0.398938 0.328945
Si Si2 0.091156 0.276847 0.309526
Si Si3 0.868980 0.601486 0.883363
Si Si4 0.905145 0.105318 0.818054
Si Si5 0.718779 0.162491 0.170953
Si Si6 0.403088 0.000000 0.878092
Si Si7 0.329971 0.640505 0.888093
Si Si8 0.268687 0.249532 0.388773
O O1 0.500000 0.382217 0.352828
O O2 0.620297 0.500000 0.359438
O O3 0.614084 0.390125 0.206928
O O4 0.660568 0.326025 0.377548
O O5 0.099430 0.331042 0.202877
O O6 0.091065 0.172433 0.278052
O O7 0.175358 0.293565 0.374143
O O8 0.000000 0.299104 0.357073
O O9 0.898179 0.500000 0.866043
O O10 0.765816 0.601981 0.877366
O O11 0.891643 0.627403 0.000000
O O12 0.814259 0.134954 0.867034
O O13 0.000000 0.116851 0.868733
O O14 0.897748 0.000000 0.795095
O O15 0.686415 0.253460 0.120153
O O16 0.722469 0.184822 0.291769
O O17 0.651376 0.085467 0.153323
O O18 0.500000 0.000000 0.837433
O O19 0.407910 0.000000 0.000000
O O20 0.363722 0.617601 0.000000
O O21 0.274538 0.206918 0.500000
#
# Coordination Sequence:
#
# PCOD9383564 Si02
#       8
#     8   8   8   8   8   4   8   8
#     4  10  21  37  58  84 111 143 187 239 297 355
#     4  10  20  36  58  85 117 152 193 240 287 345
#     4  10  19  32  53  81 115 156 198 238 288 350
#     4   9  16  30  56  82 108 145 182 225 282 329
#     4  10  19  37  59  84 116 151 190 236 281 341
#     4  11  24  40  62  90 120 155 192 232 282 344
#     4  10  19  33  55  83 115 152 190 232 285 348
#     4  10  22  40  60  84 113 150 193 241 296 344
#
# _framework density 19.490967000000001
#
# number of rings (size 3 to 8) (size 9 to 14) (size 15 to 20)
#    0.000    2.067    4.667    0.800    0.000    4.533 
#    0.000    2.333    0.000    2.400    0.000    7.467 
#    0.000    0.000    0.000    0.000    0.000    0.000 
#
# Total GULP energy -334487.344758 kJ/mol
# GULP energy per Si atom -5574.789079 kJ/mol
# Density = 1.944660 g / cm^3
# Si number density = 19.490967 Si / 1000 Ang^3
#
#
#
# Elastic Constant Matrix: (Units=GPa)
#
#
# Indices 1 2 3 4 5 6 
#
# 1 124.8160 38.2640 6.6031 0.0000 0.0000 0.0000
# 2 38.2640 99.2732 9.1485 0.0000 0.0000 0.0000
# 3 6.6031 9.1485 83.0844 0.0000 0.0000 0.0000
# 4 0.0000 0.0000 0.0000 3.4363 0.0000 0.0000
# 5 0.0000 0.0000 0.0000 0.0000 -23.9807 0.0000
# 6 0.0000 0.0000 0.0000 0.0000 0.0000 -396.8611
#
#
#
# Elastic Compliance Matrix: (Units=1/GPa)
#
#
# Indices 1 2 3 4 5 6 
#
# 1 0.009095 -0.003474 -0.000340 0.000000 0.000000 0.000000
# 2 -0.003474 0.011504 -0.000991 0.000000 0.000000 0.000000
# 3 -0.000340 -0.000991 0.012172 0.000000 0.000000 0.000000
# 4 0.000000 0.000000 0.000000 0.291013 0.000000 0.000000
# 5 0.000000 0.000000 0.000000 0.000000 -0.041700 0.000000
# 6 0.000000 0.000000 0.000000 0.000000 0.000000 -0.002520
#
#
# Mechanical properties :
#
#
# Convention : Reuss Voigt Hill
#
# Bulk Modulus (GPa) = 43.17697 46.13389 44.65543
# Shear Modulus (GPa) = 16.84107 -66.60390 -24.88141
#
# Velocity S-wave (km/s) = 2.94265 -5.85200 -3.57678
# Velocity P-wave (km/s) = 5.80913 4.68406 2.42957
#
# Compressibility (1/GPa) = 0.02316049
#
# Stress axis : x y z
#
# Youngs Moduli (GPa) = 109.95237 86.92943 82.15535
#
# Poissons Ratio (x) = 0.30201 0.02796
# Poissons Ratio (y) = 0.38199 0.08138
# Poissons Ratio (z) = 0.03741 0.08611
#
# Static dielectric constant tensor:
#      x y z
#    x 1.716240 0.000000 0.000000 
#    y 0.000000 1.725100 0.000000 
#    z 0.000000 0.000000 1.678600 
# 
# From -- ./inp_files/23946.got.cif
#   From: 2010.05.17/outbox.cif.g08.bks.cpg/sg47_12_cif.got.tgz:23946.got - 2010.06.03 20:15:42.
