data_PCOD9383724
_publ_section_title
;
Structure prediction by ZEFSAII (Michael W. Deem and Ramdas Pophale) SiO2 
 PCOD9383724
Probable space group: P M M M
;
_chemical_formula_sum "Si O2"
_cell_formula_units_Z 48
_cell_length_a 29.942643
_cell_length_b 8.314751
_cell_length_c 10.334084
_cell_angle_alpha 90.000000
_cell_angle_beta 90.000000
_cell_angle_gamma 90.000000
_cell_volume 2572.831639
_symmetry_space_group_name_H-M "P M M M"
_symmetry_group_IT_number 47
_symmetry_cell_setting 'orthorhombic'
loop_
_space_group_symop_operation_xyz
x,y,z
-x,-y,z
x,-y,-z
-x,y,-z
-x,-y,-z
x,y,-z
-x,y,z
x,-y,z
loop_
_atom_site_type_symbol
_atom_site_label
_atom_site_fract_x
_atom_site_fract_y
_atom_site_fract_z
Si Si1 0.449351 0.196378 0.000000
Si Si2 0.298169 0.691992 0.849990
Si Si3 0.050564 0.693880 0.147455
Si Si4 0.122210 0.806195 0.354411
Si Si5 0.775232 0.194341 0.352360
Si Si6 0.552058 0.196774 0.500000
Si Si7 0.393306 0.805444 0.247506
O O1 0.422805 0.247741 0.126001
O O2 0.500000 0.252380 0.000000
O O3 0.450107 0.000000 0.000000
O O4 0.298138 0.500000 0.856312
O O5 0.257123 0.746206 0.760265
O O6 0.343343 0.747356 0.778400
O O7 0.296894 0.752924 0.000000
O O8 0.050305 0.500000 0.146829
O O9 0.087306 0.749860 0.248338
O O10 0.000000 0.747408 0.180700
O O11 0.060164 0.747353 0.000000
O O12 0.110006 0.752170 0.500000
O O13 0.173394 0.754341 0.329513
O O14 0.122499 0.000000 0.354722
O O15 0.762631 0.245109 0.500000
O O16 0.774112 0.000000 0.351887
O O17 0.500000 0.248746 0.500000
O O18 0.580549 0.247863 0.375398
O O19 0.550726 0.000000 0.500000
O O20 0.392032 0.000000 0.250288
#
# Coordination Sequence:
#
# PCOD9383724 Si02
#       7
#     4   8   8   8   8   4   8
#     4   9  16  28  51  79 103 133 175 219 260 303
#     4  11  24  39  54  77 111 145 179 220 266 319
#     4   9  19  35  53  76 110 151 191 228 266 313
#     4   9  19  36  56  81 111 140 175 224 278 328
#     4   9  20  39  61  82 106 138 178 224 274 327
#     4   9  18  32  53  83 111 133 167 217 266 311
#     4  10  19  33  54  79 107 138 173 216 263 311
#
# _framework density 18.656486000000001
#
# number of rings (size 3 to 8) (size 9 to 14) (size 15 to 20)
#    0.000    2.500    0.833    2.500    1.167    6.000 
#    0.000    7.500    0.000    3.000    0.000    0.000 
#    0.000    0.000    0.000    0.000    0.000    0.000 
#
# Total GULP energy -267726.585605 kJ/mol
# GULP energy per Si atom -5577.637200 kJ/mol
# Density = 1.861402 g / cm^3
# Si number density = 18.656486 Si / 1000 Ang^3
#
#
#
# Elastic Constant Matrix: (Units=GPa)
#
#
# Indices 1 2 3 4 5 6 
#
# 1 168.9654 21.7471 132.3004 0.0000 0.0000 0.0000
# 2 21.7471 11.9349 24.1309 0.0000 0.0000 0.0000
# 3 132.3004 24.1309 192.8149 0.0000 0.0000 0.0000
# 4 0.0000 0.0000 0.0000 21.1169 0.0000 0.0000
# 5 0.0000 0.0000 0.0000 0.0000 41.7293 0.0000
# 6 0.0000 0.0000 0.0000 0.0000 0.0000 86.2377
#
#
#
# Elastic Compliance Matrix: (Units=1/GPa)
#
#
# Indices 1 2 3 4 5 6 
#
# 1 0.013304 -0.007745 -0.008159 0.000000 0.000000 0.000000
# 2 -0.007745 0.116680 -0.009289 0.000000 0.000000 0.000000
# 3 -0.008159 -0.009289 0.011947 0.000000 0.000000 0.000000
# 4 0.000000 0.000000 0.000000 0.047355 0.000000 0.000000
# 5 0.000000 0.000000 0.000000 0.000000 0.023964 0.000000
# 6 0.000000 0.000000 0.000000 0.000000 0.000000 0.011596
#
#
# Mechanical properties :
#
#
# Convention : Reuss Voigt Hill
#
# Bulk Modulus (GPa) = 10.92340 81.11911 46.02125
# Shear Modulus (GPa) = 16.35336 42.85256 29.60296
#
# Velocity S-wave (km/s) = 2.96387 4.79782 3.98771
# Velocity P-wave (km/s) = 4.19290 8.61783 6.77670
#
# Compressibility (1/GPa) = 0.09154663
#
# Stress axis : x y z
#
# Youngs Moduli (GPa) = 75.16595 8.57041 83.70106
#
# Poissons Ratio (x) = 0.06638 0.68294
# Poissons Ratio (y) = 0.58214 0.77746
# Poissons Ratio (z) = 0.61330 0.07961
#
# Static dielectric constant tensor:
#      x y z
#    x 1.625190 0.000000 0.000000 
#    y 0.000000 1.654650 0.000000 
#    z 0.000000 0.000000 1.638520 
# 
# From -- ./inp_files/13866.got.cif
#   From: 2010.05.17/outbox.cif.g08.bks.cpg/sg47_7_cif.got.tgz:13866.got - 2010.06.03 20:15:42.
