data_PCOD9383121
_publ_section_title
;
Structure prediction by ZEFSAII (Michael W. Deem and Ramdas Pophale) SiO2 
 PCOD9383121
Probable space group: P M M M
;
_chemical_formula_sum "Si O2"
_cell_formula_units_Z 64
_cell_length_a 24.945412
_cell_length_b 14.811507
_cell_length_c 8.870662
_cell_angle_alpha 90.000000
_cell_angle_beta 90.000000
_cell_angle_gamma 90.000000
_cell_volume 3277.524607
_symmetry_space_group_name_H-M "P M M M"
_symmetry_group_IT_number 47
_symmetry_cell_setting 'orthorhombic'
loop_
_space_group_symop_operation_xyz
x,y,z
-x,-y,z
x,-y,-z
-x,y,-z
-x,-y,-z
x,y,-z
-x,y,z
x,-y,z
loop_
_atom_site_type_symbol
_atom_site_label
_atom_site_fract_x
_atom_site_fract_y
_atom_site_fract_z
Si Si1 0.149211 0.266890 0.323953
Si Si2 0.324196 0.854902 0.326589
Si Si3 0.558828 0.846264 0.318246
Si Si4 0.210503 0.897372 0.820476
Si Si5 0.936791 0.397424 0.180746
Si Si6 0.440770 0.353120 0.178634
Si Si7 0.227192 0.602080 0.829730
Si Si8 0.333443 0.363609 0.671724
O O1 0.140949 0.254693 0.500000
O O2 0.169488 0.173887 0.251286
O O3 0.098720 0.318730 0.251955
O O4 0.197883 0.335480 0.289502
O O5 0.314746 0.882300 0.500000
O O6 0.383524 0.890091 0.279714
O O7 0.271822 0.880377 0.232885
O O8 0.329670 0.745843 0.323219
O O9 0.561993 0.828249 0.500000
O O10 0.500000 0.890214 0.293225
O O11 0.557424 0.752370 0.227368
O O12 0.196395 0.000000 0.779380
O O13 0.208863 0.887594 0.000000
O O14 0.922581 0.500000 0.231924
O O15 0.000000 0.384998 0.211072
O O16 0.929221 0.395518 0.000000
O O17 0.500000 0.390309 0.209989
O O18 0.392140 0.391772 0.274430
O O19 0.430451 0.360576 0.000000
O O20 0.206547 0.500000 0.824056
O O21 0.289206 0.601912 0.786905
O O22 0.218809 0.636883 0.000000
O O23 0.322650 0.391305 0.500000
#
# Coordination Sequence:
#
# PCOD9383121 Si02
#       8
#     8   8   8   8   8   8   8   8
#     4  12  24  38  60  90 124 161 198 241 293 344
#     4   9  17  30  50  76 104 137 179 232 295 356
#     4   8  14  25  42  66  97 131 170 220 280 350
#     4  11  24  40  59  82 110 151 202 253 304 356
#     4   9  19  38  65  97 134 175 213 245 280 327
#     4   9  16  25  40  64  93 128 172 220 272 333
#     4  11  23  37  55  80 112 151 191 232 280 338
#     4  10  19  31  49  73 102 137 176 224 284 344
#
# _framework density 19.526931999999999
#
# number of rings (size 3 to 8) (size 9 to 14) (size 15 to 20)
#    0.000    2.125    1.250    4.125    0.000    6.750 
#    0.000    0.625    0.000    1.125    0.000    7.875 
#    0.000    0.000    0.000    0.000    0.000    0.000 
#
# Total GULP energy -357136.848461 kJ/mol
# GULP energy per Si atom -5580.263257 kJ/mol
# Density = 1.948249 g / cm^3
# Si number density = 19.526932 Si / 1000 Ang^3
#
#
#
# Elastic Constant Matrix: (Units=GPa)
#
#
# Indices 1 2 3 4 5 6 
#
# 1 125.7232 53.5028 43.5338 0.0000 0.0000 0.0000
# 2 53.5028 110.4715 37.2989 0.0000 0.0000 0.0000
# 3 43.5338 37.2989 54.8346 0.0000 0.0000 0.0000
# 4 0.0000 0.0000 0.0000 71.2295 0.0000 0.0000
# 5 0.0000 0.0000 0.0000 0.0000 51.0345 0.0000
# 6 0.0000 0.0000 0.0000 0.0000 0.0000 8.5797
#
#
#
# Elastic Compliance Matrix: (Units=1/GPa)
#
#
# Indices 1 2 3 4 5 6 
#
# 1 0.011841 -0.003324 -0.007139 0.000000 0.000000 0.000000
# 2 -0.003324 0.012684 -0.005989 0.000000 0.000000 0.000000
# 3 -0.007139 -0.005989 0.027978 0.000000 0.000000 0.000000
# 4 0.000000 0.000000 0.000000 0.014039 0.000000 0.000000
# 5 0.000000 0.000000 0.000000 0.000000 0.019595 0.000000
# 6 0.000000 0.000000 0.000000 0.000000 0.000000 0.116554
#
#
# Mechanical properties :
#
#
# Convention : Reuss Voigt Hill
#
# Bulk Modulus (GPa) = 51.02409 62.18890 56.60649
# Shear Modulus (GPa) = 20.65024 36.61499 28.63262
#
# Velocity S-wave (km/s) = 3.25549 4.33494 3.83340
# Velocity P-wave (km/s) = 6.34963 7.54801 6.97461
#
# Compressibility (1/GPa) = 0.01959858
#
# Stress axis : x y z
#
# Youngs Moduli (GPa) = 84.45421 78.83936 35.74200
#
# Poissons Ratio (x) = 0.26207 0.25518
# Poissons Ratio (y) = 0.28074 0.21405
# Poissons Ratio (z) = 0.60295 0.47215
#
# Static dielectric constant tensor:
#      x y z
#    x 1.709330 0.000000 0.000000 
#    y 0.000000 1.729460 0.000000 
#    z 0.000000 0.000000 1.654060 
# 
# From -- ./inp_files/12754.got.cif
#   From: 2010.05.17/outbox.cif.g08.bks.cpg/sg47_7_cif.got.tgz:12754.got - 2010.06.03 20:15:42.
