data_PCOD9383700
_publ_section_title
;
Structure prediction by ZEFSAII (Michael W. Deem and Ramdas Pophale) SiO2 
 PCOD9383700
Probable space group: P M M M
;
_chemical_formula_sum "Si O2"
_cell_formula_units_Z 40
_cell_length_a 11.901447
_cell_length_b 7.327725
_cell_length_c 21.312614
_cell_angle_alpha 90.000000
_cell_angle_beta 90.000000
_cell_angle_gamma 90.000000
_cell_volume 1858.684378
_symmetry_space_group_name_H-M "P M M M"
_symmetry_group_IT_number 47
_symmetry_cell_setting 'orthorhombic'
loop_
_space_group_symop_operation_xyz
x,y,z
-x,-y,z
x,-y,-z
-x,y,-z
-x,-y,-z
x,y,-z
-x,y,z
x,-y,z
loop_
_atom_site_type_symbol
_atom_site_label
_atom_site_fract_x
_atom_site_fract_y
_atom_site_fract_z
Si Si1 0.868806 0.285690 0.252272
Si Si2 0.000000 0.720248 0.430385
Si Si3 0.762048 0.720419 0.624719
Si Si4 0.259330 0.780146 0.876943
Si Si5 0.630436 0.722002 0.500000
Si Si6 0.127799 0.777373 0.000000
Si Si7 0.500000 0.777384 0.925809
O O1 0.881127 0.500000 0.267296
O O2 0.775359 0.216397 0.303058
O O3 0.810206 0.270739 0.184826
O O4 0.000000 0.214807 0.253496
O O5 0.112967 0.769597 0.397008
O O6 0.000000 0.500000 0.433193
O O7 0.000000 0.791697 0.500000
O O8 0.744223 0.500000 0.625775
O O9 0.685002 0.784465 0.566324
O O10 0.191000 0.718270 0.937787
O O11 0.387635 0.719554 0.888845
O O12 0.262256 0.000000 0.877042
O O13 0.642863 0.500000 0.500000
O O14 0.500000 0.767509 0.500000
O O15 0.000000 0.718330 0.000000
O O16 0.129262 0.000000 0.000000
O O17 0.500000 0.000000 0.927465
O O18 0.500000 0.722301 0.000000
#
# Coordination Sequence:
#
# PCOD9383700 Si02
#       7
#     8   4   8   8   4   4   4
#     4  10  20  33  48  71 106 139 163 196 249 306
#     4   9  12  18  38  62  79 106 153 202 236 269
#     4   9  15  25  41  61  89 123 159 197 238 286
#     4  10  19  33  54  76  99 128 165 207 248 292
#     4   9  16  25  39  61  90 124 162 206 249 284
#     4   9  16  27  48  76  97 117 156 207 248 282
#     4   9  16  32  57  79  95 120 165 216 252 283
#
# _framework density 21.520599000000001
#
# number of rings (size 3 to 8) (size 9 to 14) (size 15 to 20)
#    0.000    2.600    3.000    0.600    0.000    1.200 
#    1.800    1.000    0.000    2.400    0.000    0.700 
#    0.000    3.200    0.000    0.000    0.000    0.000 
#
# Total GULP energy -222813.310772 kJ/mol
# GULP energy per Si atom -5570.332769 kJ/mol
# Density = 2.147162 g / cm^3
# Si number density = 21.520599 Si / 1000 Ang^3
#
#
#
# Elastic Constant Matrix: (Units=GPa)
#
#
# Indices 1 2 3 4 5 6 
#
# 1 165.8417 2.9444 91.6694 0.0000 0.0000 0.0000
# 2 2.9444 80.1116 -1.3209 0.0000 0.0000 0.0000
# 3 91.6694 -1.3209 211.6620 0.0000 0.0000 0.0000
# 4 0.0000 0.0000 0.0000 5.0951 0.0000 0.0000
# 5 0.0000 0.0000 0.0000 0.0000 4.9973 0.0000
# 6 0.0000 0.0000 0.0000 0.0000 0.0000 -5.0088
#
#
#
# Elastic Compliance Matrix: (Units=1/GPa)
#
#
# Indices 1 2 3 4 5 6 
#
# 1 0.007937 -0.000348 -0.003440 0.000000 0.000000 0.000000
# 2 -0.000348 0.012499 0.000229 0.000000 0.000000 0.000000
# 3 -0.003440 0.000229 0.006216 0.000000 0.000000 0.000000
# 4 0.000000 0.000000 0.000000 0.196266 0.000000 0.000000
# 5 0.000000 0.000000 0.000000 0.000000 0.200106 0.000000
# 6 0.000000 0.000000 0.000000 0.000000 0.000000 -0.199647
#
#
# Mechanical properties :
#
#
# Convention : Reuss Voigt Hill
#
# Bulk Modulus (GPa) = 51.19389 71.57789 61.38589
# Shear Modulus (GPa) = 21.09645 25.30488 23.20067
#
# Velocity S-wave (km/s) = 3.13436 3.43278 3.28696
# Velocity P-wave (km/s) = 6.07774 7.00317 6.55680
#
# Compressibility (1/GPa) = 0.01953358
#
# Stress axis : x y z
#
# Youngs Moduli (GPa) = 125.98592 80.00532 160.88294
#
# Poissons Ratio (x) = 0.02788 0.55341
# Poissons Ratio (y) = 0.04390 -0.03683
# Poissons Ratio (z) = 0.43337 -0.01831
#
# Static dielectric constant tensor:
#      x y z
#    x 1.739780 0.000000 0.000000 
#    y 0.000000 1.902320 0.000000 
#    z 0.000000 0.000000 1.835510 
# 
# From -- ./inp_files/30370.got.cif
#   From: 2010.05.17/outbox.cif.g08.bks.cpg/sg47_16_cif.got.tgz:30370.got - 2010.06.03 20:15:42.
