data_PCOD9383578
_publ_section_title
;
Structure prediction by ZEFSAII (Michael W. Deem and Ramdas Pophale) SiO2 
 PCOD9383578
Probable space group: P M M M
;
_chemical_formula_sum "Si O2"
_cell_formula_units_Z 48
_cell_length_a 8.252818
_cell_length_b 15.978812
_cell_length_c 18.149456
_cell_angle_alpha 90.000000
_cell_angle_beta 90.000000
_cell_angle_gamma 90.000000
_cell_volume 2393.372888
_symmetry_space_group_name_H-M "P M M M"
_symmetry_group_IT_number 47
_symmetry_cell_setting 'orthorhombic'
loop_
_space_group_symop_operation_xyz
x,y,z
-x,-y,z
x,-y,-z
-x,y,-z
-x,-y,-z
x,y,-z
-x,y,z
x,-y,z
loop_
_atom_site_type_symbol
_atom_site_label
_atom_site_fract_x
_atom_site_fract_y
_atom_site_fract_z
Si Si1 0.682589 0.686650 0.000000
Si Si2 0.315604 0.884043 0.000000
Si Si3 0.697532 0.095519 0.416593
Si Si4 0.192796 0.907907 0.165148
Si Si5 0.313168 0.407169 0.290151
Si Si6 0.817415 0.407641 0.133565
Si Si7 0.303859 0.780729 0.288125
O O1 0.675977 0.784788 0.000000
O O2 0.774956 0.657646 0.927861
O O3 0.500000 0.651213 0.000000
O O4 0.233970 0.905994 0.078003
O O5 0.500000 0.914510 0.000000
O O6 0.746511 0.118206 0.500000
O O7 0.500000 0.095959 0.415406
O O8 0.752297 0.158636 0.353819
O O9 0.749149 0.000000 0.402194
O O10 0.259052 0.828892 0.212032
O O11 0.000000 0.905600 0.173019
O O12 0.252386 0.000000 0.193032
O O13 0.500000 0.407595 0.315229
O O14 0.243241 0.500000 0.311587
O O15 0.303649 0.406238 0.201444
O O16 0.243098 0.314122 0.304985
O O17 0.810689 0.500000 0.099229
O O18 0.000000 0.395503 0.162639
O O19 0.500000 0.775283 0.288110
#
# Coordination Sequence:
#
# PCOD9383578 Si02
#       7
#     4   4   8   8   8   8   8
#     4  11  22  33  46  66  90 117 154 200 253 307
#     4  11  24  39  54  72  96 131 175 216 251 297
#     4   8  14  26  47  77 109 136 166 210 259 302
#     4  11  24  39  54  75 104 135 168 212 266 314
#     4   9  18  32  48  68  97 130 163 203 251 298
#     4  10  20  32  46  65  88 117 158 206 253 302
#     4  10  19  32  54  80 103 134 177 216 251 302
#
# _framework density 20.055378000000001
#
# number of rings (size 3 to 8) (size 9 to 14) (size 15 to 20)
#    0.000    2.167    0.000    4.000    0.000   11.000 
#    0.000    0.000    0.000    1.000    0.000    5.833 
#    0.000    0.000    0.000    5.667    0.000    6.167 
#
# Total GULP energy -267418.457851 kJ/mol
# GULP energy per Si atom -5571.217872 kJ/mol
# Density = 2.000973 g / cm^3
# Si number density = 20.055378 Si / 1000 Ang^3
#
#
#
# Elastic Constant Matrix: (Units=GPa)
#
#
# Indices 1 2 3 4 5 6 
#
# 1 26.8273 12.4358 -3.7774 0.0000 0.0000 0.0000
# 2 12.4358 162.2855 59.5732 0.0000 0.0000 0.0000
# 3 -3.7774 59.5732 80.2278 0.0000 0.0000 0.0000
# 4 0.0000 0.0000 0.0000 24.5520 0.0000 0.0000
# 5 0.0000 0.0000 0.0000 0.0000 -23.8819 0.0000
# 6 0.0000 0.0000 0.0000 0.0000 0.0000 9.9216
#
#
#
# Elastic Compliance Matrix: (Units=1/GPa)
#
#
# Indices 1 2 3 4 5 6 
#
# 1 0.040516 -0.005231 0.005792 0.000000 0.000000 0.000000
# 2 -0.005231 0.009146 -0.007038 0.000000 0.000000 0.000000
# 3 0.005792 -0.007038 0.017963 0.000000 0.000000 0.000000
# 4 0.000000 0.000000 0.000000 0.040730 0.000000 0.000000
# 5 0.000000 0.000000 0.000000 0.000000 -0.041873 0.000000
# 6 0.000000 0.000000 0.000000 0.000000 0.000000 0.100790
#
#
# Mechanical properties :
#
#
# Convention : Reuss Voigt Hill
#
# Bulk Modulus (GPa) = 18.29115 45.08933 31.69024
# Shear Modulus (GPa) = 25.19520 15.52559 20.36039
#
# Velocity S-wave (km/s) = 3.54825 2.78535 3.18969
# Velocity P-wave (km/s) = 5.09185 5.73371 5.42228
#
# Compressibility (1/GPa) = 0.05467125
#
# Stress axis : x y z
#
# Youngs Moduli (GPa) = 24.68184 109.33319 55.66931
#
# Poissons Ratio (x) = 0.57190 -0.32242
# Poissons Ratio (y) = 0.12910 0.39180
# Poissons Ratio (z) = -0.14295 0.76948
#
# Static dielectric constant tensor:
#      x y z
#    x 1.728070 0.000000 0.000000 
#    y 0.000000 1.785710 0.000000 
#    z 0.000000 0.000000 1.665070 
# 
# From -- ./inp_files/26561.got.cif
#   From: 2010.05.17/outbox.cif.g08.bks.cpg/sg47_14_cif.got.tgz:26561.got - 2010.06.03 20:15:42.
