data_PCOD9383150
_publ_section_title
;
Structure prediction by ZEFSAII (Michael W. Deem and Ramdas Pophale) SiO2 
 PCOD9383150
Probable space group: P M M M
;
_chemical_formula_sum "Si O2"
_cell_formula_units_Z 60
_cell_length_a 7.652380
_cell_length_b 20.186590
_cell_length_c 20.238350
_cell_angle_alpha 90.000000
_cell_angle_beta 90.000000
_cell_angle_gamma 90.000000
_cell_volume 3126.328377
_symmetry_space_group_name_H-M "P M M M"
_symmetry_group_IT_number 47
_symmetry_cell_setting 'orthorhombic'
loop_
_space_group_symop_operation_xyz
x,y,z
-x,-y,z
x,-y,-z
-x,y,-z
-x,-y,-z
x,y,-z
-x,y,z
x,-y,z
loop_
_atom_site_type_symbol
_atom_site_label
_atom_site_fract_x
_atom_site_fract_y
_atom_site_fract_z
Si Si1 0.285450 0.076432 0.780868
Si Si2 0.714262 0.671657 0.075492
Si Si3 0.797615 0.265305 0.574488
Si Si4 0.293743 0.210445 0.833714
Si Si5 0.289139 0.425078 0.809393
Si Si6 0.802897 0.000000 0.577340
Si Si7 0.207228 0.306750 0.713884
Si Si8 0.698712 0.131769 0.359913
O O1 0.500000 0.074630 0.780124
O O2 0.227534 0.135008 0.830327
O O3 0.229433 0.106791 0.710299
O O4 0.228991 0.000000 0.790039
O O5 0.500000 0.672357 0.075863
O O6 0.776261 0.739248 0.111040
O O7 0.768819 0.611619 0.123341
O O8 0.770596 0.665706 0.000000
O O9 0.721970 0.271124 0.500000
O O10 0.721223 0.302546 0.639066
O O11 0.792562 0.189343 0.599768
O O12 0.000000 0.285809 0.569187
O O13 0.500000 0.204941 0.845864
O O14 0.274532 0.249448 0.763678
O O15 0.500000 0.427174 0.811424
O O16 0.224118 0.500000 0.803325
O O17 0.240986 0.376358 0.749554
O O18 0.703727 0.934783 0.598519
O O19 0.819223 0.000000 0.500000
O O20 0.000000 0.000000 0.606294
O O21 0.000000 0.295851 0.710112
O O22 0.500000 0.154713 0.349583
#
# Coordination Sequence:
#
# PCOD9383150 Si02
#       8
#     8   8   8   8   8   4   8   8
#     4   9  16  27  44  65  88 117 154 199 246 284
#     4   8  14  25  45  75 104 129 159 191 223 268
#     4  10  21  35  48  65  92 123 154 194 247 297
#     4   9  16  29  49  68  92 126 162 200 240 282
#     4   9  18  32  51  75 102 132 160 187 226 275
#     4  11  23  35  43  55  85 125 156 189 244 306
#     4  10  19  31  50  72  94 123 160 199 236 281
#     4  11  20  31  47  66  86 114 156 202 245 295
#
# _framework density 19.191841
#
# number of rings (size 3 to 8) (size 9 to 14) (size 15 to 20)
#    0.000    2.467    2.000    2.200    0.000    3.467 
#    0.000    1.333    0.000    7.200    0.000    9.333 
#    0.000    0.000    0.000    4.800    0.000    5.333 
#
# Total GULP energy -334302.893815 kJ/mol
# GULP energy per Si atom -5571.714897 kJ/mol
# Density = 1.914816 g / cm^3
# Si number density = 19.191841 Si / 1000 Ang^3
#
#
#
# Elastic Constant Matrix: (Units=GPa)
#
#
# Indices 1 2 3 4 5 6 
#
# 1 35.9997 -7.4837 -1.4864 0.0000 0.0000 0.0000
# 2 -7.4837 142.9364 81.8646 0.0000 0.0000 0.0000
# 3 -1.4864 81.8646 132.4898 0.0000 0.0000 0.0000
# 4 0.0000 0.0000 0.0000 16.4091 0.0000 0.0000
# 5 0.0000 0.0000 0.0000 0.0000 18.4168 0.0000
# 6 0.0000 0.0000 0.0000 0.0000 0.0000 2.6848
#
#
#
# Elastic Compliance Matrix: (Units=1/GPa)
#
#
# Indices 1 2 3 4 5 6 
#
# 1 0.028156 0.002002 -0.000921 0.000000 0.000000 0.000000
# 2 0.002002 0.010970 -0.006756 0.000000 0.000000 0.000000
# 3 -0.000921 -0.006756 0.011712 0.000000 0.000000 0.000000
# 4 0.000000 0.000000 0.000000 0.060942 0.000000 0.000000
# 5 0.000000 0.000000 0.000000 0.000000 0.054298 0.000000
# 6 0.000000 0.000000 0.000000 0.000000 0.000000 0.372468
#
#
# Mechanical properties :
#
#
# Convention : Reuss Voigt Hill
#
# Bulk Modulus (GPa) = 25.32435 50.80165 38.06300
# Shear Modulus (GPa) = 8.88006 23.40422 16.14214
#
# Velocity S-wave (km/s) = 2.15338 3.49591 2.90331
# Velocity P-wave (km/s) = 4.40531 6.54393 5.57807
#
# Compressibility (1/GPa) = 0.03948769
#
# Stress axis : x y z
#
# Youngs Moduli (GPa) = 35.51628 91.15493 85.38299
#
# Poissons Ratio (x) = -0.18246 0.07863
# Poissons Ratio (y) = -0.07109 0.57685
# Poissons Ratio (z) = 0.03271 0.61585
#
# Static dielectric constant tensor:
#      x y z
#    x 1.757200 0.000000 0.000000 
#    y 0.000000 1.663380 0.000000 
#    z 0.000000 0.000000 1.689440 
# 
# From -- ./inp_files/30002.got.cif
#   From: 2010.05.17/outbox.cif.g08.bks.cpg/sg47_16_cif.got.tgz:30002.got - 2010.06.03 20:15:42.
