data_PCOD9383345
_publ_section_title
;
Structure prediction by ZEFSAII (Michael W. Deem and Ramdas Pophale) SiO2 
 PCOD9383345
Probable space group: P M M M
;
_chemical_formula_sum "Si O2"
_cell_formula_units_Z 56
_cell_length_a 19.360104
_cell_length_b 18.991137
_cell_length_c 8.856469
_cell_angle_alpha 90.000000
_cell_angle_beta 90.000000
_cell_angle_gamma 90.000000
_cell_volume 3256.261388
_symmetry_space_group_name_H-M "P M M M"
_symmetry_group_IT_number 47
_symmetry_cell_setting 'orthorhombic'
loop_
_space_group_symop_operation_xyz
x,y,z
-x,-y,z
x,-y,-z
-x,y,-z
-x,-y,-z
x,y,-z
-x,y,z
x,-y,z
loop_
_atom_site_type_symbol
_atom_site_label
_atom_site_fract_x
_atom_site_fract_y
_atom_site_fract_z
Si Si1 0.076429 0.585428 0.825495
Si Si2 0.781471 0.583118 0.677803
Si Si3 0.421308 0.217400 0.317275
Si Si4 0.792802 0.162687 0.318946
Si Si5 0.655624 0.078432 0.317073
Si Si6 0.710199 0.710170 0.179014
Si Si7 0.079899 0.917947 0.181853
O O1 0.074344 0.500000 0.824521
O O2 0.140627 0.605448 0.722922
O O3 0.000000 0.610057 0.778411
O O4 0.088107 0.606790 0.000000
O O5 0.770799 0.592924 0.500000
O O6 0.774299 0.500000 0.712539
O O7 0.730336 0.632038 0.770672
O O8 0.415918 0.221627 0.500000
O O9 0.500000 0.232576 0.274382
O O10 0.399037 0.138044 0.271801
O O11 0.363768 0.267342 0.245656
O O12 0.794672 0.168914 0.500000
O O13 0.731759 0.107226 0.277985
O O14 0.766617 0.236051 0.249302
O O15 0.864725 0.133232 0.257263
O O16 0.653173 0.075577 0.500000
O O17 0.643373 0.000000 0.258596
O O18 0.710367 0.717361 0.000000
O O19 0.000000 0.902509 0.222225
O O20 0.093621 0.000000 0.223055
O O21 0.085442 0.912911 0.000000
#
# Coordination Sequence:
#
# PCOD9383345 Si02
#       7
#     8   8   8   8   8   8   8
#     4   8  14  26  45  70 101 134 164 194 232 282
#     4  10  20  34  54  79 105 132 165 209 258 306
#     4   9  18  33  53  77 106 138 169 204 247 295
#     4  10  19  32  50  72 100 133 174 220 261 303
#     4   8  14  25  44  73 104 131 162 201 244 288
#     4  11  22  36  55  76 101 134 170 208 252 306
#     4   9  18  32  49  71 102 139 177 219 269 320
#
# _framework density 17.197635999999999
#
# number of rings (size 3 to 8) (size 9 to 14) (size 15 to 20)
#    0.000    2.714    0.000    4.286    0.000    2.857 
#    0.000    4.286    0.000    8.571    0.000    7.000 
#    0.000    0.000    0.000    0.000    0.000    0.000 
#
# Total GULP energy -312174.837422 kJ/mol
# GULP energy per Si atom -5574.550668 kJ/mol
# Density = 1.715849 g / cm^3
# Si number density = 17.197636 Si / 1000 Ang^3
#
#
#
# Elastic Constant Matrix: (Units=GPa)
#
#
# Indices 1 2 3 4 5 6 
#
# 1 119.2010 51.2893 49.6687 0.0000 0.0000 0.0000
# 2 51.2893 57.3143 37.0033 0.0000 0.0000 0.0000
# 3 49.6687 37.0033 53.8565 0.0000 0.0000 0.0000
# 4 0.0000 0.0000 0.0000 17.8042 0.0000 0.0000
# 5 0.0000 0.0000 0.0000 0.0000 15.9424 0.0000
# 6 0.0000 0.0000 0.0000 0.0000 0.0000 12.2417
#
#
#
# Elastic Compliance Matrix: (Units=1/GPa)
#
#
# Indices 1 2 3 4 5 6 
#
# 1 0.015587 -0.008389 -0.008611 0.000000 0.000000 0.000000
# 2 -0.008389 0.035872 -0.016910 0.000000 0.000000 0.000000
# 3 -0.008611 -0.016910 0.038128 0.000000 0.000000 0.000000
# 4 0.000000 0.000000 0.000000 0.056167 0.000000 0.000000
# 5 0.000000 0.000000 0.000000 0.000000 0.062726 0.000000
# 6 0.000000 0.000000 0.000000 0.000000 0.000000 0.081688
#
#
# Mechanical properties :
#
#
# Convention : Reuss Voigt Hill
#
# Bulk Modulus (GPa) = 45.94191 56.25494 51.09843
# Shear Modulus (GPa) = 13.68953 15.35837 14.52395
#
# Velocity S-wave (km/s) = 2.82443 2.99164 2.90924
# Velocity P-wave (km/s) = 6.11626 6.68693 6.40795
#
# Compressibility (1/GPa) = 0.02176662
#
# Stress axis : x y z
#
# Youngs Moduli (GPa) = 64.15713 27.87674 26.22755
#
# Poissons Ratio (x) = 0.23385 0.22585
# Poissons Ratio (y) = 0.53820 0.44351
# Poissons Ratio (z) = 0.55246 0.47140
#
# Static dielectric constant tensor:
#      x y z
#    x 1.576840 0.000000 0.000000 
#    y 0.000000 1.590750 0.000000 
#    z 0.000000 0.000000 1.577810 
# 
# From -- ./inp_files/11487.got.cif
#   From: 2010.05.17/outbox.cif.g08.bks.cpg/sg47_6_cif.got.tgz:11487.got - 2010.06.03 20:15:42.
