data_PCOD9383307
_publ_section_title
;
Structure prediction by ZEFSAII (Michael W. Deem and Ramdas Pophale) SiO2 
 PCOD9383307
Probable space group: P M M M
;
_chemical_formula_sum "Si O2"
_cell_formula_units_Z 30
_cell_length_a 16.314594
_cell_length_b 10.099096
_cell_length_c 8.487586
_cell_angle_alpha 90.000000
_cell_angle_beta 90.000000
_cell_angle_gamma 90.000000
_cell_volume 1398.437170
_symmetry_space_group_name_H-M "P M M M"
_symmetry_group_IT_number 47
_symmetry_cell_setting 'orthorhombic'
loop_
_space_group_symop_operation_xyz
x,y,z
-x,-y,z
x,-y,-z
-x,y,-z
-x,-y,-z
x,y,-z
-x,y,z
x,-y,z
loop_
_atom_site_type_symbol
_atom_site_label
_atom_site_fract_x
_atom_site_fract_y
_atom_site_fract_z
Si Si1 0.843021 0.289717 0.826864
Si Si2 0.793360 0.000000 0.500000
Si Si3 0.672731 0.340309 0.321619
Si Si4 0.904958 0.264350 0.500000
Si Si5 0.200419 0.000000 0.832965
Si Si6 0.500000 0.661712 0.817099
O O1 0.745641 0.304840 0.796698
O O2 0.883767 0.338059 0.664541
O O3 0.854831 0.131225 0.831897
O O4 0.865541 0.342965 0.000000
O O5 0.850441 0.130654 0.500000
O O6 0.749360 0.000000 0.330539
O O7 0.691284 0.294483 0.500000
O O8 0.670335 0.500000 0.325749
O O9 0.583604 0.293871 0.266232
O O10 0.000000 0.231391 0.500000
O O11 0.246779 0.000000 0.000000
O O12 0.500000 0.500000 0.810747
O O13 0.500000 0.699038 0.000000
#
# Coordination Sequence:
#
# PCOD9383307 Si02
#       6
#     8   2   8   4   4   4
#     4  10  19  33  52  74 101 134 169 204 248 298
#     4   8  15  28  48  70  96 127 158 199 254 304
#     4  10  19  32  51  76 104 132 165 205 248 294
#     4  10  19  32  49  73 101 130 166 209 253 295
#     4   8  16  29  47  72  99 128 164 203 242 292
#     4   9  17  29  47  74 103 130 161 200 249 296
#
# _framework density 21.45252
#
# number of rings (size 3 to 8) (size 9 to 14) (size 15 to 20)
#    0.000    2.533    1.333    1.400    0.000    3.733 
#    0.000    0.000    0.000   10.400    0.000    7.467 
#    0.000    0.000    0.000    0.000    0.000    0.000 
#
# Total GULP energy -167107.409957 kJ/mol
# GULP energy per Si atom -5570.246999 kJ/mol
# Density = 2.140369 g / cm^3
# Si number density = 21.452520 Si / 1000 Ang^3
#
#
#
# Elastic Constant Matrix: (Units=GPa)
#
#
# Indices 1 2 3 4 5 6 
#
# 1 80.0224 6.5399 28.2125 0.0000 0.0000 0.0000
# 2 6.5399 47.7446 10.4958 0.0000 0.0000 0.0000
# 3 28.2125 10.4958 237.7786 0.0000 0.0000 0.0000
# 4 0.0000 0.0000 0.0000 6.3882 0.0000 0.0000
# 5 0.0000 0.0000 0.0000 0.0000 9.5517 0.0000
# 6 0.0000 0.0000 0.0000 0.0000 0.0000 6.4383
#
#
#
# Elastic Compliance Matrix: (Units=1/GPa)
#
#
# Indices 1 2 3 4 5 6 
#
# 1 0.013144 -0.001472 -0.001495 0.000000 0.000000 0.000000
# 2 -0.001472 0.021315 -0.000766 0.000000 0.000000 0.000000
# 3 -0.001495 -0.000766 0.004417 0.000000 0.000000 0.000000
# 4 0.000000 0.000000 0.000000 0.156538 0.000000 0.000000
# 5 0.000000 0.000000 0.000000 0.000000 0.104693 0.000000
# 6 0.000000 0.000000 0.000000 0.000000 0.000000 0.155320
#
#
# Mechanical properties :
#
#
# Convention : Reuss Voigt Hill
#
# Bulk Modulus (GPa) = 31.83695 50.67136 41.25415
# Shear Modulus (GPa) = 10.56275 25.82881 18.19578
#
# Velocity S-wave (km/s) = 2.22137 3.47363 2.91553
# Velocity P-wave (km/s) = 4.63165 6.30553 5.53226
#
# Compressibility (1/GPa) = 0.03141005
#
# Stress axis : x y z
#
# Youngs Moduli (GPa) = 76.08210 46.91572 226.41125
#
# Poissons Ratio (x) = 0.06905 0.33838
# Poissons Ratio (y) = 0.11198 0.17348
# Poissons Ratio (z) = 0.11371 0.03595
#
# Static dielectric constant tensor:
#      x y z
#    x 1.724690 0.000000 0.000000 
#    y 0.000000 1.815910 0.000000 
#    z 0.000000 0.000000 1.887800 
# 
# From -- ./inp_files/5189.got.cif
#   From: 2010.05.17/outbox.cif.g08.bks.cpg/sg47_3_cif.got.tgz:5189.got - 2010.06.03 20:15:42.
