data_PCOD9383822
_publ_section_title
;
Structure prediction by ZEFSAII (Michael W. Deem and Ramdas Pophale) SiO2 
 PCOD9383822
Probable space group: P M M M
;
_chemical_formula_sum "Si O2"
_cell_formula_units_Z 44
_cell_length_a 30.785120
_cell_length_b 8.161522
_cell_length_c 9.016368
_cell_angle_alpha 90.000000
_cell_angle_beta 90.000000
_cell_angle_gamma 90.000000
_cell_volume 2265.393424
_symmetry_space_group_name_H-M "P M M M"
_symmetry_group_IT_number 47
_symmetry_cell_setting 'orthorhombic'
loop_
_space_group_symop_operation_xyz
x,y,z
-x,-y,z
x,-y,-z
-x,y,-z
-x,-y,-z
x,y,-z
-x,y,z
x,-y,z
loop_
_atom_site_type_symbol
_atom_site_label
_atom_site_fract_x
_atom_site_fract_y
_atom_site_fract_z
Si Si1 0.726033 0.305882 0.826841
Si Si2 0.452567 0.697222 0.674178
Si Si3 0.181221 0.192645 0.175740
Si Si4 0.096022 0.685001 0.677642
Si Si5 0.947967 0.000000 0.827480
Si Si6 0.365362 0.194342 0.831491
O O1 0.732276 0.500000 0.823538
O O2 0.769844 0.224252 0.767830
O O3 0.678962 0.264283 0.760907
O O4 0.723239 0.251167 0.000000
O O5 0.451031 0.737987 0.500000
O O6 0.500000 0.752798 0.732359
O O7 0.451475 0.500000 0.686736
O O8 0.410067 0.765518 0.751265
O O9 0.145176 0.292308 0.264105
O O10 0.171234 0.000000 0.188185
O O11 0.179761 0.236784 0.000000
O O12 0.094545 0.701024 0.500000
O O13 0.080907 0.500000 0.716581
O O14 0.069678 0.834652 0.750747
O O15 0.000000 0.000000 0.821114
O O16 0.933922 0.000000 0.000000
O O17 0.359987 0.000000 0.836939
O O18 0.368802 0.260160 0.000000
#
# Coordination Sequence:
#
# PCOD9383822 Si02
#       6
#     8   8   8   8   4   8
#     4   9  17  30  50  77 109 146 187 231 279 332
#     4   9  19  36  55  73  95 127 169 217 270 330
#     4  10  19  33  57  87 118 155 199 245 293 347
#     4  11  24  41  63  93 130 170 209 253 309 370
#     4  11  25  45  69  97 127 163 211 265 314 361
#     4  10  20  33  50  75 107 139 174 220 272 328
#
# _framework density 19.422674000000001
#
# number of rings (size 3 to 8) (size 9 to 14) (size 15 to 20)
#    0.000    2.091    0.909    3.000    0.000    7.636 
#    0.000    5.455    0.000    5.455    0.000    0.000 
#    0.000    0.000    0.000    0.000    0.000    0.000 
#
# Total GULP energy -245500.071291 kJ/mol
# GULP energy per Si atom -5579.547075 kJ/mol
# Density = 1.937847 g / cm^3
# Si number density = 19.422674 Si / 1000 Ang^3
#
#
#
# Elastic Constant Matrix: (Units=GPa)
#
#
# Indices 1 2 3 4 5 6 
#
# 1 112.2016 50.6389 33.7924 0.0000 0.0000 0.0000
# 2 50.6389 92.4762 43.1000 0.0000 0.0000 0.0000
# 3 33.7924 43.1000 48.2058 0.0000 0.0000 0.0000
# 4 0.0000 0.0000 0.0000 22.3396 0.0000 0.0000
# 5 0.0000 0.0000 0.0000 0.0000 -216.7209 0.0000
# 6 0.0000 0.0000 0.0000 0.0000 0.0000 21.9869
#
#
#
# Elastic Compliance Matrix: (Units=1/GPa)
#
#
# Indices 1 2 3 4 5 6 
#
# 1 0.012380 -0.004688 -0.004487 0.000000 0.000000 0.000000
# 2 -0.004688 0.020314 -0.014876 0.000000 0.000000 0.000000
# 3 -0.004487 -0.014876 0.037190 0.000000 0.000000 0.000000
# 4 0.000000 0.000000 0.000000 0.044764 0.000000 0.000000
# 5 0.000000 0.000000 0.000000 0.000000 -0.004614 0.000000
# 6 0.000000 0.000000 0.000000 0.000000 0.000000 0.045482
#
#
# Mechanical properties :
#
#
# Convention : Reuss Voigt Hill
#
# Bulk Modulus (GPa) = 45.90924 56.43847 51.17385
# Shear Modulus (GPa) = 23.71054 -26.12207 -1.20576
#
# Velocity S-wave (km/s) = 3.49774 -3.67130 -0.78876
# Velocity P-wave (km/s) = 6.32459 3.33914 5.05719
#
# Compressibility (1/GPa) = 0.02178211
#
# Stress axis : x y z
#
# Youngs Moduli (GPa) = 80.77848 49.22765 26.88878
#
# Poissons Ratio (x) = 0.23077 0.12065
# Poissons Ratio (y) = 0.37867 0.40000
# Poissons Ratio (z) = 0.36244 0.73232
#
# Static dielectric constant tensor:
#      x y z
#    x 1.652600 0.000000 0.000000 
#    y 0.000000 1.674730 0.000000 
#    z 0.000000 0.000000 1.671700 
# 
# From -- ./inp_files/13615.got.cif
#   From: 2010.05.17/outbox.cif.g08.bks.cpg/sg47_7_cif.got.tgz:13615.got - 2010.06.03 20:15:42.
