data_PCOD9383816
_publ_section_title
;
Structure prediction by ZEFSAII (Michael W. Deem and Ramdas Pophale) SiO2 
 PCOD9383816
Probable space group: P M M M
;
_chemical_formula_sum "Si O2"
_cell_formula_units_Z 56
_cell_length_a 20.624608
_cell_length_b 9.006182
_cell_length_c 15.706307
_cell_angle_alpha 90.000000
_cell_angle_beta 90.000000
_cell_angle_gamma 90.000000
_cell_volume 2917.430400
_symmetry_space_group_name_H-M "P M M M"
_symmetry_group_IT_number 47
_symmetry_cell_setting 'orthorhombic'
loop_
_space_group_symop_operation_xyz
x,y,z
-x,-y,z
x,-y,-z
-x,y,-z
-x,-y,-z
x,y,-z
-x,y,z
x,-y,z
loop_
_atom_site_type_symbol
_atom_site_label
_atom_site_fract_x
_atom_site_fract_y
_atom_site_fract_z
Si Si1 0.389614 0.323790 0.905513
Si Si2 0.929448 0.821262 0.271547
Si Si3 0.574022 0.824667 0.269780
Si Si4 0.245276 0.670911 0.846416
Si Si5 0.898234 0.325363 0.093257
Si Si6 0.210372 0.176304 0.674092
Si Si7 0.670447 0.676903 0.595598
O O1 0.403606 0.500000 0.897764
O O2 0.418889 0.238807 0.825524
O O3 0.311691 0.306254 0.896458
O O4 0.410217 0.275176 0.000000
O O5 0.923875 0.759649 0.175513
O O6 0.864921 0.773765 0.322247
O O7 0.000000 0.777133 0.306570
O O8 0.926887 0.000000 0.267823
O O9 0.500000 0.800466 0.298295
O O10 0.623793 0.745277 0.333045
O O11 0.587446 0.000000 0.269059
O O12 0.246668 0.500000 0.813302
O O13 0.180035 0.685024 0.900900
O O14 0.238240 0.781783 0.767461
O O15 0.914899 0.500000 0.100570
O O16 0.919520 0.272239 0.000000
O O17 0.257509 0.259420 0.609765
O O18 0.213190 0.000000 0.660399
O O19 0.648122 0.714129 0.500000
O O20 0.671401 0.500000 0.605129
#
# Coordination Sequence:
#
# PCOD9383816 Si02
#       7
#     8   8   8   8   8   8   8
#     4  10  20  34  56  85 117 158 205 246 286 336
#     4   9  19  34  50  72 106 148 189 229 279 338
#     4  11  25  43  62  87 122 160 195 237 289 341
#     4   9  16  29  50  75 107 146 188 236 289 338
#     4   9  17  28  43  67 101 140 186 239 288 335
#     4  10  19  33  57  85 113 146 187 234 284 338
#     4  11  24  42  66  94 120 148 185 232 290 355
#
# _framework density 19.194974999999999
#
# number of rings (size 3 to 8) (size 9 to 14) (size 15 to 20)
#    0.000    2.143    1.429    1.714    0.000    6.286 
#    0.000    4.286    0.000    3.000    0.000    3.000 
#    0.000    0.000    0.000    0.000    0.000    0.000 
#
# Total GULP energy -312533.213479 kJ/mol
# GULP energy per Si atom -5580.950241 kJ/mol
# Density = 1.915129 g / cm^3
# Si number density = 19.194975 Si / 1000 Ang^3
#
#
#
# Elastic Constant Matrix: (Units=GPa)
#
#
# Indices 1 2 3 4 5 6 
#
# 1 101.1320 42.2401 43.3514 0.0000 0.0000 0.0000
# 2 42.2401 40.9572 33.5001 0.0000 0.0000 0.0000
# 3 43.3514 33.5001 89.4416 0.0000 0.0000 0.0000
# 4 0.0000 0.0000 0.0000 -435.4401 0.0000 0.0000
# 5 0.0000 0.0000 0.0000 0.0000 -3.2384 0.0000
# 6 0.0000 0.0000 0.0000 0.0000 0.0000 13.9983
#
#
#
# Elastic Compliance Matrix: (Units=1/GPa)
#
#
# Indices 1 2 3 4 5 6 
#
# 1 0.017756 -0.016251 -0.002519 0.000000 0.000000 0.000000
# 2 -0.016251 0.050074 -0.010878 0.000000 0.000000 0.000000
# 3 -0.002519 -0.010878 0.016476 0.000000 0.000000 0.000000
# 4 0.000000 0.000000 0.000000 -0.002297 0.000000 0.000000
# 5 0.000000 0.000000 0.000000 0.000000 -0.308799 0.000000
# 6 0.000000 0.000000 0.000000 0.000000 0.000000 0.071437
#
#
# Mechanical properties :
#
#
# Convention : Reuss Voigt Hill
#
# Bulk Modulus (GPa) = 39.98715 52.19044 46.08880
# Shear Modulus (GPa) = -56.99910 -77.44007 -67.21958
#
# Velocity S-wave (km/s) = -5.45521 -6.35858 -5.92414
# Velocity P-wave (km/s) = 4.33609 5.16333 4.76769
#
# Compressibility (1/GPa) = 0.02500803
#
# Stress axis : x y z
#
# Youngs Moduli (GPa) = 56.32012 19.97064 60.69522
#
# Poissons Ratio (x) = 0.32455 0.15290
# Poissons Ratio (y) = 0.91528 0.66024
# Poissons Ratio (z) = 0.14187 0.21724
#
# Static dielectric constant tensor:
#      x y z
#    x 1.706700 0.000000 0.000000 
#    y 0.000000 1.641670 0.000000 
#    z 0.000000 0.000000 1.647140 
# 
# From -- ./inp_files/21563.got.cif
#   From: 2010.05.17/outbox.cif.g08.bks.cpg/sg47_11_cif.got.tgz:21563.got - 2010.06.03 20:15:42.
