data_PCOD9383485
_publ_section_title
;
Structure prediction by ZEFSAII (Michael W. Deem and Ramdas Pophale) SiO2 
 PCOD9383485
Probable space group: P M M M
;
_chemical_formula_sum "Si O2"
_cell_formula_units_Z 36
_cell_length_a 15.456931
_cell_length_b 14.647178
_cell_length_c 7.416542
_cell_angle_alpha 90.000000
_cell_angle_beta 90.000000
_cell_angle_gamma 90.000000
_cell_volume 1679.108221
_symmetry_space_group_name_H-M "P M M M"
_symmetry_group_IT_number 47
_symmetry_cell_setting 'orthorhombic'
loop_
_space_group_symop_operation_xyz
x,y,z
-x,-y,z
x,-y,-z
-x,y,-z
-x,-y,-z
x,y,-z
-x,y,z
x,-y,z
loop_
_atom_site_type_symbol
_atom_site_label
_atom_site_fract_x
_atom_site_fract_y
_atom_site_fract_z
Si Si1 0.000000 0.106795 0.219692
Si Si2 0.897557 0.598592 0.716267
Si Si3 0.356854 0.249538 0.209069
Si Si4 0.500000 0.606877 0.779383
Si Si5 0.828829 0.791125 0.202723
Si Si6 0.500000 0.104281 0.282813
O O1 0.088954 0.154906 0.283408
O O2 0.000000 0.000000 0.263360
O O3 0.000000 0.116797 0.000000
O O4 0.886161 0.605796 0.500000
O O5 0.862429 0.500000 0.773840
O O6 0.858015 0.686324 0.805073
O O7 0.000000 0.599148 0.750798
O O8 0.415157 0.334436 0.279905
O O9 0.265486 0.218166 0.291304
O O10 0.418341 0.161930 0.217575
O O11 0.338462 0.273041 0.000000
O O12 0.500000 0.500000 0.726593
O O13 0.500000 0.609742 0.000000
O O14 0.816951 0.829668 0.000000
O O15 0.500000 0.105918 0.500000
O O16 0.500000 0.000000 0.222698
#
# Coordination Sequence:
#
# PCOD9383485 Si02
#       6
#     4   8   8   4   8   4
#     4   9  18  32  48  69 100 134 167 209 264 315
#     4   9  18  32  49  70 100 140 179 212 252 300
#     4   9  19  33  52  79 104 132 172 212 257 314
#     4   8  14  28  48  69  98 131 161 200 248 300
#     4  10  19  32  52  77 103 133 173 219 261 304
#     4  10  21  37  56  77 102 133 169 214 266 314
#
# _framework density 21.439952000000002
#
# number of rings (size 3 to 8) (size 9 to 14) (size 15 to 20)
#    0.000    2.778    1.111    1.667    0.000    4.000 
#    0.000    5.556    0.000    6.667    0.000    0.000 
#    0.000    0.000    0.000    0.000    0.000    0.000 
#
# Total GULP energy -200650.826526 kJ/mol
# GULP energy per Si atom -5573.634070 kJ/mol
# Density = 2.139115 g / cm^3
# Si number density = 21.439952 Si / 1000 Ang^3
#
#
#
# Elastic Constant Matrix: (Units=GPa)
#
#
# Indices 1 2 3 4 5 6 
#
# 1 191.1173 90.9852 13.0700 0.0000 0.0000 0.0000
# 2 90.9852 164.3636 -1.5596 0.0000 0.0000 0.0000
# 3 13.0700 -1.5596 64.0262 0.0000 0.0000 0.0000
# 4 0.0000 0.0000 0.0000 39.3826 0.0000 0.0000
# 5 0.0000 0.0000 0.0000 0.0000 -7.0103 0.0000
# 6 0.0000 0.0000 0.0000 0.0000 0.0000 -3.0667
#
#
#
# Elastic Compliance Matrix: (Units=1/GPa)
#
#
# Indices 1 2 3 4 5 6 
#
# 1 0.007261 -0.004034 -0.001581 0.000000 0.000000 0.000000
# 2 -0.004034 0.008327 0.001026 0.000000 0.000000 0.000000
# 3 -0.001581 0.001026 0.015966 0.000000 0.000000 0.000000
# 4 0.000000 0.000000 0.000000 0.025392 0.000000 0.000000
# 5 0.000000 0.000000 0.000000 0.000000 -0.142647 0.000000
# 6 0.000000 0.000000 0.000000 0.000000 0.000000 -0.326080
#
#
# Mechanical properties :
#
#
# Convention : Reuss Voigt Hill
#
# Bulk Modulus (GPa) = 44.68803 69.38870 57.03836
# Shear Modulus (GPa) = -12.65360 26.99521 7.17080
#
# Velocity S-wave (km/s) = -2.43201 3.55224 1.83081
# Velocity P-wave (km/s) = 3.60588 7.01848 5.57949
#
# Compressibility (1/GPa) = 0.02237736
#
# Stress axis : x y z
#
# Youngs Moduli (GPa) = 137.71866 120.08912 62.63207
#
# Poissons Ratio (x) = 0.48450 0.09899
# Poissons Ratio (y) = 0.55563 -0.06429
# Poissons Ratio (z) = 0.21767 -0.12326
#
# Static dielectric constant tensor:
#      x y z
#    x 1.782970 0.000000 0.000000 
#    y 0.000000 1.732240 0.000000 
#    z 0.000000 0.000000 1.813380 
# 
# From -- ./inp_files/5623.got.cif
#   From: 2010.05.17/outbox.cif.g08.bks.cpg/sg47_3_cif.got.tgz:5623.got - 2010.06.03 20:15:42.
