data_PCOD9383931
_publ_section_title
;
Structure prediction by ZEFSAII (Michael W. Deem and Ramdas Pophale) SiO2 
 PCOD9383931
Probable space group: P M M M
;
_chemical_formula_sum "Si O2"
_cell_formula_units_Z 48
_cell_length_a 8.062431
_cell_length_b 10.317408
_cell_length_c 30.098055
_cell_angle_alpha 90.000000
_cell_angle_beta 90.000000
_cell_angle_gamma 90.000000
_cell_volume 2503.658250
_symmetry_space_group_name_H-M "P M M M"
_symmetry_group_IT_number 47
_symmetry_cell_setting 'orthorhombic'
loop_
_space_group_symop_operation_xyz
x,y,z
-x,-y,z
x,-y,-z
-x,y,-z
-x,-y,-z
x,y,-z
-x,y,z
x,-y,z
loop_
_atom_site_type_symbol
_atom_site_label
_atom_site_fract_x
_atom_site_fract_y
_atom_site_fract_z
Si Si1 0.801284 0.647349 0.776120
Si Si2 0.797028 0.000000 0.550424
Si Si3 0.203209 0.151334 0.701875
Si Si4 0.799977 0.752415 0.605579
Si Si5 0.302774 0.500000 0.448884
Si Si6 0.799947 0.147325 0.949656
Si Si7 0.697815 0.646307 0.876269
O O1 0.737695 0.500000 0.767463
O O2 0.740235 0.758414 0.742681
O O3 0.764246 0.679535 0.827306
O O4 0.000000 0.642179 0.770717
O O5 0.742174 0.873385 0.576339
O O6 0.740802 0.000000 0.500000
O O7 0.000000 0.000000 0.550433
O O8 0.255490 0.221017 0.656014
O O9 0.000000 0.148591 0.702232
O O10 0.255610 0.000000 0.703522
O O11 0.749132 0.623831 0.579958
O O12 0.000000 0.753809 0.606906
O O13 0.500000 0.500000 0.452396
O O14 0.235575 0.500000 0.500000
O O15 0.745920 0.250791 0.913456
O O16 0.000000 0.145792 0.950149
O O17 0.744368 0.000000 0.939398
O O18 0.744087 0.179037 0.000000
O O19 0.500000 0.642757 0.873376
O O20 0.757842 0.500000 0.887084
#
# Coordination Sequence:
#
# PCOD9383931 Si02
#       7
#     8   4   8   8   4   8   8
#     4   9  18  32  52  76 104 141 182 220 263 315
#     4   9  16  28  51  83 111 133 165 213 266 315
#     4   9  17  31  53  83 111 133 165 217 273 320
#     4  10  19  34  58  84 108 135 173 220 266 316
#     4  11  25  41  53  73 109 147 181 217 260 313
#     4   9  19  36  57  81 109 142 182 227 274 324
#     4  10  21  36  53  77 111 147 184 225 269 317
#
# _framework density 19.171945999999998
#
# number of rings (size 3 to 8) (size 9 to 14) (size 15 to 20)
#    0.000    2.500    0.833    1.750    1.167    4.000 
#    0.000    5.417    0.000    2.500    0.000    0.000 
#    0.000    0.000    0.000    0.000    0.000    0.000 
#
# Total GULP energy -267744.599342 kJ/mol
# GULP energy per Si atom -5578.012486 kJ/mol
# Density = 1.912831 g / cm^3
# Si number density = 19.171946 Si / 1000 Ang^3
#
#
#
# Elastic Constant Matrix: (Units=GPa)
#
#
# Indices 1 2 3 4 5 6 
#
# 1 10.2960 10.2764 10.1193 0.0000 0.0000 0.0000
# 2 10.2764 189.0174 139.9760 0.0000 0.0000 0.0000
# 3 10.1193 139.9760 185.3303 0.0000 0.0000 0.0000
# 4 0.0000 0.0000 0.0000 42.0183 0.0000 0.0000
# 5 0.0000 0.0000 0.0000 0.0000 -12.1197 0.0000
# 6 0.0000 0.0000 0.0000 0.0000 0.0000 14.1575
#
#
#
# Elastic Compliance Matrix: (Units=1/GPa)
#
#
# Indices 1 2 3 4 5 6 
#
# 1 0.103517 -0.003273 -0.003180 0.000000 0.000000 0.000000
# 2 -0.003273 0.012109 -0.008967 0.000000 0.000000 0.000000
# 3 -0.003180 -0.008967 0.012342 0.000000 0.000000 0.000000
# 4 0.000000 0.000000 0.000000 0.023799 0.000000 0.000000
# 5 0.000000 0.000000 0.000000 0.000000 -0.082510 0.000000
# 6 0.000000 0.000000 0.000000 0.000000 0.000000 0.070634
#
#
# Mechanical properties :
#
#
# Convention : Reuss Voigt Hill
#
# Bulk Modulus (GPa) = 10.29570 78.37635 44.33603
# Shear Modulus (GPa) = 24.61764 23.76268 24.19016
#
# Velocity S-wave (km/s) = 3.58724 3.52440 3.55596
# Velocity P-wave (km/s) = 4.74759 7.58494 6.32736
#
# Compressibility (1/GPa) = 0.09712789
#
# Stress axis : x y z
#
# Youngs Moduli (GPa) = 9.66024 82.58474 81.02511
#
# Poissons Ratio (x) = 0.27028 0.25769
# Poissons Ratio (y) = 0.03162 0.72654
# Poissons Ratio (z) = 0.03072 0.74052
#
# Static dielectric constant tensor:
#      x y z
#    x 1.682270 0.000000 0.000000 
#    y 0.000000 1.654160 0.000000 
#    z 0.000000 0.000000 1.648380 
# 
# From -- ./inp_files/34183.got.cif
#   From: 2010.05.17/outbox.cif.g08.bks.cpg/sg47_18_cif.got.tgz:34183.got - 2010.06.03 20:15:42.
