data_PCOD9383605
_publ_section_title
;
Structure prediction by ZEFSAII (Michael W. Deem and Ramdas Pophale) SiO2 
 PCOD9383605
Probable space group: P M M M
;
_chemical_formula_sum "Si O2"
_cell_formula_units_Z 56
_cell_length_a 22.514797
_cell_length_b 9.924339
_cell_length_c 14.108721
_cell_angle_alpha 90.000000
_cell_angle_beta 90.000000
_cell_angle_gamma 90.000000
_cell_volume 3152.515798
_symmetry_space_group_name_H-M "P M M M"
_symmetry_group_IT_number 47
_symmetry_cell_setting 'orthorhombic'
loop_
_space_group_symop_operation_xyz
x,y,z
-x,-y,z
x,-y,-z
-x,y,-z
-x,-y,-z
x,y,-z
-x,y,z
x,-y,z
loop_
_atom_site_type_symbol
_atom_site_label
_atom_site_fract_x
_atom_site_fract_y
_atom_site_fract_z
Si Si1 0.933033 0.658614 0.248753
Si Si2 0.172537 0.663047 0.107406
Si Si3 0.571354 0.000000 0.614237
Si Si4 0.308090 0.662183 0.112184
Si Si5 0.570379 0.500000 0.391534
Si Si6 0.872679 0.843026 0.613369
Si Si7 0.635264 0.256071 0.703498
Si Si8 0.759651 0.655769 0.386042
O O1 0.923875 0.500000 0.274568
O O2 0.881893 0.699399 0.174577
O O3 0.924444 0.758865 0.336444
O O4 0.000000 0.669046 0.210403
O O5 0.173555 0.500000 0.105004
O O6 0.239671 0.702037 0.135652
O O7 0.162589 0.710776 0.000000
O O8 0.604264 0.125073 0.662317
O O9 0.500000 0.000000 0.630476
O O10 0.579960 0.000000 0.500000
O O11 0.313302 0.500000 0.127114
O O12 0.352376 0.735432 0.184199
O O13 0.317381 0.686995 0.000000
O O14 0.500000 0.500000 0.397518
O O15 0.594346 0.500000 0.500000
O O16 0.593369 0.626048 0.333677
O O17 0.879341 0.841234 0.500000
O O18 0.813668 0.755845 0.636693
O O19 0.868927 0.000000 0.643025
O O20 0.699265 0.287166 0.656998
O O21 0.754389 0.652200 0.500000
O O22 0.769687 0.500000 0.353645
#
# Coordination Sequence:
#
# PCOD9383605 Si02
#       8
#     8   8   4   8   4   8   8   8
#     4  10  20  33  52  79 109 142 185 233 279 330
#     4   8  15  30  54  83 114 142 172 220 282 338
#     4  11  26  44  59  81 119 161 197 236 284 340
#     4   9  17  32  57  90 119 145 186 241 295 344
#     4  11  22  36  57  85 115 149 195 240 278 334
#     4  10  22  37  52  73 105 146 189 232 279 335
#     4  12  21  36  60  85 114 155 194 237 288 340
#     4  10  19  32  54  84 112 137 177 235 294 347
#
# _framework density 17.763591999999999
#
# number of rings (size 3 to 8) (size 9 to 14) (size 15 to 20)
#    0.000    2.000    1.429    3.857    1.000    4.000 
#    0.000    3.214    0.000    3.000    0.000    1.000 
#    0.000    0.000    0.000    0.000    0.000    0.000 
#
# Total GULP energy -312327.007780 kJ/mol
# GULP energy per Si atom -5577.267996 kJ/mol
# Density = 1.772316 g / cm^3
# Si number density = 17.763592 Si / 1000 Ang^3
#
#
#
# Elastic Constant Matrix: (Units=GPa)
#
#
# Indices 1 2 3 4 5 6 
#
# 1 94.9580 49.3527 65.7000 0.0000 0.0000 0.0000
# 2 49.3527 115.7021 52.3688 0.0000 0.0000 0.0000
# 3 65.7000 52.3688 95.6755 0.0000 0.0000 0.0000
# 4 0.0000 0.0000 0.0000 19.3298 0.0000 0.0000
# 5 0.0000 0.0000 0.0000 0.0000 26.2812 0.0000
# 6 0.0000 0.0000 0.0000 0.0000 0.0000 22.6809
#
#
#
# Elastic Compliance Matrix: (Units=1/GPa)
#
#
# Indices 1 2 3 4 5 6 
#
# 1 0.020928 -0.003220 -0.012609 0.000000 0.000000 0.000000
# 2 -0.003220 0.011985 -0.004349 0.000000 0.000000 0.000000
# 3 -0.012609 -0.004349 0.021491 0.000000 0.000000 0.000000
# 4 0.000000 0.000000 0.000000 0.051734 0.000000 0.000000
# 5 0.000000 0.000000 0.000000 0.000000 0.038050 0.000000
# 6 0.000000 0.000000 0.000000 0.000000 0.000000 0.044090
#
#
# Mechanical properties :
#
#
# Convention : Reuss Voigt Hill
#
# Bulk Modulus (GPa) = 71.18187 71.24208 71.21197
# Shear Modulus (GPa) = 21.43015 22.91932 22.17473
#
# Velocity S-wave (km/s) = 3.47711 3.59589 3.53700
# Velocity P-wave (km/s) = 7.50194 7.57848 7.54031
#
# Compressibility (1/GPa) = 0.01404852
#
# Stress axis : x y z
#
# Youngs Moduli (GPa) = 47.78176 83.43972 46.53127
#
# Poissons Ratio (x) = 0.26867 0.58671
# Poissons Ratio (y) = 0.15386 0.20235
# Poissons Ratio (z) = 0.60248 0.36286
#
# Static dielectric constant tensor:
#      x y z
#    x 1.608930 0.000000 0.000000 
#    y 0.000000 1.585410 0.000000 
#    z 0.000000 0.000000 1.638290 
# 
# From -- ./inp_files/25170.got.cif
#   From: 2010.05.17/outbox.cif.g08.bks.cpg/sg47_13_cif.got.tgz:25170.got - 2010.06.03 20:15:42.
