data_PCOD9383760
_publ_section_title
;
Structure prediction by ZEFSAII (Michael W. Deem and Ramdas Pophale) SiO2 
 PCOD9383760
Probable space group: P M M M
;
_chemical_formula_sum "Si O2"
_cell_formula_units_Z 48
_cell_length_a 17.653182
_cell_length_b 16.258748
_cell_length_c 7.631171
_cell_angle_alpha 90.000000
_cell_angle_beta 90.000000
_cell_angle_gamma 90.000000
_cell_volume 2190.288303
_symmetry_space_group_name_H-M "P M M M"
_symmetry_group_IT_number 47
_symmetry_cell_setting 'orthorhombic'
loop_
_space_group_symop_operation_xyz
x,y,z
-x,-y,z
x,-y,-z
-x,y,-z
-x,-y,-z
x,y,-z
-x,y,z
x,-y,z
loop_
_atom_site_type_symbol
_atom_site_label
_atom_site_fract_x
_atom_site_fract_y
_atom_site_fract_z
Si Si1 0.914353 0.744086 0.209531
Si Si2 0.813109 0.591203 0.786140
Si Si3 0.823774 0.090339 0.288256
Si Si4 0.660353 0.326377 0.205719
Si Si5 0.500000 0.405905 0.710074
Si Si6 0.661461 0.142198 0.700273
Si Si7 0.500000 0.902012 0.298379
O O1 0.864775 0.667038 0.275807
O O2 0.873944 0.831325 0.239979
O O3 0.000000 0.743917 0.278926
O O4 0.918257 0.733790 0.000000
O O5 0.835617 0.500000 0.726509
O O6 0.726062 0.610868 0.738308
O O7 0.816380 0.590452 0.000000
O O8 0.820519 0.090362 0.500000
O O9 0.737644 0.103916 0.222380
O O10 0.851522 0.000000 0.231734
O O11 0.576538 0.361133 0.231684
O O12 0.671238 0.239966 0.300629
O O13 0.671925 0.309623 0.000000
O O14 0.500000 0.500000 0.773820
O O15 0.500000 0.406254 0.500000
O O16 0.656269 0.110165 0.500000
O O17 0.579594 0.124996 0.783738
O O18 0.500000 0.868115 0.500000
O O19 0.500000 0.000000 0.305137
#
# Coordination Sequence:
#
# PCOD9383760 Si02
#       7
#     8   8   8   8   4   8   4
#     4  10  21  38  60  86 115 146 186 239 295 350
#     4   9  18  34  57  85 115 147 185 231 285 345
#     4  10  21  37  58  84 116 156 198 237 282 342
#     4  11  21  35  57  82 113 151 191 234 284 340
#     4  11  24  39  54  78 114 153 196 242 285 331
#     4  10  19  33  55  81 111 147 189 234 282 337
#     4   9  17  30  50  76 104 137 182 232 275 321
#
# _framework density 21.914925
#
# number of rings (size 3 to 8) (size 9 to 14) (size 15 to 20)
#    0.000    2.000    1.667    2.250    0.000    5.333 
#    0.000    3.333    0.000    3.500    0.000    1.167 
#    0.000    0.000    0.000    0.000    0.000    0.000 
#
# Total GULP energy -268109.348589 kJ/mol
# GULP energy per Si atom -5585.611429 kJ/mol
# Density = 2.186505 g / cm^3
# Si number density = 21.914925 Si / 1000 Ang^3
#
#
#
# Elastic Constant Matrix: (Units=GPa)
#
#
# Indices 1 2 3 4 5 6 
#
# 1 168.4751 80.5189 3.4024 0.0000 0.0000 0.0000
# 2 80.5189 173.5531 -1.7610 0.0000 0.0000 0.0000
# 3 3.4024 -1.7610 50.3035 0.0000 0.0000 0.0000
# 4 0.0000 0.0000 0.0000 19.3410 0.0000 0.0000
# 5 0.0000 0.0000 0.0000 0.0000 -132.5260 0.0000
# 6 0.0000 0.0000 0.0000 0.0000 0.0000 -9.3406
#
#
#
# Elastic Compliance Matrix: (Units=1/GPa)
#
#
# Indices 1 2 3 4 5 6 
#
# 1 0.007647 -0.003554 -0.000642 0.000000 0.000000 0.000000
# 2 -0.003554 0.007416 0.000500 0.000000 0.000000 0.000000
# 3 -0.000642 0.000500 0.019940 0.000000 0.000000 0.000000
# 4 0.000000 0.000000 0.000000 0.051704 0.000000 0.000000
# 5 0.000000 0.000000 0.000000 0.000000 -0.007546 0.000000
# 6 0.000000 0.000000 0.000000 0.000000 0.000000 -0.107059
#
#
# Mechanical properties :
#
#
# Convention : Reuss Voigt Hill
#
# Bulk Modulus (GPa) = 36.21684 61.85026 49.03355
# Shear Modulus (GPa) = -442.41948 -3.82704 -223.12326
#
# Velocity S-wave (km/s) = -14.22388 -1.32292 -10.10121
# Velocity P-wave (km/s) = 15.91214 5.09418 10.65940
#
# Compressibility (1/GPa) = 0.02761146
#
# Stress axis : x y z
#
# Youngs Moduli (GPa) = 130.76474 134.84247 50.14981
#
# Poissons Ratio (x) = 0.47929 0.03218
# Poissons Ratio (y) = 0.46480 -0.02508
# Poissons Ratio (z) = 0.08391 -0.06743
#
# Static dielectric constant tensor:
#      x y z
#    x 1.799210 0.000000 0.000000 
#    y 0.000000 1.770380 0.000000 
#    z 0.000000 0.000000 1.871430 
# 
# From -- ./inp_files/9234.got.cif
#   From: 2010.05.17/outbox.cif.g08.bks.cpg/sg47_5_cif.got.tgz:9234.got - 2010.06.03 20:15:42.
