data_PCOD9383577
_publ_section_title
;
Structure prediction by ZEFSAII (Michael W. Deem and Ramdas Pophale) SiO2 
 PCOD9383577
Probable space group: P M M M
;
_chemical_formula_sum "Si O2"
_cell_formula_units_Z 56
_cell_length_a 17.303459
_cell_length_b 7.697638
_cell_length_c 21.646028
_cell_angle_alpha 90.000000
_cell_angle_beta 90.000000
_cell_angle_gamma 90.000000
_cell_volume 2883.159227
_symmetry_space_group_name_H-M "P M M M"
_symmetry_group_IT_number 47
_symmetry_cell_setting 'orthorhombic'
loop_
_space_group_symop_operation_xyz
x,y,z
-x,-y,z
x,-y,-z
-x,y,-z
-x,-y,-z
x,y,-z
-x,y,z
x,-y,z
loop_
_atom_site_type_symbol
_atom_site_label
_atom_site_fract_x
_atom_site_fract_y
_atom_site_fract_z
Si Si1 0.249985 0.205407 0.932689
Si Si2 0.586073 0.709596 0.738571
Si Si3 0.746976 0.205767 0.313054
Si Si4 0.000000 0.708514 0.626291
Si Si5 0.413355 0.710170 0.881646
Si Si6 0.000000 0.707963 0.768888
Si Si7 0.830735 0.206790 0.190346
Si Si8 0.835496 0.206737 0.431160
O O1 0.341456 0.225153 0.920759
O O2 0.205486 0.278914 0.872942
O O3 0.232634 0.000000 0.934781
O O4 0.230134 0.279865 0.000000
O O5 0.500000 0.767011 0.720056
O O6 0.586624 0.500000 0.738682
O O7 0.656121 0.771000 0.696748
O O8 0.598503 0.764645 0.810005
O O9 0.789445 0.279265 0.252018
O O10 0.781188 0.278794 0.376604
O O11 0.764020 0.000000 0.313823
O O12 0.923188 0.768226 0.591504
O O13 0.000000 0.500000 0.627443
O O14 0.000000 0.771716 0.697536
O O15 0.500000 0.765213 0.900552
O O16 0.412239 0.500000 0.883179
O O17 0.078165 0.766416 0.802198
O O18 0.000000 0.500000 0.767032
O O19 0.815224 0.000000 0.189819
O O20 0.824568 0.279573 0.500000
O O21 0.821357 0.000000 0.435067
#
# Coordination Sequence:
#
# PCOD9383577 Si02
#       8
#     8   8   8   4   8   4   8   8
#     4  10  21  36  53  75 103 134 170 213 261 307
#     4   9  18  32  51  77 107 137 170 212 260 303
#     4  10  19  32  54  80 102 132 176 215 250 297
#     4  11  22  34  51  79 111 139 169 206 251 303
#     4   9  18  32  50  74 105 139 172 207 252 307
#     4  11  23  36  55  82 106 132 169 214 258 299
#     4  10  20  36  56  77 101 133 172 214 255 301
#     4  10  21  36  53  75 107 142 172 206 252 305
#
# _framework density 19.423138000000002
#
# number of rings (size 3 to 8) (size 9 to 14) (size 15 to 20)
#    0.000    2.143    2.857    1.500    0.000    4.571 
#    0.000    3.214    0.000    2.571    0.000    3.000 
#    0.000    0.000    0.000    0.000    0.000    0.000 
#
# Total GULP energy -312585.030959 kJ/mol
# GULP energy per Si atom -5581.875553 kJ/mol
# Density = 1.937893 g / cm^3
# Si number density = 19.423138 Si / 1000 Ang^3
#
#
#
# Elastic Constant Matrix: (Units=GPa)
#
#
# Indices 1 2 3 4 5 6 
#
# 1 113.9973 -13.9663 89.4799 0.0000 0.0000 0.0000
# 2 -13.9663 30.1506 12.7701 0.0000 0.0000 0.0000
# 3 89.4799 12.7701 181.3887 0.0000 0.0000 0.0000
# 4 0.0000 0.0000 0.0000 7.7741 0.0000 0.0000
# 5 0.0000 0.0000 0.0000 0.0000 12.9722 0.0000
# 6 0.0000 0.0000 0.0000 0.0000 0.0000 29.7223
#
#
#
# Elastic Compliance Matrix: (Units=1/GPa)
#
#
# Indices 1 2 3 4 5 6 
#
# 1 0.017916 0.012412 -0.009712 0.000000 0.000000 0.000000
# 2 0.012412 0.042786 -0.009135 0.000000 0.000000 0.000000
# 3 -0.009712 -0.009135 0.010947 0.000000 0.000000 0.000000
# 4 0.000000 0.000000 0.000000 0.128633 0.000000 0.000000
# 5 0.000000 0.000000 0.000000 0.000000 0.077088 0.000000
# 6 0.000000 0.000000 0.000000 0.000000 0.000000 0.033645
#
#
# Mechanical properties :
#
#
# Convention : Reuss Voigt Hill
#
# Bulk Modulus (GPa) = 17.01279 55.78934 36.40107
# Shear Modulus (GPa) = 14.55703 25.91057 20.23380
#
# Velocity S-wave (km/s) = 2.74061 3.65637 3.23110
# Velocity P-wave (km/s) = 4.33505 6.82721 5.71854
#
# Compressibility (1/GPa) = 0.05877929
#
# Stress axis : x y z
#
# Youngs Moduli (GPa) = 55.81598 23.37227 91.34841
#
# Poissons Ratio (x) = -0.29011 0.88717
# Poissons Ratio (y) = -0.69281 0.83450
# Poissons Ratio (z) = 0.54208 0.21351
#
# Static dielectric constant tensor:
#      x y z
#    x 1.655080 0.000000 0.000000 
#    y 0.000000 1.712670 0.000000 
#    z 0.000000 0.000000 1.706420 
# 
# From -- ./inp_files/31043.got.cif
#   From: 2010.05.17/outbox.cif.g08.bks.cpg/sg47_16_cif.got.tgz:31043.got - 2010.06.03 20:15:42.
