data_PCOD9383860
_publ_section_title
;
Structure prediction by ZEFSAII (Michael W. Deem and Ramdas Pophale) SiO2 
 PCOD9383860
Probable space group: P M M M
;
_chemical_formula_sum "Si O2"
_cell_formula_units_Z 36
_cell_length_a 12.273093
_cell_length_b 7.424354
_cell_length_c 24.807419
_cell_angle_alpha 90.000000
_cell_angle_beta 90.000000
_cell_angle_gamma 90.000000
_cell_volume 2260.446738
_symmetry_space_group_name_H-M "P M M M"
_symmetry_group_IT_number 47
_symmetry_cell_setting 'orthorhombic'
loop_
_space_group_symop_operation_xyz
x,y,z
-x,-y,z
x,-y,-z
-x,y,-z
-x,-y,-z
x,y,-z
-x,y,z
x,-y,z
loop_
_atom_site_type_symbol
_atom_site_label
_atom_site_fract_x
_atom_site_fract_y
_atom_site_fract_z
Si Si1 0.132571 0.794261 0.353254
Si Si2 0.000000 0.218320 0.061261
Si Si3 0.132919 0.500000 0.561678
Si Si4 0.874302 0.780784 0.233878
Si Si5 0.222694 0.217361 0.121780
Si Si6 0.630039 0.500000 0.936342
O O1 0.167051 0.671505 0.402869
O O2 0.162511 0.724553 0.293576
O O3 0.000000 0.795069 0.352561
O O4 0.168923 0.000000 0.359395
O O5 0.890130 0.268408 0.091943
O O6 0.000000 0.000000 0.060403
O O7 0.000000 0.282951 0.000000
O O8 0.170282 0.500000 0.500000
O O9 0.000000 0.500000 0.560406
O O10 0.797675 0.731974 0.184187
O O11 0.000000 0.722250 0.224611
O O12 0.878081 0.000000 0.235030
O O13 0.317654 0.326795 0.092930
O O14 0.236705 0.000000 0.118039
O O15 0.500000 0.500000 0.931703
O O16 0.658485 0.500000 0.000000
#
# Coordination Sequence:
#
# PCOD9383860 Si02
#       6
#     8   4   4   8   8   4
#     4   8  14  23  35  52  77 108 137 173 220 263
#     4   9  16  27  47  75 100 117 135 169 228 293
#     4   9  16  23  30  44  68 105 156 198 215 233
#     4   8  13  25  45  69  94 113 135 174 229 289
#     4  10  19  34  55  75  95 119 145 184 238 286
#     4  11  26  42  51  65  89 121 167 203 218 258
#
# _framework density 15.926055
#
# number of rings (size 3 to 8) (size 9 to 14) (size 15 to 20)
#    0.000    3.000    1.111    2.000    0.000    3.556 
#    0.000    5.556    0.000    0.000    0.000    0.000 
#    0.000    0.000    0.000    0.000    0.000    8.889 
#
# Total GULP energy -200589.982295 kJ/mol
# GULP energy per Si atom -5571.943953 kJ/mol
# Density = 1.588981 g / cm^3
# Si number density = 15.926055 Si / 1000 Ang^3
#
#
#
# Elastic Constant Matrix: (Units=GPa)
#
#
# Indices 1 2 3 4 5 6 
#
# 1 43.3386 23.7723 39.1557 0.0000 0.0000 0.0000
# 2 23.7723 81.9391 59.9041 0.0000 0.0000 0.0000
# 3 39.1557 59.9041 178.0263 0.0000 0.0000 0.0000
# 4 0.0000 0.0000 0.0000 12.8790 0.0000 0.0000
# 5 0.0000 0.0000 0.0000 0.0000 8.4393 0.0000
# 6 0.0000 0.0000 0.0000 0.0000 0.0000 12.2751
#
#
#
# Elastic Compliance Matrix: (Units=1/GPa)
#
#
# Indices 1 2 3 4 5 6 
#
# 1 0.030387 -0.005212 -0.004930 0.000000 0.000000 0.000000
# 2 -0.005212 0.017080 -0.004601 0.000000 0.000000 0.000000
# 3 -0.004930 -0.004601 0.008250 0.000000 0.000000 0.000000
# 4 0.000000 0.000000 0.000000 0.077646 0.000000 0.000000
# 5 0.000000 0.000000 0.000000 0.000000 0.118494 0.000000
# 6 0.000000 0.000000 0.000000 0.000000 0.000000 0.081466
#
#
# Mechanical properties :
#
#
# Convention : Reuss Voigt Hill
#
# Bulk Modulus (GPa) = 38.12227 60.99647 49.55937
# Shear Modulus (GPa) = 13.45712 18.75012 16.10362
#
# Velocity S-wave (km/s) = 2.91000 3.43494 3.18331
# Velocity P-wave (km/s) = 5.93968 7.35627 6.68560
#
# Compressibility (1/GPa) = 0.02623139
#
# Stress axis : x y z
#
# Youngs Moduli (GPa) = 32.90897 58.54833 121.21892
#
# Poissons Ratio (x) = 0.30515 0.59756
# Poissons Ratio (y) = 0.17152 0.55771
# Poissons Ratio (z) = 0.16223 0.26937
#
# Static dielectric constant tensor:
#      x y z
#    x 1.479800 0.000000 0.000000 
#    y 0.000000 1.605610 0.000000 
#    z 0.000000 0.000000 1.555280 
# 
# From -- ./inp_files/32282.got.cif
#   From: 2010.05.17/outbox.cif.g08.bks.cpg/sg47_17_cif.got.tgz:32282.got - 2010.06.03 20:15:42.
