data_PCOD9383695
_publ_section_title
;
Structure prediction by ZEFSAII (Michael W. Deem and Ramdas Pophale) SiO2 
 PCOD9383695
Probable space group: P M M M
;
_chemical_formula_sum "Si O2"
_cell_formula_units_Z 48
_cell_length_a 19.451760
_cell_length_b 15.324862
_cell_length_c 7.741104
_cell_angle_alpha 90.000000
_cell_angle_beta 90.000000
_cell_angle_gamma 90.000000
_cell_volume 2307.588559
_symmetry_space_group_name_H-M "P M M M"
_symmetry_group_IT_number 47
_symmetry_cell_setting 'orthorhombic'
loop_
_space_group_symop_operation_xyz
x,y,z
-x,-y,z
x,-y,-z
-x,y,-z
-x,-y,-z
x,y,-z
-x,y,z
x,-y,z
loop_
_atom_site_type_symbol
_atom_site_label
_atom_site_fract_x
_atom_site_fract_y
_atom_site_fract_z
Si Si1 0.278617 0.093739 0.198095
Si Si2 0.080159 0.098716 0.710586
Si Si3 0.186682 0.241364 0.303933
Si Si4 0.575645 0.663319 0.206872
Si Si5 0.273030 0.402777 0.708180
Si Si6 0.425090 0.134866 0.700844
O O1 0.249769 0.173385 0.305538
O O2 0.360414 0.097673 0.201733
O O3 0.256083 0.000000 0.267496
O O4 0.255632 0.102826 0.000000
O O5 0.086115 0.097805 0.500000
O O6 0.126639 0.179702 0.773375
O O7 0.000000 0.111599 0.752640
O O8 0.099150 0.000000 0.769437
O O9 0.165013 0.262964 0.500000
O O10 0.220532 0.328362 0.224184
O O11 0.500000 0.625252 0.256412
O O12 0.646618 0.615923 0.253045
O O13 0.578651 0.760177 0.285265
O O14 0.575457 0.672093 0.000000
O O15 0.267433 0.400276 0.500000
O O16 0.255788 0.500000 0.769276
O O17 0.419904 0.110136 0.500000
O O18 0.500000 0.108637 0.766755
#
# Coordination Sequence:
#
# PCOD9383695 Si02
#       6
#     8   8   8   8   8   8
#     4  11  23  35  49  73 104 136 170 212 261 309
#     4   8  14  26  48  80 111 135 167 213 258 301
#     4  10  19  33  54  76 101 137 175 213 257 308
#     4  10  20  34  53  75  99 129 169 221 277 324
#     4  10  21  35  51  74 103 136 176 221 268 315
#     4  10  20  34  52  72  96 130 172 215 259 309
#
# _framework density 20.800934000000002
#
# number of rings (size 3 to 8) (size 9 to 14) (size 15 to 20)
#    0.000    2.167    1.667    2.500    0.000    5.000 
#    0.000    3.333    0.000    1.000    0.000    5.833 
#    0.000    0.000    0.000    3.000    0.000    3.500 
#
# Total GULP energy -267743.366386 kJ/mol
# GULP energy per Si atom -5577.986800 kJ/mol
# Density = 2.075359 g / cm^3
# Si number density = 20.800934 Si / 1000 Ang^3
#
#
#
# Elastic Constant Matrix: (Units=GPa)
#
#
# Indices 1 2 3 4 5 6 
#
# 1 141.6444 71.7168 3.1115 0.0000 0.0000 0.0000
# 2 71.7168 157.4889 8.0807 0.0000 0.0000 0.0000
# 3 3.1115 8.0807 41.2986 0.0000 0.0000 0.0000
# 4 0.0000 0.0000 0.0000 -0.3202 0.0000 0.0000
# 5 0.0000 0.0000 0.0000 0.0000 -8.4115 0.0000
# 6 0.0000 0.0000 0.0000 0.0000 0.0000 25.6138
#
#
#
# Elastic Compliance Matrix: (Units=1/GPa)
#
#
# Indices 1 2 3 4 5 6 
#
# 1 0.009176 -0.004185 0.000128 0.000000 0.000000 0.000000
# 2 -0.004185 0.008323 -0.001313 0.000000 0.000000 0.000000
# 3 0.000128 -0.001313 0.024461 0.000000 0.000000 0.000000
# 4 0.000000 0.000000 0.000000 -3.123346 0.000000 0.000000
# 5 0.000000 0.000000 0.000000 0.000000 -0.118885 0.000000
# 6 0.000000 0.000000 0.000000 0.000000 0.000000 0.039041
#
#
# Mechanical properties :
#
#
# Convention : Reuss Voigt Hill
#
# Bulk Modulus (GPa) = 32.03214 56.24999 44.14106
# Shear Modulus (GPa) = -1.59232 20.54462 9.47615
#
# Velocity S-wave (km/s) = -0.87588 3.14614 2.13671
# Velocity P-wave (km/s) = 3.79604 6.34810 5.23012
#
# Compressibility (1/GPa) = 0.03121865
#
# Stress axis : x y z
#
# Youngs Moduli (GPa) = 108.97830 120.15110 40.88106
#
# Poissons Ratio (x) = 0.50285 -0.00521
# Poissons Ratio (y) = 0.45609 0.05368
# Poissons Ratio (z) = -0.01390 0.15778
#
# Static dielectric constant tensor:
#      x y z
#    x 1.768310 0.000000 0.000000 
#    y 0.000000 1.758260 0.000000 
#    z 0.000000 0.000000 1.766730 
# 
# From -- ./inp_files/6361.got.cif
#   From: 2010.05.17/outbox.cif.g08.bks.cpg/sg47_4_cif.got.tgz:6361.got - 2010.06.03 20:15:42.
