data_PCOD9383369
_publ_section_title
;
Structure prediction by ZEFSAII (Michael W. Deem and Ramdas Pophale) SiO2 
 PCOD9383369
Probable space group: P M M M
;
_chemical_formula_sum "Si O2"
_cell_formula_units_Z 52
_cell_length_a 21.280892
_cell_length_b 15.036562
_cell_length_c 7.431279
_cell_angle_alpha 90.000000
_cell_angle_beta 90.000000
_cell_angle_gamma 90.000000
_cell_volume 2377.945757
_symmetry_space_group_name_H-M "P M M M"
_symmetry_group_IT_number 47
_symmetry_cell_setting 'orthorhombic'
loop_
_space_group_symop_operation_xyz
x,y,z
-x,-y,z
x,-y,-z
-x,y,-z
-x,-y,-z
x,y,-z
-x,y,z
x,-y,z
loop_
_atom_site_type_symbol
_atom_site_label
_atom_site_fract_x
_atom_site_fract_y
_atom_site_fract_z
Si Si1 0.601552 0.096223 0.716214
Si Si2 0.928699 0.198152 0.286561
Si Si3 0.249254 0.097817 0.786840
Si Si4 0.568205 0.291377 0.280233
Si Si5 0.808542 0.715548 0.294974
Si Si6 0.928166 0.000000 0.214206
Si Si7 0.307882 0.602884 0.720259
O O1 0.593736 0.095611 0.500000
O O2 0.675763 0.100115 0.757690
O O3 0.572955 0.188726 0.780037
O O4 0.578261 0.000000 0.782832
O O5 0.932563 0.213426 0.500000
O O6 0.877164 0.266561 0.212079
O O7 0.903554 0.096911 0.265709
O O8 0.000000 0.202585 0.213498
O O9 0.221830 0.186069 0.700709
O O10 0.227668 0.000000 0.722055
O O11 0.236074 0.102090 0.000000
O O12 0.570029 0.291208 0.500000
O O13 0.500000 0.328185 0.227307
O O14 0.629404 0.345390 0.220690
O O15 0.818530 0.684531 0.500000
O O16 0.755532 0.651645 0.215095
O O17 0.000000 0.000000 0.285418
O O18 0.929063 0.000000 0.000000
O O19 0.307400 0.607407 0.500000
O O20 0.309572 0.500000 0.771249
#
# Coordination Sequence:
#
# PCOD9383369 Si02
#       7
#     8   8   8   8   8   4   8
#     4   9  16  28  46  67  95 129 163 197 234 280
#     4   9  18  31  46  66  94 128 165 199 232 278
#     4  10  20  31  45  69  99 128 160 199 239 278
#     4   9  16  26  43  70 100 126 156 194 237 285
#     4  10  19  32  51  71  93 126 163 197 240 288
#     4   9  17  29  45  67  99 135 166 195 230 274
#     4   9  17  30  48  71  97 122 155 202 251 293
#
# _framework density 21.867612000000001
#
# number of rings (size 3 to 8) (size 9 to 14) (size 15 to 20)
#    0.000    2.692    1.538    0.692    1.077    3.077 
#    0.000    3.077    0.000    1.385    0.000    5.385 
#    0.000    1.231    0.000    5.231    0.000    5.538 
#
# Total GULP energy -290162.741002 kJ/mol
# GULP energy per Si atom -5580.052712 kJ/mol
# Density = 2.181784 g / cm^3
# Si number density = 21.867612 Si / 1000 Ang^3
#
#
#
# Elastic Constant Matrix: (Units=GPa)
#
#
# Indices 1 2 3 4 5 6 
#
# 1 168.0053 86.5394 0.9409 0.0000 0.0000 0.0000
# 2 86.5394 133.8092 6.1638 0.0000 0.0000 0.0000
# 3 0.9409 6.1638 73.5428 0.0000 0.0000 0.0000
# 4 0.0000 0.0000 0.0000 -76.3210 0.0000 0.0000
# 5 0.0000 0.0000 0.0000 0.0000 -23.6268 0.0000
# 6 0.0000 0.0000 0.0000 0.0000 0.0000 5.2105
#
#
#
# Elastic Compliance Matrix: (Units=1/GPa)
#
#
# Indices 1 2 3 4 5 6 
#
# 1 0.008936 -0.005796 0.000371 0.000000 0.000000 0.000000
# 2 -0.005796 0.011262 -0.000870 0.000000 0.000000 0.000000
# 3 0.000371 -0.000870 0.013666 0.000000 0.000000 0.000000
# 4 0.000000 0.000000 0.000000 -0.013103 0.000000 0.000000
# 5 0.000000 0.000000 0.000000 0.000000 -0.042325 0.000000
# 6 0.000000 0.000000 0.000000 0.000000 0.000000 0.191920
#
#
# Mechanical properties :
#
#
# Convention : Reuss Voigt Hill
#
# Bulk Modulus (GPa) = 47.00466 62.51617 54.76041
# Shear Modulus (GPa) = 26.31072 -0.16659 13.07207
#
# Velocity S-wave (km/s) = 3.47245 -0.27631 2.44761
# Velocity P-wave (km/s) = 6.13344 5.34310 5.75186
#
# Compressibility (1/GPa) = 0.02127449
#
# Stress axis : x y z
#
# Youngs Moduli (GPa) = 111.91040 88.79417 73.17608
#
# Poissons Ratio (x) = 0.51467 -0.02718
# Poissons Ratio (y) = 0.64865 0.06364
# Poissons Ratio (z) = -0.04157 0.07723
#
# Static dielectric constant tensor:
#      x y z
#    x 1.850870 0.000000 0.000000 
#    y 0.000000 1.759850 0.000000 
#    z 0.000000 0.000000 1.804730 
# 
# From -- ./inp_files/11081.got.cif
#   From: 2010.05.17/outbox.cif.g08.bks.cpg/sg47_6_cif.got.tgz:11081.got - 2010.06.03 20:15:42.
