data_PCOD9383984
_publ_section_title
;
Structure prediction by ZEFSAII (Michael W. Deem and Ramdas Pophale) SiO2 
 PCOD9383984
Probable space group: P M M M
;
_chemical_formula_sum "Si O2"
_cell_formula_units_Z 44
_cell_length_a 7.999159
_cell_length_b 17.464654
_cell_length_c 15.852527
_cell_angle_alpha 90.000000
_cell_angle_beta 90.000000
_cell_angle_gamma 90.000000
_cell_volume 2214.638354
_symmetry_space_group_name_H-M "P M M M"
_symmetry_group_IT_number 47
_symmetry_cell_setting 'orthorhombic'
loop_
_space_group_symop_operation_xyz
x,y,z
-x,-y,z
x,-y,-z
-x,y,-z
-x,-y,-z
x,y,-z
-x,y,z
x,-y,z
loop_
_atom_site_type_symbol
_atom_site_label
_atom_site_fract_x
_atom_site_fract_y
_atom_site_fract_z
Si Si1 0.184874 0.500000 0.188859
Si Si2 0.703095 0.329926 0.593299
Si Si3 0.691353 0.500000 0.629518
Si Si4 0.198077 0.760131 0.238204
Si Si5 0.794763 0.912692 0.683792
Si Si6 0.190744 0.906813 0.500000
Si Si7 0.304852 0.352367 0.095505
O O1 0.305833 0.500000 0.268849
O O2 0.209461 0.425248 0.132668
O O3 0.000000 0.500000 0.226545
O O4 0.749724 0.300032 0.500000
O O5 0.500000 0.329747 0.598871
O O6 0.762561 0.418439 0.600773
O O7 0.769036 0.283701 0.673533
O O8 0.500000 0.500000 0.599411
O O9 0.255466 0.847489 0.251235
O O10 0.281300 0.716238 0.161098
O O11 0.000000 0.759632 0.223290
O O12 0.732169 0.888231 0.590351
O O13 0.000000 0.912910 0.679355
O O14 0.743621 0.000000 0.701355
O O15 0.000000 0.877317 0.500000
O O16 0.181285 0.000000 0.500000
O O17 0.500000 0.373384 0.093902
O O18 0.251896 0.334150 0.000000
#
# Coordination Sequence:
#
# PCOD9383984 Si02
#       7
#     4   8   4   8   8   4   8
#     4  12  23  36  59  89 115 138 173 229 285 323
#     4  10  21  36  54  76 108 155 200 230 265 321
#     4  10  19  35  57  75 105 153 195 225 261 320
#     4  11  22  34  55  86 115 141 178 237 288 324
#     4   8  15  28  47  74 109 147 182 219 272 331
#     4   7  10  20  40  66  99 140 179 210 249 311
#     4  11  24  42  62  81 107 147 186 219 269 340
#
# _framework density 19.867804
#
# number of rings (size 3 to 8) (size 9 to 14) (size 15 to 20)
#    0.000    2.091    1.818    3.545    1.273    4.000 
#    0.000    0.000    0.000    4.364    0.000    5.091 
#    0.000    0.000    0.000    0.000    0.000    0.000 
#
# Total GULP energy -245625.496617 kJ/mol
# GULP energy per Si atom -5582.397650 kJ/mol
# Density = 1.982258 g / cm^3
# Si number density = 19.867804 Si / 1000 Ang^3
#
#
#
# Elastic Constant Matrix: (Units=GPa)
#
#
# Indices 1 2 3 4 5 6 
#
# 1 31.1741 -2.7032 -0.1405 0.0000 0.0000 0.0000
# 2 -2.7032 102.1135 39.4200 0.0000 0.0000 0.0000
# 3 -0.1405 39.4200 118.2029 0.0000 0.0000 0.0000
# 4 0.0000 0.0000 0.0000 -65.7166 0.0000 0.0000
# 5 0.0000 0.0000 0.0000 0.0000 0.7818 0.0000
# 6 0.0000 0.0000 0.0000 0.0000 0.0000 25.8726
#
#
#
# Elastic Compliance Matrix: (Units=1/GPa)
#
#
# Indices 1 2 3 4 5 6 
#
# 1 0.032160 0.000960 -0.000282 0.000000 0.000000 0.000000
# 2 0.000960 0.011269 -0.003757 0.000000 0.000000 0.000000
# 3 -0.000282 -0.003757 0.009713 0.000000 0.000000 0.000000
# 4 0.000000 0.000000 0.000000 -0.015217 0.000000 0.000000
# 5 0.000000 0.000000 0.000000 0.000000 1.279170 0.000000
# 6 0.000000 0.000000 0.000000 0.000000 0.000000 0.038651
#
#
# Mechanical properties :
#
#
# Convention : Reuss Voigt Hill
#
# Bulk Modulus (GPa) = 21.28391 36.07144 28.67768
# Shear Modulus (GPa) = 3.62960 6.51517 5.07238
#
# Velocity S-wave (km/s) = 1.35309 1.81284 1.59957
# Velocity P-wave (km/s) = 3.63003 4.75152 4.22813
#
# Compressibility (1/GPa) = 0.04698384
#
# Stress axis : x y z
#
# Youngs Moduli (GPa) = 31.09466 88.74085 102.95899
#
# Poissons Ratio (x) = -0.08521 0.02903
# Poissons Ratio (y) = -0.02986 0.38681
# Poissons Ratio (z) = 0.00877 0.33339
#
# Static dielectric constant tensor:
#      x y z
#    x 1.714660 0.000000 0.000000 
#    y 0.000000 1.716580 0.000000 
#    z 0.000000 0.000000 1.686430 
# 
# From -- ./inp_files/20951.got.cif
#   From: 2010.05.17/outbox.cif.g08.bks.cpg/sg47_11_cif.got.tgz:20951.got - 2010.06.03 20:15:42.
