data_PCOD9383611
_publ_section_title
;
Structure prediction by ZEFSAII (Michael W. Deem and Ramdas Pophale) SiO2 
 PCOD9383611
Probable space group: P M M M
;
_chemical_formula_sum "Si O2"
_cell_formula_units_Z 44
_cell_length_a 15.611087
_cell_length_b 8.412466
_cell_length_c 18.113542
_cell_angle_alpha 90.000000
_cell_angle_beta 90.000000
_cell_angle_gamma 90.000000
_cell_volume 2378.810509
_symmetry_space_group_name_H-M "P M M M"
_symmetry_group_IT_number 47
_symmetry_cell_setting 'orthorhombic'
loop_
_space_group_symop_operation_xyz
x,y,z
-x,-y,z
x,-y,-z
-x,y,-z
-x,-y,-z
x,y,-z
-x,y,z
x,-y,z
loop_
_atom_site_type_symbol
_atom_site_label
_atom_site_fract_x
_atom_site_fract_y
_atom_site_fract_z
Si Si1 0.227946 0.189759 0.710742
Si Si2 0.903136 0.806553 0.584655
Si Si3 0.818808 0.315690 0.869204
Si Si4 0.000000 0.820850 0.912203
Si Si5 0.644653 0.187212 0.918547
Si Si6 0.404278 0.689322 0.758337
O O1 0.171782 0.241493 0.640525
O O2 0.193808 0.278887 0.783040
O O3 0.328946 0.228151 0.711985
O O4 0.217101 0.000000 0.720564
O O5 0.889192 0.754782 0.500000
O O6 0.000000 0.757590 0.607237
O O7 0.903208 0.000000 0.584179
O O8 0.802156 0.500000 0.884893
O O9 0.914238 0.268278 0.889550
O O10 0.746942 0.213941 0.911476
O O11 0.000000 0.000000 0.880622
O O12 0.000000 0.831454 0.000000
O O13 0.607818 0.269916 0.845430
O O14 0.625587 0.000000 0.913491
O O15 0.616564 0.243961 0.000000
O O16 0.500000 0.738226 0.736507
O O17 0.395739 0.500000 0.750347
#
# Coordination Sequence:
#
# PCOD9383611 Si02
#       6
#     8   8   8   4   8   8
#     4  10  19  32  55  81 105 138 173 211 256 304
#     4   8  15  29  51  82 115 142 170 205 248 301
#     4  11  22  34  49  71 100 135 172 213 259 309
#     4  11  23  37  51  67  92 129 176 225 265 304
#     4  10  20  34  52  73  98 129 167 215 268 317
#     4  10  21  36  53  73 100 136 176 219 267 316
#
# _framework density 18.496639999999999
#
# number of rings (size 3 to 8) (size 9 to 14) (size 15 to 20)
#    0.000    2.091    0.000    6.818    1.273    6.182 
#    0.000    1.818    0.000    2.727    0.000    8.909 
#    0.000    0.000    0.000    0.000    0.000    0.000 
#
# Total GULP energy -245541.738541 kJ/mol
# GULP energy per Si atom -5580.494058 kJ/mol
# Density = 1.845454 g / cm^3
# Si number density = 18.496640 Si / 1000 Ang^3
#
#
#
# Elastic Constant Matrix: (Units=GPa)
#
#
# Indices 1 2 3 4 5 6 
#
# 1 114.5026 -0.2205 43.6050 0.0000 0.0000 0.0000
# 2 -0.2205 30.5472 1.1616 0.0000 0.0000 0.0000
# 3 43.6050 1.1616 76.0203 0.0000 0.0000 0.0000
# 4 0.0000 0.0000 0.0000 -86.0526 0.0000 0.0000
# 5 0.0000 0.0000 0.0000 0.0000 72.7450 0.0000
# 6 0.0000 0.0000 0.0000 0.0000 0.0000 20.2942
#
#
#
# Elastic Compliance Matrix: (Units=1/GPa)
#
#
# Indices 1 2 3 4 5 6 
#
# 1 0.011178 0.000325 -0.006416 0.000000 0.000000 0.000000
# 2 0.000325 0.032765 -0.000687 0.000000 0.000000 0.000000
# 3 -0.006416 -0.000687 0.016845 0.000000 0.000000 0.000000
# 4 0.000000 0.000000 0.000000 -0.011621 0.000000 0.000000
# 5 0.000000 0.000000 0.000000 0.000000 0.013747 0.000000
# 6 0.000000 0.000000 0.000000 0.000000 0.000000 0.049275
#
#
# Mechanical properties :
#
#
# Convention : Reuss Voigt Hill
#
# Bulk Modulus (GPa) = 21.17280 34.46248 27.81764
# Shear Modulus (GPa) = 35.33841 13.16559 24.25200
#
# Velocity S-wave (km/s) = 4.37570 2.67082 3.62492
# Velocity P-wave (km/s) = 6.08282 5.30879 5.70894
#
# Compressibility (1/GPa) = 0.04723042
#
# Stress axis : x y z
#
# Youngs Moduli (GPa) = 89.46514 30.52065 59.36377
#
# Poissons Ratio (x) = -0.00991 0.38090
# Poissons Ratio (y) = -0.02905 0.04077
# Poissons Ratio (z) = 0.57404 0.02096
#
# Static dielectric constant tensor:
#      x y z
#    x 1.671360 0.000000 0.000000 
#    y 0.000000 1.637630 0.000000 
#    z 0.000000 0.000000 1.624150 
# 
# From -- ./inp_files/27885.got.cif
#   From: 2010.05.17/outbox.cif.g08.bks.cpg/sg47_14_cif.got.tgz:27885.got - 2010.06.03 20:15:42.
