data_PCOD9383604
_publ_section_title
;
Structure prediction by ZEFSAII (Michael W. Deem and Ramdas Pophale) SiO2 
 PCOD9383604
Probable space group: P M M M
;
_chemical_formula_sum "Si O2"
_cell_formula_units_Z 56
_cell_length_a 14.286924
_cell_length_b 8.530180
_cell_length_c 21.085274
_cell_angle_alpha 90.000000
_cell_angle_beta 90.000000
_cell_angle_gamma 90.000000
_cell_volume 2569.663046
_symmetry_space_group_name_H-M "P M M M"
_symmetry_group_IT_number 47
_symmetry_cell_setting 'orthorhombic'
loop_
_space_group_symop_operation_xyz
x,y,z
-x,-y,z
x,-y,-z
-x,y,-z
-x,-y,-z
x,y,-z
-x,y,z
x,-y,z
loop_
_atom_site_type_symbol
_atom_site_label
_atom_site_fract_x
_atom_site_fract_y
_atom_site_fract_z
Si Si1 0.140544 0.176061 0.292065
Si Si2 0.103536 0.808061 0.847149
Si Si3 0.887647 0.680223 0.568560
Si Si4 0.388132 0.181005 0.426895
Si Si5 0.286950 0.189107 0.073088
Si Si6 0.684511 0.672134 0.306387
Si Si7 0.500000 0.328738 0.775887
Si Si8 0.500000 0.820802 0.901630
O O1 0.102234 0.246144 0.226610
O O2 0.130556 0.248631 0.362078
O O3 0.251042 0.190419 0.281162
O O4 0.106425 0.000000 0.296754
O O5 0.199678 0.755421 0.882559
O O6 0.000000 0.767233 0.874738
O O7 0.107769 0.000000 0.846212
O O8 0.854847 0.751050 0.500000
O O9 0.856071 0.500000 0.569450
O O10 0.000000 0.681027 0.564935
O O11 0.370279 0.216328 0.500000
O O12 0.500000 0.189918 0.417072
O O13 0.337554 0.296321 0.379539
O O14 0.360112 0.000000 0.414511
O O15 0.395757 0.246329 0.081465
O O16 0.292180 0.000000 0.082540
O O17 0.261068 0.219058 0.000000
O O18 0.728114 0.500000 0.297141
O O19 0.589112 0.676648 0.268557
O O20 0.500000 0.500000 0.809347
O O21 0.500000 0.191731 0.826015
O O22 0.500000 0.000000 0.925232
#
# Coordination Sequence:
#
# PCOD9383604 Si02
#       8
#     8   8   8   8   8   8   4   4
#     4  11  22  35  53  79 110 144 183 231 286 344
#     4   9  18  32  50  76 111 148 188 235 286 339
#     4   9  19  37  59  81 106 138 178 225 278 337
#     4   9  18  33  52  73  98 131 175 227 283 345
#     4   9  17  30  51  81 115 150 189 230 274 329
#     4  11  22  36  52  73 102 137 181 231 281 337
#     4  10  22  37  52  74 104 139 181 226 273 325
#     4  10  19  32  54  83 115 150 185 223 270 329
#
# _framework density 21.792740999999999
#
# number of rings (size 3 to 8) (size 9 to 14) (size 15 to 20)
#    0.000    2.286    0.714    3.214    0.000    5.429 
#    0.000    2.857    0.000    0.857    0.000    0.000 
#    0.000    0.000    0.000   11.857    0.000   12.000 
#
# Total GULP energy -311828.071455 kJ/mol
# GULP energy per Si atom -5568.358419 kJ/mol
# Density = 2.174314 g / cm^3
# Si number density = 21.792741 Si / 1000 Ang^3
#
#
#
# Elastic Constant Matrix: (Units=GPa)
#
#
# Indices 1 2 3 4 5 6 
#
# 1 141.8989 15.6762 57.4149 0.0000 0.0000 0.0000
# 2 15.6762 21.0722 21.9770 0.0000 0.0000 0.0000
# 3 57.4149 21.9770 120.8214 0.0000 0.0000 0.0000
# 4 0.0000 0.0000 0.0000 -2.8098 0.0000 0.0000
# 5 0.0000 0.0000 0.0000 0.0000 31.7947 0.0000
# 6 0.0000 0.0000 0.0000 0.0000 0.0000 -16.0571
#
#
#
# Elastic Compliance Matrix: (Units=1/GPa)
#
#
# Indices 1 2 3 4 5 6 
#
# 1 0.008849 -0.002712 -0.003712 0.000000 0.000000 0.000000
# 2 -0.002712 0.059397 -0.009516 0.000000 0.000000 0.000000
# 3 -0.003712 -0.009516 0.011771 0.000000 0.000000 0.000000
# 4 0.000000 0.000000 0.000000 -0.355899 0.000000 0.000000
# 5 0.000000 0.000000 0.000000 0.000000 0.031452 0.000000
# 6 0.000000 0.000000 0.000000 0.000000 0.000000 -0.062278
#
#
# Mechanical properties :
#
#
# Convention : Reuss Voigt Hill
#
# Bulk Modulus (GPa) = 20.77294 52.65874 36.71584
# Shear Modulus (GPa) = -19.32118 15.16720 -2.07699
#
# Velocity S-wave (km/s) = -2.98079 2.64100 -0.97731
# Velocity P-wave (km/s) = 1.51463 5.78927 3.95105
#
# Compressibility (1/GPa) = 0.04813954
#
# Stress axis : x y z
#
# Youngs Moduli (GPa) = 113.01146 16.83573 84.95220
#
# Poissons Ratio (x) = 0.04565 0.31531
# Poissons Ratio (y) = 0.30646 0.80837
# Poissons Ratio (z) = 0.41946 0.16020
#
# Static dielectric constant tensor:
#      x y z
#    x 1.889330 0.000000 0.000000 
#    y 0.000000 1.821390 0.000000 
#    z 0.000000 0.000000 1.807580 
# 
# From -- ./inp_files/31032.got.cif
#   From: 2010.05.17/outbox.cif.g08.bks.cpg/sg47_16_cif.got.tgz:31032.got - 2010.06.03 20:15:42.
