data_PCOD9383509
_publ_section_title
;
Structure prediction by ZEFSAII (Michael W. Deem and Ramdas Pophale) SiO2 
 PCOD9383509
Probable space group: P M M M
;
_chemical_formula_sum "Si O2"
_cell_formula_units_Z 48
_cell_length_a 29.950129
_cell_length_b 8.957959
_cell_length_c 10.360991
_cell_angle_alpha 90.000000
_cell_angle_beta 90.000000
_cell_angle_gamma 90.000000
_cell_volume 2779.771284
_symmetry_space_group_name_H-M "P M M M"
_symmetry_group_IT_number 47
_symmetry_cell_setting 'orthorhombic'
loop_
_space_group_symop_operation_xyz
x,y,z
-x,-y,z
x,-y,-z
-x,y,-z
-x,-y,-z
x,y,-z
-x,y,z
x,-y,z
loop_
_atom_site_type_symbol
_atom_site_label
_atom_site_fract_x
_atom_site_fract_y
_atom_site_fract_z
Si Si1 0.551237 0.318592 0.500000
Si Si2 0.947518 0.320643 0.351693
Si Si3 0.693081 0.177618 0.845468
Si Si4 0.879474 0.178739 0.848758
Si Si5 0.397335 0.679574 0.758783
Si Si6 0.553400 0.175035 0.000000
Si Si7 0.785842 0.671339 0.156545
O O1 0.549506 0.500000 0.500000
O O2 0.500000 0.264999 0.500000
O O3 0.578261 0.274439 0.627083
O O4 0.935844 0.279304 0.500000
O O5 0.942490 0.500000 0.340838
O O6 0.917139 0.241887 0.245699
O O7 0.000000 0.286327 0.332955
O O8 0.652295 0.255817 0.773185
O O9 0.740822 0.243867 0.804080
O O10 0.692125 0.000000 0.827321
O O11 0.687598 0.206389 0.000000
O O12 0.831582 0.246180 0.808145
O O13 0.877816 0.000000 0.842118
O O14 0.887388 0.220013 0.000000
O O15 0.396017 0.500000 0.766258
O O16 0.426012 0.745453 0.875883
O O17 0.500000 0.186385 0.000000
O O18 0.566041 0.000000 0.000000
O O19 0.785827 0.500000 0.201062
O O20 0.785121 0.670218 0.000000
#
# Coordination Sequence:
#
# PCOD9383509 Si02
#       7
#     4   8   8   8   8   4   8
#     4   9  20  38  57  79 107 139 177 221 266 313
#     4   9  19  36  56  77 104 142 187 231 275 324
#     4  10  19  32  52  79 113 143 172 216 268 318
#     4  10  20  33  51  79 113 145 179 222 273 324
#     4  11  21  35  58  82 106 139 180 221 264 318
#     4  11  23  37  53  79 113 141 173 221 270 315
#     4   9  17  30  51  78 107 140 181 222 263 316
#
# _framework density 17.267607999999999
#
# number of rings (size 3 to 8) (size 9 to 14) (size 15 to 20)
#    0.000    2.167    0.833    3.250    0.000    6.000 
#    0.000    4.167    1.833    3.000    0.000    0.000 
#    0.000    0.000    0.000    0.000    0.000    0.000 
#
# Total GULP energy -267874.702594 kJ/mol
# GULP energy per Si atom -5580.722971 kJ/mol
# Density = 1.722831 g / cm^3
# Si number density = 17.267608 Si / 1000 Ang^3
#
#
#
# Elastic Constant Matrix: (Units=GPa)
#
#
# Indices 1 2 3 4 5 6 
#
# 1 155.4060 72.7039 88.6467 0.0000 0.0000 0.0000
# 2 72.7039 81.2513 55.7708 0.0000 0.0000 0.0000
# 3 88.6467 55.7708 114.9926 0.0000 0.0000 0.0000
# 4 0.0000 0.0000 0.0000 4.0803 0.0000 0.0000
# 5 0.0000 0.0000 0.0000 0.0000 24.0516 0.0000
# 6 0.0000 0.0000 0.0000 0.0000 0.0000 29.1051
#
#
#
# Elastic Compliance Matrix: (Units=1/GPa)
#
#
# Indices 1 2 3 4 5 6 
#
# 1 0.014128 -0.007744 -0.007135 0.000000 0.000000 0.000000
# 2 -0.007744 0.022694 -0.005037 0.000000 0.000000 0.000000
# 3 -0.007135 -0.005037 0.016639 0.000000 0.000000 0.000000
# 4 0.000000 0.000000 0.000000 0.245080 0.000000 0.000000
# 5 0.000000 0.000000 0.000000 0.000000 0.041577 0.000000
# 6 0.000000 0.000000 0.000000 0.000000 0.000000 0.034358
#
#
# Mechanical properties :
#
#
# Convention : Reuss Voigt Hill
#
# Bulk Modulus (GPa) = 73.37035 87.32141 80.34588
# Shear Modulus (GPa) = 11.93742 20.41597 16.17669
#
# Velocity S-wave (km/s) = 2.63215 3.44223 3.06408
# Velocity P-wave (km/s) = 7.19861 8.15340 7.69083
#
# Compressibility (1/GPa) = 0.01362948
#
# Stress axis : x y z
#
# Youngs Moduli (GPa) = 70.78344 44.06448 60.09848
#
# Poissons Ratio (x) = 0.34123 0.42881
# Poissons Ratio (y) = 0.54814 0.30270
# Poissons Ratio (z) = 0.50504 0.22194
#
# Static dielectric constant tensor:
#      x y z
#    x 1.571000 0.000000 0.000000 
#    y 0.000000 1.577400 0.000000 
#    z 0.000000 0.000000 1.569110 
# 
# From -- ./inp_files/2725.got.cif
#   From: 2010.05.17/outbox.cif.g08.bks.cpg/sg47_2_cif.got.tgz:2725.got - 2010.06.03 20:15:42.
