data_PCOD9383658
_publ_section_title
;
Structure prediction by ZEFSAII (Michael W. Deem and Ramdas Pophale) SiO2 
 PCOD9383658
Probable space group: P M M M
;
_chemical_formula_sum "Si O2"
_cell_formula_units_Z 52
_cell_length_a 7.710105
_cell_length_b 12.115652
_cell_length_c 30.003924
_cell_angle_alpha 90.000000
_cell_angle_beta 90.000000
_cell_angle_gamma 90.000000
_cell_volume 2802.755024
_symmetry_space_group_name_H-M "P M M M"
_symmetry_group_IT_number 47
_symmetry_cell_setting 'orthorhombic'
loop_
_space_group_symop_operation_xyz
x,y,z
-x,-y,z
x,-y,-z
-x,y,-z
-x,-y,-z
x,y,-z
-x,y,z
x,-y,z
loop_
_atom_site_type_symbol
_atom_site_label
_atom_site_fract_x
_atom_site_fract_y
_atom_site_fract_z
Si Si1 0.793355 0.736031 0.049628
Si Si2 0.290976 0.872417 0.404241
Si Si3 0.207828 0.126767 0.692975
Si Si4 0.706101 0.500000 0.192085
Si Si5 0.293004 0.133941 0.500000
Si Si6 0.291935 0.500000 0.910014
Si Si7 0.212593 0.127365 0.865767
Si Si8 0.792479 0.258668 0.221485
O O1 0.766001 0.610277 0.064975
O O2 0.725942 0.814836 0.088827
O O3 0.000000 0.754825 0.047477
O O4 0.721849 0.754126 0.000000
O O5 0.500000 0.874200 0.406522
O O6 0.243945 0.824903 0.356180
O O7 0.226249 0.825965 0.451814
O O8 0.229657 0.000000 0.402453
O O9 0.274696 0.200840 0.733619
O O10 0.000000 0.120110 0.697065
O O11 0.275156 0.000000 0.695551
O O12 0.500000 0.500000 0.188627
O O13 0.775330 0.500000 0.141073
O O14 0.758256 0.388085 0.216705
O O15 0.500000 0.154819 0.500000
O O16 0.272828 0.000000 0.500000
O O17 0.500000 0.500000 0.908977
O O18 0.272516 0.196592 0.822879
O O19 0.000000 0.130300 0.865843
O O20 0.263986 0.000000 0.862760
O O21 0.000000 0.244373 0.221653
#
# Coordination Sequence:
#
# PCOD9383658 Si02
#       8
#     8   8   8   4   4   4   8   8
#     4  10  20  33  52  77 100 122 153 193 230 269
#     4   8  13  22  37  57  84 122 163 197 230 267
#     4   9  17  28  43  67  97 124 154 192 230 274
#     4  11  23  36  52  73  94 115 149 198 239 272
#     4   7  10  18  33  53  79 116 163 202 225 259
#     4  11  22  36  53  72  96 124 153 189 235 282
#     4   9  17  30  50  74  97 122 153 187 224 269
#     4  10  19  33  53  71  91 123 157 187 228 282
#
# _framework density 18.553175
#
# number of rings (size 3 to 8) (size 9 to 14) (size 15 to 20)
#    0.000    2.692    1.538    2.077    0.000    4.615 
#    0.000    1.923    0.000    5.077    0.000    1.077 
#    0.000    0.615    0.000    6.923    0.000    4.923 
#
# Total GULP energy -289826.725902 kJ/mol
# GULP energy per Si atom -5573.590883 kJ/mol
# Density = 1.851095 g / cm^3
# Si number density = 18.553175 Si / 1000 Ang^3
#
#
#
# Elastic Constant Matrix: (Units=GPa)
#
#
# Indices 1 2 3 4 5 6 
#
# 1 29.2411 -4.0318 10.4742 0.0000 0.0000 0.0000
# 2 -4.0318 104.1123 82.6511 0.0000 0.0000 0.0000
# 3 10.4742 82.6511 220.5082 0.0000 0.0000 0.0000
# 4 0.0000 0.0000 0.0000 4.5149 0.0000 0.0000
# 5 0.0000 0.0000 0.0000 0.0000 21.2379 0.0000
# 6 0.0000 0.0000 0.0000 0.0000 0.0000 -12.3171
#
#
#
# Elastic Compliance Matrix: (Units=1/GPa)
#
#
# Indices 1 2 3 4 5 6 
#
# 1 0.035871 0.003903 -0.003167 0.000000 0.000000 0.000000
# 2 0.003903 0.014098 -0.005470 0.000000 0.000000 0.000000
# 3 -0.003167 -0.005470 0.006736 0.000000 0.000000 0.000000
# 4 0.000000 0.000000 0.000000 0.221487 0.000000 0.000000
# 5 0.000000 0.000000 0.000000 0.000000 0.047086 0.000000
# 6 0.000000 0.000000 0.000000 0.000000 0.000000 -0.081188
#
#
# Mechanical properties :
#
#
# Convention : Reuss Voigt Hill
#
# Bulk Modulus (GPa) = 21.16935 59.11649 40.14292
# Shear Modulus (GPa) = 18.56647 20.33838 19.45242
#
# Velocity S-wave (km/s) = 3.16684 3.31451 3.24152
# Velocity P-wave (km/s) = 4.98063 6.82499 5.97441
#
# Compressibility (1/GPa) = 0.04723810
#
# Stress axis : x y z
#
# Youngs Moduli (GPa) = 27.87768 70.92983 148.46498
#
# Poissons Ratio (x) = -0.27685 0.47017
# Poissons Ratio (y) = -0.10881 0.81207
# Poissons Ratio (z) = 0.08829 0.38797
#
# Static dielectric constant tensor:
#      x y z
#    x 1.689750 0.000000 0.000000 
#    y 0.000000 1.540000 0.000000 
#    z 0.000000 0.000000 1.697650 
# 
# From -- ./inp_files/34353.got.cif
#   From: 2010.05.17/outbox.cif.g08.bks.cpg/sg47_18_cif.got.tgz:34353.got - 2010.06.03 20:15:42.
