data_PCOD9383566
_publ_section_title
;
Structure prediction by ZEFSAII (Michael W. Deem and Ramdas Pophale) SiO2 
 PCOD9383566
Probable space group: P M M M
;
_chemical_formula_sum "Si O2"
_cell_formula_units_Z 52
_cell_length_a 7.474772
_cell_length_b 14.604100
_cell_length_c 25.659224
_cell_angle_alpha 90.000000
_cell_angle_beta 90.000000
_cell_angle_gamma 90.000000
_cell_volume 2801.020364
_symmetry_space_group_name_H-M "P M M M"
_symmetry_group_IT_number 47
_symmetry_cell_setting 'orthorhombic'
loop_
_space_group_symop_operation_xyz
x,y,z
-x,-y,z
x,-y,-z
-x,y,-z
-x,-y,-z
x,y,-z
-x,y,z
x,-y,z
loop_
_atom_site_type_symbol
_atom_site_label
_atom_site_fract_x
_atom_site_fract_y
_atom_site_fract_z
Si Si1 0.000000 0.108062 0.437752
Si Si2 0.715084 0.398414 0.790692
Si Si3 0.280904 0.786518 0.840365
Si Si4 0.282233 0.104811 0.737620
Si Si5 0.718092 0.105582 0.941340
Si Si6 0.787900 0.396828 0.331678
Si Si7 0.294809 0.798184 0.369022
O O1 0.170209 0.158908 0.412838
O O2 0.000000 0.114940 0.500000
O O3 0.000000 0.000000 0.423654
O O4 0.500000 0.400331 0.794954
O O5 0.783587 0.500000 0.803092
O O6 0.778946 0.316064 0.826830
O O7 0.754571 0.379834 0.729863
O O8 0.500000 0.786668 0.840896
O O9 0.224919 0.849232 0.791570
O O10 0.221373 0.828848 0.894989
O O11 0.500000 0.105571 0.738416
O O12 0.229640 0.162143 0.686807
O O13 0.223656 0.000000 0.733565
O O14 0.500000 0.106664 0.941137
O O15 0.770557 0.000000 0.931450
O O16 0.774758 0.130653 0.000000
O O17 0.719894 0.500000 0.343014
O O18 0.712726 0.311742 0.363873
O O19 0.000000 0.397166 0.339954
O O20 0.500000 0.826770 0.376443
#
# Coordination Sequence:
#
# PCOD9383566 Si02
#       7
#     4   8   8   8   8   8   8
#     4  11  26  46  65  87 117 155 197 235 271 318
#     4   9  16  26  41  64  95 130 168 208 257 324
#     4   9  14  21  35  56  86 124 162 207 259 314
#     4   9  16  25  41  69 100 130 166 210 266 327
#     4   8  13  20  30  47  76 118 166 211 255 308
#     4  10  19  32  53  82 115 148 181 220 273 337
#     4  11  21  37  61  87 116 149 187 233 284 335
#
# _framework density 18.564662999999999
#
# number of rings (size 3 to 8) (size 9 to 14) (size 15 to 20)
#    0.000    2.538    2.308    1.846    0.000    4.000 
#    0.000    0.769    0.000    1.385    0.000    4.308 
#    0.000    0.615    0.000    5.538    1.846    5.538 
#
# Total GULP energy -290207.428712 kJ/mol
# GULP energy per Si atom -5580.912091 kJ/mol
# Density = 1.852241 g / cm^3
# Si number density = 18.564663 Si / 1000 Ang^3
#
#
#
# Elastic Constant Matrix: (Units=GPa)
#
#
# Indices 1 2 3 4 5 6 
#
# 1 70.4948 22.2974 26.2050 0.0000 0.0000 0.0000
# 2 22.2974 149.4820 75.7126 0.0000 0.0000 0.0000
# 3 26.2050 75.7126 106.0682 0.0000 0.0000 0.0000
# 4 0.0000 0.0000 0.0000 24.0075 0.0000 0.0000
# 5 0.0000 0.0000 0.0000 0.0000 31.3444 0.0000
# 6 0.0000 0.0000 0.0000 0.0000 0.0000 6.5037
#
#
#
# Elastic Compliance Matrix: (Units=1/GPa)
#
#
# Indices 1 2 3 4 5 6 
#
# 1 0.015653 -0.000589 -0.003447 0.000000 0.000000 0.000000
# 2 -0.000589 0.010500 -0.007350 0.000000 0.000000 0.000000
# 3 -0.003447 -0.007350 0.015526 0.000000 0.000000 0.000000
# 4 0.000000 0.000000 0.000000 0.041654 0.000000 0.000000
# 5 0.000000 0.000000 0.000000 0.000000 0.031904 0.000000
# 6 0.000000 0.000000 0.000000 0.000000 0.000000 0.153759
#
#
# Mechanical properties :
#
#
# Convention : Reuss Voigt Hill
#
# Bulk Modulus (GPa) = 52.88754 63.83056 58.35905
# Shear Modulus (GPa) = 16.77468 25.82644 21.30056
#
# Velocity S-wave (km/s) = 3.00922 3.73387 3.39096
# Velocity P-wave (km/s) = 6.37370 7.28331 6.84363
#
# Compressibility (1/GPa) = 0.01890805
#
# Stress axis : x y z
#
# Youngs Moduli (GPa) = 63.88548 95.23606 64.40950
#
# Poissons Ratio (x) = 0.05611 0.22200
# Poissons Ratio (y) = 0.03764 0.47339
# Poissons Ratio (z) = 0.22019 0.69995
#
# Static dielectric constant tensor:
#      x y z
#    x 1.837770 0.000000 0.000000 
#    y 0.000000 1.660890 0.000000 
#    z 0.000000 0.000000 1.595040 
# 
# From -- ./inp_files/32015.got.cif
#   From: 2010.05.17/outbox.cif.g08.bks.cpg/sg47_17_cif.got.tgz:32015.got - 2010.06.03 20:15:42.
