data_PCOD9383833
_publ_section_title
;
Structure prediction by ZEFSAII (Michael W. Deem and Ramdas Pophale) SiO2 
 PCOD9383833
Probable space group: P M M M
;
_chemical_formula_sum "Si O2"
_cell_formula_units_Z 52
_cell_length_a 9.229993
_cell_length_b 20.494930
_cell_length_c 16.336588
_cell_angle_alpha 90.000000
_cell_angle_beta 90.000000
_cell_angle_gamma 90.000000
_cell_volume 3090.360666
_symmetry_space_group_name_H-M "P M M M"
_symmetry_group_IT_number 47
_symmetry_cell_setting 'orthorhombic'
loop_
_space_group_symop_operation_xyz
x,y,z
-x,-y,z
x,-y,-z
-x,y,-z
-x,-y,-z
x,y,-z
-x,y,z
x,-y,z
loop_
_atom_site_type_symbol
_atom_site_label
_atom_site_fract_x
_atom_site_fract_y
_atom_site_fract_z
Si Si1 0.323811 0.075892 0.907960
Si Si2 0.672517 0.321480 0.802156
Si Si3 0.829740 0.345601 0.635082
Si Si4 0.674372 0.172138 0.236525
Si Si5 0.828258 0.806324 0.592583
Si Si6 0.664815 0.422694 0.500000
Si Si7 0.167371 0.427046 0.901880
O O1 0.500000 0.078522 0.908016
O O2 0.276224 0.119577 0.831234
O O3 0.282847 0.000000 0.897946
O O4 0.277730 0.097178 0.000000
O O5 0.500000 0.328263 0.797750
O O6 0.750700 0.347092 0.721226
O O7 0.705067 0.243937 0.801547
O O8 0.736350 0.366924 0.872646
O O9 0.812620 0.272244 0.599420
O O10 0.751239 0.395987 0.576998
O O11 0.000000 0.358485 0.642056
O O12 0.500000 0.167103 0.246779
O O13 0.746713 0.166814 0.326604
O O14 0.780414 0.825974 0.500000
O O15 0.000000 0.820862 0.599259
O O16 0.660770 0.500000 0.500000
O O17 0.500000 0.397255 0.500000
O O18 0.214893 0.500000 0.873794
O O19 0.000000 0.418037 0.875038
O O20 0.167641 0.428327 0.000000
#
# Coordination Sequence:
#
# PCOD9383833 Si02
#       7
#     8   8   8   8   8   4   8
#     4   8  14  27  49  75 104 139 173 204 242 291
#     4  10  20  32  48  74 103 127 154 199 258 304
#     4  10  19  34  52  68  89 122 163 200 237 290
#     4   9  18  30  47  77 106 128 164 209 251 296
#     4   9  17  31  50  71  95 126 164 203 245 294
#     4  11  23  35  47  67  95 123 154 199 252 299
#     4   9  19  36  54  69  88 121 166 208 245 294
#
# _framework density 16.826516000000002
#
# number of rings (size 3 to 8) (size 9 to 14) (size 15 to 20)
#    0.000    2.692    0.769    2.077    0.000    4.000 
#    0.000    2.308    0.000    1.385    0.000    4.308 
#    0.000    0.000    0.000    0.000    0.000    0.000 
#
# Total GULP energy -289574.190444 kJ/mol
# GULP energy per Si atom -5568.734432 kJ/mol
# Density = 1.678822 g / cm^3
# Si number density = 16.826516 Si / 1000 Ang^3
#
#
#
# Elastic Constant Matrix: (Units=GPa)
#
#
# Indices 1 2 3 4 5 6 
#
# 1 46.0185 39.8069 43.7811 0.0000 0.0000 0.0000
# 2 39.8069 65.6113 64.0716 0.0000 0.0000 0.0000
# 3 43.7811 64.0716 119.0628 0.0000 0.0000 0.0000
# 4 0.0000 0.0000 0.0000 45.8528 0.0000 0.0000
# 5 0.0000 0.0000 0.0000 0.0000 30.4631 0.0000
# 6 0.0000 0.0000 0.0000 0.0000 0.0000 14.0811
#
#
#
# Elastic Compliance Matrix: (Units=1/GPa)
#
#
# Indices 1 2 3 4 5 6 
#
# 1 0.046640 -0.024340 -0.004052 0.000000 0.000000 0.000000
# 2 -0.024340 0.044823 -0.015171 0.000000 0.000000 0.000000
# 3 -0.004052 -0.015171 0.018053 0.000000 0.000000 0.000000
# 4 0.000000 0.000000 0.000000 0.021809 0.000000 0.000000
# 5 0.000000 0.000000 0.000000 0.000000 0.032827 0.000000
# 6 0.000000 0.000000 0.000000 0.000000 0.000000 0.071017
#
#
# Mechanical properties :
#
#
# Convention : Reuss Voigt Hill
#
# Bulk Modulus (GPa) = 44.66155 58.44575 51.55365
# Shear Modulus (GPa) = 15.16268 23.61495 19.38881
#
# Velocity S-wave (km/s) = 3.00512 3.75031 3.39820
# Velocity P-wave (km/s) = 6.21619 7.31866 6.78984
#
# Compressibility (1/GPa) = 0.02239062
#
# Stress axis : x y z
#
# Youngs Moduli (GPa) = 21.44085 22.30995 55.39304
#
# Poissons Ratio (x) = 0.54302 0.22446
# Poissons Ratio (y) = 0.52186 0.84035
# Poissons Ratio (z) = 0.08688 0.33846
#
# Static dielectric constant tensor:
#      x y z
#    x 1.560150 0.000000 0.000000 
#    y 0.000000 1.565500 0.000000 
#    z 0.000000 0.000000 1.563290 
# 
# From -- ./inp_files/26718.got.cif
#   From: 2010.05.17/outbox.cif.g08.bks.cpg/sg47_14_cif.got.tgz:26718.got - 2010.06.03 20:15:42.
