data_PCOD9383633
_publ_section_title
;
Structure prediction by ZEFSAII (Michael W. Deem and Ramdas Pophale) SiO2 
 PCOD9383633
Probable space group: P M M M
;
_chemical_formula_sum "Si O2"
_cell_formula_units_Z 64
_cell_length_a 25.213355
_cell_length_b 7.637281
_cell_length_c 15.537580
_cell_angle_alpha 90.000000
_cell_angle_beta 90.000000
_cell_angle_gamma 90.000000
_cell_volume 2991.939355
_symmetry_space_group_name_H-M "P M M M"
_symmetry_group_IT_number 47
_symmetry_cell_setting 'orthorhombic'
loop_
_space_group_symop_operation_xyz
x,y,z
-x,-y,z
x,-y,-z
-x,y,-z
-x,-y,-z
x,y,-z
-x,y,z
x,-y,z
loop_
_atom_site_type_symbol
_atom_site_label
_atom_site_fract_x
_atom_site_fract_y
_atom_site_fract_z
Si Si1 0.361984 0.303681 0.251595
Si Si2 0.841727 0.785610 0.401246
Si Si3 0.246187 0.798450 0.271540
Si Si4 0.941798 0.786294 0.714780
Si Si5 0.208551 0.790289 0.908035
Si Si6 0.559898 0.789257 0.098199
Si Si7 0.918490 0.208972 0.906324
Si Si8 0.561377 0.788192 0.596275
O O1 0.342864 0.500000 0.242195
O O2 0.309369 0.199806 0.277012
O O3 0.394514 0.256722 0.165653
O O4 0.403140 0.287345 0.329219
O O5 0.843730 0.725227 0.500000
O O6 0.788350 0.727969 0.350764
O O7 0.892448 0.730445 0.343934
O O8 0.842640 0.000000 0.404835
O O9 0.232145 0.715967 0.179310
O O10 0.227693 0.000000 0.265467
O O11 0.937948 0.724252 0.814143
O O12 0.000000 0.738616 0.680468
O O13 0.939047 0.000000 0.717808
O O14 0.145159 0.771555 0.904409
O O15 0.219680 0.000000 0.909990
O O16 0.227579 0.718777 0.000000
O O17 0.500000 0.729493 0.123550
O O18 0.557964 0.000000 0.096306
O O19 0.569866 0.729133 0.000000
O O20 0.930106 0.000000 0.907300
O O21 0.936615 0.278230 0.000000
O O22 0.578420 0.737460 0.500000
O O23 0.500000 0.737841 0.606904
O O24 0.563592 0.000000 0.601634
#
# Coordination Sequence:
#
# PCOD9383633 Si02
#       8
#     8   8   8   8   8   8   8   8
#     4  12  25  36  51  81 118 149 177 218 276 335
#     4   9  17  29  44  62  85 118 165 216 262 313
#     4  10  19  33  51  68  91 130 179 223 258 303
#     4   9  15  22  34  56  89 125 157 196 253 320
#     4   8  13  23  42  64  83 110 156 210 252 286
#     4   9  19  38  63  87 112 148 194 235 266 305
#     4   8  12  19  32  52  81 116 152 190 236 294
#     4   9  19  38  63  86 107 136 177 222 265 314
#
# _framework density 21.390808
#
# number of rings (size 3 to 8) (size 9 to 14) (size 15 to 20)
#    0.000    2.750    1.250    3.000    0.000    4.000 
#    0.000    6.250    0.000    0.000    0.000    0.000 
#    0.000    0.500    0.000    1.125    0.000    5.250 
#
# Total GULP energy -356880.615029 kJ/mol
# GULP energy per Si atom -5576.259610 kJ/mol
# Density = 2.134212 g / cm^3
# Si number density = 21.390808 Si / 1000 Ang^3
#
#
#
# Elastic Constant Matrix: (Units=GPa)
#
#
# Indices 1 2 3 4 5 6 
#
# 1 99.9431 1.6546 91.5583 0.0000 0.0000 0.0000
# 2 1.6546 40.3765 8.5774 0.0000 0.0000 0.0000
# 3 91.5583 8.5774 181.9980 0.0000 0.0000 0.0000
# 4 0.0000 0.0000 0.0000 23.3412 0.0000 0.0000
# 5 0.0000 0.0000 0.0000 0.0000 -27.0566 0.0000
# 6 0.0000 0.0000 0.0000 0.0000 0.0000 -43.5280
#
#
#
# Elastic Compliance Matrix: (Units=1/GPa)
#
#
# Indices 1 2 3 4 5 6 
#
# 1 0.018620 0.001239 -0.009426 0.000000 0.000000 0.000000
# 2 0.001239 0.025100 -0.001806 0.000000 0.000000 0.000000
# 3 -0.009426 -0.001806 0.010321 0.000000 0.000000 0.000000
# 4 0.000000 0.000000 0.000000 0.042843 0.000000 0.000000
# 5 0.000000 0.000000 0.000000 0.000000 -0.036960 0.000000
# 6 0.000000 0.000000 0.000000 0.000000 0.000000 -0.022974
#
#
# Mechanical properties :
#
#
# Convention : Reuss Voigt Hill
#
# Bulk Modulus (GPa) = 29.36349 58.43314 43.89831
# Shear Modulus (GPa) = 73.21900 5.25314 39.23607
#
# Velocity S-wave (km/s) = 5.85692 1.56880 4.28746
# Velocity P-wave (km/s) = 7.71330 5.53694 6.71389
#
# Compressibility (1/GPa) = 0.03405590
#
# Stress axis : x y z
#
# Youngs Moduli (GPa) = 53.70549 39.84094 96.88515
#
# Poissons Ratio (x) = -0.04938 0.91321
# Poissons Ratio (y) = -0.06656 0.17501
# Poissons Ratio (z) = 0.50621 0.07197
#
# Static dielectric constant tensor:
#      x y z
#    x 1.763450 0.000000 0.000000 
#    y 0.000000 1.816060 0.000000 
#    z 0.000000 0.000000 1.779740 
# 
# From -- ./inp_files/25532.got.cif
#   From: 2010.05.17/outbox.cif.g08.bks.cpg/sg47_13_cif.got.tgz:25532.got - 2010.06.03 20:15:42.
