data_PCOD9383469
_publ_section_title
;
Structure prediction by ZEFSAII (Michael W. Deem and Ramdas Pophale) SiO2 
 PCOD9383469
Probable space group: P M M M
;
_chemical_formula_sum "Si O2"
_cell_formula_units_Z 60
_cell_length_a 19.815582
_cell_length_b 19.529343
_cell_length_c 9.530960
_cell_angle_alpha 90.000000
_cell_angle_beta 90.000000
_cell_angle_gamma 90.000000
_cell_volume 3688.341392
_symmetry_space_group_name_H-M "P M M M"
_symmetry_group_IT_number 47
_symmetry_cell_setting 'orthorhombic'
loop_
_space_group_symop_operation_xyz
x,y,z
-x,-y,z
x,-y,-z
-x,y,-z
-x,-y,-z
x,y,-z
-x,y,z
x,-y,z
loop_
_atom_site_type_symbol
_atom_site_label
_atom_site_fract_x
_atom_site_fract_y
_atom_site_fract_z
Si Si1 0.078139 0.241423 0.834266
Si Si2 0.782913 0.823760 0.164569
Si Si3 0.123196 0.626823 0.338754
Si Si4 0.920843 0.500000 0.154435
Si Si5 0.579236 0.193569 0.666808
Si Si6 0.325524 0.705704 0.166832
Si Si7 0.686791 0.921121 0.667725
Si Si8 0.278587 0.418821 0.339157
O O1 0.137534 0.186455 0.809746
O O2 0.098245 0.304256 0.734864
O O3 0.000000 0.221057 0.810691
O O4 0.083702 0.261396 0.000000
O O5 0.742015 0.752473 0.191582
O O6 0.747579 0.881550 0.256785
O O7 0.773108 0.839080 0.000000
O O8 0.099889 0.623651 0.500000
O O9 0.096550 0.565803 0.244011
O O10 0.203377 0.613076 0.339857
O O11 0.000000 0.500000 0.136150
O O12 0.887764 0.500000 0.000000
O O13 0.587917 0.207784 0.500000
O O14 0.500000 0.187892 0.695801
O O15 0.615199 0.252238 0.757233
O O16 0.619624 0.123336 0.697304
O O17 0.318418 0.630872 0.234887
O O18 0.335104 0.701660 0.000000
O O19 0.697071 0.919359 0.500000
O O20 0.680992 0.000000 0.711581
O O21 0.304073 0.413987 0.500000
O O22 0.276099 0.500000 0.302585
#
# Coordination Sequence:
#
# PCOD9383469 Si02
#       8
#     8   8   8   4   8   8   8   8
#     4  10  20  34  50  69  96 129 168 215 264 311
#     4   9  18  32  50  73  99 132 173 212 253 302
#     4  11  21  33  48  68  93 123 162 211 263 314
#     4  11  23  35  45  59  87 129 168 203 254 319
#     4   9  18  33  54  80 110 143 171 197 238 293
#     4  10  19  32  52  76 101 132 171 214 254 296
#     4   9  18  32  52  80 110 139 170 204 243 289
#     4  10  20  34  50  70  97 130 167 211 262 310
#
# _framework density 16.267475000000001
#
# number of rings (size 3 to 8) (size 9 to 14) (size 15 to 20)
#    0.000    2.200    2.000    1.400    0.000    5.067 
#    0.000    1.333    0.000    0.800    0.000    9.333 
#    0.000    0.000    0.000    0.000    0.000    0.000 
#
# Total GULP energy -334351.025824 kJ/mol
# GULP energy per Si atom -5572.517097 kJ/mol
# Density = 1.623045 g / cm^3
# Si number density = 16.267475 Si / 1000 Ang^3
#
#
#
# Elastic Constant Matrix: (Units=GPa)
#
#
# Indices 1 2 3 4 5 6 
#
# 1 107.3534 60.3366 60.4990 0.0000 0.0000 0.0000
# 2 60.3366 91.9536 60.2676 0.0000 0.0000 0.0000
# 3 60.4990 60.2676 80.9142 0.0000 0.0000 0.0000
# 4 0.0000 0.0000 0.0000 26.9395 0.0000 0.0000
# 5 0.0000 0.0000 0.0000 0.0000 22.9323 0.0000
# 6 0.0000 0.0000 0.0000 0.0000 0.0000 13.9280
#
#
#
# Elastic Compliance Matrix: (Units=1/GPa)
#
#
# Indices 1 2 3 4 5 6 
#
# 1 0.017494 -0.005678 -0.008851 0.000000 0.000000 0.000000
# 2 -0.005678 0.023090 -0.012953 0.000000 0.000000 0.000000
# 3 -0.008851 -0.012953 0.028625 0.000000 0.000000 0.000000
# 4 0.000000 0.000000 0.000000 0.037120 0.000000 0.000000
# 5 0.000000 0.000000 0.000000 0.000000 0.043607 0.000000
# 6 0.000000 0.000000 0.000000 0.000000 0.000000 0.071798
#
#
# Mechanical properties :
#
#
# Convention : Reuss Voigt Hill
#
# Bulk Modulus (GPa) = 70.20122 71.38084 70.79103
# Shear Modulus (GPa) = 17.76531 19.36781 18.56656
#
# Velocity S-wave (km/s) = 3.30824 3.45423 3.38202
# Velocity P-wave (km/s) = 7.60530 7.73845 7.67217
#
# Compressibility (1/GPa) = 0.01424477
#
# Stress axis : x y z
#
# Youngs Moduli (GPa) = 57.16119 43.30818 34.93473
#
# Poissons Ratio (x) = 0.24590 0.30922
# Poissons Ratio (y) = 0.32455 0.45251
# Poissons Ratio (z) = 0.50595 0.56098
#
# Static dielectric constant tensor:
#      x y z
#    x 1.551160 0.000000 0.000000 
#    y 0.000000 1.534000 0.000000 
#    z 0.000000 0.000000 1.559660 
# 
# From -- ./inp_files/11559.got.cif
#   From: 2010.05.17/outbox.cif.g08.bks.cpg/sg47_6_cif.got.tgz:11559.got - 2010.06.03 20:15:42.
