data_PCOD9383449
_publ_section_title
;
Structure prediction by ZEFSAII (Michael W. Deem and Ramdas Pophale) SiO2 
 PCOD9383449
Probable space group: P M M M
;
_chemical_formula_sum "Si O2"
_cell_formula_units_Z 64
_cell_length_a 9.149248
_cell_length_b 18.094534
_cell_length_c 23.417671
_cell_angle_alpha 90.000000
_cell_angle_beta 90.000000
_cell_angle_gamma 90.000000
_cell_volume 3876.827727
_symmetry_space_group_name_H-M "P M M M"
_symmetry_group_IT_number 47
_symmetry_cell_setting 'orthorhombic'
loop_
_space_group_symop_operation_xyz
x,y,z
-x,-y,z
x,-y,-z
-x,y,-z
-x,-y,-z
x,y,-z
-x,y,z
x,-y,z
loop_
_atom_site_type_symbol
_atom_site_label
_atom_site_fract_x
_atom_site_fract_y
_atom_site_fract_z
Si Si1 0.173067 0.912638 0.343370
Si Si2 0.673193 0.767159 0.067264
Si Si3 0.825104 0.291279 0.171219
Si Si4 0.175600 0.415623 0.737539
Si Si5 0.167957 0.917761 0.930782
Si Si6 0.667699 0.184215 0.744755
Si Si7 0.676372 0.805335 0.433158
Si Si8 0.333731 0.684011 0.650714
O O1 0.252295 0.883397 0.286190
O O2 0.243493 0.867750 0.396043
O O3 0.000000 0.896528 0.340026
O O4 0.193267 0.000000 0.350421
O O5 0.500000 0.761958 0.075486
O O6 0.756762 0.710868 0.108450
O O7 0.729244 0.849417 0.083438
O O8 0.705455 0.756109 0.000000
O O9 0.783032 0.362749 0.209231
O O10 0.758750 0.220604 0.204346
O O11 0.000000 0.286761 0.169053
O O12 0.224886 0.500000 0.744611
O O13 0.238099 0.378797 0.680065
O O14 0.000000 0.414682 0.734683
O O15 0.000000 0.903963 0.912382
O O16 0.212128 0.000000 0.910790
O O17 0.165954 0.920630 0.000000
O O18 0.500000 0.167931 0.760718
O O19 0.664221 0.248600 0.696449
O O20 0.708727 0.810831 0.500000
O O21 0.500000 0.812575 0.425226
O O22 0.717419 0.725303 0.406628
O O23 0.500000 0.657785 0.643176
#
# Coordination Sequence:
#
# PCOD9383449 Si02
#       8
#     8   8   8   8   8   8   8   8
#     4  10  20  32  46  67  97 130 165 208 253 293
#     4  10  20  32  47  69  98 131 165 200 237 282
#     4  10  19  32  52  74  97 124 154 193 238 286
#     4   9  18  32  51  76 101 122 148 187 236 288
#     4   8  14  26  44  64  86 114 150 191 231 269
#     4   9  17  31  50  69  91 120 156 198 242 288
#     4   9  18  32  49  69  95 130 171 210 245 285
#     4   8  15  28  47  71  95 120 153 192 233 278
#
# _framework density 16.508341999999999
#
# number of rings (size 3 to 8) (size 9 to 14) (size 15 to 20)
#    0.000    2.875    0.000    2.625    0.000    6.250 
#    0.000    3.125    0.000    4.500    0.000    5.250 
#    0.000    0.000    0.000    0.000    0.000    0.000 
#
# Total GULP energy -356476.707633 kJ/mol
# GULP energy per Si atom -5569.948557 kJ/mol
# Density = 1.647077 g / cm^3
# Si number density = 16.508342 Si / 1000 Ang^3
#
#
#
# Elastic Constant Matrix: (Units=GPa)
#
#
# Indices 1 2 3 4 5 6 
#
# 1 64.8266 50.2901 44.6119 0.0000 0.0000 0.0000
# 2 50.2901 95.7124 50.4457 0.0000 0.0000 0.0000
# 3 44.6119 50.4457 74.7016 0.0000 0.0000 0.0000
# 4 0.0000 0.0000 0.0000 16.6799 0.0000 0.0000
# 5 0.0000 0.0000 0.0000 0.0000 23.9007 0.0000
# 6 0.0000 0.0000 0.0000 0.0000 0.0000 17.0362
#
#
#
# Elastic Compliance Matrix: (Units=1/GPa)
#
#
# Indices 1 2 3 4 5 6 
#
# 1 0.031657 -0.010355 -0.011913 0.000000 0.000000 0.000000
# 2 -0.010355 0.019608 -0.007058 0.000000 0.000000 0.000000
# 3 -0.011913 -0.007058 0.025267 0.000000 0.000000 0.000000
# 4 0.000000 0.000000 0.000000 0.059952 0.000000 0.000000
# 5 0.000000 0.000000 0.000000 0.000000 0.041840 0.000000
# 6 0.000000 0.000000 0.000000 0.000000 0.000000 0.058698
#
#
# Mechanical properties :
#
#
# Convention : Reuss Voigt Hill
#
# Bulk Modulus (GPa) = 55.92340 58.43733 57.18036
# Shear Modulus (GPa) = 16.57640 17.51622 17.04631
#
# Velocity S-wave (km/s) = 3.17223 3.26091 3.21688
# Velocity P-wave (km/s) = 6.88235 7.04653 6.96492
#
# Compressibility (1/GPa) = 0.01788160
#
# Stress axis : x y z
#
# Youngs Moduli (GPa) = 31.58900 50.99870 39.57718
#
# Poissons Ratio (x) = 0.52807 0.47148
# Poissons Ratio (y) = 0.32709 0.27932
# Poissons Ratio (z) = 0.37632 0.35993
#
# Static dielectric constant tensor:
#      x y z
#    x 1.558370 0.000000 0.000000 
#    y 0.000000 1.549940 0.000000 
#    z 0.000000 0.000000 1.571770 
# 
# From -- ./inp_files/32206.got.cif
#   From: 2010.05.17/outbox.cif.g08.bks.cpg/sg47_17_cif.got.tgz:32206.got - 2010.06.03 20:15:42.
