data_PCOD9383728
_publ_section_title
;
Structure prediction by ZEFSAII (Michael W. Deem and Ramdas Pophale) SiO2 
 PCOD9383728
Probable space group: P M M M
;
_chemical_formula_sum "Si O2"
_cell_formula_units_Z 48
_cell_length_a 7.685987
_cell_length_b 18.205671
_cell_length_c 16.074274
_cell_angle_alpha 90.000000
_cell_angle_beta 90.000000
_cell_angle_gamma 90.000000
_cell_volume 2249.249863
_symmetry_space_group_name_H-M "P M M M"
_symmetry_group_IT_number 47
_symmetry_cell_setting 'orthorhombic'
loop_
_space_group_symop_operation_xyz
x,y,z
-x,-y,z
x,-y,-z
-x,y,-z
-x,-y,-z
x,y,-z
-x,y,z
x,-y,z
loop_
_atom_site_type_symbol
_atom_site_label
_atom_site_fract_x
_atom_site_fract_y
_atom_site_fract_z
Si Si1 0.701733 0.858145 0.092524
Si Si2 0.712932 0.917165 0.266468
Si Si3 0.798119 0.304313 0.137544
Si Si4 0.207474 0.500000 0.594637
Si Si5 0.212690 0.417064 0.000000
Si Si6 0.712505 0.197029 0.407381
Si Si7 0.706198 0.344871 0.676933
O O1 0.500000 0.881241 0.087637
O O2 0.777286 0.898199 0.173555
O O3 0.706161 0.771791 0.115412
O O4 0.777969 0.869206 0.000000
O O5 0.500000 0.913151 0.264506
O O6 0.770852 0.857683 0.334448
O O7 0.760582 0.000000 0.289473
O O8 0.733003 0.370535 0.080151
O O9 0.784091 0.327627 0.233012
O O10 0.000000 0.291577 0.116698
O O11 0.277823 0.500000 0.500000
O O12 0.258893 0.574270 0.642223
O O13 0.000000 0.500000 0.590121
O O14 0.276565 0.500000 0.000000
O O15 0.000000 0.420261 0.000000
O O16 0.770389 0.176457 0.500000
O O17 0.500000 0.195042 0.407602
O O18 0.765238 0.280232 0.385154
O O19 0.500000 0.336698 0.686837
#
# Coordination Sequence:
#
# PCOD9383728 Si02
#       7
#     8   8   8   4   4   8   8
#     4  10  19  33  54  79 110 146 186 235 285 339
#     4   9  17  30  49  78 115 148 183 233 290 344
#     4  11  21  35  57  82 109 147 191 233 283 342
#     4  11  25  43  61  86 119 152 191 237 286 344
#     4   9  20  36  53  77 108 141 179 227 280 338
#     4   9  17  30  51  79 110 145 184 228 280 338
#     4  11  22  38  59  84 116 151 191 237 289 341
#
# _framework density 21.340449
#
# number of rings (size 3 to 8) (size 9 to 14) (size 15 to 20)
#    0.000    2.000    2.500    1.750    1.167    2.000 
#    0.000    3.333    0.000    2.500    0.000    1.167 
#    0.000    1.333    0.000    0.000    0.000    0.000 
#
# Total GULP energy -268107.794760 kJ/mol
# GULP energy per Si atom -5585.579058 kJ/mol
# Density = 2.129188 g / cm^3
# Si number density = 21.340449 Si / 1000 Ang^3
#
#
#
# Elastic Constant Matrix: (Units=GPa)
#
#
# Indices 1 2 3 4 5 6 
#
# 1 41.3436 -5.0196 -1.7190 0.0000 0.0000 0.0000
# 2 -5.0196 122.3717 52.8041 0.0000 0.0000 0.0000
# 3 -1.7190 52.8041 165.1786 0.0000 0.0000 0.0000
# 4 0.0000 0.0000 0.0000 18.5080 0.0000 0.0000
# 5 0.0000 0.0000 0.0000 0.0000 5.1698 0.0000
# 6 0.0000 0.0000 0.0000 0.0000 0.0000 142.7763
#
#
#
# Elastic Compliance Matrix: (Units=1/GPa)
#
#
# Indices 1 2 3 4 5 6 
#
# 1 0.024309 0.001030 -0.000076 0.000000 0.000000 0.000000
# 2 0.001030 0.009523 -0.003034 0.000000 0.000000 0.000000
# 3 -0.000076 -0.003034 0.007023 0.000000 0.000000 0.000000
# 4 0.000000 0.000000 0.000000 0.054031 0.000000 0.000000
# 5 0.000000 0.000000 0.000000 0.000000 0.193430 0.000000
# 6 0.000000 0.000000 0.000000 0.000000 0.000000 0.007004
#
#
# Mechanical properties :
#
#
# Convention : Reuss Voigt Hill
#
# Bulk Modulus (GPa) = 27.25099 46.78054 37.01576
# Shear Modulus (GPa) = 16.04048 52.14606 34.09327
#
# Velocity S-wave (km/s) = 2.74459 4.94857 4.00132
# Velocity P-wave (km/s) = 4.77923 7.39052 6.22338
#
# Compressibility (1/GPa) = 0.03669592
#
# Stress axis : x y z
#
# Youngs Moduli (GPa) = 41.13627 105.00787 142.38847
#
# Poissons Ratio (x) = -0.10817 0.01087
# Poissons Ratio (y) = -0.04237 0.43195
# Poissons Ratio (z) = 0.00314 0.31855
#
# Static dielectric constant tensor:
#      x y z
#    x 1.791760 0.000000 0.000000 
#    y 0.000000 1.605690 0.000000 
#    z 0.000000 0.000000 1.770560 
# 
# From -- ./inp_files/21071.got.cif
#   From: 2010.05.17/outbox.cif.g08.bks.cpg/sg47_11_cif.got.tgz:21071.got - 2010.06.03 20:15:42.
