data_PCOD9383333
_publ_section_title
;
Structure prediction by ZEFSAII (Michael W. Deem and Ramdas Pophale) SiO2 
 PCOD9383333
Probable space group: P M M M
;
_chemical_formula_sum "Si O2"
_cell_formula_units_Z 56
_cell_length_a 7.930340
_cell_length_b 15.795513
_cell_length_c 21.905665
_cell_angle_alpha 90.000000
_cell_angle_beta 90.000000
_cell_angle_gamma 90.000000
_cell_volume 2743.986589
_symmetry_space_group_name_H-M "P M M M"
_symmetry_group_IT_number 47
_symmetry_cell_setting 'orthorhombic'
loop_
_space_group_symop_operation_xyz
x,y,z
-x,-y,z
x,-y,-z
-x,y,-z
-x,-y,-z
x,y,-z
-x,y,z
x,-y,z
loop_
_atom_site_type_symbol
_atom_site_label
_atom_site_fract_x
_atom_site_fract_y
_atom_site_fract_z
Si Si1 0.692648 0.859690 0.634574
Si Si2 0.206115 0.596322 0.500000
Si Si3 0.691339 0.735376 0.835750
Si Si4 0.798827 0.324626 0.625699
Si Si5 0.798692 0.407687 0.251661
Si Si6 0.294427 0.595638 0.071515
Si Si7 0.306225 0.101020 0.500000
Si Si8 0.801169 0.092071 0.769580
O O1 0.500000 0.890313 0.630898
O O2 0.703480 0.759569 0.644088
O O3 0.769607 0.874459 0.566414
O O4 0.767576 0.896969 0.696855
O O5 0.263631 0.500000 0.500000
O O6 0.259390 0.644417 0.560290
O O7 0.000000 0.594991 0.500000
O O8 0.500000 0.750031 0.854736
O O9 0.705856 0.669055 0.780332
O O10 0.770731 0.676059 0.889462
O O11 0.750115 0.825733 0.809255
O O12 0.777536 0.396387 0.676166
O O13 0.000000 0.304907 0.623763
O O14 0.739298 0.500000 0.231924
O O15 0.000000 0.400285 0.239211
O O16 0.500000 0.594545 0.077353
O O17 0.236663 0.500000 0.089807
O O18 0.255202 0.605764 0.000000
O O19 0.500000 0.135067 0.500000
O O20 0.311512 0.000000 0.500000
O O21 0.000000 0.088029 0.776892
O O22 0.727472 0.000000 0.788067
#
# Coordination Sequence:
#
# PCOD9383333 Si02
#       8
#     8   4   8   8   8   8   4   8
#     4  11  21  35  56  79 104 136 176 225 285 348
#     4   9  17  30  49  71  94 131 186 232 265 315
#     4  11  21  34  57  87 115 146 187 231 275 325
#     4  10  19  32  50  71 100 137 178 224 272 323
#     4  10  20  33  50  74 109 151 186 220 269 325
#     4   8  15  30  54  87 126 160 186 218 265 319
#     4   9  19  34  51  73 100 129 164 215 284 353
#     4  11  24  41  59  79 108 147 190 237 288 340
#
# _framework density 20.408263000000002
#
# number of rings (size 3 to 8) (size 9 to 14) (size 15 to 20)
#    0.000    2.000    1.429    3.429    0.000    4.286 
#    0.000    1.071    0.000    6.429    0.000    8.000 
#    0.000    0.000    0.000    0.000    0.000    0.000 
#
# Total GULP energy -312161.534315 kJ/mol
# GULP energy per Si atom -5574.313113 kJ/mol
# Density = 2.036181 g / cm^3
# Si number density = 20.408263 Si / 1000 Ang^3
#
#
#
# Elastic Constant Matrix: (Units=GPa)
#
#
# Indices 1 2 3 4 5 6 
#
# 1 19.0086 17.8214 8.7832 0.0000 0.0000 0.0000
# 2 17.8214 171.2688 60.5293 0.0000 0.0000 0.0000
# 3 8.7832 60.5293 118.5707 0.0000 0.0000 0.0000
# 4 0.0000 0.0000 0.0000 57.5025 0.0000 0.0000
# 5 0.0000 0.0000 0.0000 0.0000 15.2070 0.0000
# 6 0.0000 0.0000 0.0000 0.0000 0.0000 20.9669
#
#
#
# Elastic Compliance Matrix: (Units=1/GPa)
#
#
# Indices 1 2 3 4 5 6 
#
# 1 0.058511 -0.005560 -0.001496 0.000000 0.000000 0.000000
# 2 -0.005560 0.007652 -0.003495 0.000000 0.000000 0.000000
# 3 -0.001496 -0.003495 0.010329 0.000000 0.000000 0.000000
# 4 0.000000 0.000000 0.000000 0.017391 0.000000 0.000000
# 5 0.000000 0.000000 0.000000 0.000000 0.065759 0.000000
# 6 0.000000 0.000000 0.000000 0.000000 0.000000 0.047694
#
#
# Mechanical properties :
#
#
# Convention : Reuss Voigt Hill
#
# Bulk Modulus (GPa) = 18.05331 53.67954 35.86643
# Shear Modulus (GPa) = 20.25104 33.51622 26.88363
#
# Velocity S-wave (km/s) = 3.15349 4.05691 3.63339
# Velocity P-wave (km/s) = 4.70368 6.95015 5.93419
#
# Compressibility (1/GPa) = 0.05539150
#
# Stress axis : x y z
#
# Youngs Moduli (GPa) = 17.09071 130.67887 96.81861
#
# Poissons Ratio (x) = 0.72653 0.14485
# Poissons Ratio (y) = 0.09502 0.33834
# Poissons Ratio (z) = 0.02557 0.45667
#
# Static dielectric constant tensor:
#      x y z
#    x 1.758920 0.000000 0.000000 
#    y 0.000000 1.744780 0.000000 
#    z 0.000000 0.000000 1.692360 
# 
# From -- ./inp_files/29754.got.cif
#   From: 2010.05.17/outbox.cif.g08.bks.cpg/sg47_15_cif.got.tgz:29754.got - 2010.06.03 20:15:42.
