data_PCOD9383073
_publ_section_title
;
Structure prediction by ZEFSAII (Michael W. Deem and Ramdas Pophale) SiO2 
 PCOD9383073
Probable space group: P M M M
;
_chemical_formula_sum "Si O2"
_cell_formula_units_Z 44
_cell_length_a 10.434598
_cell_length_b 13.677038
_cell_length_c 18.235450
_cell_angle_alpha 90.000000
_cell_angle_beta 90.000000
_cell_angle_gamma 90.000000
_cell_volume 2602.461184
_symmetry_space_group_name_H-M "P M M M"
_symmetry_group_IT_number 47
_symmetry_cell_setting 'orthorhombic'
loop_
_space_group_symop_operation_xyz
x,y,z
-x,-y,z
x,-y,-z
-x,y,-z
-x,-y,-z
x,y,-z
-x,y,z
x,-y,z
loop_
_atom_site_type_symbol
_atom_site_label
_atom_site_fract_x
_atom_site_fract_y
_atom_site_fract_z
Si Si1 0.344997 0.389124 0.500000
Si Si2 0.000000 0.117790 0.584866
Si Si3 0.147660 0.611686 0.771185
Si Si4 0.353683 0.311812 0.343640
Si Si5 0.847842 0.883580 0.000000
Si Si6 0.151146 0.813486 0.155778
Si Si7 0.755923 0.113854 0.311969
O O1 0.296310 0.500000 0.500000
O O2 0.500000 0.393085 0.500000
O O3 0.309847 0.334877 0.425897
O O4 0.876032 0.140944 0.634843
O O5 0.000000 0.155086 0.500000
O O6 0.000000 0.000000 0.579201
O O7 0.162476 0.500000 0.796871
O O8 0.253276 0.636178 0.710147
O O9 0.163822 0.697334 0.830803
O O10 0.000000 0.621787 0.743540
O O11 0.500000 0.347040 0.333209
O O12 0.348115 0.195747 0.330313
O O13 0.794589 0.843666 0.923118
O O14 0.000000 0.858197 0.000000
O O15 0.837071 0.000000 0.000000
O O16 0.207740 0.867977 0.226833
O O17 0.000000 0.837994 0.156428
O O18 0.723817 0.000000 0.323507
#
# Coordination Sequence:
#
# PCOD9383073 Si02
#       7
#     4   4   8   8   4   8   8
#     4   9  18  34  52  68  91 124 163 207 252 299
#     4   9  18  30  46  69  95 133 176 208 246 294
#     4   9  18  33  52  73  98 127 162 207 255 296
#     4  10  21  34  50  73  98 130 169 205 250 304
#     4   9  16  24  41  69 102 135 167 199 236 295
#     4   9  16  28  45  70 101 133 165 201 247 298
#     4  10  19  31  49  70 100 136 169 208 250 293
#
# _framework density 16.907071999999999
#
# number of rings (size 3 to 8) (size 9 to 14) (size 15 to 20)
#    0.000    2.636    0.909    1.091    2.545    2.182 
#    0.000    0.909    0.000    6.000    0.000   10.182 
#    0.000   23.273    0.000    0.000    0.000    0.000 
#
# Total GULP energy -244941.974170 kJ/mol
# GULP energy per Si atom -5566.863049 kJ/mol
# Density = 1.686859 g / cm^3
# Si number density = 16.907072 Si / 1000 Ang^3
#
#
#
# Elastic Constant Matrix: (Units=GPa)
#
#
# Indices 1 2 3 4 5 6 
#
# 1 40.6529 8.1465 23.6812 0.0000 0.0000 0.0000
# 2 8.1465 66.1695 23.2404 0.0000 0.0000 0.0000
# 3 23.6812 23.2404 130.8065 0.0000 0.0000 0.0000
# 4 0.0000 0.0000 0.0000 15.1533 0.0000 0.0000
# 5 0.0000 0.0000 0.0000 0.0000 10.6329 0.0000
# 6 0.0000 0.0000 0.0000 0.0000 0.0000 14.6417
#
#
#
# Elastic Compliance Matrix: (Units=1/GPa)
#
#
# Indices 1 2 3 4 5 6 
#
# 1 0.027689 -0.001758 -0.004700 0.000000 0.000000 0.000000
# 2 -0.001758 0.016230 -0.002565 0.000000 0.000000 0.000000
# 3 -0.004700 -0.002565 0.008952 0.000000 0.000000 0.000000
# 4 0.000000 0.000000 0.000000 0.065992 0.000000 0.000000
# 5 0.000000 0.000000 0.000000 0.000000 0.094048 0.000000
# 6 0.000000 0.000000 0.000000 0.000000 0.000000 0.068298
#
#
# Mechanical properties :
#
#
# Convention : Reuss Voigt Hill
#
# Bulk Modulus (GPa) = 28.71659 38.64056 33.67857
# Shear Modulus (GPa) = 16.08419 20.25629 18.17024
#
# Velocity S-wave (km/s) = 3.08771 3.46511 3.28184
# Velocity P-wave (km/s) = 5.45287 6.23807 5.85864
#
# Compressibility (1/GPa) = 0.03482308
#
# Stress axis : x y z
#
# Youngs Moduli (GPa) = 36.11550 61.61370 111.71137
#
# Poissons Ratio (x) = 0.10832 0.52510
# Poissons Ratio (y) = 0.06349 0.28658
# Poissons Ratio (z) = 0.16976 0.15806
#
# Static dielectric constant tensor:
#      x y z
#    x 1.577620 0.000000 0.000000 
#    y 0.000000 1.587180 0.000000 
#    z 0.000000 0.000000 1.573970 
# 
# From -- ./inp_files/26401.got.cif
#   From: 2010.05.17/outbox.cif.g08.bks.cpg/sg47_14_cif.got.tgz:26401.got - 2010.06.03 20:15:42.
