data_PCOD9383842
_publ_section_title
;
Structure prediction by ZEFSAII (Michael W. Deem and Ramdas Pophale) SiO2 
 PCOD9383842
Probable space group: P M M M
;
_chemical_formula_sum "Si O2"
_cell_formula_units_Z 52
_cell_length_a 10.667886
_cell_length_b 14.108257
_cell_length_c 20.695833
_cell_angle_alpha 90.000000
_cell_angle_beta 90.000000
_cell_angle_gamma 90.000000
_cell_volume 3114.832085
_symmetry_space_group_name_H-M "P M M M"
_symmetry_group_IT_number 47
_symmetry_cell_setting 'orthorhombic'
loop_
_space_group_symop_operation_xyz
x,y,z
-x,-y,z
x,-y,-z
-x,y,-z
-x,-y,-z
x,y,-z
-x,y,z
x,-y,z
loop_
_atom_site_type_symbol
_atom_site_label
_atom_site_fract_x
_atom_site_fract_y
_atom_site_fract_z
Si Si1 0.500000 0.891583 0.189170
Si Si2 0.858840 0.790913 0.655970
Si Si3 0.776062 0.111470 0.784900
Si Si4 0.237111 0.295329 0.862648
Si Si5 0.147410 0.389834 0.263480
Si Si6 0.500000 0.739737 0.922632
Si Si7 0.000000 0.393308 0.076376
Si Si8 0.641873 0.889283 0.577786
O O1 0.626947 0.875678 0.228640
O O2 0.500000 0.832417 0.123276
O O3 0.500000 0.000000 0.169376
O O4 0.849566 0.850751 0.722909
O O5 0.837344 0.682012 0.677042
O O6 0.750827 0.828872 0.609926
O O7 0.000000 0.801287 0.629861
O O8 0.793665 0.185515 0.843845
O O9 0.800190 0.000000 0.797803
O O10 0.233314 0.351138 0.794490
O O11 0.368993 0.307048 0.899508
O O12 0.123701 0.338598 0.902415
O O13 0.170016 0.500000 0.277175
O O14 0.000000 0.379592 0.243414
O O15 0.500000 0.753731 0.000000
O O16 0.000000 0.500000 0.104640
O O17 0.000000 0.400529 0.000000
O O18 0.649069 0.884211 0.500000
O O19 0.500000 0.860991 0.596690
O O20 0.658061 0.000000 0.596257
#
# Coordination Sequence:
#
# PCOD9383842 Si02
#       8
#     4   8   8   8   8   4   4   8
#     4   8  16  31  48  69  92 130 175 201 233 292
#     4  10  20  31  49  80 107 130 167 211 254 295
#     4   9  18  30  48  74 105 133 162 201 248 299
#     4  10  19  34  53  73  98 130 164 202 252 304
#     4   9  17  33  56  76  98 130 167 209 254 302
#     4  10  20  33  49  70 100 128 155 205 258 298
#     4  11  22  36  55  73  89 121 171 212 244 300
#     4   9  19  35  53  74 105 146 181 204 234 285
#
# _framework density 16.694317999999999
#
# number of rings (size 3 to 8) (size 9 to 14) (size 15 to 20)
#    0.000    2.538    0.769    1.846    2.154    1.692 
#    1.385    2.308    0.000    5.077    0.000    3.231 
#    0.000    0.000    0.000    0.000    0.000    0.000 
#
# Total GULP energy -289649.786274 kJ/mol
# GULP energy per Si atom -5570.188198 kJ/mol
# Density = 1.665632 g / cm^3
# Si number density = 16.694318 Si / 1000 Ang^3
#
#
#
# Elastic Constant Matrix: (Units=GPa)
#
#
# Indices 1 2 3 4 5 6 
#
# 1 117.8258 49.8281 38.0549 0.0000 0.0000 0.0000
# 2 49.8281 108.7963 21.8416 0.0000 0.0000 0.0000
# 3 38.0549 21.8416 36.1131 0.0000 0.0000 0.0000
# 4 0.0000 0.0000 0.0000 17.3345 0.0000 0.0000
# 5 0.0000 0.0000 0.0000 0.0000 27.9879 0.0000
# 6 0.0000 0.0000 0.0000 0.0000 0.0000 3.0037
#
#
#
# Elastic Compliance Matrix: (Units=1/GPa)
#
#
# Indices 1 2 3 4 5 6 
#
# 1 0.014244 -0.003996 -0.012594 0.000000 0.000000 0.000000
# 2 -0.003996 0.011583 -0.002795 0.000000 0.000000 0.000000
# 3 -0.012594 -0.002795 0.042652 0.000000 0.000000 0.000000
# 4 0.000000 0.000000 0.000000 0.057688 0.000000 0.000000
# 5 0.000000 0.000000 0.000000 0.000000 0.035730 0.000000
# 6 0.000000 0.000000 0.000000 0.000000 0.000000 0.332923
#
#
# Mechanical properties :
#
#
# Convention : Reuss Voigt Hill
#
# Bulk Modulus (GPa) = 33.65797 53.57605 43.61701
# Shear Modulus (GPa) = 9.19978 19.86592 14.53285
#
# Velocity S-wave (km/s) = 2.35004 3.45335 2.95367
# Velocity P-wave (km/s) = 5.25059 6.93274 6.14946
#
# Compressibility (1/GPa) = 0.02971065
#
# Stress axis : x y z
#
# Youngs Moduli (GPa) = 70.20377 86.33710 23.44563
#
# Poissons Ratio (x) = 0.34496 0.29527
# Poissons Ratio (y) = 0.28050 0.06553
# Poissons Ratio (z) = 0.88412 0.24130
#
# Static dielectric constant tensor:
#      x y z
#    x 1.589730 0.000000 0.000000 
#    y 0.000000 1.572670 0.000000 
#    z 0.000000 0.000000 1.553080 
# 
# From -- ./inp_files/32027.got.cif
#   From: 2010.05.17/outbox.cif.g08.bks.cpg/sg47_17_cif.got.tgz:32027.got - 2010.06.03 20:15:42.
