data_PCOD9383546
_publ_section_title
;
Structure prediction by ZEFSAII (Michael W. Deem and Ramdas Pophale) SiO2 
 PCOD9383546
Probable space group: P M M M
;
_chemical_formula_sum "Si O2"
_cell_formula_units_Z 56
_cell_length_a 15.197670
_cell_length_b 7.698117
_cell_length_c 21.467465
_cell_angle_alpha 90.000000
_cell_angle_beta 90.000000
_cell_angle_gamma 90.000000
_cell_volume 2511.552617
_symmetry_space_group_name_H-M "P M M M"
_symmetry_group_IT_number 47
_symmetry_cell_setting 'orthorhombic'
loop_
_space_group_symop_operation_xyz
x,y,z
-x,-y,z
x,-y,-z
-x,y,-z
-x,-y,-z
x,y,-z
-x,y,z
x,-y,z
loop_
_atom_site_type_symbol
_atom_site_label
_atom_site_fract_x
_atom_site_fract_y
_atom_site_fract_z
Si Si1 0.341411 0.787828 0.500000
Si Si2 0.756494 0.693183 0.724520
Si Si3 0.595212 0.290907 0.073082
Si Si4 0.900579 0.703139 0.816822
Si Si5 0.211565 0.205035 0.071167
Si Si6 0.137202 0.210376 0.500000
Si Si7 0.402787 0.792160 0.362621
Si Si8 0.094627 0.789384 0.364213
O O1 0.239059 0.741166 0.500000
O O2 0.379509 0.728178 0.433047
O O3 0.348224 0.000000 0.500000
O O4 0.736104 0.500000 0.747969
O O5 0.819952 0.783070 0.776099
O O6 0.667907 0.758864 0.691822
O O7 0.825208 0.696248 0.667768
O O8 0.500000 0.232184 0.099488
O O9 0.595386 0.500000 0.075043
O O10 0.689574 0.232564 0.098366
O O11 0.595216 0.237666 0.000000
O O12 0.905771 0.500000 0.798415
O O13 0.863719 0.713503 0.886628
O O14 0.000000 0.775659 0.811379
O O15 0.196039 0.000000 0.069388
O O16 0.211530 0.272478 0.000000
O O17 0.094496 0.264200 0.564083
O O18 0.132819 0.000000 0.500000
O O19 0.500000 0.727836 0.345875
O O20 0.405362 0.000000 0.368746
O O21 0.000000 0.748983 0.335186
O O22 0.107363 0.000000 0.360843
#
# Coordination Sequence:
#
# PCOD9383546 Si02
#       8
#     4   8   8   8   8   4   8   8
#     4   9  15  29  55  83 113 148 189 238 285 332
#     4  11  23  39  58  80 111 145 184 234 284 336
#     4   8  14  27  50  80 114 153 192 222 252 303
#     4  10  23  43  63  81 105 146 196 236 275 334
#     4  10  21  36  57  89 124 151 179 227 290 346
#     4   9  15  27  49  77 109 142 183 232 275 324
#     4  10  20  36  60  87 114 148 193 240 285 337
#     4  10  19  32  53  79 107 143 187 232 278 329
#
# _framework density 22.296965
#
# number of rings (size 3 to 8) (size 9 to 14) (size 15 to 20)
#    0.000    2.286    1.429    2.143    0.000    5.714 
#    0.000    5.000    0.000    2.571    0.000    0.000 
#    0.000    0.000    0.000    0.000    0.000    0.000 
#
# Total GULP energy -312123.008022 kJ/mol
# GULP energy per Si atom -5573.625143 kJ/mol
# Density = 2.224622 g / cm^3
# Si number density = 22.296965 Si / 1000 Ang^3
#
#
#
# Elastic Constant Matrix: (Units=GPa)
#
#
# Indices 1 2 3 4 5 6 
#
# 1 181.9786 9.6964 63.3508 0.0000 0.0000 0.0000
# 2 9.6964 40.3674 -1.3230 0.0000 0.0000 0.0000
# 3 63.3508 -1.3230 80.9319 0.0000 0.0000 0.0000
# 4 0.0000 0.0000 0.0000 16.4590 0.0000 0.0000
# 5 0.0000 0.0000 0.0000 0.0000 -20.3816 0.0000
# 6 0.0000 0.0000 0.0000 0.0000 0.0000 -44.4540
#
#
#
# Elastic Compliance Matrix: (Units=1/GPa)
#
#
# Indices 1 2 3 4 5 6 
#
# 1 0.007720 -0.002054 -0.006076 0.000000 0.000000 0.000000
# 2 -0.002054 0.025332 0.002022 0.000000 0.000000 0.000000
# 3 -0.006076 0.002022 0.017146 0.000000 0.000000 0.000000
# 4 0.000000 0.000000 0.000000 0.060757 0.000000 0.000000
# 5 0.000000 0.000000 0.000000 0.000000 -0.049064 0.000000
# 6 0.000000 0.000000 0.000000 0.000000 0.000000 -0.022495
#
#
# Mechanical properties :
#
#
# Convention : Reuss Voigt Hill
#
# Bulk Modulus (GPa) = 26.32926 49.63626 37.98276
# Shear Modulus (GPa) = 77.79384 5.76159 41.77772
#
# Velocity S-wave (km/s) = 5.91317 1.60923 4.33332
# Velocity P-wave (km/s) = 7.64558 5.07569 6.48913
#
# Compressibility (1/GPa) = 0.03798056
#
# Stress axis : x y z
#
# Youngs Moduli (GPa) = 129.53504 39.47576 58.32412
#
# Poissons Ratio (x) = 0.08106 0.35440
# Poissons Ratio (y) = 0.26600 -0.11790
# Poissons Ratio (z) = 0.78711 -0.07980
#
# Static dielectric constant tensor:
#      x y z
#    x 1.828930 0.000000 0.000000 
#    y 0.000000 1.850320 0.000000 
#    z 0.000000 0.000000 1.859890 
# 
# From -- ./inp_files/31004.got.cif
#   From: 2010.05.17/outbox.cif.g08.bks.cpg/sg47_16_cif.got.tgz:31004.got - 2010.06.03 20:15:42.
