data_PCOD9383420
_publ_section_title
;
Structure prediction by ZEFSAII (Michael W. Deem and Ramdas Pophale) SiO2 
 PCOD9383420
Probable space group: P M M M
;
_chemical_formula_sum "Si O2"
_cell_formula_units_Z 44
_cell_length_a 7.859367
_cell_length_b 15.215906
_cell_length_c 18.261054
_cell_angle_alpha 90.000000
_cell_angle_beta 90.000000
_cell_angle_gamma 90.000000
_cell_volume 2183.791777
_symmetry_space_group_name_H-M "P M M M"
_symmetry_group_IT_number 47
_symmetry_cell_setting 'orthorhombic'
loop_
_space_group_symop_operation_xyz
x,y,z
-x,-y,z
x,-y,-z
-x,y,-z
-x,-y,-z
x,y,-z
-x,y,z
x,-y,z
loop_
_atom_site_type_symbol
_atom_site_label
_atom_site_fract_x
_atom_site_fract_y
_atom_site_fract_z
Si Si1 0.206815 0.842882 0.693590
Si Si2 0.791075 0.101656 0.000000
Si Si3 0.196285 0.647247 0.685884
Si Si4 0.797361 0.797422 0.856697
Si Si5 0.303874 0.500000 0.414199
Si Si6 0.208542 0.000000 0.413738
Si Si7 0.304670 0.402880 0.157947
O O1 0.251860 0.745239 0.666957
O O2 0.266023 0.837813 0.778942
O O3 0.264056 0.916490 0.636048
O O4 0.000000 0.851333 0.695830
O O5 0.730921 0.151114 0.072950
O O6 0.000000 0.104708 0.000000
O O7 0.742009 0.000000 0.000000
O O8 0.213716 0.584707 0.617877
O O9 0.295022 0.605681 0.753960
O O10 0.000000 0.652326 0.710902
O O11 0.768657 0.692270 0.864978
O O12 0.000000 0.809734 0.854556
O O13 0.500000 0.500000 0.389583
O O14 0.299655 0.500000 0.500000
O O15 0.262094 0.000000 0.500000
O O16 0.000000 0.000000 0.415700
O O17 0.500000 0.403686 0.133890
O O18 0.230208 0.500000 0.138269
#
# Coordination Sequence:
#
# PCOD9383420 Si02
#       7
#     8   4   8   8   4   4   8
#     4   8  16  28  45  71 100 132 168 209 259 315
#     4   9  18  32  54  83 110 138 175 227 280 317
#     4  10  19  32  51  75 101 132 175 225 271 314
#     4   9  18  32  51  78 107 136 175 219 265 319
#     4  11  23  35  47  69 103 142 181 220 269 329
#     4   9  16  26  42  67 102 136 163 203 261 317
#     4  10  19  32  53  77 103 137 174 212 260 317
#
# _framework density 20.148440999999998
#
# number of rings (size 3 to 8) (size 9 to 14) (size 15 to 20)
#    0.000    2.636    0.909    2.455    1.273    2.545 
#    0.000    2.727    0.000    3.818    0.000    1.909 
#    0.000   19.636    0.000    0.000    0.000    0.000 
#
# Total GULP energy -245047.707793 kJ/mol
# GULP energy per Si atom -5569.266086 kJ/mol
# Density = 2.010258 g / cm^3
# Si number density = 20.148441 Si / 1000 Ang^3
#
#
#
# Elastic Constant Matrix: (Units=GPa)
#
#
# Indices 1 2 3 4 5 6 
#
# 1 19.4042 1.4516 7.1014 0.0000 0.0000 0.0000
# 2 1.4516 184.4491 110.3142 0.0000 0.0000 0.0000
# 3 7.1014 110.3142 128.2960 0.0000 0.0000 0.0000
# 4 0.0000 0.0000 0.0000 37.8124 0.0000 0.0000
# 5 0.0000 0.0000 0.0000 0.0000 5.5582 0.0000
# 6 0.0000 0.0000 0.0000 0.0000 0.0000 21.0311
#
#
#
# Elastic Compliance Matrix: (Units=1/GPa)
#
#
# Indices 1 2 3 4 5 6 
#
# 1 0.053278 0.002768 -0.005329 0.000000 0.000000 0.000000
# 2 0.002768 0.011305 -0.009874 0.000000 0.000000 0.000000
# 3 -0.005329 -0.009874 0.016579 0.000000 0.000000 0.000000
# 4 0.000000 0.000000 0.000000 0.026446 0.000000 0.000000
# 5 0.000000 0.000000 0.000000 0.000000 0.179915 0.000000
# 6 0.000000 0.000000 0.000000 0.000000 0.000000 0.047549
#
#
# Mechanical properties :
#
#
# Convention : Reuss Voigt Hill
#
# Bulk Modulus (GPa) = 17.76418 63.32043 40.54230
# Shear Modulus (GPa) = 13.20285 27.09914 20.15099
#
# Velocity S-wave (km/s) = 2.56262 3.67137 3.16591
# Velocity P-wave (km/s) = 4.19426 7.03329 5.79046
#
# Compressibility (1/GPa) = 0.05629306
#
# Stress axis : x y z
#
# Youngs Moduli (GPa) = 18.76930 88.45680 60.31643
#
# Poissons Ratio (x) = -0.24483 0.32142
# Poissons Ratio (y) = -0.05195 0.59554
# Poissons Ratio (z) = 0.10002 0.87339
#
# Static dielectric constant tensor:
#      x y z
#    x 1.770610 0.000000 0.000000 
#    y 0.000000 1.722350 0.000000 
#    z 0.000000 0.000000 1.696730 
# 
# From -- ./inp_files/26438.got.cif
#   From: 2010.05.17/outbox.cif.g08.bks.cpg/sg47_14_cif.got.tgz:26438.got - 2010.06.03 20:15:42.
