data_PCOD9383352
_publ_section_title
;
Structure prediction by ZEFSAII (Michael W. Deem and Ramdas Pophale) SiO2 
 PCOD9383352
Probable space group: P M M M
;
_chemical_formula_sum "Si O2"
_cell_formula_units_Z 52
_cell_length_a 8.202372
_cell_length_b 28.270064
_cell_length_c 13.008541
_cell_angle_alpha 90.000000
_cell_angle_beta 90.000000
_cell_angle_gamma 90.000000
_cell_volume 3016.441059
_symmetry_space_group_name_H-M "P M M M"
_symmetry_group_IT_number 47
_symmetry_cell_setting 'orthorhombic'
loop_
_space_group_symop_operation_xyz
x,y,z
-x,-y,z
x,-y,-z
-x,y,-z
-x,-y,-z
x,y,-z
-x,y,z
x,-y,z
loop_
_atom_site_type_symbol
_atom_site_label
_atom_site_fract_x
_atom_site_fract_y
_atom_site_fract_z
Si Si1 0.196856 0.383049 0.616823
Si Si2 0.816259 0.115143 0.124081
Si Si3 0.197046 0.725493 0.380721
Si Si4 0.309158 0.785130 0.190115
Si Si5 0.305784 0.446323 0.195940
Si Si6 0.196797 0.278574 0.000000
Si Si7 0.806063 0.386767 0.000000
Si Si8 0.500000 0.945666 0.875097
O O1 0.249973 0.393413 0.500000
O O2 0.245970 0.328962 0.642028
O O3 0.258810 0.420049 0.699324
O O4 0.000000 0.383670 0.618076
O O5 0.788850 0.166442 0.173681
O O6 0.666110 0.081418 0.155567
O O7 0.000000 0.097631 0.146914
O O8 0.805672 0.121079 0.000000
O O9 0.238570 0.735173 0.500000
O O10 0.273899 0.760765 0.299075
O O11 0.000000 0.727904 0.371723
O O12 0.500000 0.795932 0.178610
O O13 0.257497 0.748796 0.100700
O O14 0.500000 0.448669 0.189519
O O15 0.240479 0.500000 0.191843
O O16 0.245992 0.415308 0.100579
O O17 0.256041 0.332814 0.000000
O O18 0.000000 0.277847 0.000000
O O19 0.000000 0.383587 0.000000
O O20 0.500000 0.000000 0.840179
O O21 0.500000 0.946028 0.000000
#
# Coordination Sequence:
#
# PCOD9383352 Si02
#       8
#     8   8   8   8   8   4   4   4
#     4   9  19  37  59  80 102 130 168 213 258 312
#     4  10  19  32  50  73 108 148 187 234 280 322
#     4   9  19  36  55  75 103 139 175 214 265 321
#     4  12  22  32  50  78 110 143 183 223 265 321
#     4  11  24  39  55  76 103 132 163 207 264 320
#     4  11  23  36  52  77 104 137 175 213 264 323
#     4  11  24  40  57  76 100 130 173 217 255 312
#     4   9  18  32  50  74 107 147 193 237 276 328
#
# _framework density 17.238859000000001
#
# number of rings (size 3 to 8) (size 9 to 14) (size 15 to 20)
#    0.000    1.769    1.538    4.385    0.000    8.923 
#    0.000    4.615    0.000    0.000    0.000    0.000 
#    0.000    1.231    0.000    3.231    0.000    0.154 
#
# Total GULP energy -290371.999550 kJ/mol
# GULP energy per Si atom -5584.076914 kJ/mol
# Density = 1.719962 g / cm^3
# Si number density = 17.238859 Si / 1000 Ang^3
#
#
#
# Elastic Constant Matrix: (Units=GPa)
#
#
# Indices 1 2 3 4 5 6 
#
# 1 76.9528 41.2431 21.6216 0.0000 0.0000 0.0000
# 2 41.2431 126.9537 49.9903 0.0000 0.0000 0.0000
# 3 21.6216 49.9903 63.1536 0.0000 0.0000 0.0000
# 4 0.0000 0.0000 0.0000 40.5568 0.0000 0.0000
# 5 0.0000 0.0000 0.0000 0.0000 38.6220 0.0000
# 6 0.0000 0.0000 0.0000 0.0000 0.0000 33.4690
#
#
#
# Elastic Compliance Matrix: (Units=1/GPa)
#
#
# Indices 1 2 3 4 5 6 
#
# 1 0.015901 -0.004391 -0.001969 0.000000 0.000000 0.000000
# 2 -0.004391 0.012656 -0.008515 0.000000 0.000000 0.000000
# 3 -0.001969 -0.008515 0.023249 0.000000 0.000000 0.000000
# 4 0.000000 0.000000 0.000000 0.024657 0.000000 0.000000
# 5 0.000000 0.000000 0.000000 0.000000 0.025892 0.000000
# 6 0.000000 0.000000 0.000000 0.000000 0.000000 0.029878
#
#
# Mechanical properties :
#
#
# Convention : Reuss Voigt Hill
#
# Bulk Modulus (GPa) = 45.33583 54.75224 50.04404
# Shear Modulus (GPa) = 29.52740 32.80990 31.16865
#
# Velocity S-wave (km/s) = 4.14314 4.36736 4.25673
# Velocity P-wave (km/s) = 7.01735 7.56714 7.29743
#
# Compressibility (1/GPa) = 0.02205761
#
# Stress axis : x y z
#
# Youngs Moduli (GPa) = 62.88804 79.01260 43.01335
#
# Poissons Ratio (x) = 0.34692 0.08467
# Poissons Ratio (y) = 0.27612 0.36626
# Poissons Ratio (z) = 0.12380 0.67279
#
# Static dielectric constant tensor:
#      x y z
#    x 1.607210 0.000000 0.000000 
#    y 0.000000 1.574340 0.000000 
#    z 0.000000 0.000000 1.551360 
# 
# From -- ./inp_files/15526.got.cif
#   From: 2010.05.17/outbox.cif.g08.bks.cpg/sg47_8_cif.got.tgz:15526.got - 2010.06.03 20:15:42.
