data_PCOD9383481
_publ_section_title
;
Structure prediction by ZEFSAII (Michael W. Deem and Ramdas Pophale) SiO2 
 PCOD9383481
Probable space group: P M M M
;
_chemical_formula_sum "Si O2"
_cell_formula_units_Z 52
_cell_length_a 12.068892
_cell_length_b 28.951469
_cell_length_c 8.720953
_cell_angle_alpha 90.000000
_cell_angle_beta 90.000000
_cell_angle_gamma 90.000000
_cell_volume 3047.206960
_symmetry_space_group_name_H-M "P M M M"
_symmetry_group_IT_number 47
_symmetry_cell_setting 'orthorhombic'
loop_
_space_group_symop_operation_xyz
x,y,z
-x,-y,z
x,-y,-z
-x,y,-z
-x,-y,-z
x,y,-z
-x,y,z
x,-y,z
loop_
_atom_site_type_symbol
_atom_site_label
_atom_site_fract_x
_atom_site_fract_y
_atom_site_fract_z
Si Si1 0.870776 0.597813 0.816586
Si Si2 0.865683 0.500000 0.323927
Si Si3 0.739037 0.316127 0.316391
Si Si4 0.127158 0.052453 0.186863
Si Si5 0.870829 0.229542 0.184393
Si Si6 0.270867 0.138874 0.814941
Si Si7 0.500000 0.718807 0.313396
Si Si8 0.500000 0.826369 0.683725
O O1 0.833208 0.547510 0.757969
O O2 0.794362 0.638219 0.752034
O O3 0.000000 0.604951 0.768049
O O4 0.868897 0.598535 0.000000
O O5 0.828884 0.500000 0.500000
O O6 0.000000 0.500000 0.321742
O O7 0.739501 0.319431 0.500000
O O8 0.811101 0.272195 0.264753
O O9 0.612871 0.306263 0.264236
O O10 0.212178 0.091663 0.237804
O O11 0.000000 0.062746 0.232849
O O12 0.154076 0.000000 0.234616
O O13 0.127749 0.052987 0.000000
O O14 0.808576 0.182066 0.223123
O O15 0.000000 0.227281 0.225301
O O16 0.863495 0.235821 0.000000
O O17 0.390129 0.148857 0.744342
O O18 0.280966 0.137249 0.000000
O O19 0.500000 0.719344 0.500000
O O20 0.500000 0.772525 0.263681
O O21 0.500000 0.826245 0.500000
#
# Coordination Sequence:
#
# PCOD9383481 Si02
#       8
#     8   4   8   8   8   8   4   4
#     4  10  20  34  52  78 112 143 170 209 262 310
#     4   9  17  31  53  80 107 140 181 215 249 303
#     4  11  21  35  53  73  99 134 176 216 254 303
#     4   8  14  27  50  79 107 133 164 208 262 314
#     4  10  20  32  47  72 105 133 158 200 259 313
#     4  10  19  32  52  77 101 130 171 214 254 305
#     4   9  20  37  53  69  95 133 176 218 258 297
#     4  11  21  37  54  70  98 137 176 216 259 305
#
# _framework density 17.064807999999999
#
# number of rings (size 3 to 8) (size 9 to 14) (size 15 to 20)
#    0.000    2.231    1.538    2.769    0.000    5.846 
#    0.000    1.923    0.000    4.615    0.000    4.308 
#    0.000    0.000    0.000    0.000    0.000    0.000 
#
# Total GULP energy -290137.585137 kJ/mol
# GULP energy per Si atom -5579.568945 kJ/mol
# Density = 1.702597 g / cm^3
# Si number density = 17.064808 Si / 1000 Ang^3
#
#
#
# Elastic Constant Matrix: (Units=GPa)
#
#
# Indices 1 2 3 4 5 6 
#
# 1 153.9250 104.7372 41.5909 0.0000 0.0000 0.0000
# 2 104.7372 173.6589 45.8774 0.0000 0.0000 0.0000
# 3 41.5909 45.8774 28.2000 0.0000 0.0000 0.0000
# 4 0.0000 0.0000 0.0000 10.7310 0.0000 0.0000
# 5 0.0000 0.0000 0.0000 0.0000 19.0287 0.0000
# 6 0.0000 0.0000 0.0000 0.0000 0.0000 6.4154
#
#
#
# Elastic Compliance Matrix: (Units=1/GPa)
#
#
# Indices 1 2 3 4 5 6 
#
# 1 0.012706 -0.004757 -0.011000 0.000000 0.000000 0.000000
# 2 -0.004757 0.011880 -0.012311 0.000000 0.000000 0.000000
# 3 -0.011000 -0.012311 0.071712 0.000000 0.000000 0.000000
# 4 0.000000 0.000000 0.000000 0.093188 0.000000 0.000000
# 5 0.000000 0.000000 0.000000 0.000000 0.052552 0.000000
# 6 0.000000 0.000000 0.000000 0.000000 0.000000 0.155875
#
#
# Mechanical properties :
#
#
# Convention : Reuss Voigt Hill
#
# Bulk Modulus (GPa) = 24.89907 82.24389 53.57148
# Shear Modulus (GPa) = 10.69664 18.14024 14.41844
#
# Velocity S-wave (km/s) = 2.50636 3.26394 2.90991
# Velocity P-wave (km/s) = 4.79566 7.90595 6.53844
#
# Compressibility (1/GPa) = 0.04016214
#
# Stress axis : x y z
#
# Youngs Moduli (GPa) = 78.70354 84.17652 13.94460
#
# Poissons Ratio (x) = 0.40044 0.15339
# Poissons Ratio (y) = 0.37441 0.17167
# Poissons Ratio (z) = 0.86575 1.03627
#
# Static dielectric constant tensor:
#      x y z
#    x 1.558990 0.000000 0.000000 
#    y 0.000000 1.562060 0.000000 
#    z 0.000000 0.000000 1.580460 
# 
# From -- ./inp_files/4664.got.cif
#   From: 2010.05.17/outbox.cif.g08.bks.cpg/sg47_3_cif.got.tgz:4664.got - 2010.06.03 20:15:42.
