data_PCOD9383976
_publ_section_title
;
Structure prediction by ZEFSAII (Michael W. Deem and Ramdas Pophale) SiO2 
 PCOD9383976
Probable space group: P M M M
;
_chemical_formula_sum "Si O2"
_cell_formula_units_Z 56
_cell_length_a 15.364389
_cell_length_b 20.294626
_cell_length_c 9.557772
_cell_angle_alpha 90.000000
_cell_angle_beta 90.000000
_cell_angle_gamma 90.000000
_cell_volume 2980.252169
_symmetry_space_group_name_H-M "P M M M"
_symmetry_group_IT_number 47
_symmetry_cell_setting 'orthorhombic'
loop_
_space_group_symop_operation_xyz
x,y,z
-x,-y,z
x,-y,-z
-x,y,-z
-x,-y,-z
x,y,-z
-x,y,z
x,-y,z
loop_
_atom_site_type_symbol
_atom_site_label
_atom_site_fract_x
_atom_site_fract_y
_atom_site_fract_z
Si Si1 0.500000 0.579576 0.158774
Si Si2 0.158629 0.895177 0.653052
Si Si3 0.000000 0.077055 0.850812
Si Si4 0.103429 0.747776 0.655179
Si Si5 0.329226 0.421439 0.335125
Si Si6 0.401779 0.207459 0.832896
Si Si7 0.640623 0.074717 0.333694
Si Si8 0.245518 0.688741 0.166364
O O1 0.500000 0.500000 0.146242
O O2 0.583530 0.596136 0.250018
O O3 0.500000 0.606919 0.000000
O O4 0.131288 0.920530 0.500000
O O5 0.087131 0.909765 0.766898
O O6 0.154942 0.816482 0.645218
O O7 0.254584 0.921127 0.682516
O O8 0.000000 0.000000 0.869730
O O9 0.000000 0.112476 0.000000
O O10 0.112956 0.715688 0.500000
O O11 0.151380 0.713152 0.782736
O O12 0.000000 0.759209 0.675701
O O13 0.336335 0.406420 0.500000
O O14 0.314773 0.500000 0.322136
O O15 0.259983 0.377058 0.255955
O O16 0.500000 0.234214 0.805547
O O17 0.393814 0.137542 0.752201
O O18 0.322978 0.258142 0.797371
O O19 0.394903 0.195608 0.000000
O O20 0.621691 0.082676 0.500000
O O21 0.612541 0.000000 0.293285
O O22 0.250319 0.677969 0.000000
#
# Coordination Sequence:
#
# PCOD9383976 Si02
#       8
#     4   8   4   8   8   8   8   8
#     4   9  17  31  53  83 121 161 198 237 282 337
#     4  10  19  35  56  77 104 142 184 230 288 352
#     4  11  23  33  45  73 109 141 176 223 282 347
#     4  10  20  37  61  86 113 148 190 238 293 355
#     4  10  21  37  58  87 123 162 203 244 289 348
#     4  10  23  41  58  81 115 155 198 242 292 349
#     4  10  21  37  58  82 108 143 192 248 298 346
#     4  11  23  38  61  89 119 157 196 243 296 349
#
# _framework density 18.790357
#
# number of rings (size 3 to 8) (size 9 to 14) (size 15 to 20)
#    0.000    1.857    2.143    1.714    1.000    5.714 
#    0.000    1.429    0.000    0.429    0.000    3.000 
#    0.000    0.000    0.000    0.000    0.000    0.000 
#
# Total GULP energy -312123.985945 kJ/mol
# GULP energy per Si atom -5573.642606 kJ/mol
# Density = 1.874759 g / cm^3
# Si number density = 18.790357 Si / 1000 Ang^3
#
#
#
# Elastic Constant Matrix: (Units=GPa)
#
#
# Indices 1 2 3 4 5 6 
#
# 1 64.2380 15.3260 32.4095 0.0000 0.0000 0.0000
# 2 15.3260 59.0291 39.9900 0.0000 0.0000 0.0000
# 3 32.4095 39.9900 103.5949 0.0000 0.0000 0.0000
# 4 0.0000 0.0000 0.0000 29.1095 0.0000 0.0000
# 5 0.0000 0.0000 0.0000 0.0000 27.3113 0.0000
# 6 0.0000 0.0000 0.0000 0.0000 0.0000 23.1219
#
#
#
# Elastic Compliance Matrix: (Units=1/GPa)
#
#
# Indices 1 2 3 4 5 6 
#
# 1 0.018547 -0.001198 -0.005340 0.000000 0.000000 0.000000
# 2 -0.001198 0.023017 -0.008510 0.000000 0.000000 0.000000
# 3 -0.005340 -0.008510 0.014609 0.000000 0.000000 0.000000
# 4 0.000000 0.000000 0.000000 0.034353 0.000000 0.000000
# 5 0.000000 0.000000 0.000000 0.000000 0.036615 0.000000
# 6 0.000000 0.000000 0.000000 0.000000 0.000000 0.043249
#
#
# Mechanical properties :
#
#
# Convention : Reuss Voigt Hill
#
# Bulk Modulus (GPa) = 38.34857 44.70145 41.52501
# Shear Modulus (GPa) = 23.90298 25.18432 24.54365
#
# Velocity S-wave (km/s) = 3.57050 3.66495 3.61804
# Velocity P-wave (km/s) = 6.11972 6.46145 6.29291
#
# Compressibility (1/GPa) = 0.02607659
#
# Stress axis : x y z
#
# Youngs Moduli (GPa) = 53.91700 43.44555 68.45166
#
# Poissons Ratio (x) = 0.05204 0.36553
# Poissons Ratio (y) = 0.06458 0.58256
# Poissons Ratio (z) = 0.28792 0.36974
#
# Static dielectric constant tensor:
#      x y z
#    x 1.663340 0.000000 0.000000 
#    y 0.000000 1.678760 0.000000 
#    z 0.000000 0.000000 -3.262300 
# 
# From -- ./inp_files/7376.got.cif
#   From: 2010.05.17/outbox.cif.g08.bks.cpg/sg47_4_cif.got.tgz:7376.got - 2010.06.03 20:15:42.
