data_PCOD9383133
_publ_section_title
;
Structure prediction by ZEFSAII (Michael W. Deem and Ramdas Pophale) SiO2 
 PCOD9383133
Probable space group: P M M M
;
_chemical_formula_sum "Si O2"
_cell_formula_units_Z 56
_cell_length_a 8.769385
_cell_length_b 16.874219
_cell_length_c 24.034414
_cell_angle_alpha 90.000000
_cell_angle_beta 90.000000
_cell_angle_gamma 90.000000
_cell_volume 3556.529016
_symmetry_space_group_name_H-M "P M M M"
_symmetry_group_IT_number 47
_symmetry_cell_setting 'orthorhombic'
loop_
_space_group_symop_operation_xyz
x,y,z
-x,-y,z
x,-y,-z
-x,y,-z
-x,-y,-z
x,y,-z
-x,y,z
x,-y,z
loop_
_atom_site_type_symbol
_atom_site_label
_atom_site_fract_x
_atom_site_fract_y
_atom_site_fract_z
Si Si1 0.682230 0.311703 0.335418
Si Si2 0.683099 0.000000 0.751576
Si Si3 0.817386 0.832933 0.727459
Si Si4 0.816315 0.591369 0.435528
Si Si5 0.315553 0.165513 0.935934
Si Si6 0.182169 0.265135 0.838110
Si Si7 0.685278 0.000000 0.118880
Si Si8 0.316325 0.591038 0.775089
O O1 0.500000 0.303957 0.336219
O O2 0.755953 0.227991 0.318636
O O3 0.741300 0.348806 0.392492
O O4 0.723872 0.372240 0.285196
O O5 0.746497 0.919922 0.724527
O O6 0.732977 0.000000 0.816686
O O7 0.500000 0.000000 0.750066
O O8 0.773025 0.793946 0.787222
O O9 0.000000 0.836961 0.725094
O O10 0.776112 0.606929 0.500000
O O11 0.772202 0.500000 0.422833
O O12 0.000000 0.596027 0.431042
O O13 0.500000 0.167436 0.933758
O O14 0.250907 0.231487 0.894719
O O15 0.265363 0.079729 0.912353
O O16 0.269116 0.175055 0.000000
O O17 0.244236 0.350850 0.820512
O O18 0.000000 0.266490 0.840948
O O19 0.500000 0.000000 0.118375
O O20 0.500000 0.594012 0.779886
O O21 0.267319 0.500000 0.779487
#
# Coordination Sequence:
#
# PCOD9383133 Si02
#       8
#     8   4   8   8   8   8   4   8
#     4  10  19  31  49  74 102 130 166 207 246 285
#     4  11  19  30  51  73  97 129 162 202 247 284
#     4  10  20  33  48  69  98 132 165 198 242 296
#     4   9  18  32  49  71 103 142 176 204 241 290
#     4  10  19  32  50  70  93 124 160 194 233 286
#     4  10  20  32  47  68  95 124 156 194 238 287
#     4   9  17  29  48  71  95 122 156 194 233 278
#     4   9  18  32  50  71  95 123 156 196 242 290
#
# _framework density 15.745689
#
# number of rings (size 3 to 8) (size 9 to 14) (size 15 to 20)
#    0.000    2.286    1.429    2.571    0.000    4.286 
#    0.000    1.071    0.000    1.286    0.000    3.500 
#    0.000    4.000    0.000    0.000    0.000    0.000 
#
# Total GULP energy -312444.753730 kJ/mol
# GULP energy per Si atom -5579.370602 kJ/mol
# Density = 1.570985 g / cm^3
# Si number density = 15.745689 Si / 1000 Ang^3
#
#
#
# Elastic Constant Matrix: (Units=GPa)
#
#
# Indices 1 2 3 4 5 6 
#
# 1 31.2801 44.2809 34.2065 0.0000 0.0000 0.0000
# 2 44.2809 153.4289 73.9273 0.0000 0.0000 0.0000
# 3 34.2065 73.9273 104.7052 0.0000 0.0000 0.0000
# 4 0.0000 0.0000 0.0000 27.0792 0.0000 0.0000
# 5 0.0000 0.0000 0.0000 0.0000 23.5075 0.0000
# 6 0.0000 0.0000 0.0000 0.0000 0.0000 22.3505
#
#
#
# Elastic Compliance Matrix: (Units=1/GPa)
#
#
# Indices 1 2 3 4 5 6 
#
# 1 0.062102 -0.012349 -0.011570 0.000000 0.000000 0.000000
# 2 -0.012349 0.012334 -0.004674 0.000000 0.000000 0.000000
# 3 -0.011570 -0.004674 0.016630 0.000000 0.000000 0.000000
# 4 0.000000 0.000000 0.000000 0.036929 0.000000 0.000000
# 5 0.000000 0.000000 0.000000 0.000000 0.042540 0.000000
# 6 0.000000 0.000000 0.000000 0.000000 0.000000 0.044742
#
#
# Mechanical properties :
#
#
# Convention : Reuss Voigt Hill
#
# Bulk Modulus (GPa) = 29.51434 66.02704 47.77069
# Shear Modulus (GPa) = 17.62086 23.72074 20.67080
#
# Velocity S-wave (km/s) = 3.34891 3.88557 3.62718
# Velocity P-wave (km/s) = 5.80850 7.88382 6.92435
#
# Compressibility (1/GPa) = 0.03388184
#
# Stress axis : x y z
#
# Youngs Moduli (GPa) = 16.10251 81.07882 60.13071
#
# Poissons Ratio (x) = 1.00121 0.69569
# Poissons Ratio (y) = 0.19884 0.28105
# Poissons Ratio (z) = 0.18630 0.37896
#
# Static dielectric constant tensor:
#      x y z
#    x 1.524140 0.000000 0.000000 
#    y 0.000000 1.511130 0.000000 
#    z 0.000000 0.000000 1.505810 
# 
# From -- ./inp_files/29744.got.cif
#   From: 2010.05.17/outbox.cif.g08.bks.cpg/sg47_15_cif.got.tgz:29744.got - 2010.06.03 20:15:42.
