data_PCOD9383675
_publ_section_title
;
Structure prediction by ZEFSAII (Michael W. Deem and Ramdas Pophale) SiO2 
 PCOD9383675
Probable space group: P M M M
;
_chemical_formula_sum "Si O2"
_cell_formula_units_Z 48
_cell_length_a 8.505348
_cell_length_b 35.135269
_cell_length_c 7.747940
_cell_angle_alpha 90.000000
_cell_angle_beta 90.000000
_cell_angle_gamma 90.000000
_cell_volume 2315.376491
_symmetry_space_group_name_H-M "P M M M"
_symmetry_group_IT_number 47
_symmetry_cell_setting 'orthorhombic'
loop_
_space_group_symop_operation_xyz
x,y,z
-x,-y,z
x,-y,-z
-x,y,-z
-x,-y,-z
x,y,-z
-x,y,z
x,-y,z
loop_
_atom_site_type_symbol
_atom_site_label
_atom_site_fract_x
_atom_site_fract_y
_atom_site_fract_z
Si Si1 0.325470 0.585028 0.289019
Si Si2 0.000000 0.544205 0.710249
Si Si3 0.310590 0.900475 0.698320
Si Si4 0.307633 0.043675 0.000000
Si Si5 0.674559 0.261649 0.795570
Si Si6 0.178716 0.180853 0.708053
Si Si7 0.826924 0.339541 0.295284
O O1 0.328268 0.582743 0.500000
O O2 0.500000 0.572118 0.231423
O O3 0.297034 0.629006 0.234432
O O4 0.165590 0.563296 0.233847
O O5 0.000000 0.500000 0.758311
O O6 0.000000 0.546918 0.500000
O O7 0.255810 0.906104 0.500000
O O8 0.500000 0.900872 0.695369
O O9 0.257892 0.858756 0.761263
O O10 0.257311 0.932926 0.830493
O O11 0.500000 0.043482 0.000000
O O12 0.255512 0.000000 0.000000
O O13 0.500000 0.265860 0.721010
O O14 0.735424 0.219366 0.760372
O O15 0.781072 0.295901 0.729944
O O16 0.667647 0.266307 0.000000
O O17 0.178052 0.180337 0.500000
O O18 0.000000 0.182031 0.770865
O O19 0.836569 0.345771 0.500000
O O20 0.000000 0.346839 0.220870
#
# Coordination Sequence:
#
# PCOD9383675 Si02
#       7
#     8   4   8   4   8   8   8
#     4   9  16  27  44  66  94 132 175 217 268 328
#     4   9  16  26  40  64  99 133 171 221 273 331
#     4   9  18  33  54  79 108 143 181 225 277 333
#     4   9  18  32  53  83 113 141 181 231 281 337
#     4  11  24  37  50  74 107 139 174 220 268 318
#     4  10  21  37  56  78 104 137 179 223 269 323
#     4  10  19  33  53  74  99 134 178 223 264 317
#
# _framework density 20.730971
#
# number of rings (size 3 to 8) (size 9 to 14) (size 15 to 20)
#    0.000    2.333    0.833    2.000    1.167    6.000 
#    0.000    3.333    0.000    1.000    0.000    2.333 
#    0.000    1.333    0.000    3.500    0.000    3.333 
#
# Total GULP energy -267809.697786 kJ/mol
# GULP energy per Si atom -5579.368704 kJ/mol
# Density = 2.068379 g / cm^3
# Si number density = 20.730971 Si / 1000 Ang^3
#
#
#
# Elastic Constant Matrix: (Units=GPa)
#
#
# Indices 1 2 3 4 5 6 
#
# 1 115.1779 53.4282 17.7474 0.0000 0.0000 0.0000
# 2 53.4282 130.4517 16.5048 0.0000 0.0000 0.0000
# 3 17.7474 16.5048 39.7715 0.0000 0.0000 0.0000
# 4 0.0000 0.0000 0.0000 51.5695 0.0000 0.0000
# 5 0.0000 0.0000 0.0000 0.0000 -7.6883 0.0000
# 6 0.0000 0.0000 0.0000 0.0000 0.0000 32.0564
#
#
#
# Elastic Compliance Matrix: (Units=1/GPa)
#
#
# Indices 1 2 3 4 5 6 
#
# 1 0.011100 -0.004137 -0.003236 0.000000 0.000000 0.000000
# 2 -0.004137 0.009632 -0.002151 0.000000 0.000000 0.000000
# 3 -0.003236 -0.002151 0.027481 0.000000 0.000000 0.000000
# 4 0.000000 0.000000 0.000000 0.019391 0.000000 0.000000
# 5 0.000000 0.000000 0.000000 0.000000 -0.130067 0.000000
# 6 0.000000 0.000000 0.000000 0.000000 0.000000 0.031195
#
#
# Mechanical properties :
#
#
# Convention : Reuss Voigt Hill
#
# Bulk Modulus (GPa) = 34.28916 51.19575 42.74245
# Shear Modulus (GPa) = -2001.44350 28.36888 -986.53731
#
# Velocity S-wave (km/s) = -31.10518 3.70324 -21.83825
# Velocity P-wave (km/s) = 35.68567 6.56005 24.80356
#
# Compressibility (1/GPa) = 0.02916374
#
# Stress axis : x y z
#
# Youngs Moduli (GPa) = 90.09190 103.82007 36.38926
#
# Poissons Ratio (x) = 0.42946 0.11777
# Poissons Ratio (y) = 0.37267 0.07829
# Poissons Ratio (z) = 0.29158 0.22335
#
# Static dielectric constant tensor:
#      x y z
#    x 1.775900 0.000000 0.000000 
#    y 0.000000 1.716180 0.000000 
#    z 0.000000 0.000000 1.735590 
# 
# From -- ./inp_files/2732.got.cif
#   From: 2010.05.17/outbox.cif.g08.bks.cpg/sg47_2_cif.got.tgz:2732.got - 2010.06.03 20:15:42.
