data_PCOD9383305
_publ_section_title
;
Structure prediction by ZEFSAII (Michael W. Deem and Ramdas Pophale) SiO2 
 PCOD9383305
Probable space group: P M M M
;
_chemical_formula_sum "Si O2"
_cell_formula_units_Z 52
_cell_length_a 8.160141
_cell_length_b 21.408078
_cell_length_c 15.656010
_cell_angle_alpha 90.000000
_cell_angle_beta 90.000000
_cell_angle_gamma 90.000000
_cell_volume 2734.994338
_symmetry_space_group_name_H-M "P M M M"
_symmetry_group_IT_number 47
_symmetry_cell_setting 'orthorhombic'
loop_
_space_group_symop_operation_xyz
x,y,z
-x,-y,z
x,-y,-z
-x,y,-z
-x,-y,-z
x,y,-z
-x,y,z
x,-y,z
loop_
_atom_site_type_symbol
_atom_site_label
_atom_site_fract_x
_atom_site_fract_y
_atom_site_fract_z
Si Si1 0.806181 0.930075 0.500000
Si Si2 0.306294 0.136399 0.330447
Si Si3 0.303755 0.201217 0.906371
Si Si4 0.189598 0.735600 0.738945
Si Si5 0.800666 0.500000 0.599681
Si Si6 0.699575 0.930257 0.841612
Si Si7 0.800369 0.500000 0.898431
Si Si8 0.200244 0.594770 0.748225
O O1 0.756543 0.892102 0.417060
O O2 0.000000 0.935765 0.500000
O O3 0.733018 0.000000 0.500000
O O4 0.500000 0.130269 0.328015
O O5 0.265981 0.209175 0.317358
O O6 0.243164 0.094745 0.250927
O O7 0.500000 0.204960 0.888217
O O8 0.209258 0.238251 0.834490
O O9 0.259182 0.127838 0.902034
O O10 0.272956 0.226397 0.000000
O O11 0.259718 0.665788 0.739741
O O12 0.000000 0.731200 0.714641
O O13 0.744145 0.500000 0.500000
O O14 0.752832 0.442235 0.661614
O O15 0.000000 0.500000 0.595715
O O16 0.500000 0.933562 0.841242
O O17 0.759385 0.000000 0.861141
O O18 0.750894 0.441318 0.836294
O O19 0.000000 0.500000 0.901497
O O20 0.747442 0.500000 0.000000
O O21 0.000000 0.594891 0.750844
#
# Coordination Sequence:
#
# PCOD9383305 Si02
#       8
#     4   8   8   8   4   8   4   8
#     4  11  23  37  55  81 109 132 161 212 273 319
#     4  10  20  35  53  73 100 135 175 209 246 304
#     4   9  18  31  46  67  95 127 165 206 250 307
#     4  10  19  32  49  71 102 134 168 211 258 305
#     4   8  13  25  44  65  93 126 158 194 246 305
#     4   8  14  26  46  69  89 114 154 203 247 284
#     4   8  13  23  40  63  95 131 167 212 262 312
#     4   8  15  26  41  66  97 128 165 207 252 309
#
# _framework density 19.012836
#
# number of rings (size 3 to 8) (size 9 to 14) (size 15 to 20)
#    0.000    3.000    0.000    3.462    0.000    2.462 
#    1.385    3.077    0.000    4.154    0.000   12.923 
#    0.000    9.846    0.000    0.000    0.000    0.000 
#
# Total GULP energy -289493.237056 kJ/mol
# GULP energy per Si atom -5567.177636 kJ/mol
# Density = 1.896956 g / cm^3
# Si number density = 19.012836 Si / 1000 Ang^3
#
#
#
# Elastic Constant Matrix: (Units=GPa)
#
#
# Indices 1 2 3 4 5 6 
#
# 1 9.1154 5.0087 6.9214 0.0000 0.0000 0.0000
# 2 5.0087 133.2570 38.0067 0.0000 0.0000 0.0000
# 3 6.9214 38.0067 116.2960 0.0000 0.0000 0.0000
# 4 0.0000 0.0000 0.0000 4.1247 0.0000 0.0000
# 5 0.0000 0.0000 0.0000 0.0000 9.6638 0.0000
# 6 0.0000 0.0000 0.0000 0.0000 0.0000 -11.1600
#
#
#
# Elastic Compliance Matrix: (Units=1/GPa)
#
#
# Indices 1 2 3 4 5 6 
#
# 1 0.115727 -0.002631 -0.006028 0.000000 0.000000 0.000000
# 2 -0.002631 0.008335 -0.002568 0.000000 0.000000 0.000000
# 3 -0.006028 -0.002568 0.009797 0.000000 0.000000 0.000000
# 4 0.000000 0.000000 0.000000 0.242444 0.000000 0.000000
# 5 0.000000 0.000000 0.000000 0.000000 0.103479 0.000000
# 6 0.000000 0.000000 0.000000 0.000000 0.000000 -0.089606
#
#
# Mechanical properties :
#
#
# Convention : Reuss Voigt Hill
#
# Bulk Modulus (GPa) = 8.97611 39.83800 24.40705
# Shear Modulus (GPa) = 11.11692 14.44112 12.77902
#
# Velocity S-wave (km/s) = 2.42069 2.75898 2.59535
# Velocity P-wave (km/s) = 3.54180 5.58104 4.67399
#
# Compressibility (1/GPa) = 0.11140689
#
# Stress axis : x y z
#
# Youngs Moduli (GPa) = 8.64105 119.96925 102.07617
#
# Poissons Ratio (x) = 0.31558 0.61530
# Poissons Ratio (y) = 0.02273 0.26209
# Poissons Ratio (z) = 0.05209 0.30803
#
# Static dielectric constant tensor:
#      x y z
#    x 1.680520 0.000000 0.000000 
#    y 0.000000 1.686930 0.000000 
#    z 0.000000 0.000000 1.662670 
# 
# From -- ./inp_files/21558.got.cif
#   From: 2010.05.17/outbox.cif.g08.bks.cpg/sg47_11_cif.got.tgz:21558.got - 2010.06.03 20:15:42.
