data_PCOD9383721
_publ_section_title
;
Structure prediction by ZEFSAII (Michael W. Deem and Ramdas Pophale) SiO2 
 PCOD9383721
Probable space group: P M M M
;
_chemical_formula_sum "Si O2"
_cell_formula_units_Z 52
_cell_length_a 19.228436
_cell_length_b 9.325302
_cell_length_c 15.533100
_cell_angle_alpha 90.000000
_cell_angle_beta 90.000000
_cell_angle_gamma 90.000000
_cell_volume 2785.255270
_symmetry_space_group_name_H-M "P M M M"
_symmetry_group_IT_number 47
_symmetry_cell_setting 'orthorhombic'
loop_
_space_group_symop_operation_xyz
x,y,z
-x,-y,z
x,-y,-z
-x,y,-z
-x,-y,-z
x,y,-z
-x,y,z
x,-y,z
loop_
_atom_site_type_symbol
_atom_site_label
_atom_site_fract_x
_atom_site_fract_y
_atom_site_fract_z
Si Si1 0.921688 0.674513 0.000000
Si Si2 0.686368 0.172425 0.899008
Si Si3 0.330708 0.670999 0.397267
Si Si4 0.081171 0.334823 0.675157
Si Si5 0.418154 0.828695 0.747164
Si Si6 0.175676 0.331647 0.155393
Si Si7 0.194282 0.841932 0.398972
O O1 0.877818 0.717406 0.917787
O O2 0.925145 0.500000 0.000000
O O3 0.000000 0.728755 0.000000
O O4 0.622315 0.208802 0.835609
O O5 0.754507 0.242282 0.856222
O O6 0.693188 0.000000 0.899162
O O7 0.679452 0.217245 0.000000
O O8 0.342733 0.699390 0.500000
O O9 0.330371 0.500000 0.386141
O O10 0.385755 0.745163 0.334053
O O11 0.255610 0.735515 0.370168
O O12 0.085848 0.500000 0.644448
O O13 0.130889 0.321483 0.758077
O O14 0.118208 0.224783 0.612086
O O15 0.000000 0.306297 0.693187
O O16 0.500000 0.799897 0.754978
O O17 0.408667 0.000000 0.733176
O O18 0.192620 0.500000 0.142326
O O19 0.206577 0.856056 0.500000
O O20 0.199974 0.000000 0.358249
#
# Coordination Sequence:
#
# PCOD9383721 Si02
#       7
#     4   8   8   8   8   8   8
#     4   9  16  28  49  75 102 133 170 214 261 311
#     4  10  21  37  57  81 111 147 188 236 285 333
#     4  10  21  38  61  88 117 149 185 228 281 339
#     4  10  21  35  52  78 111 146 186 233 285 336
#     4  10  22  39  59  85 116 151 190 231 278 334
#     4  10  19  33  54  79 105 138 181 226 270 327
#     4  10  21  37  57  80 107 143 188 233 276 328
#
# _framework density 18.669744000000001
#
# number of rings (size 3 to 8) (size 9 to 14) (size 15 to 20)
#    0.000    2.077    0.769    2.308    0.000    8.923 
#    0.000    4.615    0.000    1.846    0.000    2.154 
#    0.000    0.000    0.000    0.000    0.000    0.000 
#
# Total GULP energy -289966.403318 kJ/mol
# GULP energy per Si atom -5576.276987 kJ/mol
# Density = 1.862725 g / cm^3
# Si number density = 18.669744 Si / 1000 Ang^3
#
#
#
# Elastic Constant Matrix: (Units=GPa)
#
#
# Indices 1 2 3 4 5 6 
#
# 1 161.2914 66.5586 55.6060 0.0000 0.0000 0.0000
# 2 66.5586 60.4018 44.5807 0.0000 0.0000 0.0000
# 3 55.6060 44.5807 58.8557 0.0000 0.0000 0.0000
# 4 0.0000 0.0000 0.0000 19.2193 0.0000 0.0000
# 5 0.0000 0.0000 0.0000 0.0000 48.0783 0.0000
# 6 0.0000 0.0000 0.0000 0.0000 0.0000 28.3475
#
#
#
# Elastic Compliance Matrix: (Units=1/GPa)
#
#
# Indices 1 2 3 4 5 6 
#
# 1 0.011583 -0.010629 -0.002893 0.000000 0.000000 0.000000
# 2 -0.010629 0.047299 -0.025785 0.000000 0.000000 0.000000
# 3 -0.002893 -0.025785 0.039255 0.000000 0.000000 0.000000
# 4 0.000000 0.000000 0.000000 0.052031 0.000000 0.000000
# 5 0.000000 0.000000 0.000000 0.000000 0.020799 0.000000
# 6 0.000000 0.000000 0.000000 0.000000 0.000000 0.035277
#
#
# Mechanical properties :
#
#
# Convention : Reuss Voigt Hill
#
# Bulk Modulus (GPa) = 51.21947 68.22661 59.72304
# Shear Modulus (GPa) = 17.16050 26.71592 21.93821
#
# Velocity S-wave (km/s) = 3.03506 3.78693 3.43164
# Velocity P-wave (km/s) = 6.30683 7.46621 6.91088
#
# Compressibility (1/GPa) = 0.01952383
#
# Stress axis : x y z
#
# Youngs Moduli (GPa) = 86.32983 21.14189 25.47451
#
# Poissons Ratio (x) = 0.22472 0.07369
# Poissons Ratio (y) = 0.91761 0.65686
# Poissons Ratio (z) = 0.24974 0.54515
#
# Static dielectric constant tensor:
#      x y z
#    x 1.617950 0.000000 0.000000 
#    y 0.000000 1.651550 0.000000 
#    z 0.000000 0.000000 1.757360 
# 
# From -- ./inp_files/28524.got.cif
#   From: 2010.05.17/outbox.cif.g08.bks.cpg/sg47_15_cif.got.tgz:28524.got - 2010.06.03 20:15:42.
