data_PCOD9383922
_publ_section_title
;
Structure prediction by ZEFSAII (Michael W. Deem and Ramdas Pophale) SiO2 
 PCOD9383922
Probable space group: P M M M
;
_chemical_formula_sum "Si O2"
_cell_formula_units_Z 52
_cell_length_a 7.772899
_cell_length_b 20.192643
_cell_length_c 15.867678
_cell_angle_alpha 90.000000
_cell_angle_beta 90.000000
_cell_angle_gamma 90.000000
_cell_volume 2490.517344
_symmetry_space_group_name_H-M "P M M M"
_symmetry_group_IT_number 47
_symmetry_cell_setting 'orthorhombic'
loop_
_space_group_symop_operation_xyz
x,y,z
-x,-y,z
x,-y,-z
-x,y,-z
-x,-y,-z
x,y,-z
-x,y,z
x,-y,z
loop_
_atom_site_type_symbol
_atom_site_label
_atom_site_fract_x
_atom_site_fract_y
_atom_site_fract_z
Si Si1 0.292486 0.076342 0.905914
Si Si2 0.697153 0.424685 0.860494
Si Si3 0.803647 0.372050 0.683297
Si Si4 0.794901 0.186258 0.228993
Si Si5 0.789894 0.764691 0.596351
Si Si6 0.694348 0.500000 0.598199
Si Si7 0.201222 0.284496 0.910770
O O1 0.500000 0.077128 0.907616
O O2 0.237623 0.122832 0.829322
O O3 0.237758 0.000000 0.894206
O O4 0.232491 0.097778 0.000000
O O5 0.500000 0.427004 0.888846
O O6 0.767309 0.500000 0.866432
O O7 0.704688 0.398783 0.764572
O O8 0.786171 0.363679 0.906572
O O9 0.741646 0.307993 0.632409
O O10 0.795365 0.434803 0.623392
O O11 0.000000 0.357803 0.711165
O O12 0.731920 0.188048 0.325934
O O13 0.726774 0.247945 0.172054
O O14 0.000000 0.193931 0.236883
O O15 0.728907 0.775784 0.500000
O O16 0.000000 0.766444 0.591659
O O17 0.500000 0.500000 0.636262
O O18 0.674427 0.500000 0.500000
O O19 0.000000 0.267031 0.912331
O O20 0.280072 0.262233 0.000000
#
# Coordination Sequence:
#
# PCOD9383922 Si02
#       7
#     8   8   8   8   8   4   8
#     4   9  19  36  57  84 119 154 185 218 262 320
#     4  11  23  37  53  73 102 138 179 228 286 340
#     4  11  20  34  55  74  97 133 181 228 276 334
#     4  10  19  34  57  85 115 144 180 227 274 318
#     4   9  18  33  54  80 108 138 177 225 272 319
#     4  11  23  35  47  71 106 135 168 225 291 345
#     4  10  21  37  56  79 106 138 181 230 278 330
#
# _framework density 20.879197000000001
#
# number of rings (size 3 to 8) (size 9 to 14) (size 15 to 20)
#    0.000    1.923    2.308    2.538    0.000    4.615 
#    0.000    2.308    0.000    2.769    0.000    3.231 
#    0.000    0.000    0.000    0.000    0.000    0.000 
#
# Total GULP energy -289950.934193 kJ/mol
# GULP energy per Si atom -5575.979504 kJ/mol
# Density = 2.083168 g / cm^3
# Si number density = 20.879197 Si / 1000 Ang^3
#
#
#
# Elastic Constant Matrix: (Units=GPa)
#
#
# Indices 1 2 3 4 5 6 
#
# 1 34.7933 -3.2205 3.1863 0.0000 0.0000 0.0000
# 2 -3.2205 110.2242 66.4940 0.0000 0.0000 0.0000
# 3 3.1863 66.4940 184.7912 0.0000 0.0000 0.0000
# 4 0.0000 0.0000 0.0000 187.6310 0.0000 0.0000
# 5 0.0000 0.0000 0.0000 0.0000 9.0880 0.0000
# 6 0.0000 0.0000 0.0000 0.0000 0.0000 27.3712
#
#
#
# Elastic Compliance Matrix: (Units=1/GPa)
#
#
# Indices 1 2 3 4 5 6 
#
# 1 0.028971 0.001466 -0.001027 0.000000 0.000000 0.000000
# 2 0.001466 0.011662 -0.004222 0.000000 0.000000 0.000000
# 3 -0.001027 -0.004222 0.006948 0.000000 0.000000 0.000000
# 4 0.000000 0.000000 0.000000 0.005330 0.000000 0.000000
# 5 0.000000 0.000000 0.000000 0.000000 0.110035 0.000000
# 6 0.000000 0.000000 0.000000 0.000000 0.000000 0.036535
#
#
# Mechanical properties :
#
#
# Convention : Reuss Voigt Hill
#
# Bulk Modulus (GPa) = 24.99006 51.41425 38.20215
# Shear Modulus (GPa) = 22.68764 62.37464 42.53114
#
# Velocity S-wave (km/s) = 3.29996 5.47165 4.51822
# Velocity P-wave (km/s) = 5.14922 8.03720 6.74949
#
# Compressibility (1/GPa) = 0.04001592
#
# Stress axis : x y z
#
# Youngs Moduli (GPa) = 34.51737 85.74845 143.91976
#
# Poissons Ratio (x) = -0.12571 0.14782
# Poissons Ratio (y) = -0.05060 0.60758
# Poissons Ratio (z) = 0.03545 0.36200
#
# Static dielectric constant tensor:
#      x y z
#    x 1.809600 0.000000 0.000000 
#    y 0.000000 1.732980 0.000000 
#    z 0.000000 0.000000 1.820310 
# 
# From -- ./inp_files/26719.got.cif
#   From: 2010.05.17/outbox.cif.g08.bks.cpg/sg47_14_cif.got.tgz:26719.got - 2010.06.03 20:15:42.
