data_PCOD9383909
_publ_section_title
;
Structure prediction by ZEFSAII (Michael W. Deem and Ramdas Pophale) SiO2 
 PCOD9383909
Probable space group: P M M M
;
_chemical_formula_sum "Si O2"
_cell_formula_units_Z 44
_cell_length_a 9.316687
_cell_length_b 7.866513
_cell_length_c 32.830452
_cell_angle_alpha 90.000000
_cell_angle_beta 90.000000
_cell_angle_gamma 90.000000
_cell_volume 2406.138555
_symmetry_space_group_name_H-M "P M M M"
_symmetry_group_IT_number 47
_symmetry_cell_setting 'orthorhombic'
loop_
_space_group_symop_operation_xyz
x,y,z
-x,-y,z
x,-y,-z
-x,y,-z
-x,-y,-z
x,y,-z
-x,y,z
x,-y,z
loop_
_atom_site_type_symbol
_atom_site_label
_atom_site_fract_x
_atom_site_fract_y
_atom_site_fract_z
Si Si1 0.333610 0.793244 0.544923
Si Si2 0.664737 0.298347 0.080551
Si Si3 0.827853 0.198057 0.626589
Si Si4 0.826996 0.500000 0.687870
Si Si5 0.836625 0.203724 0.000000
Si Si6 0.325526 0.187187 0.168779
Si Si7 0.674243 0.500000 0.225491
O O1 0.283678 0.735762 0.500000
O O2 0.500000 0.742340 0.549677
O O3 0.241874 0.743759 0.583978
O O4 0.330671 0.000000 0.544259
O O5 0.500000 0.240247 0.073788
O O6 0.660947 0.500000 0.087861
O O7 0.721940 0.216235 0.122182
O O8 0.755562 0.262117 0.040565
O O9 0.788941 0.331497 0.661775
O O10 0.000000 0.200891 0.622440
O O11 0.785773 0.000000 0.634649
O O12 0.746652 0.500000 0.730668
O O13 0.000000 0.500000 0.693571
O O14 0.000000 0.266517 0.000000
O O15 0.837676 0.000000 0.000000
O O16 0.500000 0.194518 0.167040
O O17 0.281461 0.335557 0.199156
O O18 0.282614 0.000000 0.182807
O O19 0.500000 0.500000 0.229188
#
# Coordination Sequence:
#
# PCOD9383909 Si02
#       7
#     8   8   8   4   4   8   4
#     4   8  14  26  46  73 104 135 167 207 254 300
#     4  10  19  34  57  82 106 137 180 222 260 311
#     4   9  18  33  52  72  97 133 174 211 248 297
#     4  10  22  38  53  73 103 134 166 210 263 307
#     4  11  24  37  48  72 112 151 186 222 259 305
#     4   9  17  32  56  83 109 134 164 212 264 304
#     4  10  20  36  56  80 104 128 167 211 254 315
#
# _framework density 18.286560000000001
#
# number of rings (size 3 to 8) (size 9 to 14) (size 15 to 20)
#    0.000    2.636    0.909    1.636    0.000    4.727 
#    0.000    3.182    0.000    3.818    0.000    0.000 
#    0.000    0.000    0.000    0.000    0.000    0.000 
#
# Total GULP energy -245360.984279 kJ/mol
# GULP energy per Si atom -5576.386006 kJ/mol
# Density = 1.824494 g / cm^3
# Si number density = 18.286560 Si / 1000 Ang^3
#
#
#
# Elastic Constant Matrix: (Units=GPa)
#
#
# Indices 1 2 3 4 5 6 
#
# 1 32.8903 26.2737 51.8242 0.0000 0.0000 0.0000
# 2 26.2737 107.6946 78.2125 0.0000 0.0000 0.0000
# 3 51.8242 78.2125 180.6751 0.0000 0.0000 0.0000
# 4 0.0000 0.0000 0.0000 14.9497 0.0000 0.0000
# 5 0.0000 0.0000 0.0000 0.0000 -65.5493 0.0000
# 6 0.0000 0.0000 0.0000 0.0000 0.0000 10.9235
#
#
#
# Elastic Compliance Matrix: (Units=1/GPa)
#
#
# Indices 1 2 3 4 5 6 
#
# 1 0.056099 -0.002917 -0.014828 0.000000 0.000000 0.000000
# 2 -0.002917 0.013695 -0.005092 0.000000 0.000000 0.000000
# 3 -0.014828 -0.005092 0.011992 0.000000 0.000000 0.000000
# 4 0.000000 0.000000 0.000000 0.066891 0.000000 0.000000
# 5 0.000000 0.000000 0.000000 0.000000 -0.015256 0.000000
# 6 0.000000 0.000000 0.000000 0.000000 0.000000 0.091545
#
#
# Mechanical properties :
#
#
# Convention : Reuss Voigt Hill
#
# Bulk Modulus (GPa) = 27.69175 70.43120 49.06148
# Shear Modulus (GPa) = 17.68788 3.06141 10.37464
#
# Velocity S-wave (km/s) = 3.11346 1.29529 2.38447
# Velocity P-wave (km/s) = 5.30103 6.39030 5.87098
#
# Compressibility (1/GPa) = 0.03611183
#
# Stress axis : x y z
#
# Youngs Moduli (GPa) = 17.82556 73.01934 83.38689
#
# Poissons Ratio (x) = 0.21301 1.23650
# Poissons Ratio (y) = 0.05200 0.42458
# Poissons Ratio (z) = 0.26433 0.37179
#
# Static dielectric constant tensor:
#      x y z
#    x 1.611840 0.000000 0.000000 
#    y 0.000000 1.659400 0.000000 
#    z 0.000000 0.000000 1.604620 
# 
# From -- ./inp_files/33990.got.cif
#   From: 2010.05.17/outbox.cif.g08.bks.cpg/sg47_17_cif.got.tgz:33990.got - 2010.06.03 20:15:42.
