data_PCOD9383376
_publ_section_title
;
Structure prediction by ZEFSAII (Michael W. Deem and Ramdas Pophale) SiO2 
 PCOD9383376
Probable space group: P M M M
;
_chemical_formula_sum "Si O2"
_cell_formula_units_Z 64
_cell_length_a 21.175096
_cell_length_b 18.246014
_cell_length_c 7.969963
_cell_angle_alpha 90.000000
_cell_angle_beta 90.000000
_cell_angle_gamma 90.000000
_cell_volume 3079.283656
_symmetry_space_group_name_H-M "P M M M"
_symmetry_group_IT_number 47
_symmetry_cell_setting 'orthorhombic'
loop_
_space_group_symop_operation_xyz
x,y,z
-x,-y,z
x,-y,-z
-x,y,-z
-x,-y,-z
x,y,-z
-x,y,z
x,-y,z
loop_
_atom_site_type_symbol
_atom_site_label
_atom_site_fract_x
_atom_site_fract_y
_atom_site_fract_z
Si Si1 0.571094 0.883161 0.691976
Si Si2 0.932188 0.743291 0.301210
Si Si3 0.291424 0.919466 0.705162
Si Si4 0.628419 0.421570 0.691541
Si Si5 0.758614 0.381251 0.803718
Si Si6 0.097414 0.580377 0.201382
Si Si7 0.792633 0.781018 0.704336
Si Si8 0.425945 0.272190 0.815320
O O1 0.567413 0.909093 0.500000
O O2 0.500000 0.894652 0.766084
O O3 0.635784 0.914478 0.766517
O O4 0.583781 0.795649 0.692698
O O5 0.932538 0.757767 0.500000
O O6 0.929217 0.655251 0.276469
O O7 0.866060 0.776958 0.236861
O O8 0.000000 0.768746 0.230654
O O9 0.294118 0.915108 0.500000
O O10 0.247436 0.851784 0.759129
O O11 0.266122 0.000000 0.749179
O O12 0.606055 0.417465 0.500000
O O13 0.607473 0.500000 0.763628
O O14 0.703917 0.417866 0.698090
O O15 0.607603 0.348004 0.781319
O O16 0.827562 0.413244 0.768105
O O17 0.761509 0.294412 0.767034
O O18 0.745026 0.393502 0.000000
O O19 0.075427 0.500000 0.259685
O O20 0.087204 0.583684 0.000000
O O21 0.792552 0.779052 0.500000
O O22 0.500000 0.288446 0.811434
O O23 0.408616 0.244313 0.000000
#
# Coordination Sequence:
#
# PCOD9383376 Si02
#       8
#     8   8   8   8   8   8   8   8
#     4   9  17  30  50  75 102 130 158 192 236 289
#     4   9  18  31  46  66  92 124 164 207 249 291
#     4   9  17  29  48  75 102 127 158 195 235 284
#     4  11  23  35  48  68  94 125 162 205 251 296
#     4  10  19  32  51  72  95 124 160 201 243 289
#     4   9  18  31  46  67  96 127 158 196 243 291
#     4   9  17  31  51  71  94 127 164 202 243 289
#     4  10  21  36  53  71  92 122 161 204 248 294
#
# _framework density 20.784054999999999
#
# number of rings (size 3 to 8) (size 9 to 14) (size 15 to 20)
#    0.000    2.500    0.000    2.250    0.000    5.000 
#    0.000    3.750    0.000    1.875    0.000    4.375 
#    0.000    0.000    0.000    6.250    0.000    6.500 
#
# Total GULP energy -356914.947865 kJ/mol
# GULP energy per Si atom -5576.796060 kJ/mol
# Density = 2.073675 g / cm^3
# Si number density = 20.784055 Si / 1000 Ang^3
#
#
#
# Elastic Constant Matrix: (Units=GPa)
#
#
# Indices 1 2 3 4 5 6 
#
# 1 65.1616 65.0777 8.4409 0.0000 0.0000 0.0000
# 2 65.0777 110.8659 -2.3882 0.0000 0.0000 0.0000
# 3 8.4409 -2.3882 22.5403 0.0000 0.0000 0.0000
# 4 0.0000 0.0000 0.0000 -44.0299 0.0000 0.0000
# 5 0.0000 0.0000 0.0000 0.0000 5.8213 0.0000
# 6 0.0000 0.0000 0.0000 0.0000 0.0000 -7.2575
#
#
#
# Elastic Compliance Matrix: (Units=1/GPa)
#
#
# Indices 1 2 3 4 5 6 
#
# 1 0.044143 -0.026328 -0.019320 0.000000 0.000000 0.000000
# 2 -0.026328 0.024743 0.012481 0.000000 0.000000 0.000000
# 3 -0.019320 0.012481 0.052922 0.000000 0.000000 0.000000
# 4 0.000000 0.000000 0.000000 -0.022712 0.000000 0.000000
# 5 0.000000 0.000000 0.000000 0.000000 0.171782 0.000000
# 6 0.000000 0.000000 0.000000 0.000000 0.000000 -0.137788
#
#
# Mechanical properties :
#
#
# Convention : Reuss Voigt Hill
#
# Bulk Modulus (GPa) = 18.02645 37.86986 27.94816
# Shear Modulus (GPa) = 22.94445 -0.59739 11.17353
#
# Velocity S-wave (km/s) = 3.32617 -0.53671 2.32114
# Velocity P-wave (km/s) = 4.84182 4.22802 4.54529
#
# Compressibility (1/GPa) = 0.05547403
#
# Stress axis : x y z
#
# Youngs Moduli (GPa) = 22.65345 40.41509 18.89557
#
# Poissons Ratio (x) = 1.06405 0.36507
# Poissons Ratio (y) = 0.59642 -0.23583
# Poissons Ratio (z) = 0.43767 -0.50442
#
# Static dielectric constant tensor:
#      x y z
#    x 1.788290 0.000000 0.000000 
#    y 0.000000 1.747350 0.000000 
#    z 0.000000 0.000000 1.760800 
# 
# From -- ./inp_files/9998.got.cif
#   From: 2010.05.17/outbox.cif.g08.bks.cpg/sg47_5_cif.got.tgz:9998.got - 2010.06.03 20:15:42.
