data_PCOD9383140
_publ_section_title
;
Structure prediction by ZEFSAII (Michael W. Deem and Ramdas Pophale) SiO2 
 PCOD9383140
Probable space group: P M M M
;
_chemical_formula_sum "Si O2"
_cell_formula_units_Z 64
_cell_length_a 20.282960
_cell_length_b 7.810129
_cell_length_c 21.564145
_cell_angle_alpha 90.000000
_cell_angle_beta 90.000000
_cell_angle_gamma 90.000000
_cell_volume 3416.030855
_symmetry_space_group_name_H-M "P M M M"
_symmetry_group_IT_number 47
_symmetry_cell_setting 'orthorhombic'
loop_
_space_group_symop_operation_xyz
x,y,z
-x,-y,z
x,-y,-z
-x,y,-z
-x,-y,-z
x,y,-z
-x,y,z
x,-y,z
loop_
_atom_site_type_symbol
_atom_site_label
_atom_site_fract_x
_atom_site_fract_y
_atom_site_fract_z
Si Si1 0.927227 0.706391 0.265137
Si Si2 0.290955 0.203392 0.810326
Si Si3 0.926932 0.291016 0.879227
Si Si4 0.787179 0.203829 0.690009
Si Si5 0.573545 0.296189 0.753981
Si Si6 0.572708 0.201248 0.611935
Si Si7 0.712547 0.210222 0.568110
Si Si8 0.210949 0.705589 0.931999
O O1 0.927018 0.500000 0.265510
O O2 0.919138 0.759043 0.193018
O O3 0.864788 0.766392 0.303608
O O4 0.000000 0.764227 0.285838
O O5 0.249040 0.274725 0.751667
O O6 0.366827 0.251424 0.799161
O O7 0.259377 0.256314 0.875283
O O8 0.286239 0.000000 0.807756
O O9 0.926989 0.500000 0.881049
O O10 0.862889 0.230554 0.915938
O O11 0.000000 0.236111 0.900462
O O12 0.755511 0.270286 0.626450
O O13 0.775828 0.000000 0.690020
O O14 0.500000 0.242968 0.774780
O O15 0.573240 0.500000 0.745427
O O16 0.584782 0.216541 0.685893
O O17 0.500000 0.276133 0.599010
O O18 0.637187 0.269965 0.578202
O O19 0.569400 0.000000 0.596543
O O20 0.736328 0.261460 0.500000
O O21 0.711989 0.000000 0.569559
O O22 0.206537 0.500000 0.934856
O O23 0.231820 0.768500 0.000000
#
# Coordination Sequence:
#
# PCOD9383140 Si02
#       8
#     8   8   8   8   8   8   8   8
#     4   9  17  30  50  74  98 127 164 207 254 300
#     4  11  21  34  53  76 103 135 171 211 252 297
#     4   8  14  26  45  71 101 131 166 204 241 287
#     4  10  19  31  49  75 100 129 169 210 254 298
#     4  10  20  33  52  78 104 131 166 209 255 299
#     4   9  16  28  47  72 103 136 169 203 243 295
#     4   9  17  30  47  70 102 135 170 213 254 294
#     4  10  20  33  51  76 105 138 174 209 249 299
#
# _framework density 18.735192999999999
#
# number of rings (size 3 to 8) (size 9 to 14) (size 15 to 20)
#    0.000    2.500    2.500    1.500    0.000    2.250 
#    0.000    2.500    0.000    2.625    0.000    7.875 
#    0.000    0.000    0.000    0.000    0.000    0.000 
#
# Total GULP energy -356918.280612 kJ/mol
# GULP energy per Si atom -5576.848135 kJ/mol
# Density = 1.869255 g / cm^3
# Si number density = 18.735193 Si / 1000 Ang^3
#
#
#
# Elastic Constant Matrix: (Units=GPa)
#
#
# Indices 1 2 3 4 5 6 
#
# 1 126.9317 0.6685 83.4965 0.0000 0.0000 0.0000
# 2 0.6685 22.8268 10.2966 0.0000 0.0000 0.0000
# 3 83.4965 10.2966 120.3389 0.0000 0.0000 0.0000
# 4 0.0000 0.0000 0.0000 32.1364 0.0000 0.0000
# 5 0.0000 0.0000 0.0000 0.0000 23.4275 0.0000
# 6 0.0000 0.0000 0.0000 0.0000 0.0000 17.3315
#
#
#
# Elastic Compliance Matrix: (Units=1/GPa)
#
#
# Indices 1 2 3 4 5 6 
#
# 1 0.014906 0.004398 -0.010719 0.000000 0.000000 0.000000
# 2 0.004398 0.046865 -0.007062 0.000000 0.000000 0.000000
# 3 -0.010719 -0.007062 0.016351 0.000000 0.000000 0.000000
# 4 0.000000 0.000000 0.000000 0.031117 0.000000 0.000000
# 5 0.000000 0.000000 0.000000 0.000000 0.042685 0.000000
# 6 0.000000 0.000000 0.000000 0.000000 0.000000 0.057698
#
#
# Mechanical properties :
#
#
# Convention : Reuss Voigt Hill
#
# Bulk Modulus (GPa) = 19.47125 51.00229 35.23677
# Shear Modulus (GPa) = 19.72340 26.28813 23.00576
#
# Velocity S-wave (km/s) = 3.24812 3.74992 3.50800
# Velocity P-wave (km/s) = 4.94798 6.78461 5.93774
#
# Compressibility (1/GPa) = 0.05135777
#
# Stress axis : x y z
#
# Youngs Moduli (GPa) = 67.08729 21.33802 61.15744
#
# Poissons Ratio (x) = -0.09385 0.65553
# Poissons Ratio (y) = -0.29508 0.43188
# Poissons Ratio (z) = 0.71909 0.15068
#
# Static dielectric constant tensor:
#      x y z
#    x 1.699890 0.000000 0.000000 
#    y 0.000000 1.693680 0.000000 
#    z 0.000000 0.000000 1.659940 
# 
# From -- ./inp_files/31360.got.cif
#   From: 2010.05.17/outbox.cif.g08.bks.cpg/sg47_16_cif.got.tgz:31360.got - 2010.06.03 20:15:42.
