data_PCOD9383408
_publ_section_title
;
Structure prediction by ZEFSAII (Michael W. Deem and Ramdas Pophale) SiO2 
 PCOD9383408
Probable space group: P M M M
;
_chemical_formula_sum "Si O2"
_cell_formula_units_Z 56
_cell_length_a 19.075465
_cell_length_b 10.428239
_cell_length_c 15.364418
_cell_angle_alpha 90.000000
_cell_angle_beta 90.000000
_cell_angle_gamma 90.000000
_cell_volume 3056.343928
_symmetry_space_group_name_H-M "P M M M"
_symmetry_group_IT_number 47
_symmetry_cell_setting 'orthorhombic'
loop_
_space_group_symop_operation_xyz
x,y,z
-x,-y,z
x,-y,-z
-x,y,-z
-x,-y,-z
x,y,-z
-x,y,z
x,-y,z
loop_
_atom_site_type_symbol
_atom_site_label
_atom_site_fract_x
_atom_site_fract_y
_atom_site_fract_z
Si Si1 0.082344 0.143696 0.789638
Si Si2 0.190105 0.355606 0.836522
Si Si3 0.079691 0.236998 0.404423
Si Si4 0.416425 0.149133 0.226899
Si Si5 0.665488 0.147504 0.404060
Si Si6 0.778681 0.360149 0.367532
Si Si7 0.657698 0.350133 0.099885
O O1 0.129678 0.249894 0.835958
O O2 0.089788 0.156229 0.684092
O O3 0.000000 0.162237 0.808116
O O4 0.103074 0.000000 0.814855
O O5 0.164420 0.500000 0.855941
O O6 0.218155 0.356042 0.737062
O O7 0.258540 0.328095 0.893453
O O8 0.085196 0.172416 0.500000
O O9 0.141898 0.339395 0.399322
O O10 0.000000 0.288976 0.399090
O O11 0.500000 0.163592 0.225676
O O12 0.386406 0.171089 0.323939
O O13 0.380812 0.250279 0.162303
O O14 0.399968 0.000000 0.203845
O O15 0.632541 0.160483 0.500000
O O16 0.729808 0.245332 0.398103
O O17 0.690587 0.000000 0.396084
O O18 0.752398 0.500000 0.394368
O O19 0.646225 0.500000 0.125348
O O20 0.634933 0.334795 0.000000
#
# Coordination Sequence:
#
# PCOD9383408 Si02
#       7
#     8   8   8   8   8   8   8
#     4   9  18  31  48  72 101 138 184 230 276 325
#     4   9  18  33  53  77 105 139 179 223 272 326
#     4   9  18  30  42  63 100 142 182 228 279 325
#     4  10  22  40  61  86 117 150 183 224 273 325
#     4  10  21  36  55  80 110 148 191 230 271 321
#     4  10  19  32  51  74 102 139 184 233 279 322
#     4  10  21  39  63  89 116 146 182 224 274 335
#
# _framework density 18.322544000000001
#
# number of rings (size 3 to 8) (size 9 to 14) (size 15 to 20)
#    0.000    2.429    1.429    0.429    0.000    6.000 
#    0.000    7.857    0.000    0.429    0.000    5.000 
#    0.000    0.000    0.000    0.000    0.000    0.000 
#
# Total GULP energy -312082.354469 kJ/mol
# GULP energy per Si atom -5572.899187 kJ/mol
# Density = 1.828084 g / cm^3
# Si number density = 18.322544 Si / 1000 Ang^3
#
#
#
# Elastic Constant Matrix: (Units=GPa)
#
#
# Indices 1 2 3 4 5 6 
#
# 1 79.5976 81.3490 39.4611 0.0000 0.0000 0.0000
# 2 81.3490 142.0892 56.8763 0.0000 0.0000 0.0000
# 3 39.4611 56.8763 72.0792 0.0000 0.0000 0.0000
# 4 0.0000 0.0000 0.0000 10.5424 0.0000 0.0000
# 5 0.0000 0.0000 0.0000 0.0000 1.3098 0.0000
# 6 0.0000 0.0000 0.0000 0.0000 0.0000 23.2552
#
#
#
# Elastic Compliance Matrix: (Units=1/GPa)
#
#
# Indices 1 2 3 4 5 6 
#
# 1 0.031193 -0.016112 -0.004364 0.000000 0.000000 0.000000
# 2 -0.016112 0.018609 -0.005863 0.000000 0.000000 0.000000
# 3 -0.004364 -0.005863 0.020889 0.000000 0.000000 0.000000
# 4 0.000000 0.000000 0.000000 0.094855 0.000000 0.000000
# 5 0.000000 0.000000 0.000000 0.000000 0.763465 0.000000
# 6 0.000000 0.000000 0.000000 0.000000 0.000000 0.043001
#
#
# Mechanical properties :
#
#
# Convention : Reuss Voigt Hill
#
# Bulk Modulus (GPa) = 55.51349 72.12651 63.82000
# Shear Modulus (GPa) = 4.85110 14.76014 9.80562
#
# Velocity S-wave (km/s) = 1.62891 2.84134 2.31588
# Velocity P-wave (km/s) = 5.82250 7.08623 6.48522
#
# Compressibility (1/GPa) = 0.01801364
#
# Stress axis : x y z
#
# Youngs Moduli (GPa) = 32.05865 53.73666 47.87151
#
# Poissons Ratio (x) = 0.86580 0.20889
# Poissons Ratio (y) = 0.51653 0.28069
# Poissons Ratio (z) = 0.13989 0.31508
#
# Static dielectric constant tensor:
#      x y z
#    x 1.606180 0.000000 0.000000 
#    y 0.000000 1.633320 0.000000 
#    z 0.000000 0.000000 1.660500 
# 
# From -- ./inp_files/25152.got.cif
#   From: 2010.05.17/outbox.cif.g08.bks.cpg/sg47_13_cif.got.tgz:25152.got - 2010.06.03 20:15:42.
