data_PCOD9383276
_publ_section_title
;
Structure prediction by ZEFSAII (Michael W. Deem and Ramdas Pophale) SiO2 
 PCOD9383276
Probable space group: P M M M
;
_chemical_formula_sum "Si O2"
_cell_formula_units_Z 36
_cell_length_a 24.356051
_cell_length_b 12.910795
_cell_length_c 7.431073
_cell_angle_alpha 90.000000
_cell_angle_beta 90.000000
_cell_angle_gamma 90.000000
_cell_volume 2336.745354
_symmetry_space_group_name_H-M "P M M M"
_symmetry_group_IT_number 47
_symmetry_cell_setting 'orthorhombic'
loop_
_space_group_symop_operation_xyz
x,y,z
-x,-y,z
x,-y,-z
-x,y,-z
-x,-y,-z
x,y,-z
-x,y,z
x,-y,z
loop_
_atom_site_type_symbol
_atom_site_label
_atom_site_fract_x
_atom_site_fract_y
_atom_site_fract_z
Si Si1 0.138412 0.806451 0.217329
Si Si2 0.438841 0.874121 0.207288
Si Si3 0.774564 0.874128 0.500000
Si Si4 0.062071 0.000000 0.782196
Si Si5 0.062065 0.618510 0.781149
Si Si6 0.352525 0.873892 0.500000
O O1 0.193437 0.830270 0.326428
O O2 0.096129 0.898356 0.266584
O O3 0.108440 0.699905 0.271271
O O4 0.146512 0.807844 0.000000
O O5 0.500000 0.842478 0.270113
O O6 0.388516 0.839410 0.329244
O O7 0.438772 0.000000 0.212168
O O8 0.432625 0.843289 0.000000
O O9 0.710767 0.843073 0.500000
O O10 0.778185 0.000000 0.500000
O O11 0.000000 0.000000 0.714289
O O12 0.059221 0.000000 0.000000
O O13 0.071947 0.500000 0.724472
O O14 0.000000 0.648472 0.724617
O O15 0.061414 0.619320 0.000000
O O16 0.352208 0.000000 0.500000
#
# Coordination Sequence:
#
# PCOD9383276 Si02
#       6
#     8   8   4   4   8   4
#     4  10  19  32  47  62  85 113 140 178 221 261
#     4   8  13  22  37  57  77  97 129 174 218 252
#     4  11  22  33  41  57  84 116 158 187 205 247
#     4   9  16  27  45  63  78 105 139 170 214 262
#     4   8  14  27  49  72  88 104 131 173 229 285
#     4   9  17  26  37  51  74 108 141 177 212 241
#
# _framework density 15.406043
#
# number of rings (size 3 to 8) (size 9 to 14) (size 15 to 20)
#    0.000    3.000    1.111    2.333    0.000    4.889 
#    0.000    5.556    0.000    1.333    0.000    0.000 
#    0.000    0.000    0.000    0.000    0.000    8.889 
#
# Total GULP energy -200552.746172 kJ/mol
# GULP energy per Si atom -5570.909616 kJ/mol
# Density = 1.537098 g / cm^3
# Si number density = 15.406043 Si / 1000 Ang^3
#
#
#
# Elastic Constant Matrix: (Units=GPa)
#
#
# Indices 1 2 3 4 5 6 
#
# 1 169.9245 45.2026 64.4825 0.0000 0.0000 0.0000
# 2 45.2026 53.1100 19.5353 0.0000 0.0000 0.0000
# 3 64.4825 19.5353 75.8172 0.0000 0.0000 0.0000
# 4 0.0000 0.0000 0.0000 -1.5588 0.0000 0.0000
# 5 0.0000 0.0000 0.0000 0.0000 -949.0178 0.0000
# 6 0.0000 0.0000 0.0000 0.0000 0.0000 11.2076
#
#
#
# Elastic Compliance Matrix: (Units=1/GPa)
#
#
# Indices 1 2 3 4 5 6 
#
# 1 0.010195 -0.006063 -0.007109 0.000000 0.000000 0.000000
# 2 -0.006063 0.024405 -0.001132 0.000000 0.000000 0.000000
# 3 -0.007109 -0.001132 0.019528 0.000000 0.000000 0.000000
# 4 0.000000 0.000000 0.000000 -0.641529 0.000000 0.000000
# 5 0.000000 0.000000 0.000000 0.000000 -0.001054 0.000000
# 6 0.000000 0.000000 0.000000 0.000000 0.000000 0.089225
#
#
# Mechanical properties :
#
#
# Convention : Reuss Voigt Hill
#
# Bulk Modulus (GPa) = 39.18396 61.92139 50.55268
# Shear Modulus (GPa) = -10.81982 -176.56505 -93.69243
#
# Velocity S-wave (km/s) = -2.65299 -10.71711 -7.80688
# Velocity P-wave (km/s) = 4.01309 10.62364 6.95546
#
# Compressibility (1/GPa) = 0.02552065
#
# Stress axis : x y z
#
# Youngs Moduli (GPa) = 98.08294 40.97495 51.20946
#
# Poissons Ratio (x) = 0.24841 0.36405
# Poissons Ratio (y) = 0.59463 0.05798
# Poissons Ratio (z) = 0.69728 0.04639
#
# Static dielectric constant tensor:
#      x y z
#    x 1.498860 0.000000 0.000000 
#    y 0.000000 1.493860 0.000000 
#    z 0.000000 0.000000 1.568200 
# 
# From -- ./inp_files/10613.got.cif
#   From: 2010.05.17/outbox.cif.g08.bks.cpg/sg47_6_cif.got.tgz:10613.got - 2010.06.03 20:15:42.
