data_PCOD9383936
_publ_section_title
;
Structure prediction by ZEFSAII (Michael W. Deem and Ramdas Pophale) SiO2 
 PCOD9383936
Probable space group: P M M M
;
_chemical_formula_sum "Si O2"
_cell_formula_units_Z 37
_cell_length_a 8.488633
_cell_length_b 7.629725
_cell_length_c 27.270081
_cell_angle_alpha 90.000000
_cell_angle_beta 90.000000
_cell_angle_gamma 90.000000
_cell_volume 1766.172305
_symmetry_space_group_name_H-M "P M M M"
_symmetry_group_IT_number 47
_symmetry_cell_setting 'orthorhombic'
loop_
_space_group_symop_operation_xyz
x,y,z
-x,-y,z
x,-y,-z
-x,y,-z
-x,-y,-z
x,y,-z
-x,y,z
x,-y,z
loop_
_atom_site_type_symbol
_atom_site_label
_atom_site_fract_x
_atom_site_fract_y
_atom_site_fract_z
Si Si1 0.000000 0.500000 0.000000
Si Si2 0.673899 0.787543 0.853119
Si Si3 0.827799 0.206674 0.757006
Si Si4 0.000000 0.214315 0.088710
Si Si5 0.326359 0.706088 0.342378
Si Si6 0.817239 0.788608 0.446574
O O1 0.000000 0.343479 0.957427
O O2 0.500000 0.724818 0.870346
O O3 0.703166 0.727483 0.796873
O O4 0.836091 0.746379 0.881973
O O5 0.665283 0.000000 0.854703
O O6 0.783604 0.223097 0.700306
O O7 0.000000 0.285211 0.765552
O O8 0.838234 0.000000 0.767069
O O9 0.000000 0.000000 0.079231
O O10 0.500000 0.783995 0.336755
O O11 0.333437 0.500000 0.333598
O O12 0.270071 0.731593 0.397846
O O13 0.755108 0.729746 0.500000
O O14 0.000000 0.733556 0.443329
O O15 0.814802 0.000000 0.446824
#
# Coordination Sequence:
#
# PCOD9383936 Si02
#       6
#     1   8   8   4   8   8
#     4  12  26  44  70 102 132 182 226 256 332 366
#     4   9  17  34  63  93 123 164 208 254 314 370
#     4  10  19  34  58  87 115 147 195 248 296 357
#     4  10  21  43  67  96 135 171 219 272 310 372
#     4  11  24  37  48  73 113 151 187 230 288 355
#     4   9  19  37  59  79  98 128 178 237 293 352
#
# _framework density 20.949259999999999
#
# number of rings (size 3 to 8) (size 9 to 14) (size 15 to 20)
#    0.000    2.162    1.081    2.757    0.000    6.919 
#    1.946    4.865    0.000    2.595    0.000    0.000 
#    0.000    0.000    0.000    0.000    0.000    0.000 
#
# Total GULP energy -205991.563629 kJ/mol
# GULP energy per Si atom -5567.339558 kJ/mol
# Density = 2.090158 g / cm^3
# Si number density = 20.949260 Si / 1000 Ang^3
#
#
#
# Elastic Constant Matrix: (Units=GPa)
#
#
# Indices 1 2 3 4 5 6 
#
# 1 143.3177 12.9912 60.5568 0.0000 0.0000 0.0000
# 2 12.9912 51.6441 12.5450 0.0000 0.0000 0.0000
# 3 60.5568 12.5450 120.1316 0.0000 0.0000 0.0000
# 4 0.0000 0.0000 0.0000 132.6037 0.0000 0.0000
# 5 0.0000 0.0000 0.0000 0.0000 -9.0794 0.0000
# 6 0.0000 0.0000 0.0000 0.0000 0.0000 10.9474
#
#
#
# Elastic Compliance Matrix: (Units=1/GPa)
#
#
# Indices 1 2 3 4 5 6 
#
# 1 0.008936 -0.001184 -0.004381 0.000000 0.000000 0.000000
# 2 -0.001184 0.020024 -0.001494 0.000000 0.000000 0.000000
# 3 -0.004381 -0.001494 0.010689 0.000000 0.000000 0.000000
# 4 0.000000 0.000000 0.000000 0.007541 0.000000 0.000000
# 5 0.000000 0.000000 0.000000 0.000000 -0.110139 0.000000
# 6 0.000000 0.000000 0.000000 0.000000 0.000000 0.091346
#
#
# Mechanical properties :
#
#
# Convention : Reuss Voigt Hill
#
# Bulk Modulus (GPa) = 39.16852 54.14217 46.65535
# Shear Modulus (GPa) = 97.99267 42.16103 70.07685
#
# Velocity S-wave (km/s) = 6.84673 4.49099 5.78994
# Velocity P-wave (km/s) = 9.01338 7.26585 8.18638
#
# Compressibility (1/GPa) = 0.02553071
#
# Stress axis : x y z
#
# Youngs Moduli (GPa) = 111.90863 49.93991 93.55775
#
# Poissons Ratio (x) = 0.05911 0.40986
# Poissons Ratio (y) = 0.13246 0.13981
# Poissons Ratio (z) = 0.49025 0.07463
#
# Static dielectric constant tensor:
#      x y z
#    x 1.798350 0.000000 0.000000 
#    y 0.000000 1.770890 0.000000 
#    z 0.000000 0.000000 1.736910 
# 
# From -- ./inp_files/31668.got.cif
#   From: 2010.05.17/outbox.cif.g08.bks.cpg/sg47_16_cif.got.tgz:31668.got - 2010.06.03 20:15:42.
