data_PCOD9383776
_publ_section_title
;
Structure prediction by ZEFSAII (Michael W. Deem and Ramdas Pophale) SiO2 
 PCOD9383776
Probable space group: P M M M
;
_chemical_formula_sum "Si O2"
_cell_formula_units_Z 52
_cell_length_a 7.564650
_cell_length_b 20.621393
_cell_length_c 15.156159
_cell_angle_alpha 90.000000
_cell_angle_beta 90.000000
_cell_angle_gamma 90.000000
_cell_volume 2364.264116
_symmetry_space_group_name_H-M "P M M M"
_symmetry_group_IT_number 47
_symmetry_cell_setting 'orthorhombic'
loop_
_space_group_symop_operation_xyz
x,y,z
-x,-y,z
x,-y,-z
-x,y,-z
-x,-y,-z
x,y,-z
-x,y,z
x,-y,z
loop_
_atom_site_type_symbol
_atom_site_label
_atom_site_fract_x
_atom_site_fract_y
_atom_site_fract_z
Si Si1 0.292294 0.430240 0.709928
Si Si2 0.793396 0.841541 0.597897
Si Si3 0.713019 0.307356 0.397861
Si Si4 0.784823 0.760852 0.901496
Si Si5 0.213916 0.611265 0.901817
Si Si6 0.211479 0.875640 0.781624
Si Si7 0.289977 0.000000 0.100044
O O1 0.500000 0.430802 0.687123
O O2 0.216902 0.500000 0.681363
O O3 0.219721 0.364920 0.664967
O O4 0.276485 0.425310 0.815443
O O5 0.714263 0.850272 0.500000
O O6 0.783298 0.764739 0.620227
O O7 0.717893 0.879497 0.681887
O O8 0.000000 0.858740 0.590793
O O9 0.754923 0.322792 0.500000
O O10 0.500000 0.302893 0.389870
O O11 0.730020 0.686438 0.890415
O O12 0.718684 0.811233 0.829824
O O13 0.000000 0.760445 0.898990
O O14 0.733569 0.782371 0.000000
O O15 0.000000 0.609043 0.901569
O O16 0.270845 0.589569 0.000000
O O17 0.239855 0.936833 0.843996
O O18 0.000000 0.867491 0.773960
O O19 0.500000 0.000000 0.092993
O O20 0.216503 0.000000 0.000000
#
# Coordination Sequence:
#
# PCOD9383776 Si02
#       7
#     8   8   8   8   8   8   4
#     4  10  21  34  47  67  97 133 172 213 256 302
#     4   9  18  33  55  84 112 134 163 209 260 302
#     4   9  18  33  53  76 102 134 171 210 255 308
#     4   8  14  26  47  74  97 118 155 207 252 292
#     4   9  18  33  52  73  97 126 163 209 260 312
#     4  10  19  33  56  80 103 138 177 207 243 298
#     4  11  25  41  54  75 110 144 173 211 256 295
#
# _framework density 21.994159
#
# number of rings (size 3 to 8) (size 9 to 14) (size 15 to 20)
#    0.000    2.692    0.000    2.538    0.000    4.923 
#    0.000    4.231    0.000    3.231    0.000    3.231 
#    0.000    0.000    0.000    0.000    0.000    0.000 
#
# Total GULP energy -290221.329019 kJ/mol
# GULP energy per Si atom -5581.179404 kJ/mol
# Density = 2.194410 g / cm^3
# Si number density = 21.994159 Si / 1000 Ang^3
#
#
#
# Elastic Constant Matrix: (Units=GPa)
#
#
# Indices 1 2 3 4 5 6 
#
# 1 51.3367 -6.6830 2.0816 0.0000 0.0000 0.0000
# 2 -6.6830 47.9739 59.9672 0.0000 0.0000 0.0000
# 3 2.0816 59.9672 150.2871 0.0000 0.0000 0.0000
# 4 0.0000 0.0000 0.0000 -22.3782 0.0000 0.0000
# 5 0.0000 0.0000 0.0000 0.0000 12.0821 0.0000
# 6 0.0000 0.0000 0.0000 0.0000 0.0000 8.6746
#
#
#
# Elastic Compliance Matrix: (Units=1/GPa)
#
#
# Indices 1 2 3 4 5 6 
#
# 1 0.020425 0.006382 -0.002829 0.000000 0.000000 0.000000
# 2 0.006382 0.043581 -0.017478 0.000000 0.000000 0.000000
# 3 -0.002829 -0.017478 0.013667 0.000000 0.000000 0.000000
# 4 0.000000 0.000000 0.000000 -0.044686 0.000000 0.000000
# 5 0.000000 0.000000 0.000000 0.000000 0.082767 0.000000
# 6 0.000000 0.000000 0.000000 0.000000 0.000000 0.115279
#
#
# Mechanical properties :
#
#
# Convention : Reuss Voigt Hill
#
# Bulk Modulus (GPa) = 20.07134 40.03660 30.05397
# Shear Modulus (GPa) = 18.14941 12.62450 15.38695
#
# Velocity S-wave (km/s) = 2.87573 2.39841 2.64785
# Velocity P-wave (km/s) = 4.49133 5.09045 4.80024
#
# Compressibility (1/GPa) = 0.04982228
#
# Stress axis : x y z
#
# Youngs Moduli (GPa) = 48.96010 22.94566 73.16795
#
# Poissons Ratio (x) = -0.14644 0.20703
# Poissons Ratio (y) = -0.31247 1.27884
# Poissons Ratio (z) = 0.13853 0.40105
#
# Static dielectric constant tensor:
#      x y z
#    x 1.832730 0.000000 0.000000 
#    y 0.000000 1.789680 0.000000 
#    z 0.000000 0.000000 1.832450 
# 
# From -- ./inp_files/7060.got.cif
#   From: 2010.05.17/outbox.cif.g08.bks.cpg/sg47_4_cif.got.tgz:7060.got - 2010.06.03 20:15:42.
