data_PCOD9383241
_publ_section_title
;
Structure prediction by ZEFSAII (Michael W. Deem and Ramdas Pophale) SiO2 
 PCOD9383241
Probable space group: P M M M
;
_chemical_formula_sum "Si O2"
_cell_formula_units_Z 64
_cell_length_a 25.070337
_cell_length_b 7.883321
_cell_length_c 15.980926
_cell_angle_alpha 90.000000
_cell_angle_beta 90.000000
_cell_angle_gamma 90.000000
_cell_volume 3158.430488
_symmetry_space_group_name_H-M "P M M M"
_symmetry_group_IT_number 47
_symmetry_cell_setting 'orthorhombic'
loop_
_space_group_symop_operation_xyz
x,y,z
-x,-y,z
x,-y,-z
-x,y,-z
-x,-y,-z
x,y,-z
-x,y,z
x,-y,z
loop_
_atom_site_type_symbol
_atom_site_label
_atom_site_fract_x
_atom_site_fract_y
_atom_site_fract_z
Si Si1 0.559817 0.704591 0.404685
Si Si2 0.769783 0.699402 0.725776
Si Si3 0.647343 0.201465 0.270047
Si Si4 0.936984 0.703627 0.090174
Si Si5 0.060860 0.203188 0.727829
Si Si6 0.351891 0.794406 0.911079
Si Si7 0.772972 0.298004 0.909304
Si Si8 0.145123 0.798444 0.594507
O O1 0.569936 0.762036 0.500000
O O2 0.500000 0.762021 0.380584
O O3 0.559161 0.500000 0.405723
O O4 0.605523 0.759086 0.341814
O O5 0.781417 0.500000 0.726909
O O6 0.706204 0.722562 0.717101
O O7 0.787815 0.770572 0.817238
O O8 0.801193 0.774943 0.647813
O O9 0.625705 0.259273 0.178723
O O10 0.655250 0.000000 0.266623
O O11 0.933036 0.500000 0.089633
O O12 0.915909 0.762170 0.179548
O O13 0.000000 0.749065 0.090971
O O14 0.915700 0.764819 0.000000
O O15 0.097990 0.271423 0.653855
O O16 0.000000 0.269894 0.723827
O O17 0.058097 0.000000 0.719707
O O18 0.290926 0.729568 0.910608
O O19 0.350843 0.000000 0.911977
O O20 0.376264 0.738596 0.000000
O O21 0.784473 0.500000 0.909170
O O22 0.792245 0.230441 0.000000
O O23 0.147159 0.729207 0.500000
O O24 0.136137 0.000000 0.587594
#
# Coordination Sequence:
#
# PCOD9383241 Si02
#       8
#     8   8   8   8   8   8   8   8
#     4   9  19  36  55  74  99 132 169 211 259 306
#     4  10  20  34  53  76 103 135 169 204 244 295
#     4  10  19  31  52  80 106 134 169 208 249 295
#     4   8  14  26  46  73 104 135 163 192 233 288
#     4   9  18  33  54  78 100 125 162 207 253 302
#     4   8  14  25  42  67  99 132 164 197 236 284
#     4   8  14  26  45  69  96 125 158 196 237 282
#     4  10  22  39  55  71  96 129 164 208 259 304
#
# _framework density 20.26323
#
# number of rings (size 3 to 8) (size 9 to 14) (size 15 to 20)
#    0.000    3.000    0.000    1.500    0.000    3.250 
#    0.000    3.750    0.000    2.625    0.000    5.250 
#    0.000    0.000    0.000    0.000    0.000    0.000 
#
# Total GULP energy -356503.060212 kJ/mol
# GULP energy per Si atom -5570.360316 kJ/mol
# Density = 2.021711 g / cm^3
# Si number density = 20.263230 Si / 1000 Ang^3
#
#
#
# Elastic Constant Matrix: (Units=GPa)
#
#
# Indices 1 2 3 4 5 6 
#
# 1 59.5267 -9.3832 66.3836 0.0000 0.0000 0.0000
# 2 -9.3832 16.8857 5.7075 0.0000 0.0000 0.0000
# 3 66.3836 5.7075 217.2291 0.0000 0.0000 0.0000
# 4 0.0000 0.0000 0.0000 25.0174 0.0000 0.0000
# 5 0.0000 0.0000 0.0000 0.0000 79.1223 0.0000
# 6 0.0000 0.0000 0.0000 0.0000 0.0000 20.7361
#
#
#
# Elastic Compliance Matrix: (Units=1/GPa)
#
#
# Indices 1 2 3 4 5 6 
#
# 1 0.031405 0.020881 -0.010146 0.000000 0.000000 0.000000
# 2 0.020881 0.073636 -0.008316 0.000000 0.000000 0.000000
# 3 -0.010146 -0.008316 0.007922 0.000000 0.000000 0.000000
# 4 0.000000 0.000000 0.000000 0.039972 0.000000 0.000000
# 5 0.000000 0.000000 0.000000 0.000000 0.012639 0.000000
# 6 0.000000 0.000000 0.000000 0.000000 0.000000 0.048225
#
#
# Mechanical properties :
#
#
# Convention : Reuss Voigt Hill
#
# Bulk Modulus (GPa) = 8.48883 46.56192 27.52538
# Shear Modulus (GPa) = 20.14279 40.37073 30.25676
#
# Velocity S-wave (km/s) = 3.15629 4.46838 3.86837
# Velocity P-wave (km/s) = 4.18106 7.04630 5.79360
#
# Compressibility (1/GPa) = 0.11780181
#
# Stress axis : x y z
#
# Youngs Moduli (GPa) = 31.84187 13.58039 126.22419
#
# Poissons Ratio (x) = -0.28357 1.28065
# Poissons Ratio (y) = -0.66489 1.04965
# Poissons Ratio (z) = 0.32306 0.11293
#
# Static dielectric constant tensor:
#      x y z
#    x 1.729420 0.000000 0.000000 
#    y 0.000000 1.745660 0.000000 
#    z 0.000000 0.000000 1.776870 
# 
# From -- ./inp_files/25571.got.cif
#   From: 2010.05.17/outbox.cif.g08.bks.cpg/sg47_13_cif.got.tgz:25571.got - 2010.06.03 20:15:42.
