data_PCOD9383517
_publ_section_title
;
Structure prediction by ZEFSAII (Michael W. Deem and Ramdas Pophale) SiO2 
 PCOD9383517
Probable space group: P M M M
;
_chemical_formula_sum "Si O2"
_cell_formula_units_Z 60
_cell_length_a 14.389846
_cell_length_b 16.842561
_cell_length_c 13.654287
_cell_angle_alpha 90.000000
_cell_angle_beta 90.000000
_cell_angle_gamma 90.000000
_cell_volume 3309.278381
_symmetry_space_group_name_H-M "P M M M"
_symmetry_group_IT_number 47
_symmetry_cell_setting 'orthorhombic'
loop_
_space_group_symop_operation_xyz
x,y,z
-x,-y,z
x,-y,-z
-x,y,-z
-x,-y,-z
x,y,-z
-x,y,z
x,-y,z
loop_
_atom_site_type_symbol
_atom_site_label
_atom_site_fract_x
_atom_site_fract_y
_atom_site_fract_z
Si Si1 0.629447 0.091350 0.109771
Si Si2 0.890991 0.747361 0.382052
Si Si3 0.392216 0.404351 0.112919
Si Si4 0.000000 0.909985 0.119623
Si Si5 0.212102 0.087851 0.383016
Si Si6 0.814153 0.172826 0.111990
Si Si7 0.730372 0.697012 0.256145
Si Si8 0.603249 0.831497 0.312471
O O1 0.740517 0.101158 0.113331
O O2 0.595246 0.144797 0.198074
O O3 0.603671 0.000000 0.123483
O O4 0.602180 0.116628 0.000000
O O5 0.884064 0.738447 0.500000
O O6 0.851915 0.836255 0.357536
O O7 0.819359 0.687326 0.327700
O O8 0.000000 0.739247 0.355322
O O9 0.500000 0.379809 0.132252
O O10 0.389824 0.500000 0.114751
O O11 0.321521 0.370304 0.193630
O O12 0.370079 0.379429 0.000000
O O13 0.910254 0.861041 0.148791
O O14 0.000000 0.000000 0.155665
O O15 0.000000 0.913678 0.000000
O O16 0.207281 0.083453 0.500000
O O17 0.318143 0.109610 0.354411
O O18 0.187396 0.000000 0.343611
O O19 0.771046 0.242478 0.175141
O O20 0.824891 0.199400 0.000000
O O21 0.650961 0.745171 0.315867
O O22 0.500000 0.835893 0.355871
#
# Coordination Sequence:
#
# PCOD9383517 Si02
#       8
#     8   8   8   4   8   8   8   8
#     4   9  17  28  39  52  77 115 157 199 241 285
#     4   9  19  35  54  75 100 134 180 231 279 324
#     4   9  18  34  59  91 121 146 171 199 241 306
#     4   9  16  26  40  58  86 126 170 215 262 308
#     4   9  18  32  49  69  93 124 167 222 280 330
#     4   9  17  27  41  63  90 122 162 206 254 304
#     4  10  19  32  53  74 104 133 172 213 263 313
#     4  10  20  31  43  63  92 125 163 207 256 311
#
# _framework density 18.130841
#
# number of rings (size 3 to 8) (size 9 to 14) (size 15 to 20)
#    0.000    2.733    0.000    2.000    0.933    4.000 
#    0.000    3.333    0.000    2.000    0.000    2.800 
#    0.000    0.000    0.000    0.000    0.000    0.000 
#
# Total GULP energy -334242.857996 kJ/mol
# GULP energy per Si atom -5570.714300 kJ/mol
# Density = 1.808957 g / cm^3
# Si number density = 18.130841 Si / 1000 Ang^3
#
#
#
# Elastic Constant Matrix: (Units=GPa)
#
#
# Indices 1 2 3 4 5 6 
#
# 1 142.1501 26.0382 32.2454 0.0000 0.0000 0.0000
# 2 26.0382 35.3902 14.8683 0.0000 0.0000 0.0000
# 3 32.2454 14.8683 59.9694 0.0000 0.0000 0.0000
# 4 0.0000 0.0000 0.0000 23.4101 0.0000 0.0000
# 5 0.0000 0.0000 0.0000 0.0000 9.9248 0.0000
# 6 0.0000 0.0000 0.0000 0.0000 0.0000 20.6212
#
#
#
# Elastic Compliance Matrix: (Units=1/GPa)
#
#
# Indices 1 2 3 4 5 6 
#
# 1 0.008730 -0.004969 -0.003462 0.000000 0.000000 0.000000
# 2 -0.004969 0.034370 -0.005850 0.000000 0.000000 0.000000
# 3 -0.003462 -0.005850 0.019987 0.000000 0.000000 0.000000
# 4 0.000000 0.000000 0.000000 0.042717 0.000000 0.000000
# 5 0.000000 0.000000 0.000000 0.000000 0.100758 0.000000
# 6 0.000000 0.000000 0.000000 0.000000 0.000000 0.048494
#
#
# Mechanical properties :
#
#
# Convention : Reuss Voigt Hill
#
# Bulk Modulus (GPa) = 28.96390 42.64597 35.80493
# Shear Modulus (GPa) = 16.94192 21.74841 19.34517
#
# Velocity S-wave (km/s) = 3.06015 3.46717 3.27000
# Velocity P-wave (km/s) = 5.33813 6.29291 5.83508
#
# Compressibility (1/GPa) = 0.03452574
#
# Stress axis : x y z
#
# Youngs Moduli (GPa) = 114.54269 29.09537 50.03200
#
# Poissons Ratio (x) = 0.14457 0.17323
# Poissons Ratio (y) = 0.56913 0.29267
# Poissons Ratio (z) = 0.39659 0.17020
#
# Static dielectric constant tensor:
#      x y z
#    x 1.651530 0.000000 0.000000 
#    y 0.000000 1.598080 0.000000 
#    z 0.000000 0.000000 1.672410 
# 
# From -- ./inp_files/23927.got.cif
#   From: 2010.05.17/outbox.cif.g08.bks.cpg/sg47_12_cif.got.tgz:23927.got - 2010.06.03 20:15:42.
