data_PCOD9383921
_publ_section_title
;
Structure prediction by ZEFSAII (Michael W. Deem and Ramdas Pophale) SiO2 
 PCOD9383921
Probable space group: P M M M
;
_chemical_formula_sum "Si O2"
_cell_formula_units_Z 48
_cell_length_a 7.895448
_cell_length_b 19.700163
_cell_length_c 15.571561
_cell_angle_alpha 90.000000
_cell_angle_beta 90.000000
_cell_angle_gamma 90.000000
_cell_volume 2422.025708
_symmetry_space_group_name_H-M "P M M M"
_symmetry_group_IT_number 47
_symmetry_cell_setting 'orthorhombic'
loop_
_space_group_symop_operation_xyz
x,y,z
-x,-y,z
x,-y,-z
-x,y,-z
-x,-y,-z
x,y,-z
-x,y,z
x,-y,z
loop_
_atom_site_type_symbol
_atom_site_label
_atom_site_fract_x
_atom_site_fract_y
_atom_site_fract_z
Si Si1 0.707923 0.577812 0.500000
Si Si2 0.702015 0.423217 0.000000
Si Si3 0.704794 0.174892 0.402136
Si Si4 0.298078 0.324491 0.651439
Si Si5 0.792601 0.823888 0.902251
Si Si6 0.201409 0.674294 0.845053
Si Si7 0.203514 0.076935 0.248382
O O1 0.764354 0.500000 0.500000
O O2 0.500000 0.576701 0.500000
O O3 0.764582 0.619922 0.583649
O O4 0.754599 0.381221 0.083927
O O5 0.770447 0.500000 0.000000
O O6 0.500000 0.426748 0.000000
O O7 0.761613 0.163139 0.500000
O O8 0.500000 0.176740 0.402731
O O9 0.767454 0.248826 0.370135
O O10 0.757418 0.117531 0.335226
O O11 0.500000 0.321258 0.639196
O O12 0.264563 0.341945 0.749949
O O13 0.734705 0.748611 0.874536
O O14 0.734304 0.878659 0.832461
O O15 0.000000 0.823493 0.901403
O O16 0.740478 0.838155 0.000000
O O17 0.000000 0.679406 0.840659
O O18 0.000000 0.073733 0.240575
O O19 0.269109 0.000000 0.249182
#
# Coordination Sequence:
#
# PCOD9383921 Si02
#       7
#     4   4   8   8   8   8   8
#     4   9  18  34  57  83 112 145 184 234 285 333
#     4  11  25  43  61  85 118 153 192 238 284 334
#     4  10  20  35  56  80 108 147 194 239 280 333
#     4  10  19  34  57  85 113 147 193 238 281 338
#     4   9  17  32  55  82 109 141 182 224 270 329
#     4  11  21  36  60  88 116 149 189 235 285 342
#     4  10  21  36  55  82 114 145 183 234 287 340
#
# _framework density 19.818121999999999
#
# number of rings (size 3 to 8) (size 9 to 14) (size 15 to 20)
#    0.000    2.000    3.333    0.750    0.000    2.667 
#    0.000    5.417    0.000    0.500    0.000    1.167 
#    0.000    0.000    0.000    0.000    0.000    0.000 
#
# Total GULP energy -268067.778080 kJ/mol
# GULP energy per Si atom -5584.745377 kJ/mol
# Density = 1.977302 g / cm^3
# Si number density = 19.818122 Si / 1000 Ang^3
#
#
#
# Elastic Constant Matrix: (Units=GPa)
#
#
# Indices 1 2 3 4 5 6 
#
# 1 14.4249 4.7375 -7.2847 0.0000 0.0000 0.0000
# 2 4.7375 203.4147 117.6718 0.0000 0.0000 0.0000
# 3 -7.2847 117.6718 206.0630 0.0000 0.0000 0.0000
# 4 0.0000 0.0000 0.0000 33.5314 0.0000 0.0000
# 5 0.0000 0.0000 0.0000 0.0000 38.6714 0.0000
# 6 0.0000 0.0000 0.0000 0.0000 0.0000 18.2353
#
#
#
# Elastic Compliance Matrix: (Units=1/GPa)
#
#
# Indices 1 2 3 4 5 6 
#
# 1 0.073604 -0.004808 0.005347 0.000000 0.000000 0.000000
# 2 -0.004808 0.007655 -0.004541 0.000000 0.000000 0.000000
# 3 0.005347 -0.004541 0.007635 0.000000 0.000000 0.000000
# 4 0.000000 0.000000 0.000000 0.029823 0.000000 0.000000
# 5 0.000000 0.000000 0.000000 0.000000 0.025859 0.000000
# 6 0.000000 0.000000 0.000000 0.000000 0.000000 0.054839
#
#
# Mechanical properties :
#
#
# Convention : Reuss Voigt Hill
#
# Bulk Modulus (GPa) = 12.36230 72.68355 42.52292
# Shear Modulus (GPa) = 21.33272 38.67282 30.00277
#
# Velocity S-wave (km/s) = 3.28445 4.42224 3.89512
# Velocity P-wave (km/s) = 4.54257 7.92653 6.46006
#
# Compressibility (1/GPa) = 0.08089111
#
# Stress axis : x y z
#
# Youngs Moduli (GPa) = 13.58624 130.63073 130.97068
#
# Poissons Ratio (x) = 0.62802 -0.70035
# Poissons Ratio (y) = 0.06532 0.59479
# Poissons Ratio (z) = -0.07265 0.59325
#
# Static dielectric constant tensor:
#      x y z
#    x 1.735650 0.000000 0.000000 
#    y 0.000000 1.685550 0.000000 
#    z 0.000000 0.000000 1.650310 
# 
# From -- ./inp_files/21087.got.cif
#   From: 2010.05.17/outbox.cif.g08.bks.cpg/sg47_11_cif.got.tgz:21087.got - 2010.06.03 20:15:42.
