data_PCOD9383953
_publ_section_title
;
Structure prediction by ZEFSAII (Michael W. Deem and Ramdas Pophale) SiO2 
 PCOD9383953
Probable space group: P M M M
;
_chemical_formula_sum "Si O2"
_cell_formula_units_Z 38
_cell_length_a 25.036203
_cell_length_b 8.136619
_cell_length_c 10.221544
_cell_angle_alpha 90.000000
_cell_angle_beta 90.000000
_cell_angle_gamma 90.000000
_cell_volume 2082.231188
_symmetry_space_group_name_H-M "P M M M"
_symmetry_group_IT_number 47
_symmetry_cell_setting 'orthorhombic'
loop_
_space_group_symop_operation_xyz
x,y,z
-x,-y,z
x,-y,-z
-x,y,-z
-x,-y,-z
x,y,-z
-x,y,z
x,-y,z
loop_
_atom_site_type_symbol
_atom_site_label
_atom_site_fract_x
_atom_site_fract_y
_atom_site_fract_z
Si Si1 0.438316 0.197714 0.000000
Si Si2 0.853480 0.687607 0.842121
Si Si3 0.000000 0.000000 0.000000
Si Si4 0.737525 0.191934 0.848877
Si Si5 0.561215 0.196865 0.500000
Si Si6 0.371872 0.692972 0.749173
Si Si7 0.000000 0.000000 0.500000
Si Si8 0.081217 0.000000 0.751720
O O1 0.407174 0.260066 0.125938
O O2 0.500000 0.251212 0.000000
O O3 0.437184 0.000000 0.000000
O O4 0.871020 0.500000 0.812407
O O5 0.790298 0.706498 0.815079
O O6 0.884096 0.832169 0.766033
O O7 0.860049 0.712122 0.000000
O O8 0.954536 0.000000 0.883105
O O9 0.685721 0.222105 0.761849
O O10 0.752376 0.000000 0.844957
O O11 0.722685 0.231904 0.000000
O O12 0.500000 0.258337 0.500000
O O13 0.593866 0.254805 0.625173
O O14 0.559185 0.000000 0.500000
O O15 0.362174 0.500000 0.747392
O O16 0.046564 0.000000 0.381498
#
# Coordination Sequence:
#
# PCOD9383953 Si02
#       8
#     4   8   1   8   4   8   1   4
#     4  11  23  39  58  81 111 155 205 250 307 377
#     4  10  19  34  64  99 129 162 209 261 313 366
#     4  10  20  34  70  82 128 156 220 262 296 346
#     4  10  19  34  60  94 128 161 195 247 314 372
#     4  11  25  45  64  79 107 157 209 254 309 377
#     4  12  24  38  59  89 121 152 195 256 313 372
#     4  10  28  42  70  86 140 180 216 250 320 350
#     4  11  20  44  60  98 124 176 209 266 299 358
#
# _framework density 18.249656000000002
#
# number of rings (size 3 to 8) (size 9 to 14) (size 15 to 20)
#    0.000    1.263    3.158    3.789    0.000    5.053 
#    0.000    4.737    0.000    0.000    0.000    0.000 
#    0.000    0.000    0.000    0.000    0.000    0.000 
#
# Total GULP energy -211650.260340 kJ/mol
# GULP energy per Si atom -5569.743693 kJ/mol
# Density = 1.820812 g / cm^3
# Si number density = 18.249656 Si / 1000 Ang^3
#
#
#
# Elastic Constant Matrix: (Units=GPa)
#
#
# Indices 1 2 3 4 5 6 
#
# 1 114.4572 39.7471 54.0042 0.0000 0.0000 0.0000
# 2 39.7471 96.0150 22.5151 0.0000 0.0000 0.0000
# 3 54.0042 22.5151 130.3339 0.0000 0.0000 0.0000
# 4 0.0000 0.0000 0.0000 20.9358 0.0000 0.0000
# 5 0.0000 0.0000 0.0000 0.0000 36.0284 0.0000
# 6 0.0000 0.0000 0.0000 0.0000 0.0000 3.2258
#
#
#
# Elastic Compliance Matrix: (Units=1/GPa)
#
#
# Indices 1 2 3 4 5 6 
#
# 1 0.012190 -0.004025 -0.004356 0.000000 0.000000 0.000000
# 2 -0.004025 0.012184 -0.000437 0.000000 0.000000 0.000000
# 3 -0.004356 -0.000437 0.009553 0.000000 0.000000 0.000000
# 4 0.000000 0.000000 0.000000 0.047765 0.000000 0.000000
# 5 0.000000 0.000000 0.000000 0.000000 0.027756 0.000000
# 6 0.000000 0.000000 0.000000 0.000000 0.000000 0.310001
#
#
# Mechanical properties :
#
#
# Convention : Reuss Voigt Hill
#
# Bulk Modulus (GPa) = 61.38199 63.70433 62.54316
# Shear Modulus (GPa) = 11.29909 27.00731 19.15320
#
# Velocity S-wave (km/s) = 2.49095 3.85109 3.24313
# Velocity P-wave (km/s) = 6.47925 7.39983 6.95479
#
# Compressibility (1/GPa) = 0.01629142
#
# Stress axis : x y z
#
# Youngs Moduli (GPa) = 82.03712 82.07730 104.68106
#
# Poissons Ratio (x) = 0.33034 0.45594
# Poissons Ratio (y) = 0.33018 0.04575
# Poissons Ratio (z) = 0.35731 0.03587
#
# Static dielectric constant tensor:
#      x y z
#    x 1.624750 0.000000 0.000000 
#    y 0.000000 1.649270 0.000000 
#    z 0.000000 0.000000 1.538310 
# 
# From -- ./inp_files/12239.got.cif
#   From: 2010.05.17/outbox.cif.g08.bks.cpg/sg47_7_cif.got.tgz:12239.got - 2010.06.03 20:15:42.
