data_PCOD9383111
_publ_section_title
;
Structure prediction by ZEFSAII (Michael W. Deem and Ramdas Pophale) SiO2 
 PCOD9383111
Probable space group: P M M M
;
_chemical_formula_sum "Si O2"
_cell_formula_units_Z 52
_cell_length_a 29.423633
_cell_length_b 7.884443
_cell_length_c 12.037204
_cell_angle_alpha 90.000000
_cell_angle_beta 90.000000
_cell_angle_gamma 90.000000
_cell_volume 2792.498404
_symmetry_space_group_name_H-M "P M M M"
_symmetry_group_IT_number 47
_symmetry_cell_setting 'orthorhombic'
loop_
_space_group_symop_operation_xyz
x,y,z
-x,-y,z
x,-y,-z
-x,y,-z
-x,-y,-z
x,y,-z
-x,y,z
x,-y,z
loop_
_atom_site_type_symbol
_atom_site_label
_atom_site_fract_x
_atom_site_fract_y
_atom_site_fract_z
Si Si1 0.409865 0.207177 0.740689
Si Si2 0.274501 0.198463 0.500000
Si Si3 0.767757 0.300695 0.267985
Si Si4 0.621277 0.791854 0.500000
Si Si5 0.319883 0.205548 0.127437
Si Si6 0.500000 0.792267 0.870963
Si Si7 0.851893 0.297225 0.872267
Si Si8 0.951011 0.204225 0.869602
O O1 0.403720 0.260970 0.613071
O O2 0.364880 0.260369 0.807291
O O3 0.455066 0.262717 0.804579
O O4 0.410524 0.000000 0.741108
O O5 0.246628 0.238860 0.610699
O O6 0.326134 0.271075 0.500000
O O7 0.282336 0.000000 0.500000
O O8 0.775159 0.500000 0.279393
O O9 0.725031 0.268253 0.188163
O O10 0.812532 0.227612 0.207681
O O11 0.621650 0.000000 0.500000
O O12 0.319092 0.000000 0.129845
O O13 0.321226 0.260725 0.000000
O O14 0.500000 0.000000 0.872078
O O15 0.500000 0.738695 0.000000
O O16 0.846048 0.500000 0.880076
O O17 0.902567 0.265275 0.826211
O O18 0.848585 0.230354 0.000000
O O19 0.000000 0.261943 0.822553
O O20 0.950661 0.000000 0.865381
O O21 0.951019 0.254335 0.000000
#
# Coordination Sequence:
#
# PCOD9383111 Si02
#       8
#     8   4   8   4   8   4   8   8
#     4   9  16  27  43  66  95 128 164 205 254 301
#     4  11  21  37  56  73  96 127 168 212 254 304
#     4  11  22  35  51  73 101 132 167 210 258 303
#     4   9  16  28  47  66  90 121 157 206 251 292
#     4  10  19  31  49  72  99 133 170 205 247 302
#     4   9  16  25  39  63  98 132 160 200 256 311
#     4   9  18  31  46  68 101 136 167 203 246 295
#     4   8  14  25  42  66  97 132 169 208 247 289
#
# _framework density 18.621317999999999
#
# number of rings (size 3 to 8) (size 9 to 14) (size 15 to 20)
#    0.000    2.538    1.538    2.077    0.000    4.615 
#    0.000    4.615    0.000    0.000    0.000    1.077 
#    0.000    7.385    0.000    0.000    0.000    0.000 
#
# Total GULP energy -289916.823022 kJ/mol
# GULP energy per Si atom -5575.323520 kJ/mol
# Density = 1.857893 g / cm^3
# Si number density = 18.621318 Si / 1000 Ang^3
#
#
#
# Elastic Constant Matrix: (Units=GPa)
#
#
# Indices 1 2 3 4 5 6 
#
# 1 166.5755 -1.7955 75.8506 0.0000 0.0000 0.0000
# 2 -1.7955 13.4858 3.9042 0.0000 0.0000 0.0000
# 3 75.8506 3.9042 144.9386 0.0000 0.0000 0.0000
# 4 0.0000 0.0000 0.0000 11.9254 0.0000 0.0000
# 5 0.0000 0.0000 0.0000 0.0000 3.0844 0.0000
# 6 0.0000 0.0000 0.0000 0.0000 0.0000 31.4728
#
#
#
# Elastic Compliance Matrix: (Units=1/GPa)
#
#
# Indices 1 2 3 4 5 6 
#
# 1 0.007950 0.002281 -0.004222 0.000000 0.000000 0.000000
# 2 0.002281 0.075389 -0.003224 0.000000 0.000000 0.000000
# 3 -0.004222 -0.003224 0.009196 0.000000 0.000000 0.000000
# 4 0.000000 0.000000 0.000000 0.083855 0.000000 0.000000
# 5 0.000000 0.000000 0.000000 0.000000 0.324209 0.000000
# 6 0.000000 0.000000 0.000000 0.000000 0.000000 0.031773
#
#
# Mechanical properties :
#
#
# Convention : Reuss Voigt Hill
#
# Bulk Modulus (GPa) = 12.16485 53.43541 32.80013
# Shear Modulus (GPa) = 8.77032 25.76590 17.26811
#
# Velocity S-wave (km/s) = 2.17257 3.72382 3.04851
# Velocity P-wave (km/s) = 3.58334 6.87366 5.48122
#
# Compressibility (1/GPa) = 0.08220406
#
# Stress axis : x y z
#
# Youngs Moduli (GPa) = 125.77944 13.26451 108.74426
#
# Poissons Ratio (x) = -0.03025 0.45913
# Poissons Ratio (y) = -0.28688 0.35063
# Poissons Ratio (z) = 0.53106 0.04277
#
# Static dielectric constant tensor:
#      x y z
#    x 1.664200 0.000000 0.000000 
#    y 0.000000 1.677050 0.000000 
#    z 0.000000 0.000000 1.605670 
# 
# From -- ./inp_files/4610.got.cif
#   From: 2010.05.17/outbox.cif.g08.bks.cpg/sg47_3_cif.got.tgz:4610.got - 2010.06.03 20:15:42.
