data_PCOD9383323
_publ_section_title
;
Structure prediction by ZEFSAII (Michael W. Deem and Ramdas Pophale) SiO2 
 PCOD9383323
Probable space group: P M M M
;
_chemical_formula_sum "Si O2"
_cell_formula_units_Z 52
_cell_length_a 18.334024
_cell_length_b 18.705214
_cell_length_c 9.184979
_cell_angle_alpha 90.000000
_cell_angle_beta 90.000000
_cell_angle_gamma 90.000000
_cell_volume 3149.913621
_symmetry_space_group_name_H-M "P M M M"
_symmetry_group_IT_number 47
_symmetry_cell_setting 'orthorhombic'
loop_
_space_group_symop_operation_xyz
x,y,z
-x,-y,z
x,-y,-z
-x,y,-z
-x,-y,-z
x,y,-z
-x,y,z
x,-y,z
loop_
_atom_site_type_symbol
_atom_site_label
_atom_site_fract_x
_atom_site_fract_y
_atom_site_fract_z
Si Si1 0.860768 0.653864 0.673673
Si Si2 0.000000 0.585535 0.171394
Si Si3 0.579845 0.847095 0.325478
Si Si4 0.732760 0.917429 0.324994
Si Si5 0.638380 0.712648 0.833721
Si Si6 0.201206 0.786387 0.167210
Si Si7 0.703247 0.582675 0.673770
O O1 0.871022 0.657165 0.500000
O O2 0.928569 0.616818 0.751249
O O3 0.848357 0.732565 0.740296
O O4 0.786334 0.608982 0.701742
O O5 0.000000 0.500000 0.185335
O O6 0.000000 0.603592 0.000000
O O7 0.582572 0.838984 0.500000
O O8 0.500000 0.876616 0.286427
O O9 0.649337 0.895597 0.285250
O O10 0.590223 0.769605 0.253232
O O11 0.739696 0.908319 0.500000
O O12 0.785563 0.862342 0.243507
O O13 0.745939 0.000000 0.289405
O O14 0.719001 0.748731 0.834153
O O15 0.649640 0.636843 0.755917
O O16 0.614061 0.704901 0.000000
O O17 0.176852 0.792913 0.000000
O O18 0.691829 0.588848 0.500000
O O19 0.694991 0.500000 0.716235
#
# Coordination Sequence:
#
# PCOD9383323 Si02
#       7
#     8   4   8   8   8   8   8
#     4  10  19  32  50  70  94 126 163 197 230 273
#     4  11  23  35  47  69 104 139 166 195 233 275
#     4   9  17  29  45  64  88 121 156 187 225 276
#     4   9  17  29  46  70  98 124 153 192 234 275
#     4   9  17  28  43  63  86 114 149 189 230 273
#     4   9  17  30  47  67  92 122 157 194 233 277
#     4   9  17  29  46  67  89 114 147 189 234 276
#
# _framework density 16.508389000000001
#
# number of rings (size 3 to 8) (size 9 to 14) (size 15 to 20)
#    0.000    2.692    0.000    2.077    0.000    6.769 
#    0.000    1.538    0.000    0.462    0.000    8.077 
#    0.000    4.308    0.000    0.000    0.000    0.000 
#
# Total GULP energy -289826.516494 kJ/mol
# GULP energy per Si atom -5573.586856 kJ/mol
# Density = 1.647081 g / cm^3
# Si number density = 16.508389 Si / 1000 Ang^3
#
#
#
# Elastic Constant Matrix: (Units=GPa)
#
#
# Indices 1 2 3 4 5 6 
#
# 1 23.6669 9.0230 15.9596 0.0000 0.0000 0.0000
# 2 9.0230 119.9940 42.5859 0.0000 0.0000 0.0000
# 3 15.9596 42.5859 51.4870 0.0000 0.0000 0.0000
# 4 0.0000 0.0000 0.0000 21.4881 0.0000 0.0000
# 5 0.0000 0.0000 0.0000 0.0000 15.9153 0.0000
# 6 0.0000 0.0000 0.0000 0.0000 0.0000 16.8782
#
#
#
# Elastic Compliance Matrix: (Units=1/GPa)
#
#
# Indices 1 2 3 4 5 6 
#
# 1 0.054013 0.002662 -0.018944 0.000000 0.000000 0.000000
# 2 0.002662 0.011928 -0.010691 0.000000 0.000000 0.000000
# 3 -0.018944 -0.010691 0.034137 0.000000 0.000000 0.000000
# 4 0.000000 0.000000 0.000000 0.046537 0.000000 0.000000
# 5 0.000000 0.000000 0.000000 0.000000 0.062833 0.000000
# 6 0.000000 0.000000 0.000000 0.000000 0.000000 0.059248
#
#
# Mechanical properties :
#
#
# Convention : Reuss Voigt Hill
#
# Bulk Modulus (GPa) = 21.67710 36.69834 29.18772
# Shear Modulus (GPa) = 14.79203 19.36162 17.07682
#
# Velocity S-wave (km/s) = 2.99662 3.42838 3.21975
# Velocity P-wave (km/s) = 5.01323 6.16037 5.61616
#
# Compressibility (1/GPa) = 0.04613163
#
# Stress axis : x y z
#
# Youngs Moduli (GPa) = 18.51393 83.83816 29.29358
#
# Poissons Ratio (x) = -0.22316 0.55495
# Poissons Ratio (y) = -0.04928 0.31317
# Poissons Ratio (z) = 0.35073 0.89629
#
# Static dielectric constant tensor:
#      x y z
#    x 1.551110 0.000000 0.000000 
#    y 0.000000 1.537950 0.000000 
#    z 0.000000 0.000000 1.554920 
# 
# From -- ./inp_files/9505.got.cif
#   From: 2010.05.17/outbox.cif.g08.bks.cpg/sg47_5_cif.got.tgz:9505.got - 2010.06.03 20:15:42.
