data_PCOD9383652
_publ_section_title
;
Structure prediction by ZEFSAII (Michael W. Deem and Ramdas Pophale) SiO2 
 PCOD9383652
Probable space group: P M M M
;
_chemical_formula_sum "Si O2"
_cell_formula_units_Z 48
_cell_length_a 15.862531
_cell_length_b 10.152209
_cell_length_c 17.185906
_cell_angle_alpha 90.000000
_cell_angle_beta 90.000000
_cell_angle_gamma 90.000000
_cell_volume 2767.613662
_symmetry_space_group_name_H-M "P M M M"
_symmetry_group_IT_number 47
_symmetry_cell_setting 'orthorhombic'
loop_
_space_group_symop_operation_xyz
x,y,z
-x,-y,z
x,-y,-z
-x,y,-z
-x,-y,-z
x,y,-z
-x,y,z
x,-y,z
loop_
_atom_site_type_symbol
_atom_site_label
_atom_site_fract_x
_atom_site_fract_y
_atom_site_fract_z
Si Si1 0.756981 0.344694 0.740656
Si Si2 0.591178 0.500000 0.407390
Si Si3 0.354070 0.841542 0.000000
Si Si4 0.705821 0.248911 0.591725
Si Si5 0.598415 0.342630 0.852526
Si Si6 0.850072 0.845465 0.000000
Si Si7 0.903091 0.348326 0.864542
Si Si8 0.406831 0.000000 0.593462
O O1 0.754037 0.500000 0.723119
O O2 0.772077 0.266342 0.660487
O O3 0.669402 0.313058 0.786701
O O4 0.834852 0.325458 0.797945
O O5 0.500000 0.500000 0.368379
O O6 0.579913 0.500000 0.500000
O O7 0.644347 0.628594 0.392996
O O8 0.385525 0.757460 0.924737
O O9 0.251999 0.837513 0.000000
O O10 0.377722 0.000000 0.000000
O O11 0.730973 0.247529 0.500000
O O12 0.648727 0.125051 0.610748
O O13 0.500000 0.328746 0.827949
O O14 0.610013 0.500000 0.873562
O O15 0.885709 0.763305 0.927700
O O16 0.873153 0.000000 0.000000
O O17 0.889963 0.500000 0.894228
O O18 0.000000 0.341193 0.838316
O O19 0.500000 0.000000 0.628281
O O20 0.416335 0.000000 0.500000
#
# Coordination Sequence:
#
# PCOD9383652 Si02
#       8
#     8   4   4   8   8   4   8   4
#     4  10  20  36  55  80 111 139 176 230 272 313
#     4   9  16  26  46  74  99 128 175 226 265 310
#     4  11  22  37  56  79 109 148 183 222 263 313
#     4  10  19  33  52  74 102 143 184 222 274 322
#     4  10  21  36  55  77 104 146 191 224 264 317
#     4  11  22  37  60  87 117 142 175 220 273 327
#     4  10  21  38  62  86 109 142 179 216 270 335
#     4   9  18  32  48  70 103 140 181 228 273 318
#
# _framework density 17.343461000000001
#
# number of rings (size 3 to 8) (size 9 to 14) (size 15 to 20)
#    0.000    2.000    2.500    1.500    0.000    6.667 
#    3.000    0.000    0.000    0.500    0.000    2.333 
#    0.000    2.000    0.000    0.000    0.000    0.000 
#
# Total GULP energy -267277.078744 kJ/mol
# GULP energy per Si atom -5568.272474 kJ/mol
# Density = 1.730399 g / cm^3
# Si number density = 17.343461 Si / 1000 Ang^3
#
#
#
# Elastic Constant Matrix: (Units=GPa)
#
#
# Indices 1 2 3 4 5 6 
#
# 1 95.4039 35.5348 48.7794 0.0000 0.0000 0.0000
# 2 35.5348 113.4297 51.7061 0.0000 0.0000 0.0000
# 3 48.7794 51.7061 110.8571 0.0000 0.0000 0.0000
# 4 0.0000 0.0000 0.0000 10.8923 0.0000 0.0000
# 5 0.0000 0.0000 0.0000 0.0000 -590.1019 0.0000
# 6 0.0000 0.0000 0.0000 0.0000 0.0000 28.2169
#
#
#
# Elastic Compliance Matrix: (Units=1/GPa)
#
#
# Indices 1 2 3 4 5 6 
#
# 1 0.013868 -0.001985 -0.005176 0.000000 0.000000 0.000000
# 2 -0.001985 0.011481 -0.004481 0.000000 0.000000 0.000000
# 3 -0.005176 -0.004481 0.013389 0.000000 0.000000 0.000000
# 4 0.000000 0.000000 0.000000 0.091808 0.000000 0.000000
# 5 0.000000 0.000000 0.000000 0.000000 -0.001695 0.000000
# 6 0.000000 0.000000 0.000000 0.000000 0.000000 0.035440
#
#
# Mechanical properties :
#
#
# Convention : Reuss Voigt Hill
#
# Bulk Modulus (GPa) = 64.71776 65.74792 65.23284
# Shear Modulus (GPa) = 25.94361 -97.95385 -36.00512
#
# Velocity S-wave (km/s) = 3.87185 -7.52339 -4.56126
# Velocity P-wave (km/s) = 7.57527 6.12184 3.15497
#
# Compressibility (1/GPa) = 0.01545171
#
# Stress axis : x y z
#
# Youngs Moduli (GPa) = 72.11041 87.10287 74.69077
#
# Poissons Ratio (x) = 0.17288 0.38662
# Poissons Ratio (y) = 0.14313 0.33472
# Poissons Ratio (z) = 0.37326 0.39035
#
# Static dielectric constant tensor:
#      x y z
#    x 1.631060 0.000000 0.000000 
#    y 0.000000 1.466700 0.000000 
#    z 0.000000 0.000000 1.626960 
# 
# From -- ./inp_files/28076.got.cif
#   From: 2010.05.17/outbox.cif.g08.bks.cpg/sg47_15_cif.got.tgz:28076.got - 2010.06.03 20:15:42.
