data_PCOD9383389
_publ_section_title
;
Structure prediction by ZEFSAII (Michael W. Deem and Ramdas Pophale) SiO2 
 PCOD9383389
Probable space group: P M M M
;
_chemical_formula_sum "Si O2"
_cell_formula_units_Z 64
_cell_length_a 15.130838
_cell_length_b 26.260198
_cell_length_c 7.443869
_cell_angle_alpha 90.000000
_cell_angle_beta 90.000000
_cell_angle_gamma 90.000000
_cell_volume 2957.737989
_symmetry_space_group_name_H-M "P M M M"
_symmetry_group_IT_number 47
_symmetry_cell_setting 'orthorhombic'
loop_
_space_group_symop_operation_xyz
x,y,z
-x,-y,z
x,-y,-z
-x,y,-z
-x,-y,-z
x,y,-z
-x,y,z
x,-y,z
loop_
_atom_site_type_symbol
_atom_site_label
_atom_site_fract_x
_atom_site_fract_y
_atom_site_fract_z
Si Si1 0.710523 0.748608 0.786828
Si Si2 0.712765 0.558479 0.219790
Si Si3 0.094252 0.561393 0.785324
Si Si4 0.902018 0.898431 0.280961
Si Si5 0.282675 0.943688 0.284001
Si Si6 0.096461 0.780291 0.715396
Si Si7 0.600343 0.347518 0.780259
Si Si8 0.399448 0.845378 0.214168
O O1 0.815557 0.750215 0.762426
O O2 0.663054 0.698132 0.717582
O O3 0.663050 0.799791 0.715117
O O4 0.695884 0.748711 0.000000
O O5 0.699661 0.500000 0.276731
O O6 0.809767 0.577979 0.280424
O O7 0.638785 0.598089 0.276164
O O8 0.714627 0.557603 0.000000
O O9 0.094513 0.500000 0.761385
O O10 0.000000 0.580728 0.713149
O O11 0.093197 0.570422 0.000000
O O12 0.901534 0.899415 0.500000
O O13 0.815792 0.928593 0.219391
O O14 0.893010 0.839231 0.225633
O O15 0.000000 0.916480 0.225412
O O16 0.277695 0.945538 0.500000
O O17 0.351447 0.899177 0.241996
O O18 0.307717 0.000000 0.219462
O O19 0.093148 0.781545 0.500000
O O20 0.000000 0.761808 0.779544
O O21 0.500000 0.339296 0.723555
O O22 0.601081 0.347562 0.000000
O O23 0.500000 0.843820 0.284542
O O24 0.405461 0.838456 0.000000
#
# Coordination Sequence:
#
# PCOD9383389 Si02
#       8
#     8   8   8   8   8   8   8   8
#     4  10  19  32  51  73  97 127 164 204 242 284
#     4   8  13  21  34  54  81 116 158 197 236 289
#     4   7   9  14  25  41  63  94 133 176 220 266
#     4   8  14  27  48  73  99 125 152 183 226 283
#     4  10  20  33  51  76 102 125 155 200 248 291
#     4   9  17  31  53  77 100 128 159 192 236 290
#     4   9  17  28  41  59  87 124 164 206 249 289
#     4  10  21  36  52  68  89 126 172 208 242 289
#
# _framework density 21.638155999999999
#
# number of rings (size 3 to 8) (size 9 to 14) (size 15 to 20)
#    0.000    3.125    1.250    2.250    0.000    3.000 
#    0.000    4.375    0.000    3.750    0.000    0.875 
#    0.000    0.500    0.000    2.500    0.000    2.250 
#
# Total GULP energy -356935.120385 kJ/mol
# GULP energy per Si atom -5577.111256 kJ/mol
# Density = 2.158891 g / cm^3
# Si number density = 21.638156 Si / 1000 Ang^3
#
#
#
# Elastic Constant Matrix: (Units=GPa)
#
#
# Indices 1 2 3 4 5 6 
#
# 1 178.9280 93.0475 2.6301 0.0000 0.0000 0.0000
# 2 93.0475 115.5391 2.6241 0.0000 0.0000 0.0000
# 3 2.6301 2.6241 63.2378 0.0000 0.0000 0.0000
# 4 0.0000 0.0000 0.0000 64.7647 0.0000 0.0000
# 5 0.0000 0.0000 0.0000 0.0000 10.3571 0.0000
# 6 0.0000 0.0000 0.0000 0.0000 0.0000 17.3517
#
#
#
# Elastic Compliance Matrix: (Units=1/GPa)
#
#
# Indices 1 2 3 4 5 6 
#
# 1 0.009616 -0.007743 -0.000079 0.000000 0.000000 0.000000
# 2 -0.007743 0.014897 -0.000296 0.000000 0.000000 0.000000
# 3 -0.000079 -0.000296 0.015829 0.000000 0.000000 0.000000
# 4 0.000000 0.000000 0.000000 0.015441 0.000000 0.000000
# 5 0.000000 0.000000 0.000000 0.000000 0.096552 0.000000
# 6 0.000000 0.000000 0.000000 0.000000 0.000000 0.057631
#
#
# Mechanical properties :
#
#
# Convention : Reuss Voigt Hill
#
# Bulk Modulus (GPa) = 41.48065 61.58979 51.53522
# Shear Modulus (GPa) = 21.34590 35.78824 28.56707
#
# Velocity S-wave (km/s) = 3.14426 4.07128 3.63742
# Velocity P-wave (km/s) = 5.69153 7.11518 6.44280
#
# Compressibility (1/GPa) = 0.02410762
#
# Stress axis : x y z
#
# Youngs Moduli (GPa) = 103.98951 67.12685 63.17559
#
# Poissons Ratio (x) = 0.51974 0.00497
# Poissons Ratio (y) = 0.80515 0.01871
# Poissons Ratio (z) = 0.00818 0.01988
#
# Static dielectric constant tensor:
#      x y z
#    x 1.794320 0.000000 0.000000 
#    y 0.000000 1.757480 0.000000 
#    z 0.000000 0.000000 1.877310 
# 
# From -- ./inp_files/7950.got.cif
#   From: 2010.05.17/outbox.cif.g08.bks.cpg/sg47_4_cif.got.tgz:7950.got - 2010.06.03 20:15:42.
