data_PCOD9383495
_publ_section_title
;
Structure prediction by ZEFSAII (Michael W. Deem and Ramdas Pophale) SiO2 
 PCOD9383495
Probable space group: P M M M
;
_chemical_formula_sum "Si O2"
_cell_formula_units_Z 40
_cell_length_a 7.530489
_cell_length_b 24.516185
_cell_length_c 10.149588
_cell_angle_alpha 90.000000
_cell_angle_beta 90.000000
_cell_angle_gamma 90.000000
_cell_volume 1873.805381
_symmetry_space_group_name_H-M "P M M M"
_symmetry_group_IT_number 47
_symmetry_cell_setting 'orthorhombic'
loop_
_space_group_symop_operation_xyz
x,y,z
-x,-y,z
x,-y,-z
-x,y,-z
-x,-y,-z
x,y,-z
-x,y,z
x,-y,z
loop_
_atom_site_type_symbol
_atom_site_label
_atom_site_fract_x
_atom_site_fract_y
_atom_site_fract_z
Si Si1 0.217029 0.438247 0.500000
Si Si2 0.782598 0.436444 0.000000
Si Si3 0.785772 0.937049 0.353290
Si Si4 0.290068 0.843783 0.150491
Si Si5 0.785404 0.631781 0.747128
Si Si6 0.290172 0.247694 0.348922
O O1 0.278052 0.500000 0.500000
O O2 0.274490 0.404946 0.625988
O O3 0.000000 0.439252 0.500000
O O4 0.725676 0.400588 0.875612
O O5 0.725337 0.500000 0.000000
O O6 0.000000 0.438401 0.000000
O O7 0.727006 0.917457 0.500000
O O8 0.728920 0.899651 0.232315
O O9 0.000000 0.936692 0.354775
O O10 0.728660 0.000000 0.339128
O O11 0.500000 0.832785 0.138124
O O12 0.214271 0.797463 0.248745
O O13 0.219148 0.845109 0.000000
O O14 0.729520 0.693430 0.719051
O O15 0.000000 0.632575 0.750079
O O16 0.218412 0.247872 0.500000
O O17 0.500000 0.236601 0.361167
#
# Coordination Sequence:
#
# PCOD9383495 Si02
#       6
#     4   4   8   8   8   8
#     4   9  16  28  49  75 101 129 166 213 260 309
#     4   9  18  32  51  77 107 135 166 211 264 317
#     4   9  19  37  60  86 116 149 184 223 269 319
#     4  10  22  38  56  81 111 146 188 229 271 321
#     4  10  19  32  52  78 103 132 173 216 261 317
#     4  10  21  37  55  75 104 141 179 222 271 318
#
# _framework density 21.346934999999998
#
# number of rings (size 3 to 8) (size 9 to 14) (size 15 to 20)
#    0.000    2.400    1.000    1.800    1.400    5.600 
#    0.000    3.000    0.000    3.600    0.000    0.000 
#    0.000    0.000    0.000    0.000    0.000    0.000 
#
# Total GULP energy -223246.257335 kJ/mol
# GULP energy per Si atom -5581.156433 kJ/mol
# Density = 2.129835 g / cm^3
# Si number density = 21.346935 Si / 1000 Ang^3
#
#
#
# Elastic Constant Matrix: (Units=GPa)
#
#
# Indices 1 2 3 4 5 6 
#
# 1 53.4661 -4.7942 9.2160 0.0000 0.0000 0.0000
# 2 -4.7942 145.2907 113.7505 0.0000 0.0000 0.0000
# 3 9.2160 113.7505 244.4648 0.0000 0.0000 0.0000
# 4 0.0000 0.0000 0.0000 31.3675 0.0000 0.0000
# 5 0.0000 0.0000 0.0000 0.0000 -20.3682 0.0000
# 6 0.0000 0.0000 0.0000 0.0000 0.0000 24.5369
#
#
#
# Elastic Compliance Matrix: (Units=1/GPa)
#
#
# Indices 1 2 3 4 5 6 
#
# 1 0.019148 0.001883 -0.001598 0.000000 0.000000 0.000000
# 2 0.001883 0.011012 -0.005195 0.000000 0.000000 0.000000
# 3 -0.001598 -0.005195 0.006568 0.000000 0.000000 0.000000
# 4 0.000000 0.000000 0.000000 0.031880 0.000000 0.000000
# 5 0.000000 0.000000 0.000000 0.000000 -0.049096 0.000000
# 6 0.000000 0.000000 0.000000 0.000000 0.000000 0.040755
#
#
# Mechanical properties :
#
#
# Convention : Reuss Voigt Hill
#
# Bulk Modulus (GPa) = 37.16389 75.50734 56.33561
# Shear Modulus (GPa) = 63.24628 28.77721 46.01174
#
# Velocity S-wave (km/s) = 5.44905 3.67559 4.64769
# Velocity P-wave (km/s) = 7.55227 7.31175 7.43298
#
# Compressibility (1/GPa) = 0.02690784
#
# Stress axis : x y z
#
# Youngs Moduli (GPa) = 52.22549 90.80922 152.25232
#
# Poissons Ratio (x) = -0.17099 0.24329
# Poissons Ratio (y) = -0.09834 0.79094
# Poissons Ratio (z) = 0.08345 0.47175
#
# Static dielectric constant tensor:
#      x y z
#    x 1.824600 0.000000 0.000000 
#    y 0.000000 1.741860 0.000000 
#    z 0.000000 0.000000 1.830100 
# 
# From -- ./inp_files/1721.got.cif
#   From: 2010.05.17/outbox.cif.g08.bks.cpg/sg47_1_cif.got.tgz:1721.got - 2010.06.03 20:15:42.
