data_PCOD9383938
_publ_section_title
;
Structure prediction by ZEFSAII (Michael W. Deem and Ramdas Pophale) SiO2 
 PCOD9383938
Probable space group: P M M M
;
_chemical_formula_sum "Si O2"
_cell_formula_units_Z 52
_cell_length_a 8.612541
_cell_length_b 26.120563
_cell_length_c 12.119999
_cell_angle_alpha 90.000000
_cell_angle_beta 90.000000
_cell_angle_gamma 90.000000
_cell_volume 2726.568543
_symmetry_space_group_name_H-M "P M M M"
_symmetry_group_IT_number 47
_symmetry_cell_setting 'orthorhombic'
loop_
_space_group_symop_operation_xyz
x,y,z
-x,-y,z
x,-y,-z
-x,y,-z
-x,-y,-z
x,y,-z
-x,y,z
x,-y,z
loop_
_atom_site_type_symbol
_atom_site_label
_atom_site_fract_x
_atom_site_fract_y
_atom_site_fract_z
Si Si1 0.817127 0.412153 0.000000
Si Si2 0.681421 0.696962 0.000000
Si Si3 0.314337 0.345343 0.373329
Si Si4 0.812603 0.847627 0.873384
Si Si5 0.185227 0.444152 0.246964
Si Si6 0.311687 0.059120 0.741634
Si Si7 0.678314 0.062162 0.500000
Si Si8 0.814617 0.742942 0.223909
O O1 0.791824 0.440998 0.114840
O O2 0.705750 0.363604 0.000000
O O3 0.000000 0.395717 0.000000
O O4 0.765184 0.717746 0.108332
O O5 0.500000 0.710463 0.000000
O O6 0.261020 0.349235 0.500000
O O7 0.500000 0.345028 0.370954
O O8 0.257490 0.394649 0.304686
O O9 0.256160 0.292765 0.318066
O O10 0.748718 0.901412 0.831205
O O11 0.762697 0.801870 0.791199
O O12 0.000000 0.848676 0.872833
O O13 0.763556 0.837013 0.000000
O O14 0.242191 0.500000 0.286453
O O15 0.000000 0.441878 0.265699
O O16 0.500000 0.059990 0.738816
O O17 0.252977 0.075642 0.619091
O O18 0.265695 0.000000 0.761473
O O19 0.500000 0.080745 0.500000
O O20 0.672400 0.000000 0.500000
O O21 0.000000 0.741984 0.234789
#
# Coordination Sequence:
#
# PCOD9383938 Si02
#       8
#     4   4   8   8   8   8   4   8
#     4  10  19  34  58  88 121 154 187 231 286 341
#     4  12  22  33  59  93 118 146 188 237 296 351
#     4  11  25  43  61  85 118 153 192 243 300 349
#     4  10  22  39  57  81 115 151 188 230 284 344
#     4  10  21  37  60  89 120 156 197 237 282 344
#     4   9  18  34  57  84 114 150 193 236 281 335
#     4   7  12  28  53  77 105 143 183 225 272 321
#     4  11  22  41  64  84 112 152 197 240 286 347
#
# _framework density 19.071591999999999
#
# number of rings (size 3 to 8) (size 9 to 14) (size 15 to 20)
#    0.000    1.923    2.308    2.769    0.000    4.923 
#    1.385    3.462    0.000    2.769    0.000    0.000 
#    0.000    0.000    0.000    0.000    0.000    0.000 
#
# Total GULP energy -290073.717535 kJ/mol
# GULP energy per Si atom -5578.340722 kJ/mol
# Density = 1.902818 g / cm^3
# Si number density = 19.071592 Si / 1000 Ang^3
#
#
#
# Elastic Constant Matrix: (Units=GPa)
#
#
# Indices 1 2 3 4 5 6 
#
# 1 15.4800 28.1993 24.5100 0.0000 0.0000 0.0000
# 2 28.1993 130.6368 57.3465 0.0000 0.0000 0.0000
# 3 24.5100 57.3465 110.7156 0.0000 0.0000 0.0000
# 4 0.0000 0.0000 0.0000 5.8378 0.0000 0.0000
# 5 0.0000 0.0000 0.0000 0.0000 23.7611 0.0000
# 6 0.0000 0.0000 0.0000 0.0000 0.0000 48.9703
#
#
#
# Elastic Compliance Matrix: (Units=1/GPa)
#
#
# Indices 1 2 3 4 5 6 
#
# 1 0.130335 -0.020020 -0.018484 0.000000 0.000000 0.000000
# 2 -0.020020 0.012983 -0.002293 0.000000 0.000000 0.000000
# 3 -0.018484 -0.002293 0.014311 0.000000 0.000000 0.000000
# 4 0.000000 0.000000 0.000000 0.171297 0.000000 0.000000
# 5 0.000000 0.000000 0.000000 0.000000 0.042086 0.000000
# 6 0.000000 0.000000 0.000000 0.000000 0.000000 0.020421
#
#
# Mechanical properties :
#
#
# Convention : Reuss Voigt Hill
#
# Bulk Modulus (GPa) = 13.15155 52.99377 33.07266
# Shear Modulus (GPa) = 10.03268 25.49895 17.76581
#
# Velocity S-wave (km/s) = 2.29607 3.66048 3.05541
# Velocity P-wave (km/s) = 3.73365 6.76111 5.46135
#
# Compressibility (1/GPa) = 0.07603668
#
# Stress axis : x y z
#
# Youngs Moduli (GPa) = 7.67252 77.02522 69.87414
#
# Poissons Ratio (x) = 1.54207 1.29152
# Poissons Ratio (y) = 0.15361 0.16019
# Poissons Ratio (z) = 0.14182 0.17658
#
# Static dielectric constant tensor:
#      x y z
#    x 1.651420 0.000000 0.000000 
#    y 0.000000 1.665300 0.000000 
#    z 0.000000 0.000000 1.673080 
# 
# From -- ./inp_files/15593.got.cif
#   From: 2010.05.17/outbox.cif.g08.bks.cpg/sg47_8_cif.got.tgz:15593.got - 2010.06.03 20:15:42.
