data_PCOD9383634
_publ_section_title
;
Structure prediction by ZEFSAII (Michael W. Deem and Ramdas Pophale) SiO2 
 PCOD9383634
Probable space group: P M M M
;
_chemical_formula_sum "Si O2"
_cell_formula_units_Z 44
_cell_length_a 19.513584
_cell_length_b 8.841031
_cell_length_c 14.848356
_cell_angle_alpha 90.000000
_cell_angle_beta 90.000000
_cell_angle_gamma 90.000000
_cell_volume 2561.641363
_symmetry_space_group_name_H-M "P M M M"
_symmetry_group_IT_number 47
_symmetry_cell_setting 'orthorhombic'
loop_
_space_group_symop_operation_xyz
x,y,z
-x,-y,z
x,-y,-z
-x,y,-z
-x,-y,-z
x,y,-z
-x,y,z
x,-y,z
loop_
_atom_site_type_symbol
_atom_site_label
_atom_site_fract_x
_atom_site_fract_y
_atom_site_fract_z
Si Si1 0.500000 0.168092 0.660900
Si Si2 0.854786 0.682747 0.394728
Si Si3 0.500000 0.323341 0.155021
Si Si4 0.735653 0.323893 0.741133
Si Si5 0.000000 0.172095 0.391372
Si Si6 0.646866 0.179028 0.104233
Si Si7 0.350229 0.171834 0.600512
O O1 0.500000 0.291738 0.738349
O O2 0.431885 0.176110 0.603250
O O3 0.500000 0.000000 0.705745
O O4 0.840680 0.730477 0.500000
O O5 0.853613 0.500000 0.395586
O O6 0.800901 0.733465 0.317727
O O7 0.930007 0.741855 0.368536
O O8 0.500000 0.500000 0.133406
O O9 0.571501 0.251031 0.120888
O O10 0.746114 0.500000 0.761106
O O11 0.705597 0.243000 0.829513
O O12 0.675992 0.296192 0.668524
O O13 0.000000 0.165566 0.500000
O O14 0.000000 0.000000 0.357044
O O15 0.640504 0.000000 0.120590
O O16 0.665085 0.204918 0.000000
O O17 0.324649 0.197178 0.500000
O O18 0.330016 0.000000 0.628877
#
# Coordination Sequence:
#
# PCOD9383634 Si02
#       7
#     4   8   4   8   4   8   8
#     4  10  19  33  51  69  97 135 173 211 257 310
#     4   9  18  33  52  76 111 151 180 206 249 303
#     4  12  23  36  57  81 101 126 167 223 279 325
#     4  11  22  35  53  78 107 137 173 218 264 311
#     4   9  17  29  49  79 110 141 182 223 249 282
#     4  11  24  41  59  77 100 134 173 217 274 332
#     4  10  20  33  50  71  99 138 178 214 255 307
#
# _framework density 17.176487999999999
#
# number of rings (size 3 to 8) (size 9 to 14) (size 15 to 20)
#    0.000    1.727    1.818    3.273    0.000    7.273 
#    0.000    1.818    0.000    1.636    0.000    0.636 
#    0.000    5.091    0.000    0.000    0.000    0.000 
#
# Total GULP energy -245241.217460 kJ/mol
# GULP energy per Si atom -5573.664033 kJ/mol
# Density = 1.713739 g / cm^3
# Si number density = 17.176488 Si / 1000 Ang^3
#
#
#
# Elastic Constant Matrix: (Units=GPa)
#
#
# Indices 1 2 3 4 5 6 
#
# 1 123.6245 36.0272 52.1926 0.0000 0.0000 0.0000
# 2 36.0272 48.8726 43.6262 0.0000 0.0000 0.0000
# 3 52.1926 43.6262 101.3392 0.0000 0.0000 0.0000
# 4 0.0000 0.0000 0.0000 -655.0028 0.0000 0.0000
# 5 0.0000 0.0000 0.0000 0.0000 5.1028 0.0000
# 6 0.0000 0.0000 0.0000 0.0000 0.0000 44.4915
#
#
#
# Elastic Compliance Matrix: (Units=1/GPa)
#
#
# Indices 1 2 3 4 5 6 
#
# 1 0.011033 -0.004971 -0.003542 0.000000 0.000000 0.000000
# 2 -0.004971 0.035472 -0.012710 0.000000 0.000000 0.000000
# 3 -0.003542 -0.012710 0.017164 0.000000 0.000000 0.000000
# 4 0.000000 0.000000 0.000000 -0.001527 0.000000 0.000000
# 5 0.000000 0.000000 0.000000 0.000000 0.195972 0.000000
# 6 0.000000 0.000000 0.000000 0.000000 0.000000 0.022476
#
#
# Mechanical properties :
#
#
# Convention : Reuss Voigt Hill
#
# Bulk Modulus (GPa) = 47.12208 59.72534 53.42371
# Shear Modulus (GPa) = 15.14639 -111.61570 -48.23465
#
# Velocity S-wave (km/s) = 2.97275 -8.06987 -5.30497
# Velocity P-wave (km/s) = 6.26710 7.20994 2.52058
#
# Compressibility (1/GPa) = 0.02122147
#
# Stress axis : x y z
#
# Youngs Moduli (GPa) = 90.63476 28.19147 58.26182
#
# Poissons Ratio (x) = 0.14015 0.20638
# Poissons Ratio (y) = 0.45057 0.74051
# Poissons Ratio (z) = 0.32106 0.35832
#
# Static dielectric constant tensor:
#      x y z
#    x 1.596630 0.000000 0.000000 
#    y 0.000000 1.615820 0.000000 
#    z 0.000000 0.000000 1.580510 
# 
# From -- ./inp_files/20973.got.cif
#   From: 2010.05.17/outbox.cif.g08.bks.cpg/sg47_11_cif.got.tgz:20973.got - 2010.06.03 20:15:42.
