data_PCOD9383154
_publ_section_title
;
Structure prediction by ZEFSAII (Michael W. Deem and Ramdas Pophale) SiO2 
 PCOD9383154
Probable space group: P M M M
;
_chemical_formula_sum "Si O2"
_cell_formula_units_Z 56
_cell_length_a 15.849610
_cell_length_b 9.141474
_cell_length_c 23.916836
_cell_angle_alpha 90.000000
_cell_angle_beta 90.000000
_cell_angle_gamma 90.000000
_cell_volume 3465.281613
_symmetry_space_group_name_H-M "P M M M"
_symmetry_group_IT_number 47
_symmetry_cell_setting 'orthorhombic'
loop_
_space_group_symop_operation_xyz
x,y,z
-x,-y,z
x,-y,-z
-x,y,-z
-x,-y,-z
x,y,-z
-x,y,z
x,-y,z
loop_
_atom_site_type_symbol
_atom_site_label
_atom_site_fract_x
_atom_site_fract_y
_atom_site_fract_z
Si Si1 0.269795 0.677356 0.787157
Si Si2 0.401692 0.324462 0.114865
Si Si3 0.682086 0.667300 0.663508
Si Si4 0.602172 0.166895 0.000000
Si Si5 0.000000 0.171733 0.566227
Si Si6 0.601237 0.830700 0.438967
Si Si7 0.905121 0.175719 0.764959
Si Si8 0.878829 0.330581 0.353436
O O1 0.257868 0.500000 0.784423
O O2 0.336044 0.712031 0.836026
O O3 0.310746 0.722872 0.727437
O O4 0.177684 0.751770 0.793309
O O5 0.500000 0.283434 0.127196
O O6 0.400673 0.500000 0.107933
O O7 0.374596 0.249663 0.056891
O O8 0.651492 0.500000 0.666236
O O9 0.630850 0.752555 0.616974
O O10 0.778469 0.669553 0.642930
O O11 0.500000 0.164794 0.000000
O O12 0.632485 0.000000 0.000000
O O13 0.920909 0.251568 0.594446
O O14 0.000000 0.186812 0.500000
O O15 0.000000 0.000000 0.580580
O O16 0.629960 0.770360 0.500000
O O17 0.500000 0.827578 0.439728
O O18 0.628271 0.000000 0.436641
O O19 0.903174 0.242623 0.702451
O O20 0.000000 0.207252 0.787982
O O21 0.895387 0.000000 0.763323
O O22 0.905065 0.500000 0.348605
#
# Coordination Sequence:
#
# PCOD9383154 Si02
#       8
#     8   8   8   4   4   8   8   8
#     4   9  19  33  49  74 104 133 167 205 250 301
#     4   9  17  31  51  74 104 142 179 212 246 292
#     4   9  19  33  49  72  96 119 152 195 244 293
#     4   9  17  29  47  73 104 139 178 215 251 292
#     4  11  23  35  47  67  93 119 151 190 235 292
#     4   9  19  35  51  66  86 116 156 198 240 290
#     4  10  19  31  50  73  97 126 162 204 248 296
#     4  10  20  34  51  68  90 120 152 190 237 289
#
# _framework density 16.160302999999999
#
# number of rings (size 3 to 8) (size 9 to 14) (size 15 to 20)
#    0.000    2.571    0.714    2.571    0.000    7.429 
#    0.000    5.000    0.000    1.714    0.000    0.500 
#    0.000    4.000    0.000    0.000    0.000    0.000 
#
# Total GULP energy -311853.467265 kJ/mol
# GULP energy per Si atom -5568.811915 kJ/mol
# Density = 1.612352 g / cm^3
# Si number density = 16.160303 Si / 1000 Ang^3
#
#
#
# Elastic Constant Matrix: (Units=GPa)
#
#
# Indices 1 2 3 4 5 6 
#
# 1 74.2362 40.4656 62.2000 0.0000 0.0000 0.0000
# 2 40.4656 59.1052 54.4297 0.0000 0.0000 0.0000
# 3 62.2000 54.4297 120.1557 0.0000 0.0000 0.0000
# 4 0.0000 0.0000 0.0000 17.6948 0.0000 0.0000
# 5 0.0000 0.0000 0.0000 0.0000 36.5681 0.0000
# 6 0.0000 0.0000 0.0000 0.0000 0.0000 25.4984
#
#
#
# Elastic Compliance Matrix: (Units=1/GPa)
#
#
# Indices 1 2 3 4 5 6 
#
# 1 0.026558 -0.009474 -0.009456 0.000000 0.000000 0.000000
# 2 -0.009474 0.032408 -0.009776 0.000000 0.000000 0.000000
# 3 -0.009456 -0.009776 0.017646 0.000000 0.000000 0.000000
# 4 0.000000 0.000000 0.000000 0.056514 0.000000 0.000000
# 5 0.000000 0.000000 0.000000 0.000000 0.027346 0.000000
# 6 0.000000 0.000000 0.000000 0.000000 0.000000 0.039218
#
#
# Mechanical properties :
#
#
# Convention : Reuss Voigt Hill
#
# Bulk Modulus (GPa) = 52.08633 63.07640 57.58136
# Shear Modulus (GPa) = 18.97505 22.37905 20.67705
#
# Velocity S-wave (km/s) = 3.43034 3.72535 3.58089
# Velocity P-wave (km/s) = 6.92753 7.59083 7.26675
#
# Compressibility (1/GPa) = 0.01919890
#
# Stress axis : x y z
#
# Youngs Moduli (GPa) = 37.65346 30.85623 56.66942
#
# Poissons Ratio (x) = 0.29234 0.53588
# Poissons Ratio (y) = 0.35674 0.55401
# Poissons Ratio (z) = 0.35606 0.30166
#
# Static dielectric constant tensor:
#      x y z
#    x 1.567540 0.000000 0.000000 
#    y 0.000000 1.553630 0.000000 
#    z 0.000000 0.000000 1.526210 
# 
# From -- ./inp_files/31102.got.cif
#   From: 2010.05.17/outbox.cif.g08.bks.cpg/sg47_16_cif.got.tgz:31102.got - 2010.06.03 20:15:42.
