data_PCOD9383056
_publ_section_title
;
Structure prediction by ZEFSAII (Michael W. Deem and Ramdas Pophale) SiO2 
 PCOD9383056
Probable space group: P M M M
;
_chemical_formula_sum "Si O2"
_cell_formula_units_Z 40
_cell_length_a 25.329008
_cell_length_b 8.950594
_cell_length_c 10.402064
_cell_angle_alpha 90.000000
_cell_angle_beta 90.000000
_cell_angle_gamma 90.000000
_cell_volume 2358.248466
_symmetry_space_group_name_H-M "P M M M"
_symmetry_group_IT_number 47
_symmetry_cell_setting 'orthorhombic'
loop_
_space_group_symop_operation_xyz
x,y,z
-x,-y,z
x,-y,-z
-x,y,-z
-x,-y,-z
x,y,-z
-x,y,z
x,-y,z
loop_
_atom_site_type_symbol
_atom_site_label
_atom_site_fract_x
_atom_site_fract_y
_atom_site_fract_z
Si Si1 0.378153 0.179942 0.742868
Si Si2 0.834676 0.829239 0.843694
Si Si3 0.941717 0.675141 0.156220
Si Si4 0.562508 0.679566 0.500000
Si Si5 0.440138 0.818760 0.000000
Si Si6 0.274764 0.678043 0.152343
O O1 0.408280 0.252042 0.623452
O O2 0.409526 0.225365 0.871994
O O3 0.319109 0.239921 0.764368
O O4 0.378171 0.000000 0.732013
O O5 0.890613 0.764287 0.797716
O O6 0.783832 0.731018 0.809526
O O7 0.827324 0.000000 0.802745
O O8 0.836797 0.827889 0.000000
O O9 0.936564 0.500000 0.188657
O O10 0.000000 0.727909 0.198568
O O11 0.941665 0.683340 0.000000
O O12 0.566977 0.500000 0.500000
O O13 0.500000 0.717818 0.500000
O O14 0.500000 0.763308 0.000000
O O15 0.441618 0.000000 0.000000
O O16 0.279622 0.500000 0.164099
O O17 0.282055 0.716892 0.000000
#
# Coordination Sequence:
#
# PCOD9383056 Si02
#       6
#     8   8   8   4   4   8
#     4  11  21  36  58  81 106 135 171 213 256 305
#     4   9  16  24  36  56  83 116 158 205 250 295
#     4   8  13  21  32  47  72 110 155 199 245 298
#     4  11  25  43  59  79 109 141 172 207 252 309
#     4   9  18  32  53  81 107 129 160 205 252 297
#     4  10  19  31  48  70  99 131 165 206 256 309
#
# _framework density 16.961741
#
# number of rings (size 3 to 8) (size 9 to 14) (size 15 to 20)
#    0.000    2.400    1.000    3.300    0.000    5.200 
#    0.000    2.000    0.000    2.400    0.000    0.000 
#    0.000    0.000    0.000    0.900    0.000   17.000 
#
# Total GULP energy -222989.133481 kJ/mol
# GULP energy per Si atom -5574.728337 kJ/mol
# Density = 1.692314 g / cm^3
# Si number density = 16.961741 Si / 1000 Ang^3
#
#
#
# Elastic Constant Matrix: (Units=GPa)
#
#
# Indices 1 2 3 4 5 6 
#
# 1 159.6666 58.4263 47.5440 0.0000 0.0000 0.0000
# 2 58.4263 71.1411 31.9070 0.0000 0.0000 0.0000
# 3 47.5440 31.9070 70.3397 0.0000 0.0000 0.0000
# 4 0.0000 0.0000 0.0000 15.7109 0.0000 0.0000
# 5 0.0000 0.0000 0.0000 0.0000 6.7886 0.0000
# 6 0.0000 0.0000 0.0000 0.0000 0.0000 29.8783
#
#
#
# Elastic Compliance Matrix: (Units=1/GPa)
#
#
# Indices 1 2 3 4 5 6 
#
# 1 0.009657 -0.006281 -0.003678 0.000000 0.000000 0.000000
# 2 -0.006281 0.021732 -0.005612 0.000000 0.000000 0.000000
# 3 -0.003678 -0.005612 0.019249 0.000000 0.000000 0.000000
# 4 0.000000 0.000000 0.000000 0.063650 0.000000 0.000000
# 5 0.000000 0.000000 0.000000 0.000000 0.147306 0.000000
# 6 0.000000 0.000000 0.000000 0.000000 0.000000 0.033469
#
#
# Mechanical properties :
#
#
# Convention : Reuss Voigt Hill
#
# Bulk Modulus (GPa) = 51.29669 64.10022 57.69846
# Shear Modulus (GPa) = 15.02838 21.36025 18.19431
#
# Velocity S-wave (km/s) = 2.97983 3.55254 3.27871
# Velocity P-wave (km/s) = 6.49211 7.39598 6.95873
#
# Compressibility (1/GPa) = 0.01949443
#
# Stress axis : x y z
#
# Youngs Moduli (GPa) = 103.55508 46.01423 51.95194
#
# Poissons Ratio (x) = 0.28903 0.19107
# Poissons Ratio (y) = 0.65046 0.29158
# Poissons Ratio (z) = 0.38086 0.25825
#
# Static dielectric constant tensor:
#      x y z
#    x 1.586850 0.000000 0.000000 
#    y 0.000000 1.566630 0.000000 
#    z 0.000000 0.000000 1.555230 
# 
# From -- ./inp_files/12981.got.cif
#   From: 2010.05.17/outbox.cif.g08.bks.cpg/sg47_7_cif.got.tgz:12981.got - 2010.06.03 20:15:42.
