data_PCOD9383289
_publ_section_title
;
Structure prediction by ZEFSAII (Michael W. Deem and Ramdas Pophale) SiO2 
 PCOD9383289
Probable space group: P M M M
;
_chemical_formula_sum "Si O2"
_cell_formula_units_Z 52
_cell_length_a 14.071023
_cell_length_b 23.452634
_cell_length_c 7.449853
_cell_angle_alpha 90.000000
_cell_angle_beta 90.000000
_cell_angle_gamma 90.000000
_cell_volume 2458.470505
_symmetry_space_group_name_H-M "P M M M"
_symmetry_group_IT_number 47
_symmetry_cell_setting 'orthorhombic'
loop_
_space_group_symop_operation_xyz
x,y,z
-x,-y,z
x,-y,-z
-x,y,-z
-x,-y,-z
x,y,-z
-x,y,z
x,-y,z
loop_
_atom_site_type_symbol
_atom_site_label
_atom_site_fract_x
_atom_site_fract_y
_atom_site_fract_z
Si Si1 0.690371 0.869503 0.280377
Si Si2 0.500000 0.065325 0.281234
Si Si3 0.393503 0.751210 0.288735
Si Si4 0.103582 0.120730 0.283014
Si Si5 0.105441 0.255574 0.714017
Si Si6 0.893216 0.433437 0.218918
Si Si7 0.742602 0.345217 0.802137
O O1 0.694778 0.870050 0.500000
O O2 0.596418 0.903346 0.224760
O O3 0.672086 0.803718 0.222492
O O4 0.790985 0.896638 0.220300
O O5 0.500000 0.066969 0.500000
O O6 0.500000 0.000000 0.224904
O O7 0.400980 0.762501 0.500000
O O8 0.500000 0.754058 0.212715
O O9 0.347669 0.688702 0.272414
O O10 0.101525 0.113565 0.500000
O O11 0.105688 0.188632 0.245517
O O12 0.000000 0.098849 0.217823
O O13 0.123660 0.259989 0.500000
O O14 0.181049 0.294159 0.809288
O O15 0.000000 0.277039 0.753127
O O16 0.881331 0.500000 0.263195
O O17 0.805335 0.395271 0.285951
O O18 0.000000 0.416100 0.278279
O O19 0.893292 0.428779 0.000000
O O20 0.715413 0.365342 0.000000
#
# Coordination Sequence:
#
# PCOD9383289 Si02
#       7
#     8   4   8   8   8   8   8
#     4   9  14  24  42  61  85 117 153 192 233 279
#     4   9  16  24  38  64  91 115 152 205 248 270
#     4  10  19  32  49  66  87 122 162 193 232 293
#     4   8  13  21  36  58  82 112 149 182 215 268
#     4   9  16  26  41  62  90 124 157 184 215 270
#     4   8  15  29  47  66  91 125 160 188 221 275
#     4  11  20  28  44  70  97 120 148 193 247 285
#
# _framework density 21.151363
#
# number of rings (size 3 to 8) (size 9 to 14) (size 15 to 20)
#    0.000    2.846    2.308    2.308    0.000    1.231 
#    0.000    0.000    0.000    2.769    0.000   11.846 
#    0.000    1.231    0.000    0.000    0.000    4.923 
#
# Total GULP energy -289662.568475 kJ/mol
# GULP energy per Si atom -5570.434009 kJ/mol
# Density = 2.110322 g / cm^3
# Si number density = 21.151363 Si / 1000 Ang^3
#
#
#
# Elastic Constant Matrix: (Units=GPa)
#
#
# Indices 1 2 3 4 5 6 
#
# 1 182.1819 44.6512 9.7592 0.0000 0.0000 0.0000
# 2 44.6512 65.0419 -2.7234 0.0000 0.0000 0.0000
# 3 9.7592 -2.7234 48.5987 0.0000 0.0000 0.0000
# 4 0.0000 0.0000 0.0000 6.0223 0.0000 0.0000
# 5 0.0000 0.0000 0.0000 0.0000 17.5560 0.0000
# 6 0.0000 0.0000 0.0000 0.0000 0.0000 16.8734
#
#
#
# Elastic Compliance Matrix: (Units=1/GPa)
#
#
# Indices 1 2 3 4 5 6 
#
# 1 0.006723 -0.004683 -0.001613 0.000000 0.000000 0.000000
# 2 -0.004683 0.018673 0.001987 0.000000 0.000000 0.000000
# 3 -0.001613 0.001987 0.021012 0.000000 0.000000 0.000000
# 4 0.000000 0.000000 0.000000 0.166049 0.000000 0.000000
# 5 0.000000 0.000000 0.000000 0.000000 0.056960 0.000000
# 6 0.000000 0.000000 0.000000 0.000000 0.000000 0.059265
#
#
# Mechanical properties :
#
#
# Convention : Reuss Voigt Hill
#
# Bulk Modulus (GPa) = 26.46174 44.35515 35.40844
# Shear Modulus (GPa) = 14.28994 24.36605 19.32799
#
# Velocity S-wave (km/s) = 2.60206 3.39777 3.02618
# Velocity P-wave (km/s) = 4.64386 6.03399 5.38398
#
# Compressibility (1/GPa) = 0.03779041
#
# Stress axis : x y z
#
# Youngs Moduli (GPa) = 148.73973 53.55397 47.59218
#
# Poissons Ratio (x) = 0.25079 0.07674
# Poissons Ratio (y) = 0.69654 -0.09456
# Poissons Ratio (z) = 0.23985 -0.10640
#
# Static dielectric constant tensor:
#      x y z
#    x 1.818730 0.000000 0.000000 
#    y 0.000000 1.740430 0.000000 
#    z 0.000000 0.000000 1.819530 
# 
# From -- ./inp_files/6987.got.cif
#   From: 2010.05.17/outbox.cif.g08.bks.cpg/sg47_4_cif.got.tgz:6987.got - 2010.06.03 20:15:42.
