data_PCOD9383353
_publ_section_title
;
Structure prediction by ZEFSAII (Michael W. Deem and Ramdas Pophale) SiO2 
 PCOD9383353
Probable space group: P M M M
;
_chemical_formula_sum "Si O2"
_cell_formula_units_Z 36
_cell_length_a 10.047081
_cell_length_b 13.817504
_cell_length_c 16.708497
_cell_angle_alpha 90.000000
_cell_angle_beta 90.000000
_cell_angle_gamma 90.000000
_cell_volume 2319.566819
_symmetry_space_group_name_H-M "P M M M"
_symmetry_group_IT_number 47
_symmetry_cell_setting 'orthorhombic'
loop_
_space_group_symop_operation_xyz
x,y,z
-x,-y,z
x,-y,-z
-x,y,-z
-x,-y,-z
x,y,-z
-x,y,z
x,-y,z
loop_
_atom_site_type_symbol
_atom_site_label
_atom_site_fract_x
_atom_site_fract_y
_atom_site_fract_z
Si Si1 0.000000 0.885094 0.410560
Si Si2 0.500000 0.116499 0.405111
Si Si3 0.245199 0.204800 0.680852
Si Si4 0.655672 0.883387 0.000000
Si Si5 0.160188 0.386479 0.592512
Si Si6 0.159916 0.116665 0.153089
O O1 0.873139 0.847801 0.365473
O O2 0.000000 0.846488 0.500000
O O3 0.000000 0.000000 0.412360
O O4 0.500000 0.142136 0.500000
O O5 0.624261 0.159642 0.357737
O O6 0.500000 0.000000 0.400763
O O7 0.231377 0.316796 0.655567
O O8 0.218347 0.177020 0.772530
O O9 0.746859 0.859066 0.077081
O O10 0.500000 0.848214 0.000000
O O11 0.646232 0.000000 0.000000
O O12 0.194856 0.361088 0.500000
O O13 0.189752 0.500000 0.603783
O O14 0.000000 0.374828 0.600393
O O15 0.000000 0.135064 0.141963
O O16 0.171389 0.000000 0.168304
#
# Coordination Sequence:
#
# PCOD9383353 Si02
#       6
#     4   4   8   4   8   8
#     4  11  20  30  47  70  98 134 176 212 243 297
#     4  11  24  36  45  66 106 148 178 210 255 307
#     4  12  21  33  51  73 101 137 179 217 260 305
#     4   9  19  33  51  73 100 135 166 198 250 316
#     4   9  17  31  52  76 100 130 174 226 270 303
#     4  10  19  32  50  74 102 131 168 214 259 307
#
# _framework density 15.520139
#
# number of rings (size 3 to 8) (size 9 to 14) (size 15 to 20)
#    0.000    1.667    2.222    5.000    1.556    3.111 
#    0.000    0.556    0.000    2.000    0.000    0.778 
#    0.000    4.444    0.000    0.000    0.000    0.000 
#
# Total GULP energy -200699.003000 kJ/mol
# GULP energy per Si atom -5574.972306 kJ/mol
# Density = 1.548481 g / cm^3
# Si number density = 15.520139 Si / 1000 Ang^3
#
#
#
# Elastic Constant Matrix: (Units=GPa)
#
#
# Indices 1 2 3 4 5 6 
#
# 1 132.1019 33.7607 72.5860 0.0000 0.0000 0.0000
# 2 33.7607 75.9099 51.8428 0.0000 0.0000 0.0000
# 3 72.5860 51.8428 157.3951 0.0000 0.0000 0.0000
# 4 0.0000 0.0000 0.0000 22.0160 0.0000 0.0000
# 5 0.0000 0.0000 0.0000 0.0000 26.4362 0.0000
# 6 0.0000 0.0000 0.0000 0.0000 0.0000 20.1418
#
#
#
# Elastic Compliance Matrix: (Units=1/GPa)
#
#
# Indices 1 2 3 4 5 6 
#
# 1 0.010312 -0.001727 -0.004187 0.000000 0.000000 0.000000
# 2 -0.001727 0.017286 -0.004897 0.000000 0.000000 0.000000
# 3 -0.004187 -0.004897 0.009897 0.000000 0.000000 0.000000
# 4 0.000000 0.000000 0.000000 0.045421 0.000000 0.000000
# 5 0.000000 0.000000 0.000000 0.000000 0.037827 0.000000
# 6 0.000000 0.000000 0.000000 0.000000 0.000000 0.049648
#
#
# Mechanical properties :
#
#
# Convention : Reuss Voigt Hill
#
# Bulk Modulus (GPa) = 62.99817 75.75399 69.37608
# Shear Modulus (GPa) = 25.34155 27.53329 26.43742
#
# Velocity S-wave (km/s) = 4.04520 4.21650 4.13174
# Velocity P-wave (km/s) = 7.90554 8.52181 8.21945
#
# Compressibility (1/GPa) = 0.01587348
#
# Stress axis : x y z
#
# Youngs Moduli (GPa) = 96.97751 57.84973 101.03760
#
# Poissons Ratio (x) = 0.09989 0.42301
# Poissons Ratio (y) = 0.16746 0.49482
# Poissons Ratio (z) = 0.40601 0.28331
#
# Static dielectric constant tensor:
#      x y z
#    x 1.516830 0.000000 0.000000 
#    y 0.000000 1.522000 0.000000 
#    z 0.000000 0.000000 1.539420 
# 
# From -- ./inp_files/5615.got.cif
#   From: 2010.05.17/outbox.cif.g08.bks.cpg/sg47_3_cif.got.tgz:5615.got - 2010.06.03 20:15:42.
