data_PCOD9383157
_publ_section_title
;
Structure prediction by ZEFSAII (Michael W. Deem and Ramdas Pophale) SiO2 
 PCOD9383157
Probable space group: P M M M
;
_chemical_formula_sum "Si O2"
_cell_formula_units_Z 64
_cell_length_a 18.015996
_cell_length_b 9.168640
_cell_length_c 21.231181
_cell_angle_alpha 90.000000
_cell_angle_beta 90.000000
_cell_angle_gamma 90.000000
_cell_volume 3507.012795
_symmetry_space_group_name_H-M "P M M M"
_symmetry_group_IT_number 47
_symmetry_cell_setting 'orthorhombic'
loop_
_space_group_symop_operation_xyz
x,y,z
-x,-y,z
x,-y,-z
-x,y,-z
-x,-y,-z
x,y,-z
-x,y,z
x,-y,z
loop_
_atom_site_type_symbol
_atom_site_label
_atom_site_fract_x
_atom_site_fract_y
_atom_site_fract_z
Si Si1 0.702721 0.829905 0.931276
Si Si2 0.084208 0.828971 0.673767
Si Si3 0.362315 0.323353 0.569095
Si Si4 0.582194 0.678068 0.702513
Si Si5 0.883058 0.829688 0.929748
Si Si6 0.186794 0.674323 0.427950
Si Si7 0.876197 0.673991 0.801795
Si Si8 0.299881 0.674226 0.194848
O O1 0.792879 0.822959 0.930894
O O2 0.675641 0.742382 0.871246
O O3 0.683158 0.000000 0.925853
O O4 0.678206 0.775358 0.000000
O O5 0.140306 0.757562 0.624326
O O6 0.089051 0.749588 0.741068
O O7 0.000000 0.814103 0.649734
O O8 0.100532 0.000000 0.682172
O O9 0.386339 0.269687 0.500000
O O10 0.369593 0.500000 0.567709
O O11 0.404471 0.271510 0.630955
O O12 0.274606 0.293558 0.577099
O O13 0.500000 0.720410 0.724366
O O14 0.584792 0.500000 0.701553
O O15 0.648255 0.726609 0.748288
O O16 0.904755 0.738243 0.868322
O O17 0.903647 0.000000 0.922222
O O18 0.907917 0.781738 0.000000
O O19 0.164165 0.709169 0.500000
O O20 0.178210 0.500000 0.419028
O O21 0.886487 0.500000 0.800452
O O22 0.787488 0.706142 0.796396
O O23 0.306043 0.500000 0.191300
#
# Coordination Sequence:
#
# PCOD9383157 Si02
#       8
#     8   8   8   8   8   8   8   8
#     4   8  14  25  42  65  91 118 151 193 239 285
#     4  11  24  38  51  70  98 130 162 198 239 284
#     4   8  14  26  45  69  96 124 155 192 232 275
#     4   9  16  25  39  62  94 129 161 194 232 274
#     4   8  14  26  45  70 100 129 156 193 243 294
#     4   9  18  34  56  78  99 125 157 195 240 289
#     4  10  19  31  50  73  97 127 163 204 245 286
#     4   9  17  28  44  68  95 123 157 197 239 281
#
# _framework density 18.249148999999999
#
# number of rings (size 3 to 8) (size 9 to 14) (size 15 to 20)
#    0.000    3.000    0.000    3.000    0.000    4.750 
#    0.000    5.000    0.000    1.125    0.000    5.250 
#    0.000    0.000    0.000    7.625    0.000    7.500 
#
# Total GULP energy -356657.111411 kJ/mol
# GULP energy per Si atom -5572.767366 kJ/mol
# Density = 1.820761 g / cm^3
# Si number density = 18.249149 Si / 1000 Ang^3
#
#
#
# Elastic Constant Matrix: (Units=GPa)
#
#
# Indices 1 2 3 4 5 6 
#
# 1 39.9689 17.5418 34.3572 0.0000 0.0000 0.0000
# 2 17.5418 18.4748 21.8561 0.0000 0.0000 0.0000
# 3 34.3572 21.8561 99.4989 0.0000 0.0000 0.0000
# 4 0.0000 0.0000 0.0000 14.2316 0.0000 0.0000
# 5 0.0000 0.0000 0.0000 0.0000 -23.6942 0.0000
# 6 0.0000 0.0000 0.0000 0.0000 0.0000 6.3551
#
#
#
# Elastic Compliance Matrix: (Units=1/GPa)
#
#
# Indices 1 2 3 4 5 6 
#
# 1 0.048078 -0.035142 -0.008882 0.000000 0.000000 0.000000
# 2 -0.035142 0.098820 -0.009572 0.000000 0.000000 0.000000
# 3 -0.008882 -0.009572 0.015220 0.000000 0.000000 0.000000
# 4 0.000000 0.000000 0.000000 0.070266 0.000000 0.000000
# 5 0.000000 0.000000 0.000000 0.000000 -0.042204 0.000000
# 6 0.000000 0.000000 0.000000 0.000000 0.000000 0.157353
#
#
# Mechanical properties :
#
#
# Convention : Reuss Voigt Hill
#
# Bulk Modulus (GPa) = 18.20682 33.93919 26.07301
# Shear Modulus (GPa) = 10.57007 4.99101 7.78054
#
# Velocity S-wave (km/s) = 2.40929 1.65556 2.06707
# Velocity P-wave (km/s) = 4.21165 4.72150 4.47384
#
# Compressibility (1/GPa) = 0.05492449
#
# Stress axis : x y z
#
# Youngs Moduli (GPa) = 20.79956 10.11945 65.70327
#
# Poissons Ratio (x) = 0.35562 0.58358
# Poissons Ratio (y) = 0.73095 0.62892
# Poissons Ratio (z) = 0.18474 0.09686
#
# Static dielectric constant tensor:
#      x y z
#    x 1.626140 0.000000 0.000000 
#    y 0.000000 1.601180 0.000000 
#    z 0.000000 0.000000 1.638270 
# 
# From -- ./inp_files/31345.got.cif
#   From: 2010.05.17/outbox.cif.g08.bks.cpg/sg47_16_cif.got.tgz:31345.got - 2010.06.03 20:15:42.
