data_PCOD9383587
_publ_section_title
;
Structure prediction by ZEFSAII (Michael W. Deem and Ramdas Pophale) SiO2 
 PCOD9383587
Probable space group: P M M M
;
_chemical_formula_sum "Si O2"
_cell_formula_units_Z 52
_cell_length_a 15.245627
_cell_length_b 21.695746
_cell_length_c 7.342246
_cell_angle_alpha 90.000000
_cell_angle_beta 90.000000
_cell_angle_gamma 90.000000
_cell_volume 2428.559841
_symmetry_space_group_name_H-M "P M M M"
_symmetry_group_IT_number 47
_symmetry_cell_setting 'orthorhombic'
loop_
_space_group_symop_operation_xyz
x,y,z
-x,-y,z
x,-y,-z
-x,y,-z
-x,-y,-z
x,y,-z
-x,y,z
x,-y,z
loop_
_atom_site_type_symbol
_atom_site_label
_atom_site_fract_x
_atom_site_fract_y
_atom_site_fract_z
Si Si1 0.352505 0.671468 0.222015
Si Si2 0.093878 0.788491 0.221587
Si Si3 0.000000 0.430809 0.777270
Si Si4 0.500000 0.427340 0.778238
Si Si5 0.102958 0.000000 0.286788
Si Si6 0.599616 0.187246 0.222324
Si Si7 0.232642 0.884078 0.217406
Si Si8 0.153737 0.344959 0.778351
O O1 0.417698 0.616114 0.276801
O O2 0.376593 0.741904 0.277533
O O3 0.253973 0.655838 0.281157
O O4 0.354973 0.672789 0.000000
O O5 0.174491 0.827684 0.286296
O O6 0.107290 0.718525 0.274286
O O7 0.000000 0.813352 0.280990
O O8 0.095109 0.790715 0.000000
O O9 0.089021 0.398057 0.717749
O O10 0.000000 0.500000 0.718530
O O11 0.000000 0.428232 0.000000
O O12 0.500000 0.500000 0.719751
O O13 0.500000 0.429586 0.000000
O O14 0.168385 0.057614 0.247915
O O15 0.090016 0.000000 0.500000
O O16 0.000000 0.000000 0.210466
O O17 0.500000 0.174170 0.278767
O O18 0.669301 0.134469 0.281937
O O19 0.601015 0.188283 0.000000
O O20 0.240495 0.882200 0.000000
O O21 0.156462 0.346022 0.000000
#
# Coordination Sequence:
#
# PCOD9383587 Si02
#       8
#     8   8   4   4   4   8   8   8
#     4   9  14  21  33  49  75 111 152 201 251 292
#     4   9  14  21  37  62  86 107 140 197 253 283
#     4   9  16  22  26  36  64 111 159 196 236 295
#     4   9  16  22  28  42  70 115 167 208 240 287
#     4  11  25  43  58  75 106 142 163 183 240 315
#     4   9  15  25  44  71  98 123 155 207 267 300
#     4  10  19  32  54  81 102 126 169 215 249 286
#     4   9  14  20  30  45  69 102 143 193 244 287
#
# _framework density 21.411867999999998
#
# number of rings (size 3 to 8) (size 9 to 14) (size 15 to 20)
#    0.000    2.692    3.077    0.692    0.000    1.846 
#    0.000    3.462    0.000    2.769    0.000    0.000 
#    0.000    0.000    0.000    0.000    0.000    4.615 
#
# Total GULP energy -289702.801986 kJ/mol
# GULP energy per Si atom -5571.207730 kJ/mol
# Density = 2.136313 g / cm^3
# Si number density = 21.411868 Si / 1000 Ang^3
#
#
#
# Elastic Constant Matrix: (Units=GPa)
#
#
# Indices 1 2 3 4 5 6 
#
# 1 235.4796 91.2648 9.7240 0.0000 0.0000 0.0000
# 2 91.2648 133.2553 2.7668 0.0000 0.0000 0.0000
# 3 9.7240 2.7668 81.7209 0.0000 0.0000 0.0000
# 4 0.0000 0.0000 0.0000 -602.7891 0.0000 0.0000
# 5 0.0000 0.0000 0.0000 0.0000 -123.6690 0.0000
# 6 0.0000 0.0000 0.0000 0.0000 0.0000 -59.6187
#
#
#
# Elastic Compliance Matrix: (Units=1/GPa)
#
#
# Indices 1 2 3 4 5 6 
#
# 1 0.005806 -0.003965 -0.000557 0.000000 0.000000 0.000000
# 2 -0.003965 0.010217 0.000126 0.000000 0.000000 0.000000
# 3 -0.000557 0.000126 0.012299 0.000000 0.000000 0.000000
# 4 0.000000 0.000000 0.000000 -0.001659 0.000000 0.000000
# 5 0.000000 0.000000 0.000000 0.000000 -0.008086 0.000000
# 6 0.000000 0.000000 0.000000 0.000000 0.000000 -0.016773
#
#
# Mechanical properties :
#
#
# Convention : Reuss Voigt Hill
#
# Bulk Modulus (GPa) = 51.20134 73.10745 62.15440
# Shear Modulus (GPa) = 292.28610 -134.10202 79.09204
#
# Velocity S-wave (km/s) = 11.69628 -7.92248 6.08429
# Velocity P-wave (km/s) = 14.36553 7.03350 8.85715
#
# Compressibility (1/GPa) = 0.01953074
#
# Stress axis : x y z
#
# Youngs Moduli (GPa) = 172.22297 97.87143 81.30907
#
# Poissons Ratio (x) = 0.38808 0.04526
# Poissons Ratio (y) = 0.68290 -0.01024
# Poissons Ratio (z) = 0.09587 -0.01232
#
# Static dielectric constant tensor:
#      x y z
#    x 1.790620 0.000000 0.000000 
#    y 0.000000 1.764210 0.000000 
#    z 0.000000 0.000000 1.873130 
# 
# From -- ./inp_files/7106.got.cif
#   From: 2010.05.17/outbox.cif.g08.bks.cpg/sg47_4_cif.got.tgz:7106.got - 2010.06.03 20:15:42.
