data_PCOD9383067
_publ_section_title
;
Structure prediction by ZEFSAII (Michael W. Deem and Ramdas Pophale) SiO2 
 PCOD9383067
Probable space group: P M M M
;
_chemical_formula_sum "Si O2"
_cell_formula_units_Z 52
_cell_length_a 7.885880
_cell_length_b 27.199394
_cell_length_c 12.069748
_cell_angle_alpha 90.000000
_cell_angle_beta 90.000000
_cell_angle_gamma 90.000000
_cell_volume 2588.854215
_symmetry_space_group_name_H-M "P M M M"
_symmetry_group_IT_number 47
_symmetry_cell_setting 'orthorhombic'
loop_
_space_group_symop_operation_xyz
x,y,z
-x,-y,z
x,-y,-z
-x,y,-z
-x,-y,-z
x,y,-z
-x,y,z
x,-y,z
loop_
_atom_site_type_symbol
_atom_site_label
_atom_site_fract_x
_atom_site_fract_y
_atom_site_fract_z
Si Si1 0.199933 0.255278 0.375664
Si Si2 0.702695 0.841219 0.239755
Si Si3 0.190500 0.941894 0.000000
Si Si4 0.800547 0.694151 0.000000
Si Si5 0.695972 0.347787 0.233238
Si Si6 0.302915 0.055092 0.753555
Si Si7 0.707094 0.193011 0.000000
Si Si8 0.292632 0.556000 0.872146
O O1 0.271736 0.256769 0.500000
O O2 0.267358 0.208524 0.307879
O O3 0.226854 0.307179 0.313963
O O4 0.000000 0.247675 0.382035
O O5 0.500000 0.847314 0.233210
O O6 0.770375 0.892915 0.290559
O O7 0.764632 0.831851 0.114183
O O8 0.290555 0.934637 0.885895
O O9 0.000000 0.920042 0.000000
O O10 0.166395 0.000000 0.000000
O O11 0.712645 0.674179 0.890120
O O12 0.778046 0.752350 0.000000
O O13 0.000000 0.681510 0.000000
O O14 0.500000 0.352227 0.265135
O O15 0.767954 0.402719 0.214117
O O16 0.500000 0.051815 0.720793
O O17 0.228640 0.000000 0.732660
O O18 0.500000 0.194698 0.000000
O O19 0.500000 0.557723 0.872221
O O20 0.242691 0.500000 0.846760
O O21 0.240485 0.566681 0.000000
#
# Coordination Sequence:
#
# PCOD9383067 Si02
#       8
#     8   8   4   4   8   8   4   8
#     4  11  25  42  57  76 104 138 178 226 279 329
#     4  10  20  34  55  80 107 138 174 216 262 318
#     4   9  16  25  39  64  99 137 173 203 234 289
#     4  12  22  31  48  78 116 151 179 213 267 322
#     4  11  20  34  58  84 111 144 184 225 264 311
#     4   9  17  30  48  71 100 133 167 206 257 313
#     4  10  19  31  48  76 110 141 175 216 261 312
#     4   8  14  26  48  81 118 150 178 212 257 305
#
# _framework density 20.086106999999998
#
# number of rings (size 3 to 8) (size 9 to 14) (size 15 to 20)
#    0.000    2.077    2.308    2.769    0.000    4.000 
#    0.000    0.769    0.000    3.231    0.000    6.462 
#    0.000    0.000    0.000    0.000    0.000    0.000 
#
# Total GULP energy -289713.247146 kJ/mol
# GULP energy per Si atom -5571.408599 kJ/mol
# Density = 2.004039 g / cm^3
# Si number density = 20.086107 Si / 1000 Ang^3
#
#
#
# Elastic Constant Matrix: (Units=GPa)
#
#
# Indices 1 2 3 4 5 6 
#
# 1 31.6298 1.8385 -3.0709 0.0000 0.0000 0.0000
# 2 1.8385 191.5340 50.5177 0.0000 0.0000 0.0000
# 3 -3.0709 50.5177 77.5144 0.0000 0.0000 0.0000
# 4 0.0000 0.0000 0.0000 1.6310 0.0000 0.0000
# 5 0.0000 0.0000 0.0000 0.0000 8.3241 0.0000
# 6 0.0000 0.0000 0.0000 0.0000 0.0000 -9.1635
#
#
#
# Elastic Compliance Matrix: (Units=1/GPa)
#
#
# Indices 1 2 3 4 5 6 
#
# 1 0.031832 -0.000771 0.001763 0.000000 0.000000 0.000000
# 2 -0.000771 0.006323 -0.004152 0.000000 0.000000 0.000000
# 3 0.001763 -0.004152 0.015676 0.000000 0.000000 0.000000
# 4 0.000000 0.000000 0.000000 0.613103 0.000000 0.000000
# 5 0.000000 0.000000 0.000000 0.000000 0.120133 0.000000
# 6 0.000000 0.000000 0.000000 0.000000 0.000000 -0.109129
#
#
# Mechanical properties :
#
#
# Convention : Reuss Voigt Hill
#
# Bulk Modulus (GPa) = 21.04656 44.36097 32.70377
# Shear Modulus (GPa) = 7.14188 16.91786 12.02987
#
# Velocity S-wave (km/s) = 1.88768 2.90533 2.44993
# Velocity P-wave (km/s) = 3.90539 5.77823 4.93153
#
# Compressibility (1/GPa) = 0.04751370
#
# Stress axis : x y z
#
# Youngs Moduli (GPa) = 31.41520 158.14259 63.79018
#
# Poissons Ratio (x) = 0.12187 -0.11248
# Poissons Ratio (y) = 0.02421 0.26483
# Poissons Ratio (z) = -0.05540 0.65655
#
# Static dielectric constant tensor:
#      x y z
#    x 1.730290 0.000000 0.000000 
#    y 0.000000 1.798910 0.000000 
#    z 0.000000 0.000000 1.691150 
# 
# From -- ./inp_files/15532.got.cif
#   From: 2010.05.17/outbox.cif.g08.bks.cpg/sg47_8_cif.got.tgz:15532.got - 2010.06.03 20:15:42.
