data_PCOD9383765
_publ_section_title
;
Structure prediction by ZEFSAII (Michael W. Deem and Ramdas Pophale) SiO2 
 PCOD9383765
Probable space group: P M M M
;
_chemical_formula_sum "Si O2"
_cell_formula_units_Z 48
_cell_length_a 7.587006
_cell_length_b 15.734350
_cell_length_c 18.673114
_cell_angle_alpha 90.000000
_cell_angle_beta 90.000000
_cell_angle_gamma 90.000000
_cell_volume 2229.133007
_symmetry_space_group_name_H-M "P M M M"
_symmetry_group_IT_number 47
_symmetry_cell_setting 'orthorhombic'
loop_
_space_group_symop_operation_xyz
x,y,z
-x,-y,z
x,-y,-z
-x,y,-z
-x,-y,-z
x,y,-z
-x,y,z
x,-y,z
loop_
_atom_site_type_symbol
_atom_site_label
_atom_site_fract_x
_atom_site_fract_y
_atom_site_fract_z
Si Si1 0.297774 0.156495 0.348214
Si Si2 0.710011 0.767011 0.079881
Si Si3 0.212582 0.594913 0.841494
Si Si4 0.711520 0.500000 0.581870
Si Si5 0.207061 0.654995 0.315080
Si Si6 0.715811 0.904106 0.195367
Si Si7 0.707996 0.898612 0.500000
O O1 0.500000 0.124616 0.351508
O O2 0.296925 0.257407 0.336641
O O3 0.221121 0.116121 0.275886
O O4 0.215799 0.134813 0.425027
O O5 0.500000 0.780777 0.076776
O O6 0.737868 0.670659 0.105698
O O7 0.778421 0.832760 0.139583
O O8 0.781606 0.780305 0.000000
O O9 0.275398 0.500000 0.860082
O O10 0.273079 0.620177 0.761395
O O11 0.000000 0.591754 0.839349
O O12 0.500000 0.500000 0.580832
O O13 0.775044 0.500000 0.500000
O O14 0.770626 0.582694 0.625572
O O15 0.000000 0.673734 0.307033
O O16 0.500000 0.899423 0.196985
O O17 0.763341 0.000000 0.174580
O O18 0.500000 0.872606 0.500000
O O19 0.717733 0.000000 0.500000
#
# Coordination Sequence:
#
# PCOD9383765 Si02
#       7
#     8   8   8   4   8   8   4
#     4  10  19  33  55  82 112 146 188 234 281 334
#     4  10  21  36  55  84 118 147 182 233 289 340
#     4  10  21  39  60  81 108 146 190 229 275 339
#     4  11  25  41  59  85 116 149 190 235 281 334
#     4  11  22  38  58  82 113 149 188 231 281 335
#     4   9  17  31  54  82 111 148 192 234 281 337
#     4   9  18  32  53  82 113 142 179 233 284 329
#
# _framework density 21.533037
#
# number of rings (size 3 to 8) (size 9 to 14) (size 15 to 20)
#    0.000    2.000    2.500    1.250    1.167    4.667 
#    0.000    3.333    0.000    4.000    0.000    1.167 
#    0.000    0.000    0.000    0.000    0.000    0.000 
#
# Total GULP energy -268153.808623 kJ/mol
# GULP energy per Si atom -5586.537680 kJ/mol
# Density = 2.148403 g / cm^3
# Si number density = 21.533037 Si / 1000 Ang^3
#
#
#
# Elastic Constant Matrix: (Units=GPa)
#
#
# Indices 1 2 3 4 5 6 
#
# 1 52.4620 -6.3866 7.3124 0.0000 0.0000 0.0000
# 2 -6.3866 126.6370 76.1171 0.0000 0.0000 0.0000
# 3 7.3124 76.1171 183.9709 0.0000 0.0000 0.0000
# 4 0.0000 0.0000 0.0000 62.3244 0.0000 0.0000
# 5 0.0000 0.0000 0.0000 0.0000 5.6588 0.0000
# 6 0.0000 0.0000 0.0000 0.0000 0.0000 57.1542
#
#
#
# Elastic Compliance Matrix: (Units=1/GPa)
#
#
# Indices 1 2 3 4 5 6 
#
# 1 0.019516 0.001931 -0.001574 0.000000 0.000000 0.000000
# 2 0.001931 0.010701 -0.004504 0.000000 0.000000 0.000000
# 3 -0.001574 -0.004504 0.007362 0.000000 0.000000 0.000000
# 4 0.000000 0.000000 0.000000 0.016045 0.000000 0.000000
# 5 0.000000 0.000000 0.000000 0.000000 0.176716 0.000000
# 6 0.000000 0.000000 0.000000 0.000000 0.000000 0.017497
#
#
# Mechanical properties :
#
#
# Convention : Reuss Voigt Hill
#
# Bulk Modulus (GPa) = 34.14993 57.46175 45.80584
# Shear Modulus (GPa) = 18.80446 44.09594 31.45020
#
# Velocity S-wave (km/s) = 2.95834 4.53020 3.82587
# Velocity P-wave (km/s) = 5.25003 7.35574 6.39022
#
# Compressibility (1/GPa) = 0.02928263
#
# Stress axis : x y z
#
# Youngs Moduli (GPa) = 51.24027 93.44584 135.83457
#
# Poissons Ratio (x) = -0.18041 0.21387
# Poissons Ratio (y) = -0.09892 0.61185
# Poissons Ratio (z) = 0.08068 0.42092
#
# Static dielectric constant tensor:
#      x y z
#    x 1.825100 0.000000 0.000000 
#    y 0.000000 1.732670 0.000000 
#    z 0.000000 0.000000 1.778220 
# 
# From -- ./inp_files/9198.got.cif
#   From: 2010.05.17/outbox.cif.g08.bks.cpg/sg47_5_cif.got.tgz:9198.got - 2010.06.03 20:15:42.
