data_PCOD9383539
_publ_section_title
;
Structure prediction by ZEFSAII (Michael W. Deem and Ramdas Pophale) SiO2 
 PCOD9383539
Probable space group: P M M M
;
_chemical_formula_sum "Si O2"
_cell_formula_units_Z 64
_cell_length_a 7.541843
_cell_length_b 14.456097
_cell_length_c 24.629921
_cell_angle_alpha 90.000000
_cell_angle_beta 90.000000
_cell_angle_gamma 90.000000
_cell_volume 2685.292259
_symmetry_space_group_name_H-M "P M M M"
_symmetry_group_IT_number 47
_symmetry_cell_setting 'orthorhombic'
loop_
_space_group_symop_operation_xyz
x,y,z
-x,-y,z
x,-y,-z
-x,y,-z
-x,-y,-z
x,y,-z
-x,y,z
x,-y,z
loop_
_atom_site_type_symbol
_atom_site_label
_atom_site_fract_x
_atom_site_fract_y
_atom_site_fract_z
Si Si1 0.799104 0.896616 0.678812
Si Si2 0.716180 0.891810 0.939825
Si Si3 0.292136 0.398758 0.776011
Si Si4 0.210278 0.299793 0.327065
Si Si5 0.713036 0.394202 0.561021
Si Si6 0.786843 0.396322 0.063304
Si Si7 0.301555 0.246178 0.853406
Si Si8 0.702517 0.888994 0.558247
O O1 0.712809 0.798912 0.694370
O O2 0.806301 0.878993 0.613740
O O3 0.000000 0.900834 0.700074
O O4 0.720070 0.000000 0.687410
O O5 0.500000 0.884143 0.939129
O O6 0.782625 0.839260 0.886100
O O7 0.759998 0.000000 0.937395
O O8 0.773966 0.856755 0.000000
O O9 0.500000 0.400522 0.791141
O O10 0.215973 0.500000 0.789109
O O11 0.279681 0.379744 0.712107
O O12 0.214328 0.308633 0.806430
O O13 0.241246 0.326474 0.389698
O O14 0.000000 0.294253 0.319852
O O15 0.774476 0.368899 0.500000
O O16 0.500000 0.396501 0.559089
O O17 0.774020 0.500000 0.572141
O O18 0.738991 0.500000 0.080520
O O19 0.690855 0.320890 0.098326
O O20 0.000000 0.386154 0.069492
O O21 0.746022 0.387188 0.000000
O O22 0.500000 0.217899 0.835415
O O23 0.772029 0.855054 0.500000
O O24 0.500000 0.853802 0.564788
O O25 0.690056 0.000000 0.553710
#
# Coordination Sequence:
#
# PCOD9383539 Si02
#       8
#     8   8   8   8   8   8   8   8
#     4   9  19  35  51  68  95 130 165 203 248 297
#     4   8  14  26  47  78 115 150 182 221 271 319
#     4  10  22  39  56  76 106 140 172 216 277 335
#     4  11  23  37  56  81 105 135 179 224 266 320
#     4   9  19  37  60  84 110 140 171 208 266 337
#     4   9  18  31  46  69 105 144 175 208 259 317
#     4  10  19  32  53  79 104 135 181 229 265 305
#     4   8  14  25  42  66  95 125 158 195 233 278
#
# _framework density 23.833532999999999
#
# number of rings (size 3 to 8) (size 9 to 14) (size 15 to 20)
#    0.000    2.750    0.000    3.000    0.000    6.000 
#    0.000    5.625    0.000    1.125    0.000    1.750 
#    0.000    0.000    0.000    0.000    0.000    0.000 
#
# Total GULP energy -356806.759339 kJ/mol
# GULP energy per Si atom -5575.105615 kJ/mol
# Density = 2.377929 g / cm^3
# Si number density = 23.833533 Si / 1000 Ang^3
#
#
#
# Elastic Constant Matrix: (Units=GPa)
#
#
# Indices 1 2 3 4 5 6 
#
# 1 61.8018 1.3985 -2.3197 0.0000 0.0000 0.0000
# 2 1.3985 131.3169 43.8850 0.0000 0.0000 0.0000
# 3 -2.3197 43.8850 82.0264 0.0000 0.0000 0.0000
# 4 0.0000 0.0000 0.0000 35.9746 0.0000 0.0000
# 5 0.0000 0.0000 0.0000 0.0000 -81.2078 0.0000
# 6 0.0000 0.0000 0.0000 0.0000 0.0000 -3.2769
#
#
#
# Elastic Compliance Matrix: (Units=1/GPa)
#
#
# Indices 1 2 3 4 5 6 
#
# 1 0.016215 -0.000397 0.000671 0.000000 0.000000 0.000000
# 2 -0.000397 0.009283 -0.004978 0.000000 0.000000 0.000000
# 3 0.000671 -0.004978 0.014873 0.000000 0.000000 0.000000
# 4 0.000000 0.000000 0.000000 0.027797 0.000000 0.000000
# 5 0.000000 0.000000 0.000000 0.000000 -0.012314 0.000000
# 6 0.000000 0.000000 0.000000 0.000000 0.000000 -0.305167
#
#
# Mechanical properties :
#
#
# Convention : Reuss Voigt Hill
#
# Bulk Modulus (GPa) = 32.29583 40.11918 36.20751
# Shear Modulus (GPa) = -21.77848 5.77673 -8.00088
#
# Velocity S-wave (km/s) = -3.02615 1.55854 -1.83419
# Velocity P-wave (km/s) = 1.17042 4.48423 3.27706
#
# Compressibility (1/GPa) = 0.03096375
#
# Stress axis : x y z
#
# Youngs Moduli (GPa) = 61.67158 107.72518 67.23474
#
# Poissons Ratio (x) = 0.04275 -0.04511
# Poissons Ratio (y) = 0.02448 0.33467
# Poissons Ratio (z) = -0.04137 0.53622
#
# Static dielectric constant tensor:
#      x y z
#    x 1.906700 0.000000 0.000000 
#    y 0.000000 1.970930 0.000000 
#    z 0.000000 0.000000 1.932170 
# 
# From -- ./inp_files/21900.got.cif
#   From: 2010.05.17/outbox.cif.g08.bks.cpg/sg47_11_cif.got.tgz:21900.got - 2010.06.03 20:15:42.
