data_PCOD9383806
_publ_section_title
;
Structure prediction by ZEFSAII (Michael W. Deem and Ramdas Pophale) SiO2 
 PCOD9383806
Probable space group: P M M M
;
_chemical_formula_sum "Si O2"
_cell_formula_units_Z 52
_cell_length_a 13.307141
_cell_length_b 12.391447
_cell_length_c 18.663618
_cell_angle_alpha 90.000000
_cell_angle_beta 90.000000
_cell_angle_gamma 90.000000
_cell_volume 3077.532296
_symmetry_space_group_name_H-M "P M M M"
_symmetry_group_IT_number 47
_symmetry_cell_setting 'orthorhombic'
loop_
_space_group_symop_operation_xyz
x,y,z
-x,-y,z
x,-y,-z
-x,y,-z
-x,-y,-z
x,y,-z
-x,y,z
x,-y,z
loop_
_atom_site_type_symbol
_atom_site_label
_atom_site_fract_x
_atom_site_fract_y
_atom_site_fract_z
Si Si1 0.000000 0.630703 0.918348
Si Si2 0.798610 0.630559 0.168918
Si Si3 0.621690 0.000000 0.082240
Si Si4 0.122326 0.500000 0.419816
Si Si5 0.192082 0.128559 0.417142
Si Si6 0.884053 0.305947 0.680249
Si Si7 0.613102 0.128197 0.672641
Si Si8 0.618846 0.217060 0.832483
O O1 0.103918 0.660843 0.878917
O O2 0.000000 0.500000 0.918845
O O3 0.000000 0.669465 0.000000
O O4 0.791092 0.500000 0.170898
O O5 0.823444 0.677015 0.247495
O O6 0.694535 0.687167 0.146603
O O7 0.649473 0.891250 0.124503
O O8 0.500000 0.000000 0.081170
O O9 0.657199 0.000000 0.000000
O O10 0.160942 0.500000 0.500000
O O11 0.152601 0.394573 0.376553
O O12 0.000000 0.500000 0.422774
O O13 0.177774 0.162159 0.500000
O O14 0.124568 0.192893 0.360638
O O15 0.304266 0.151278 0.387507
O O16 0.175285 0.000000 0.413830
O O17 0.000000 0.329475 0.697678
O O18 0.500000 0.150068 0.647149
O O19 0.628015 0.189720 0.747677
O O20 0.619968 0.000000 0.689087
O O21 0.500000 0.238943 0.846264
#
# Coordination Sequence:
#
# PCOD9383806 Si02
#       8
#     4   8   4   4   8   8   8   8
#     4   9  20  38  60  83 107 140 183 224 267 320
#     4  11  21  35  58  83 111 147 184 230 277 328
#     4   9  18  34  58  87 114 142 179 221 267 321
#     4   9  18  30  48  72  97 127 169 226 279 314
#     4  10  21  34  49  73 105 140 180 226 283 343
#     4  11  20  33  53  75 101 135 182 229 274 327
#     4   9  16  29  50  73  99 133 176 222 265 311
#     4  10  19  33  56  85 115 147 181 222 273 327
#
# _framework density 16.896654999999999
#
# number of rings (size 3 to 8) (size 9 to 14) (size 15 to 20)
#    0.000    2.077    3.846    0.462    0.000    2.462 
#    0.000    2.308    0.000    0.462    0.000    5.385 
#    0.000    4.923    0.000    0.000    0.000    0.000 
#
# Total GULP energy -289705.678640 kJ/mol
# GULP energy per Si atom -5571.263051 kJ/mol
# Density = 1.685820 g / cm^3
# Si number density = 16.896655 Si / 1000 Ang^3
#
#
#
# Elastic Constant Matrix: (Units=GPa)
#
#
# Indices 1 2 3 4 5 6 
#
# 1 79.9520 37.6181 28.2713 0.0000 0.0000 0.0000
# 2 37.6181 57.6320 33.9905 0.0000 0.0000 0.0000
# 3 28.2713 33.9905 92.5679 0.0000 0.0000 0.0000
# 4 0.0000 0.0000 0.0000 11.1019 0.0000 0.0000
# 5 0.0000 0.0000 0.0000 0.0000 11.9633 0.0000
# 6 0.0000 0.0000 0.0000 0.0000 0.0000 27.6907
#
#
#
# Elastic Compliance Matrix: (Units=1/GPa)
#
#
# Indices 1 2 3 4 5 6 
#
# 1 0.018219 -0.010991 -0.001529 0.000000 0.000000 0.000000
# 2 -0.010991 0.028778 -0.007211 0.000000 0.000000 0.000000
# 3 -0.001529 -0.007211 0.013917 0.000000 0.000000 0.000000
# 4 0.000000 0.000000 0.000000 0.090074 0.000000 0.000000
# 5 0.000000 0.000000 0.000000 0.000000 0.083589 0.000000
# 6 0.000000 0.000000 0.000000 0.000000 0.000000 0.036113
#
#
# Mechanical properties :
#
#
# Convention : Reuss Voigt Hill
#
# Bulk Modulus (GPa) = 46.60899 47.76797 47.18848
# Shear Modulus (GPa) = 15.75782 18.83598 17.29690
#
# Velocity S-wave (km/s) = 3.05716 3.34245 3.20298
# Velocity P-wave (km/s) = 6.33295 6.57480 6.45501
#
# Compressibility (1/GPa) = 0.02145509
#
# Stress axis : x y z
#
# Youngs Moduli (GPa) = 54.88696 34.74865 71.85249
#
# Poissons Ratio (x) = 0.38191 0.10984
# Poissons Ratio (y) = 0.60325 0.51809
# Poissons Ratio (z) = 0.08390 0.25056
#
# Static dielectric constant tensor:
#      x y z
#    x 1.584870 0.000000 0.000000 
#    y 0.000000 1.574380 0.000000 
#    z 0.000000 0.000000 1.566470 
# 
# From -- ./inp_files/28218.got.cif
#   From: 2010.05.17/outbox.cif.g08.bks.cpg/sg47_15_cif.got.tgz:28218.got - 2010.06.03 20:15:42.
