data_PCOD9383026
_publ_section_title
;
Structure prediction by ZEFSAII (Michael W. Deem and Ramdas Pophale) SiO2 
 PCOD9383026
Probable space group: P M M M
;
_chemical_formula_sum "Si O2"
_cell_formula_units_Z 48
_cell_length_a 13.900970
_cell_length_b 8.659066
_cell_length_c 24.927422
_cell_angle_alpha 90.000000
_cell_angle_beta 90.000000
_cell_angle_gamma 90.000000
_cell_volume 3000.499246
_symmetry_space_group_name_H-M "P M M M"
_symmetry_group_IT_number 47
_symmetry_cell_setting 'orthorhombic'
loop_
_space_group_symop_operation_xyz
x,y,z
-x,-y,z
x,-y,-z
-x,y,-z
-x,-y,-z
x,y,-z
-x,y,z
x,-y,z
loop_
_atom_site_type_symbol
_atom_site_label
_atom_site_fract_x
_atom_site_fract_y
_atom_site_fract_z
Si Si1 0.888448 0.814268 0.170373
Si Si2 0.885090 0.315287 0.941691
Si Si3 0.609712 0.684530 0.666388
Si Si4 0.797173 0.814691 0.282230
Si Si5 0.110042 0.685036 0.611495
Si Si6 0.701390 0.815347 0.560870
O O1 0.848032 0.755831 0.113562
O O2 0.830724 0.765495 0.223167
O O3 0.000000 0.762264 0.175602
O O4 0.888988 0.000000 0.169113
O O5 0.874022 0.500000 0.939562
O O6 0.000000 0.282680 0.942025
O O7 0.847325 0.261305 0.000000
O O8 0.500000 0.727051 0.678783
O O9 0.620201 0.500000 0.670497
O O10 0.688872 0.764634 0.703848
O O11 0.636342 0.735427 0.605919
O O12 0.863106 0.738856 0.328320
O O13 0.805984 0.000000 0.286497
O O14 0.120296 0.500000 0.608026
O O15 0.189439 0.763730 0.573818
O O16 0.000000 0.726323 0.598882
O O17 0.675812 0.773828 0.500000
O O18 0.694304 0.000000 0.567004
#
# Coordination Sequence:
#
# PCOD9383026 Si02
#       6
#     8   8   8   8   8   8
#     4   9  17  27  40  62  91 122 154 185 218 255
#     4   8  14  24  37  55  82 118 158 193 221 250
#     4  10  21  36  53  71  90 113 141 177 224 273
#     4  10  19  31  48  68  91 118 149 186 224 265
#     4  10  20  32  47  67  91 121 153 183 218 259
#     4  10  21  35  51  71  92 115 145 180 217 261
#
# _framework density 15.997339
#
# number of rings (size 3 to 8) (size 9 to 14) (size 15 to 20)
#    0.000    2.500    0.000    5.000    0.000    7.000 
#    0.000    6.667    0.000    0.000    0.000    0.000 
#    0.000    0.667    0.000    7.333    0.000    5.667 
#
# Total GULP energy -267582.822654 kJ/mol
# GULP energy per Si atom -5574.642139 kJ/mol
# Density = 1.596093 g / cm^3
# Si number density = 15.997339 Si / 1000 Ang^3
#
#
#
# Elastic Constant Matrix: (Units=GPa)
#
#
# Indices 1 2 3 4 5 6 
#
# 1 42.4879 0.0717 7.9686 0.0000 0.0000 0.0000
# 2 0.0717 15.2034 7.6000 0.0000 0.0000 0.0000
# 3 7.9686 7.6000 105.0235 0.0000 0.0000 0.0000
# 4 0.0000 0.0000 0.0000 40.3035 0.0000 0.0000
# 5 0.0000 0.0000 0.0000 0.0000 7.9451 0.0000
# 6 0.0000 0.0000 0.0000 0.0000 0.0000 13.9177
#
#
#
# Elastic Compliance Matrix: (Units=1/GPa)
#
#
# Indices 1 2 3 4 5 6 
#
# 1 0.023886 0.000823 -0.001872 0.000000 0.000000 0.000000
# 2 0.000823 0.068272 -0.005003 0.000000 0.000000 0.000000
# 3 -0.001872 -0.005003 0.010026 0.000000 0.000000 0.000000
# 4 0.000000 0.000000 0.000000 0.024812 0.000000 0.000000
# 5 0.000000 0.000000 0.000000 0.000000 0.125864 0.000000
# 6 0.000000 0.000000 0.000000 0.000000 0.000000 0.071851
#
#
# Mechanical properties :
#
#
# Convention : Reuss Voigt Hill
#
# Bulk Modulus (GPa) = 11.10124 21.55502 16.32813
# Shear Modulus (GPa) = 13.62990 22.23822 17.93406
#
# Velocity S-wave (km/s) = 2.92209 3.73248 3.35186
# Velocity P-wave (km/s) = 4.28244 5.66379 5.02085
#
# Compressibility (1/GPa) = 0.09008005
#
# Stress axis : x y z
#
# Youngs Moduli (GPa) = 41.86588 14.64733 99.74326
#
# Poissons Ratio (x) = -0.01206 0.18671
# Poissons Ratio (y) = -0.03446 0.49901
# Poissons Ratio (z) = 0.07837 0.07328
#
# Static dielectric constant tensor:
#      x y z
#    x 1.521490 0.000000 0.000000 
#    y 0.000000 1.539870 0.000000 
#    z 0.000000 0.000000 1.555960 
# 
# From -- ./inp_files/21705.got.cif
#   From: 2010.05.17/outbox.cif.g08.bks.cpg/sg47_11_cif.got.tgz:21705.got - 2010.06.03 20:15:42.
