data_PCOD9383751
_publ_section_title
;
Structure prediction by ZEFSAII (Michael W. Deem and Ramdas Pophale) SiO2 
 PCOD9383751
Probable space group: P M M M
;
_chemical_formula_sum "Si O2"
_cell_formula_units_Z 48
_cell_length_a 17.984765
_cell_length_b 15.786115
_cell_length_c 8.896330
_cell_angle_alpha 90.000000
_cell_angle_beta 90.000000
_cell_angle_gamma 90.000000
_cell_volume 2525.753212
_symmetry_space_group_name_H-M "P M M M"
_symmetry_group_IT_number 47
_symmetry_cell_setting 'orthorhombic'
loop_
_space_group_symop_operation_xyz
x,y,z
-x,-y,z
x,-y,-z
-x,y,-z
-x,-y,-z
x,y,-z
-x,y,z
x,-y,z
loop_
_atom_site_type_symbol
_atom_site_label
_atom_site_fract_x
_atom_site_fract_y
_atom_site_fract_z
Si Si1 0.877312 0.500000 0.325757
Si Si2 0.416124 0.180529 0.816408
Si Si3 0.181978 0.000000 0.180489
Si Si4 0.127469 0.322525 0.820084
Si Si5 0.303694 0.500000 0.672889
Si Si6 0.915650 0.853069 0.678072
Si Si7 0.303215 0.325130 0.180129
Si Si8 0.644981 0.000000 0.183020
O O1 0.899945 0.500000 0.500000
O O2 0.899782 0.412563 0.245237
O O3 0.786785 0.500000 0.319769
O O4 0.500000 0.202300 0.770417
O O5 0.354512 0.248094 0.766689
O O6 0.394475 0.086078 0.766825
O O7 0.414654 0.180374 0.000000
O O8 0.141025 0.917046 0.243286
O O9 0.268434 0.000000 0.225139
O O10 0.178032 0.000000 0.000000
O O11 0.090443 0.240774 0.746476
O O12 0.215882 0.313834 0.784418
O O13 0.118449 0.321975 0.000000
O O14 0.325579 0.500000 0.500000
O O15 0.328695 0.585714 0.752529
O O16 0.901095 0.849932 0.500000
O O17 0.000000 0.884362 0.700606
O O18 0.308085 0.329640 0.000000
O O19 0.642342 0.000000 0.000000
#
# Coordination Sequence:
#
# PCOD9383751 Si02
#       8
#     4   8   4   8   4   8   8   4
#     4   9  17  31  52  79 110 141 177 221 266 313
#     4   9  16  27  46  73 105 139 171 205 251 306
#     4  11  22  37  59  83 106 135 174 220 266 313
#     4  10  19  33  55  81 108 139 178 223 267 312
#     4   9  17  29  48  73  98 132 177 218 260 309
#     4  11  24  40  56  77 108 142 174 213 263 317
#     4   9  17  30  49  75 105 135 171 217 262 301
#     4   9  17  30  49  77 108 133 164 210 258 301
#
# _framework density 19.004232999999999
#
# number of rings (size 3 to 8) (size 9 to 14) (size 15 to 20)
#    0.000    2.333    0.000    3.250    0.000    8.667 
#    0.000    0.833    0.000    5.500    0.000    0.000 
#    0.000    5.333    0.000    0.000    0.000    0.000 
#
# Total GULP energy -267961.821634 kJ/mol
# GULP energy per Si atom -5582.537951 kJ/mol
# Density = 1.896098 g / cm^3
# Si number density = 19.004233 Si / 1000 Ang^3
#
#
#
# Elastic Constant Matrix: (Units=GPa)
#
#
# Indices 1 2 3 4 5 6 
#
# 1 54.6034 19.1249 21.9869 0.0000 0.0000 0.0000
# 2 19.1249 99.2661 12.2304 0.0000 0.0000 0.0000
# 3 21.9869 12.2304 25.9999 0.0000 0.0000 0.0000
# 4 0.0000 0.0000 0.0000 11.9102 0.0000 0.0000
# 5 0.0000 0.0000 0.0000 0.0000 7.7511 0.0000
# 6 0.0000 0.0000 0.0000 0.0000 0.0000 -1.8817
#
#
#
# Elastic Compliance Matrix: (Units=1/GPa)
#
#
# Indices 1 2 3 4 5 6 
#
# 1 0.028421 -0.002669 -0.022779 0.000000 0.000000 0.000000
# 2 -0.002669 0.010944 -0.002891 0.000000 0.000000 0.000000
# 3 -0.022779 -0.002891 0.059084 0.000000 0.000000 0.000000
# 4 0.000000 0.000000 0.000000 0.083962 0.000000 0.000000
# 5 0.000000 0.000000 0.000000 0.000000 0.129014 0.000000
# 6 0.000000 0.000000 0.000000 0.000000 0.000000 -0.531426
#
#
# Mechanical properties :
#
#
# Convention : Reuss Voigt Hill
#
# Bulk Modulus (GPa) = 23.93950 31.83931 27.88941
# Shear Modulus (GPa) = -33.46725 11.99106 -10.73809
#
# Velocity S-wave (km/s) = -4.20103 2.51463 -2.37963
# Velocity P-wave (km/s) = 3.30261 5.02209 2.67527
#
# Compressibility (1/GPa) = 0.04177196
#
# Stress axis : x y z
#
# Youngs Moduli (GPa) = 35.18544 91.37103 16.92498
#
# Poissons Ratio (x) = 0.24388 0.38553
# Poissons Ratio (y) = 0.09391 0.04893
# Poissons Ratio (z) = 0.80147 0.26416
#
# Static dielectric constant tensor:
#      x y z
#    x 1.658980 0.000000 0.000000 
#    y 0.000000 1.640770 0.000000 
#    z 0.000000 0.000000 1.630020 
# 
# From -- ./inp_files/9285.got.cif
#   From: 2010.05.17/outbox.cif.g08.bks.cpg/sg47_5_cif.got.tgz:9285.got - 2010.06.03 20:15:42.
