data_PCOD9383914
_publ_section_title
;
Structure prediction by ZEFSAII (Michael W. Deem and Ramdas Pophale) SiO2 
 PCOD9383914
Probable space group: P M M M
;
_chemical_formula_sum "Si O2"
_cell_formula_units_Z 52
_cell_length_a 13.993050
_cell_length_b 13.933079
_cell_length_c 13.030857
_cell_angle_alpha 90.000000
_cell_angle_beta 90.000000
_cell_angle_gamma 90.000000
_cell_volume 2540.577599
_symmetry_space_group_name_H-M "P M M M"
_symmetry_group_IT_number 47
_symmetry_cell_setting 'orthorhombic'
loop_
_space_group_symop_operation_xyz
x,y,z
-x,-y,z
x,-y,-z
-x,y,-z
-x,-y,-z
x,y,-z
-x,y,z
x,-y,z
loop_
_atom_site_type_symbol
_atom_site_label
_atom_site_fract_x
_atom_site_fract_y
_atom_site_fract_z
Si Si1 0.112485 0.606438 0.124355
Si Si2 0.000000 0.386676 0.381438
Si Si3 0.607530 0.113968 0.191726
Si Si4 0.194727 0.812430 0.882592
Si Si5 0.393617 0.748985 0.378193
Si Si6 0.886973 0.891153 0.321073
Si Si7 0.804589 0.694706 0.382997
O O1 0.143288 0.500000 0.161454
O O2 0.173686 0.701719 0.146100
O O3 0.000000 0.619502 0.149873
O O4 0.115038 0.601570 0.000000
O O5 0.100951 0.353043 0.335951
O O6 0.000000 0.500000 0.383813
O O7 0.000000 0.349073 0.500000
O O8 0.500000 0.133653 0.152128
O O9 0.693943 0.162154 0.130496
O O10 0.611405 0.157261 0.306630
O O11 0.621765 0.000000 0.192516
O O12 0.137771 0.874968 0.798904
O O13 0.164632 0.828997 0.000000
O O14 0.382898 0.769361 0.500000
O O15 0.500000 0.707267 0.363565
O O16 0.303538 0.684299 0.344619
O O17 0.828234 0.808298 0.377887
O O18 0.000000 0.875804 0.338353
O O19 0.863153 0.000000 0.350828
O O20 0.801568 0.659316 0.500000
#
# Coordination Sequence:
#
# PCOD9383914 Si02
#       7
#     8   4   8   8   8   8   8
#     4   8  15  31  56  82 104 129 168 222 280 332
#     4   9  18  34  57  85 116 151 189 229 275 331
#     4  10  21  36  54  78 109 144 184 231 278 328
#     4  11  22  36  55  76 105 146 188 231 279 326
#     4   9  18  33  56  83 109 142 182 227 282 336
#     4  11  23  36  51  75 111 148 184 226 269 326
#     4  10  19  34  57  82 112 146 182 226 276 334
#
# _framework density 20.467787000000001
#
# number of rings (size 3 to 8) (size 9 to 14) (size 15 to 20)
#    0.000    2.231    2.308    1.385    0.000    3.077 
#    0.000    6.154    0.000    0.923    0.000    7.538 
#    0.000    0.000    0.000    0.000    0.000    0.308 
#
# Total GULP energy -290031.579665 kJ/mol
# GULP energy per Si atom -5577.530378 kJ/mol
# Density = 2.042120 g / cm^3
# Si number density = 20.467787 Si / 1000 Ang^3
#
#
#
# Elastic Constant Matrix: (Units=GPa)
#
#
# Indices 1 2 3 4 5 6 
#
# 1 149.9200 54.2599 0.4448 0.0000 0.0000 0.0000
# 2 54.2599 61.0282 -10.7141 0.0000 0.0000 0.0000
# 3 0.4448 -10.7141 52.2130 0.0000 0.0000 0.0000
# 4 0.0000 0.0000 0.0000 21.9177 0.0000 0.0000
# 5 0.0000 0.0000 0.0000 0.0000 28.6306 0.0000
# 6 0.0000 0.0000 0.0000 0.0000 0.0000 20.0338
#
#
#
# Elastic Compliance Matrix: (Units=1/GPa)
#
#
# Indices 1 2 3 4 5 6 
#
# 1 0.010030 -0.009266 -0.001987 0.000000 0.000000 0.000000
# 2 -0.009266 0.025559 0.005324 0.000000 0.000000 0.000000
# 3 -0.001987 0.005324 0.020262 0.000000 0.000000 0.000000
# 4 0.000000 0.000000 0.000000 0.045625 0.000000 0.000000
# 5 0.000000 0.000000 0.000000 0.000000 0.034928 0.000000
# 6 0.000000 0.000000 0.000000 0.000000 0.000000 0.049916
#
#
# Mechanical properties :
#
#
# Convention : Reuss Voigt Hill
#
# Bulk Modulus (GPa) = 22.73163 39.01583 30.87373
# Shear Modulus (GPa) = 23.49159 28.72778 26.10968
#
# Velocity S-wave (km/s) = 3.39150 3.75048 3.57550
# Velocity P-wave (km/s) = 5.14456 6.15290 5.67119
#
# Compressibility (1/GPa) = 0.04399157
#
# Stress axis : x y z
#
# Youngs Moduli (GPa) = 99.70250 39.12493 49.35433
#
# Poissons Ratio (x) = 0.36254 0.09806
# Poissons Ratio (y) = 0.92387 -0.26275
# Poissons Ratio (z) = 0.19810 -0.20829
#
# Static dielectric constant tensor:
#      x y z
#    x 1.759880 0.000000 0.000000 
#    y 0.000000 1.709950 0.000000 
#    z 0.000000 0.000000 1.815440 
# 
# From -- ./inp_files/23646.got.cif
#   From: 2010.05.17/outbox.cif.g08.bks.cpg/sg47_12_cif.got.tgz:23646.got - 2010.06.03 20:15:42.
