data_PCOD9383866
_publ_section_title
;
Structure prediction by ZEFSAII (Michael W. Deem and Ramdas Pophale) SiO2 
 PCOD9383866
Probable space group: P M M M
;
_chemical_formula_sum "Si O2"
_cell_formula_units_Z 40
_cell_length_a 12.051370
_cell_length_b 20.794629
_cell_length_c 7.883119
_cell_angle_alpha 90.000000
_cell_angle_beta 90.000000
_cell_angle_gamma 90.000000
_cell_volume 1975.539326
_symmetry_space_group_name_H-M "P M M M"
_symmetry_group_IT_number 47
_symmetry_cell_setting 'orthorhombic'
loop_
_space_group_symop_operation_xyz
x,y,z
-x,-y,z
x,-y,-z
-x,y,-z
-x,-y,-z
x,y,-z
-x,y,z
x,-y,z
loop_
_atom_site_type_symbol
_atom_site_label
_atom_site_fract_x
_atom_site_fract_y
_atom_site_fract_z
Si Si1 0.000000 0.199058 0.806851
Si Si2 0.373020 0.500000 0.792363
Si Si3 0.763953 0.375904 0.202099
Si Si4 0.869473 0.000000 0.291206
Si Si5 0.627261 0.751564 0.294252
Si Si6 0.776419 0.134415 0.301904
Si Si7 0.000000 0.338733 0.691055
O O1 0.109269 0.173728 0.715207
O O2 0.000000 0.275843 0.807358
O O3 0.000000 0.175020 0.000000
O O4 0.500000 0.500000 0.735379
O O5 0.309596 0.435758 0.737350
O O6 0.374011 0.500000 0.000000
O O7 0.702304 0.308937 0.242009
O O8 0.886809 0.376553 0.278498
O O9 0.775274 0.380771 0.000000
O O10 0.805775 0.935965 0.232025
O O11 0.870889 0.000000 0.500000
O O12 0.000000 0.000000 0.241016
O O13 0.628263 0.753315 0.500000
O O14 0.500000 0.743904 0.237998
O O15 0.682222 0.818208 0.230578
O O16 0.749737 0.124871 0.500000
O O17 0.000000 0.313420 0.500000
#
# Coordination Sequence:
#
# PCOD9383866 Si02
#       7
#     4   4   8   4   8   8   4
#     4  12  22  33  54  85 115 143 185 233 282 344
#     4   9  20  39  61  86 118 155 192 233 280 327
#     4  11  22  38  62  89 115 148 193 238 280 335
#     4   9  16  28  51  81 107 146 195 230 276 342
#     4  10  21  36  55  81 113 151 194 238 284 334
#     4  10  19  34  55  78 112 152 189 233 283 337
#     4  12  24  39  58  85 121 153 181 229 294 348
#
# _framework density 20.247634999999999
#
# number of rings (size 3 to 8) (size 9 to 14) (size 15 to 20)
#    0.000    1.600    3.000    3.000    0.000    1.600 
#    0.000    5.500    0.000    6.600    0.000    0.000 
#    0.000    3.200    0.000    0.000    0.000    0.000 
#
# Total GULP energy -223404.730797 kJ/mol
# GULP energy per Si atom -5585.118270 kJ/mol
# Density = 2.020155 g / cm^3
# Si number density = 20.247635 Si / 1000 Ang^3
#
#
#
# Elastic Constant Matrix: (Units=GPa)
#
#
# Indices 1 2 3 4 5 6 
#
# 1 166.7045 78.6222 4.3091 0.0000 0.0000 0.0000
# 2 78.6222 151.4064 4.4368 0.0000 0.0000 0.0000
# 3 4.3091 4.4368 36.4530 0.0000 0.0000 0.0000
# 4 0.0000 0.0000 0.0000 20.6832 0.0000 0.0000
# 5 0.0000 0.0000 0.0000 0.0000 13.2013 0.0000
# 6 0.0000 0.0000 0.0000 0.0000 0.0000 11.9505
#
#
#
# Elastic Compliance Matrix: (Units=1/GPa)
#
#
# Indices 1 2 3 4 5 6 
#
# 1 0.007951 -0.004116 -0.000439 0.000000 0.000000 0.000000
# 2 -0.004116 0.008759 -0.000580 0.000000 0.000000 0.000000
# 3 -0.000439 -0.000580 0.027555 0.000000 0.000000 0.000000
# 4 0.000000 0.000000 0.000000 0.048348 0.000000 0.000000
# 5 0.000000 0.000000 0.000000 0.000000 0.075750 0.000000
# 6 0.000000 0.000000 0.000000 0.000000 0.000000 0.083678
#
#
# Mechanical properties :
#
#
# Convention : Reuss Voigt Hill
#
# Bulk Modulus (GPa) = 29.41494 58.81110 44.11302
# Shear Modulus (GPa) = 18.27196 26.98006 22.62601
#
# Velocity S-wave (km/s) = 3.00730 3.65431 3.34648
# Velocity P-wave (km/s) = 5.15922 6.84940 6.06349
#
# Compressibility (1/GPa) = 0.03399633
#
# Stress axis : x y z
#
# Youngs Moduli (GPa) = 125.76695 114.16700 36.29101
#
# Poissons Ratio (x) = 0.46992 0.01593
# Poissons Ratio (y) = 0.51766 0.02103
# Poissons Ratio (z) = 0.05520 0.06616
#
# Static dielectric constant tensor:
#      x y z
#    x 1.690030 0.000000 0.000000 
#    y 0.000000 1.711000 0.000000 
#    z 0.000000 0.000000 1.741830 
# 
# From -- ./inp_files/4152.got.cif
#   From: 2010.05.17/outbox.cif.g08.bks.cpg/sg47_3_cif.got.tgz:4152.got - 2010.06.03 20:15:42.
