data_PCOD9383503
_publ_section_title
;
Structure prediction by ZEFSAII (Michael W. Deem and Ramdas Pophale) SiO2 
 PCOD9383503
Probable space group: P M M M
;
_chemical_formula_sum "Si O2"
_cell_formula_units_Z 56
_cell_length_a 8.840837
_cell_length_b 23.605227
_cell_length_c 15.110691
_cell_angle_alpha 90.000000
_cell_angle_beta 90.000000
_cell_angle_gamma 90.000000
_cell_volume 3153.449565
_symmetry_space_group_name_H-M "P M M M"
_symmetry_group_IT_number 47
_symmetry_cell_setting 'orthorhombic'
loop_
_space_group_symop_operation_xyz
x,y,z
-x,-y,z
x,-y,-z
-x,y,-z
-x,-y,-z
x,y,-z
-x,y,z
x,-y,z
loop_
_atom_site_type_symbol
_atom_site_label
_atom_site_fract_x
_atom_site_fract_y
_atom_site_fract_z
Si Si1 0.318226 0.933527 0.000000
Si Si2 0.323282 0.131612 0.340825
Si Si3 0.171644 0.242537 0.399226
Si Si4 0.172598 0.932797 0.500000
Si Si5 0.181270 0.854720 0.151132
Si Si6 0.681999 0.433727 0.599554
Si Si7 0.184347 0.725375 0.898380
Si Si8 0.177080 0.653109 0.265560
O O1 0.254283 0.898991 0.916459
O O2 0.500000 0.931201 0.000000
O O3 0.273494 0.000000 0.000000
O O4 0.500000 0.122248 0.326227
O O5 0.290916 0.193875 0.380046
O O6 0.257302 0.089261 0.413342
O O7 0.233822 0.129621 0.249105
O O8 0.185428 0.262513 0.500000
O O9 0.187253 0.293151 0.330976
O O10 0.000000 0.219076 0.388005
O O11 0.000000 0.910784 0.500000
O O12 0.169116 0.000000 0.500000
O O13 0.228557 0.789462 0.129968
O O14 0.000000 0.856775 0.142993
O O15 0.733124 0.415121 0.500000
O O16 0.500000 0.429944 0.599908
O O17 0.722893 0.500000 0.608602
O O18 0.743859 0.397181 0.680869
O O19 0.236071 0.677667 0.828270
O O20 0.000000 0.724767 0.895170
O O21 0.230328 0.715479 0.000000
O O22 0.000000 0.638530 0.254479
#
# Coordination Sequence:
#
# PCOD9383503 Si02
#       8
#     4   8   8   4   8   8   8   8
#     4  11  25  43  61  87 121 147 178 239 304 349
#     4  12  24  37  57  86 117 147 181 231 291 342
#     4  10  19  32  52  78 112 149 184 225 275 336
#     4  11  25  45  65  81 103 145 198 241 280 343
#     4  11  21  39  65  86 110 150 195 232 279 349
#     4   9  19  36  55  77 112 157 197 235 282 336
#     4   9  17  32  56  85 112 143 182 230 282 332
#     4  10  19  32  54  85 115 145 186 235 283 329
#
# _framework density 17.758330000000001
#
# number of rings (size 3 to 8) (size 9 to 14) (size 15 to 20)
#    0.000    1.714    2.857    3.000    0.000    3.429 
#    0.000    0.714    0.000    0.429    0.000    3.000 
#    0.000    0.000    0.000    0.000    0.000    0.000 
#
# Total GULP energy -312526.734911 kJ/mol
# GULP energy per Si atom -5580.834552 kJ/mol
# Density = 1.771791 g / cm^3
# Si number density = 17.758330 Si / 1000 Ang^3
#
#
#
# Elastic Constant Matrix: (Units=GPa)
#
#
# Indices 1 2 3 4 5 6 
#
# 1 44.4558 31.5282 27.2580 0.0000 0.0000 0.0000
# 2 31.5282 95.0417 63.7126 0.0000 0.0000 0.0000
# 3 27.2580 63.7126 162.6372 0.0000 0.0000 0.0000
# 4 0.0000 0.0000 0.0000 -106.6493 0.0000 0.0000
# 5 0.0000 0.0000 0.0000 0.0000 33.8955 0.0000
# 6 0.0000 0.0000 0.0000 0.0000 0.0000 38.9324
#
#
#
# Elastic Compliance Matrix: (Units=1/GPa)
#
#
# Indices 1 2 3 4 5 6 
#
# 1 0.029687 -0.008832 -0.001516 0.000000 0.000000 0.000000
# 2 -0.008832 0.016897 -0.005139 0.000000 0.000000 0.000000
# 3 -0.001516 -0.005139 0.008416 0.000000 0.000000 0.000000
# 4 0.000000 0.000000 0.000000 -0.009377 0.000000 0.000000
# 5 0.000000 0.000000 0.000000 0.000000 0.029502 0.000000
# 6 0.000000 0.000000 0.000000 0.000000 0.000000 0.025686
#
#
# Mechanical properties :
#
#
# Convention : Reuss Voigt Hill
#
# Bulk Modulus (GPa) = 41.62100 60.79247 51.20674
# Shear Modulus (GPa) = 35.76709 5.21144 20.48927
#
# Velocity S-wave (km/s) = 4.49274 1.71494 3.40042
# Velocity P-wave (km/s) = 7.09939 6.18295 6.65696
#
# Compressibility (1/GPa) = 0.02402633
#
# Stress axis : x y z
#
# Youngs Moduli (GPa) = 33.68436 59.18374 118.82388
#
# Poissons Ratio (x) = 0.52272 0.18009
# Poissons Ratio (y) = 0.29751 0.61062
# Poissons Ratio (z) = 0.05105 0.30414
#
# Static dielectric constant tensor:
#      x y z
#    x 1.613900 0.000000 0.000000 
#    y 0.000000 1.591160 0.000000 
#    z 0.000000 0.000000 1.623770 
# 
# From -- ./inp_files/21685.got.cif
#   From: 2010.05.17/outbox.cif.g08.bks.cpg/sg47_11_cif.got.tgz:21685.got - 2010.06.03 20:15:42.
