data_PCOD9383034
_publ_section_title
;
Structure prediction by ZEFSAII (Michael W. Deem and Ramdas Pophale) SiO2 
 PCOD9383034
Probable space group: P M M M
;
_chemical_formula_sum "Si O2"
_cell_formula_units_Z 52
_cell_length_a 19.119163
_cell_length_b 15.220658
_cell_length_c 9.996255
_cell_angle_alpha 90.000000
_cell_angle_beta 90.000000
_cell_angle_gamma 90.000000
_cell_volume 2908.972594
_symmetry_space_group_name_H-M "P M M M"
_symmetry_group_IT_number 47
_symmetry_cell_setting 'orthorhombic'
loop_
_space_group_symop_operation_xyz
x,y,z
-x,-y,z
x,-y,-z
-x,y,-z
-x,-y,-z
x,y,-z
-x,y,z
x,-y,z
loop_
_atom_site_type_symbol
_atom_site_label
_atom_site_fract_x
_atom_site_fract_y
_atom_site_fract_z
Si Si1 0.419053 0.840066 0.292375
Si Si2 0.695208 0.400639 0.154071
Si Si3 0.731954 0.905349 0.346269
Si Si4 0.416737 0.900217 0.000000
Si Si5 0.079948 0.400540 0.661947
Si Si6 0.208625 0.719896 0.662612
Si Si7 0.419234 0.634412 0.353479
O O1 0.500000 0.872005 0.315100
O O2 0.352119 0.890363 0.349822
O O3 0.416529 0.740491 0.342596
O O4 0.402600 0.847279 0.134427
O O5 0.722998 0.500000 0.154894
O O6 0.738686 0.340525 0.254534
O O7 0.619938 0.401234 0.224822
O O8 0.693488 0.370211 0.000000
O O9 0.754870 0.910543 0.500000
O O10 0.772155 0.819282 0.294250
O O11 0.745713 0.000000 0.280426
O O12 0.500000 0.911115 0.000000
O O13 0.386751 0.000000 0.000000
O O14 0.078862 0.402914 0.500000
O O15 0.101641 0.500000 0.704841
O O16 0.133125 0.322278 0.695957
O O17 0.000000 0.386075 0.707137
O O18 0.218719 0.713671 0.500000
O O19 0.389556 0.609164 0.500000
O O20 0.500000 0.608895 0.351537
#
# Coordination Sequence:
#
# PCOD9383034 Si02
#       7
#     8   8   8   4   8   8   8
#     4  10  19  31  48  68  94 128 172 225 272 314
#     4  11  24  38  53  76 105 136 171 215 268 326
#     4  10  20  32  47  70  99 131 170 216 264 310
#     4   9  18  30  44  66  93 125 168 215 269 327
#     4   8  14  26  49  83 113 134 167 215 258 300
#     4  10  19  34  56  78 105 142 176 210 257 312
#     4  10  21  36  54  74  96 128 176 229 274 320
#
# _framework density 17.875727999999999
#
# number of rings (size 3 to 8) (size 9 to 14) (size 15 to 20)
#    0.000    2.231    1.538    2.308    1.077    4.308 
#    0.000    2.308    0.000    0.923    0.000    5.385 
#    0.000    0.000    0.000    1.385    0.000    1.692 
#
# Total GULP energy -289478.546442 kJ/mol
# GULP energy per Si atom -5566.895124 kJ/mol
# Density = 1.783504 g / cm^3
# Si number density = 17.875728 Si / 1000 Ang^3
#
#
#
# Elastic Constant Matrix: (Units=GPa)
#
#
# Indices 1 2 3 4 5 6 
#
# 1 84.3855 51.5107 14.5331 0.0000 0.0000 0.0000
# 2 51.5107 124.7534 23.0210 0.0000 0.0000 0.0000
# 3 14.5331 23.0210 77.2858 0.0000 0.0000 0.0000
# 4 0.0000 0.0000 0.0000 13.7112 0.0000 0.0000
# 5 0.0000 0.0000 0.0000 0.0000 -5.6840 0.0000
# 6 0.0000 0.0000 0.0000 0.0000 0.0000 -37.1092
#
#
#
# Elastic Compliance Matrix: (Units=1/GPa)
#
#
# Indices 1 2 3 4 5 6 
#
# 1 0.015931 -0.006376 -0.001097 0.000000 0.000000 0.000000
# 2 -0.006376 0.011034 -0.002088 0.000000 0.000000 0.000000
# 3 -0.001097 -0.002088 0.013767 0.000000 0.000000 0.000000
# 4 0.000000 0.000000 0.000000 0.072933 0.000000 0.000000
# 5 0.000000 0.000000 0.000000 0.000000 -0.175933 0.000000
# 6 0.000000 0.000000 0.000000 0.000000 0.000000 -0.026947
#
#
# Mechanical properties :
#
#
# Convention : Reuss Voigt Hill
#
# Bulk Modulus (GPa) = 46.27087 51.61715 48.94401
# Shear Modulus (GPa) = -79.50074 7.34094 -36.07990
#
# Velocity S-wave (km/s) = -6.67613 2.02869 -4.49751
# Velocity P-wave (km/s) = 5.78676 5.86734 0.68521
#
# Compressibility (1/GPa) = 0.02161187
#
# Stress axis : x y z
#
# Youngs Moduli (GPa) = 62.77064 90.63296 72.63714
#
# Poissons Ratio (x) = 0.57783 0.07966
# Poissons Ratio (y) = 0.40020 0.15164
# Poissons Ratio (z) = 0.06884 0.18921
#
# Static dielectric constant tensor:
#      x y z
#    x 1.637290 0.000000 0.000000 
#    y 0.000000 1.668860 0.000000 
#    z 0.000000 0.000000 1.644450 
# 
# From -- ./inp_files/11013.got.cif
#   From: 2010.05.17/outbox.cif.g08.bks.cpg/sg47_6_cif.got.tgz:11013.got - 2010.06.03 20:15:42.
