data_PCOD9383257
_publ_section_title
;
Structure prediction by ZEFSAII (Michael W. Deem and Ramdas Pophale) SiO2 
 PCOD9383257
Probable space group: P M M M
;
_chemical_formula_sum "Si O2"
_cell_formula_units_Z 37
_cell_length_a 10.145155
_cell_length_b 9.218894
_cell_length_c 23.429557
_cell_angle_alpha 90.000000
_cell_angle_beta 90.000000
_cell_angle_gamma 90.000000
_cell_volume 2191.298721
_symmetry_space_group_name_H-M "P M M M"
_symmetry_group_IT_number 47
_symmetry_cell_setting 'orthorhombic'
loop_
_space_group_symop_operation_xyz
x,y,z
-x,-y,z
x,-y,-z
-x,y,-z
-x,-y,-z
x,y,-z
-x,y,z
x,-y,z
loop_
_atom_site_type_symbol
_atom_site_label
_atom_site_fract_x
_atom_site_fract_y
_atom_site_fract_z
Si Si1 0.655875 0.673139 0.344315
Si Si2 0.153421 0.827089 0.567363
Si Si3 0.339818 0.166674 0.226868
Si Si4 0.658867 0.334008 0.886239
Si Si5 0.270681 0.160434 0.000000
Si Si6 0.000000 0.000000 0.000000
O O1 0.500000 0.703930 0.354343
O O2 0.670755 0.500000 0.340396
O O3 0.746099 0.738840 0.393829
O O4 0.694483 0.747813 0.284417
O O5 0.174037 0.798792 0.500000
O O6 0.000000 0.793026 0.580406
O O7 0.171431 0.000000 0.576410
O O8 0.500000 0.164327 0.224776
O O9 0.293465 0.248740 0.169975
O O10 0.294500 0.000000 0.228393
O O11 0.500000 0.339019 0.882666
O O12 0.706626 0.500000 0.887304
O O13 0.693381 0.248739 0.943565
O O14 0.336803 0.000000 0.000000
O O15 0.116625 0.123524 0.000000
#
# Coordination Sequence:
#
# PCOD9383257 Si02
#       6
#     8   8   8   8   4   1
#     4  10  20  33  51  77 110 143 174 212 260 314
#     4   9  19  36  56  76 101 135 176 221 267 312
#     4   9  17  30  50  77 107 139 169 202 252 312
#     4  10  19  31  52  84 112 130 158 207 267 319
#     4  10  20  36  54  70 101 137 175 214 251 294
#     4   8  24  40  52  68  96 140 190 222 242 292
#
# _framework density 16.884965000000001
#
# number of rings (size 3 to 8) (size 9 to 14) (size 15 to 20)
#    0.324    2.162    0.000    3.243    0.000    7.784 
#    0.000    4.324    2.378    0.000    0.000    0.000 
#    0.000    0.000    0.000    0.000    0.000    0.000 
#
# Total GULP energy -205970.955454 kJ/mol
# GULP energy per Si atom -5566.782580 kJ/mol
# Density = 1.684653 g / cm^3
# Si number density = 16.884965 Si / 1000 Ang^3
#
#
#
# Elastic Constant Matrix: (Units=GPa)
#
#
# Indices 1 2 3 4 5 6 
#
# 1 46.3207 53.8859 56.8171 0.0000 0.0000 0.0000
# 2 53.8859 148.3168 102.9279 0.0000 0.0000 0.0000
# 3 56.8171 102.9279 148.7147 0.0000 0.0000 0.0000
# 4 0.0000 0.0000 0.0000 51.3181 0.0000 0.0000
# 5 0.0000 0.0000 0.0000 0.0000 19.9792 0.0000
# 6 0.0000 0.0000 0.0000 0.0000 0.0000 23.7661
#
#
#
# Elastic Compliance Matrix: (Units=1/GPa)
#
#
# Indices 1 2 3 4 5 6 
#
# 1 0.045741 -0.008641 -0.011495 0.000000 0.000000 0.000000
# 2 -0.008641 0.014606 -0.006808 0.000000 0.000000 0.000000
# 3 -0.011495 -0.006808 0.015828 0.000000 0.000000 0.000000
# 4 0.000000 0.000000 0.000000 0.019486 0.000000 0.000000
# 5 0.000000 0.000000 0.000000 0.000000 0.050052 0.000000
# 6 0.000000 0.000000 0.000000 0.000000 0.000000 0.042077
#
#
# Mechanical properties :
#
#
# Convention : Reuss Voigt Hill
#
# Bulk Modulus (GPa) = 44.86913 85.62379 65.24646
# Shear Modulus (GPa) = 20.07179 27.66076 23.86627
#
# Velocity S-wave (km/s) = 3.45155 4.05185 3.76368
# Velocity P-wave (km/s) = 6.52038 8.52702 7.59030
#
# Compressibility (1/GPa) = 0.02228704
#
# Stress axis : x y z
#
# Youngs Moduli (GPa) = 21.86245 68.46362 63.18084
#
# Poissons Ratio (x) = 0.59162 0.72623
# Poissons Ratio (y) = 0.18892 0.43012
# Poissons Ratio (z) = 0.25130 0.46608
#
# Static dielectric constant tensor:
#      x y z
#    x 1.545060 0.000000 0.000000 
#    y 0.000000 1.578190 0.000000 
#    z 0.000000 0.000000 1.550860 
# 
# From -- ./inp_files/30290.got.cif
#   From: 2010.05.17/outbox.cif.g08.bks.cpg/sg47_16_cif.got.tgz:30290.got - 2010.06.03 20:15:42.
