data_PCOD9383304
_publ_section_title
;
Structure prediction by ZEFSAII (Michael W. Deem and Ramdas Pophale) SiO2 
 PCOD9383304
Probable space group: P M M M
;
_chemical_formula_sum "Si O2"
_cell_formula_units_Z 36
_cell_length_a 8.134920
_cell_length_b 22.610336
_cell_length_c 12.009995
_cell_angle_alpha 90.000000
_cell_angle_beta 90.000000
_cell_angle_gamma 90.000000
_cell_volume 2209.037707
_symmetry_space_group_name_H-M "P M M M"
_symmetry_group_IT_number 47
_symmetry_cell_setting 'orthorhombic'
loop_
_space_group_symop_operation_xyz
x,y,z
-x,-y,z
x,-y,-z
-x,y,-z
-x,-y,-z
x,y,-z
-x,y,z
x,-y,z
loop_
_atom_site_type_symbol
_atom_site_label
_atom_site_fract_x
_atom_site_fract_y
_atom_site_fract_z
Si Si1 0.196646 0.615344 0.237362
Si Si2 0.817798 0.857741 0.364839
Si Si3 0.500000 0.068524 0.364111
Si Si4 0.302924 0.568752 0.000000
Si Si5 0.200691 0.500000 0.627469
Si Si6 0.305481 0.728781 0.371586
O O1 0.255237 0.558727 0.308709
O O2 0.268507 0.674610 0.290638
O O3 0.000000 0.618713 0.246514
O O4 0.243204 0.601805 0.110538
O O5 0.816641 0.860574 0.500000
O O6 0.665126 0.897676 0.326727
O O7 0.785169 0.789074 0.337659
O O8 0.000000 0.876168 0.327182
O O9 0.500000 0.070282 0.500000
O O10 0.500000 0.000000 0.331145
O O11 0.243870 0.500000 0.000000
O O12 0.500000 0.567555 0.000000
O O13 0.254630 0.500000 0.500000
O O14 0.000000 0.500000 0.628654
O O15 0.257527 0.713954 0.500000
O O16 0.500000 0.741390 0.372158
#
# Coordination Sequence:
#
# PCOD9383304 Si02
#       6
#     8   8   4   4   4   8
#     4  11  21  34  53  73  94 123 163 206 251 303
#     4   9  16  27  43  63  91 129 169 207 248 294
#     4   9  16  26  40  62  94 130 169 208 242 284
#     4  11  23  39  55  69  93 125 161 202 255 318
#     4   9  18  31  47  70  98 121 150 199 252 298
#     4  10  19  32  49  71 100 131 165 206 254 304
#
# _framework density 16.296690000000002
#
# number of rings (size 3 to 8) (size 9 to 14) (size 15 to 20)
#    0.000    2.111    2.222    2.333    0.000    3.111 
#    0.000    2.222    0.000    2.667    0.000    0.000 
#    0.000    0.000    0.000    2.000    0.000    8.889 
#
# Total GULP energy -200824.650256 kJ/mol
# GULP energy per Si atom -5578.462507 kJ/mol
# Density = 1.625960 g / cm^3
# Si number density = 16.296690 Si / 1000 Ang^3
#
#
#
# Elastic Constant Matrix: (Units=GPa)
#
#
# Indices 1 2 3 4 5 6 
#
# 1 91.0592 50.7086 12.8715 0.0000 0.0000 0.0000
# 2 50.7086 113.7323 35.1565 0.0000 0.0000 0.0000
# 3 12.8715 35.1565 71.6286 0.0000 0.0000 0.0000
# 4 0.0000 0.0000 0.0000 2.2723 0.0000 0.0000
# 5 0.0000 0.0000 0.0000 0.0000 12.1827 0.0000
# 6 0.0000 0.0000 0.0000 0.0000 0.0000 17.4890
#
#
#
# Elastic Compliance Matrix: (Units=1/GPa)
#
#
# Indices 1 2 3 4 5 6 
#
# 1 0.014637 -0.006735 0.000675 0.000000 0.000000 0.000000
# 2 -0.006735 0.013464 -0.005398 0.000000 0.000000 0.000000
# 3 0.000675 -0.005398 0.016489 0.000000 0.000000 0.000000
# 4 0.000000 0.000000 0.000000 0.440082 0.000000 0.000000
# 5 0.000000 0.000000 0.000000 0.000000 0.082084 0.000000
# 6 0.000000 0.000000 0.000000 0.000000 0.000000 0.057179
#
#
# Mechanical properties :
#
#
# Convention : Reuss Voigt Hill
#
# Bulk Modulus (GPa) = 46.13660 52.65478 49.39569
# Shear Modulus (GPa) = 7.64440 18.23438 12.93939
#
# Velocity S-wave (km/s) = 2.16817 3.34863 2.82084
# Velocity P-wave (km/s) = 5.88556 6.87978 6.40200
#
# Compressibility (1/GPa) = 0.02167476
#
# Stress axis : x y z
#
# Youngs Moduli (GPa) = 68.32099 74.27241 60.64636
#
# Poissons Ratio (x) = 0.50020 -0.04095
# Poissons Ratio (y) = 0.46012 0.32738
# Poissons Ratio (z) = -0.04614 0.40093
#
# Static dielectric constant tensor:
#      x y z
#    x 1.579390 0.000000 0.000000 
#    y 0.000000 1.534740 0.000000 
#    z 0.000000 0.000000 1.508020 
# 
# From -- ./inp_files/15022.got.cif
#   From: 2010.05.17/outbox.cif.g08.bks.cpg/sg47_8_cif.got.tgz:15022.got - 2010.06.03 20:15:42.
