data_PCOD9383516
_publ_section_title
;
Structure prediction by ZEFSAII (Michael W. Deem and Ramdas Pophale) SiO2 
 PCOD9383516
Probable space group: P M M M
;
_chemical_formula_sum "Si O2"
_cell_formula_units_Z 48
_cell_length_a 16.682045
_cell_length_b 16.439888
_cell_length_c 8.906423
_cell_angle_alpha 90.000000
_cell_angle_beta 90.000000
_cell_angle_gamma 90.000000
_cell_volume 2442.594981
_symmetry_space_group_name_H-M "P M M M"
_symmetry_group_IT_number 47
_symmetry_cell_setting 'orthorhombic'
loop_
_space_group_symop_operation_xyz
x,y,z
-x,-y,z
x,-y,-z
-x,y,-z
-x,-y,-z
x,y,-z
-x,y,z
x,-y,z
loop_
_atom_site_type_symbol
_atom_site_label
_atom_site_fract_x
_atom_site_fract_y
_atom_site_fract_z
Si Si1 0.096251 0.757095 0.829314
Si Si2 0.402867 0.500000 0.171378
Si Si3 0.595068 0.330341 0.679524
Si Si4 0.902354 0.409869 0.676178
Si Si5 0.500000 0.091073 0.182301
Si Si6 0.335829 0.824495 0.180382
Si Si7 0.819030 0.093661 0.320092
O O1 0.125833 0.671285 0.760608
O O2 0.120552 0.836823 0.736837
O O3 0.000000 0.752642 0.831863
O O4 0.125955 0.765641 0.000000
O O5 0.500000 0.500000 0.164645
O O6 0.381414 0.418925 0.260516
O O7 0.373172 0.500000 0.000000
O O8 0.599579 0.326114 0.500000
O O9 0.500000 0.316287 0.721584
O O10 0.654314 0.265576 0.754495
O O11 0.881835 0.403399 0.500000
O O12 0.876093 0.500000 0.730691
O O13 0.000000 0.409906 0.685164
O O14 0.580587 0.134855 0.227947
O O15 0.500000 0.000000 0.238930
O O16 0.500000 0.089818 0.000000
O O17 0.264517 0.876993 0.248803
O O18 0.330063 0.823125 0.000000
O O19 0.814628 0.096005 0.500000
O O20 0.837728 0.000000 0.275679
#
# Coordination Sequence:
#
# PCOD9383516 Si02
#       7
#     8   4   8   8   4   8   8
#     4  10  21  37  60  90 120 152 193 240 288 341
#     4   9  17  29  49  77 109 145 192 239 282 333
#     4  10  19  32  52  80 115 151 189 233 284 339
#     4   8  14  27  51  84 120 156 191 227 273 333
#     4   9  18  32  53  82 111 140 179 227 278 335
#     4  11  21  36  59  84 114 149 190 236 287 344
#     4  11  25  43  61  83 114 153 195 240 295 353
#
# _framework density 19.651233000000001
#
# number of rings (size 3 to 8) (size 9 to 14) (size 15 to 20)
#    0.000    2.167    0.833    3.250    0.000    5.333 
#    0.000    3.333    1.833    2.000    0.000    0.000 
#    0.000    0.000    0.000    0.000    0.000    0.000 
#
# Total GULP energy -267829.097210 kJ/mol
# GULP energy per Si atom -5579.772859 kJ/mol
# Density = 1.960651 g / cm^3
# Si number density = 19.651233 Si / 1000 Ang^3
#
#
#
# Elastic Constant Matrix: (Units=GPa)
#
#
# Indices 1 2 3 4 5 6 
#
# 1 25.1061 22.6153 12.1111 0.0000 0.0000 0.0000
# 2 22.6153 190.4076 63.6681 0.0000 0.0000 0.0000
# 3 12.1111 63.6681 83.1467 0.0000 0.0000 0.0000
# 4 0.0000 0.0000 0.0000 24.7845 0.0000 0.0000
# 5 0.0000 0.0000 0.0000 0.0000 23.0413 0.0000
# 6 0.0000 0.0000 0.0000 0.0000 0.0000 20.1644
#
#
#
# Elastic Compliance Matrix: (Units=1/GPa)
#
#
# Indices 1 2 3 4 5 6 
#
# 1 0.045279 -0.004264 -0.003330 0.000000 0.000000 0.000000
# 2 -0.004264 0.007461 -0.005092 0.000000 0.000000 0.000000
# 3 -0.003330 -0.005092 0.016411 0.000000 0.000000 0.000000
# 4 0.000000 0.000000 0.000000 0.040348 0.000000 0.000000
# 5 0.000000 0.000000 0.000000 0.000000 0.043400 0.000000
# 6 0.000000 0.000000 0.000000 0.000000 0.000000 0.049592
#
#
# Mechanical properties :
#
#
# Convention : Reuss Voigt Hill
#
# Bulk Modulus (GPa) = 22.84241 55.04994 38.94618
# Shear Modulus (GPa) = 20.62224 26.94910 23.78567
#
# Velocity S-wave (km/s) = 3.24298 3.70722 3.48284
# Velocity P-wave (km/s) = 5.06672 6.81167 6.00294
#
# Compressibility (1/GPa) = 0.04377821
#
# Stress axis : x y z
#
# Youngs Moduli (GPa) = 22.08542 134.02938 60.93447
#
# Poissons Ratio (x) = 0.57156 0.20290
# Poissons Ratio (y) = 0.09418 0.31028
# Poissons Ratio (z) = 0.07354 0.68248
#
# Static dielectric constant tensor:
#      x y z
#    x 2.208230 0.000000 0.000000 
#    y 0.000000 1.703720 0.000000 
#    z 0.000000 0.000000 1.663070 
# 
# From -- ./inp_files/9189.got.cif
#   From: 2010.05.17/outbox.cif.g08.bks.cpg/sg47_5_cif.got.tgz:9189.got - 2010.06.03 20:15:42.
