data_PCOD9383299
_publ_section_title
;
Structure prediction by ZEFSAII (Michael W. Deem and Ramdas Pophale) SiO2 
 PCOD9383299
Probable space group: P M M M
;
_chemical_formula_sum "Si O2"
_cell_formula_units_Z 52
_cell_length_a 17.425121
_cell_length_b 18.355871
_cell_length_c 9.118801
_cell_angle_alpha 90.000000
_cell_angle_beta 90.000000
_cell_angle_gamma 90.000000
_cell_volume 2916.678348
_symmetry_space_group_name_H-M "P M M M"
_symmetry_group_IT_number 47
_symmetry_cell_setting 'orthorhombic'
loop_
_space_group_symop_operation_xyz
x,y,z
-x,-y,z
x,-y,-z
-x,y,-z
-x,-y,-z
x,y,-z
-x,y,z
x,-y,z
loop_
_atom_site_type_symbol
_atom_site_label
_atom_site_fract_x
_atom_site_fract_y
_atom_site_fract_z
Si Si1 0.414395 0.371136 0.826521
Si Si2 0.407614 0.917494 0.667529
Si Si3 0.342596 0.783061 0.829765
Si Si4 0.092382 0.148876 0.170293
Si Si5 0.190616 0.731719 0.325246
Si Si6 0.906343 0.000000 0.330563
Si Si7 0.257903 0.419111 0.323752
O O1 0.500000 0.391492 0.775031
O O2 0.401802 0.283991 0.811340
O O3 0.342078 0.406310 0.745091
O O4 0.409421 0.388223 0.000000
O O5 0.384459 0.898587 0.500000
O O6 0.500000 0.917369 0.670356
O O7 0.377806 0.859032 0.781418
O O8 0.381647 0.000000 0.697927
O O9 0.270861 0.766685 0.725769
O O10 0.318665 0.782982 0.000000
O O11 0.126271 0.220335 0.246891
O O12 0.000000 0.150477 0.177666
O O13 0.118432 0.074378 0.250550
O O14 0.115175 0.146489 0.000000
O O15 0.180920 0.735513 0.500000
O O16 0.201460 0.646932 0.280242
O O17 0.882174 0.000000 0.500000
O O18 0.000000 0.000000 0.327510
O O19 0.265605 0.415057 0.500000
O O20 0.230708 0.500000 0.283912
#
# Coordination Sequence:
#
# PCOD9383299 Si02
#       7
#     8   8   8   8   8   4   8
#     4   9  18  31  47  70  99 130 165 207 256 310
#     4   9  18  32  48  66  91 125 166 212 259 305
#     4  10  19  32  49  69  96 128 166 211 258 307
#     4  10  20  35  56  82 112 142 172 210 254 300
#     4  10  20  35  55  77 102 134 172 211 255 310
#     4   9  17  31  53  81 111 141 172 203 240 291
#     4   9  19  35  53  74 101 133 170 214 262 310
#
# _framework density 17.828500999999999
#
# number of rings (size 3 to 8) (size 9 to 14) (size 15 to 20)
#    0.000    2.538    0.000    2.538    0.000    5.231 
#    1.385    2.308    0.000    0.462    0.000    3.231 
#    0.000    0.000    0.000    0.000    0.000    0.000 
#
# Total GULP energy -289946.518201 kJ/mol
# GULP energy per Si atom -5575.894581 kJ/mol
# Density = 1.778792 g / cm^3
# Si number density = 17.828501 Si / 1000 Ang^3
#
#
#
# Elastic Constant Matrix: (Units=GPa)
#
#
# Indices 1 2 3 4 5 6 
#
# 1 24.5545 30.4334 23.2253 0.0000 0.0000 0.0000
# 2 30.4334 134.9241 58.8648 0.0000 0.0000 0.0000
# 3 23.2253 58.8648 72.2388 0.0000 0.0000 0.0000
# 4 0.0000 0.0000 0.0000 21.1123 0.0000 0.0000
# 5 0.0000 0.0000 0.0000 0.0000 26.2706 0.0000
# 6 0.0000 0.0000 0.0000 0.0000 0.0000 7.9348
#
#
#
# Elastic Compliance Matrix: (Units=1/GPa)
#
#
# Indices 1 2 3 4 5 6 
#
# 1 0.064249 -0.008503 -0.013728 0.000000 0.000000 0.000000
# 2 -0.008503 0.012625 -0.007554 0.000000 0.000000 0.000000
# 3 -0.013728 -0.007554 0.024412 0.000000 0.000000 0.000000
# 4 0.000000 0.000000 0.000000 0.047366 0.000000 0.000000
# 5 0.000000 0.000000 0.000000 0.000000 0.038065 0.000000
# 6 0.000000 0.000000 0.000000 0.000000 0.000000 0.126027
#
#
# Mechanical properties :
#
#
# Convention : Reuss Voigt Hill
#
# Bulk Modulus (GPa) = 23.97119 50.75160 37.36139
# Shear Modulus (GPa) = 12.94602 19.00981 15.97791
#
# Velocity S-wave (km/s) = 2.69763 3.26891 2.99691
# Velocity P-wave (km/s) = 4.81430 6.54034 5.74254
#
# Compressibility (1/GPa) = 0.04171675
#
# Stress axis : x y z
#
# Youngs Moduli (GPa) = 15.56445 79.20702 40.96321
#
# Poissons Ratio (x) = 0.67348 0.56234
# Poissons Ratio (y) = 0.13234 0.30944
# Poissons Ratio (z) = 0.21367 0.59834
#
# Static dielectric constant tensor:
#      x y z
#    x 1.598050 0.000000 0.000000 
#    y 0.000000 1.626940 0.000000 
#    z 0.000000 0.000000 1.602630 
# 
# From -- ./inp_files/9556.got.cif
#   From: 2010.05.17/outbox.cif.g08.bks.cpg/sg47_5_cif.got.tgz:9556.got - 2010.06.03 20:15:42.
