data_PCOD9383612
_publ_section_title
;
Structure prediction by ZEFSAII (Michael W. Deem and Ramdas Pophale) SiO2 
 PCOD9383612
Probable space group: P M M M
;
_chemical_formula_sum "Si O2"
_cell_formula_units_Z 56
_cell_length_a 8.543105
_cell_length_b 20.920936
_cell_length_c 15.710759
_cell_angle_alpha 90.000000
_cell_angle_beta 90.000000
_cell_angle_gamma 90.000000
_cell_volume 2807.980075
_symmetry_space_group_name_H-M "P M M M"
_symmetry_group_IT_number 47
_symmetry_cell_setting 'orthorhombic'
loop_
_space_group_symop_operation_xyz
x,y,z
-x,-y,z
x,-y,-z
-x,y,-z
-x,-y,-z
x,y,-z
-x,y,z
x,-y,z
loop_
_atom_site_type_symbol
_atom_site_label
_atom_site_fract_x
_atom_site_fract_y
_atom_site_fract_z
Si Si1 0.313389 0.340157 0.650823
Si Si2 0.813539 0.572835 0.000000
Si Si3 0.683063 0.800677 0.828592
Si Si4 0.181768 0.067926 0.398170
Si Si5 0.313701 0.659368 0.150467
Si Si6 0.187356 0.426649 0.500000
Si Si7 0.181367 0.204411 0.648028
Si Si8 0.818891 0.070898 0.897751
O O1 0.500000 0.344282 0.650556
O O2 0.261713 0.347796 0.750219
O O3 0.245389 0.390729 0.584728
O O4 0.263821 0.269319 0.619998
O O5 0.761122 0.611217 0.083925
O O6 0.751841 0.500000 0.000000
O O7 0.000000 0.570232 0.000000
O O8 0.500000 0.798144 0.801046
O O9 0.711206 0.733701 0.877021
O O10 0.799071 0.796647 0.749175
O O11 0.717545 0.868139 0.871935
O O12 0.176930 0.065182 0.500000
O O13 0.254288 0.136222 0.377499
O O14 0.000000 0.069818 0.367760
O O15 0.250359 0.000000 0.367485
O O16 0.500000 0.648693 0.149616
O O17 0.241635 0.500000 0.500000
O O18 0.000000 0.425446 0.500000
O O19 0.000000 0.206390 0.620756
O O20 0.000000 0.079577 0.869476
O O21 0.766668 0.000000 0.867826
O O22 0.820384 0.068997 0.000000
#
# Coordination Sequence:
#
# PCOD9383612 Si02
#       8
#     8   4   8   8   8   4   8   8
#     4  10  22  41  63  90 124 161 200 247 299 354
#     4  11  25  41  61  93 124 151 190 239 293 350
#     4  10  21  36  54  79 111 146 189 237 288 346
#     4   8  15  28  46  72 106 142 183 232 282 331
#     4   9  21  41  62  86 120 160 200 239 288 353
#     4  11  25  43  65  95 126 159 200 243 293 358
#     4  10  19  32  55  83 111 147 192 240 290 344
#     4   9  19  35  53  76 107 143 187 238 292 350
#
# _framework density 19.943162999999998
#
# number of rings (size 3 to 8) (size 9 to 14) (size 15 to 20)
#    0.000    2.429    0.000    3.429    2.000    6.286 
#    0.000    5.000    0.000    1.286    0.000    4.000 
#    0.000    0.000    0.000    0.000    0.000    0.000 
#
# Total GULP energy -312085.547715 kJ/mol
# GULP energy per Si atom -5572.956209 kJ/mol
# Density = 1.989777 g / cm^3
# Si number density = 19.943163 Si / 1000 Ang^3
#
#
#
# Elastic Constant Matrix: (Units=GPa)
#
#
# Indices 1 2 3 4 5 6 
#
# 1 33.2382 40.3551 20.9802 0.0000 0.0000 0.0000
# 2 40.3551 211.0461 72.7186 0.0000 0.0000 0.0000
# 3 20.9802 72.7186 68.0801 0.0000 0.0000 0.0000
# 4 0.0000 0.0000 0.0000 43.6697 0.0000 0.0000
# 5 0.0000 0.0000 0.0000 0.0000 -30.8244 0.0000
# 6 0.0000 0.0000 0.0000 0.0000 0.0000 21.4157
#
#
#
# Elastic Compliance Matrix: (Units=1/GPa)
#
#
# Indices 1 2 3 4 5 6 
#
# 1 0.041054 -0.005524 -0.006751 0.000000 0.000000 0.000000
# 2 -0.005524 0.008241 -0.007100 0.000000 0.000000 0.000000
# 3 -0.006751 -0.007100 0.024353 0.000000 0.000000 0.000000
# 4 0.000000 0.000000 0.000000 0.022899 0.000000 0.000000
# 5 0.000000 0.000000 0.000000 0.000000 -0.032442 0.000000
# 6 0.000000 0.000000 0.000000 0.000000 0.000000 0.046695
#
#
# Mechanical properties :
#
#
# Convention : Reuss Voigt Hill
#
# Bulk Modulus (GPa) = 28.65555 64.49693 46.57624
# Shear Modulus (GPa) = 31.02051 18.73957 24.88004
#
# Velocity S-wave (km/s) = 3.94819 3.06869 3.53590
# Velocity P-wave (km/s) = 5.93162 6.70570 6.33050
#
# Compressibility (1/GPa) = 0.03489726
#
# Stress axis : x y z
#
# Youngs Moduli (GPa) = 24.35811 121.34428 41.06244
#
# Poissons Ratio (x) = 0.67029 0.27723
# Poissons Ratio (y) = 0.13455 0.29155
# Poissons Ratio (z) = 0.16445 0.86157
#
# Static dielectric constant tensor:
#      x y z
#    x 1.692410 0.000000 0.000000 
#    y 0.000000 1.754100 0.000000 
#    z 0.000000 0.000000 1.715720 
# 
# From -- ./inp_files/21643.got.cif
#   From: 2010.05.17/outbox.cif.g08.bks.cpg/sg47_11_cif.got.tgz:21643.got - 2010.06.03 20:15:42.
