data_PCOD9383434
_publ_section_title
;
Structure prediction by ZEFSAII (Michael W. Deem and Ramdas Pophale) SiO2 
 PCOD9383434
Probable space group: P M M M
;
_chemical_formula_sum "Si O2"
_cell_formula_units_Z 36
_cell_length_a 12.355219
_cell_length_b 19.373434
_cell_length_c 7.414015
_cell_angle_alpha 90.000000
_cell_angle_beta 90.000000
_cell_angle_gamma 90.000000
_cell_volume 1774.641020
_symmetry_space_group_name_H-M "P M M M"
_symmetry_group_IT_number 47
_symmetry_cell_setting 'orthorhombic'
loop_
_space_group_symop_operation_xyz
x,y,z
-x,-y,z
x,-y,-z
-x,y,-z
-x,-y,-z
x,y,-z
-x,y,z
x,-y,z
loop_
_atom_site_type_symbol
_atom_site_label
_atom_site_fract_x
_atom_site_fract_y
_atom_site_fract_z
Si Si1 0.777468 0.850795 0.791802
Si Si2 0.500000 0.583868 0.293085
Si Si3 0.737504 0.420891 0.279161
Si Si4 0.000000 0.920829 0.219225
Si Si5 0.629035 0.081690 0.500000
Si Si6 0.876443 0.707472 0.281868
O O1 0.890530 0.883586 0.722953
O O2 0.682101 0.880510 0.671160
O O3 0.798516 0.769187 0.778522
O O4 0.762051 0.870372 0.000000
O O5 0.500000 0.500000 0.296981
O O6 0.500000 0.608938 0.500000
O O7 0.382662 0.602022 0.215926
O O8 0.733730 0.421620 0.500000
O O9 0.757544 0.500000 0.223367
O O10 0.827460 0.365972 0.225147
O O11 0.000000 0.000000 0.275717
O O12 0.000000 0.918448 0.000000
O O13 0.500000 0.087870 0.500000
O O14 0.656817 0.000000 0.500000
O O15 0.878044 0.708618 0.500000
O O16 0.000000 0.718141 0.219147
#
# Coordination Sequence:
#
# PCOD9383434 Si02
#       6
#     8   4   8   4   4   8
#     4  11  22  40  64  92 128 165 201 248 305 366
#     4   7  10  20  38  62  95 133 183 247 305 352
#     4   8  14  25  43  71 106 150 205 261 313 365
#     4   9  18  33  59  93 119 149 196 245 298 358
#     4  11  26  47  69  95 126 162 206 252 298 358
#     4  10  19  32  51  80 120 162 204 255 315 372
#
# _framework density 20.285793000000002
#
# number of rings (size 3 to 8) (size 9 to 14) (size 15 to 20)
#    0.000    2.556    2.222    2.000    0.000    2.667 
#    2.000    4.444    0.000    0.667    0.000    1.556 
#    0.000    2.667    0.000    0.000    0.000    0.000 
#
# Total GULP energy -200946.379349 kJ/mol
# GULP energy per Si atom -5581.843871 kJ/mol
# Density = 2.023962 g / cm^3
# Si number density = 20.285793 Si / 1000 Ang^3
#
#
#
# Elastic Constant Matrix: (Units=GPa)
#
#
# Indices 1 2 3 4 5 6 
#
# 1 107.3500 58.1328 34.9136 0.0000 0.0000 0.0000
# 2 58.1328 120.4821 17.2576 0.0000 0.0000 0.0000
# 3 34.9136 17.2576 94.3140 0.0000 0.0000 0.0000
# 4 0.0000 0.0000 0.0000 -8.0910 0.0000 0.0000
# 5 0.0000 0.0000 0.0000 0.0000 -6.1184 0.0000
# 6 0.0000 0.0000 0.0000 0.0000 0.0000 18.5499
#
#
#
# Elastic Compliance Matrix: (Units=1/GPa)
#
#
# Indices 1 2 3 4 5 6 
#
# 1 0.013966 -0.006159 -0.004043 0.000000 0.000000 0.000000
# 2 -0.006159 0.011240 0.000223 0.000000 0.000000 0.000000
# 3 -0.004043 0.000223 0.012059 0.000000 0.000000 0.000000
# 4 0.000000 0.000000 0.000000 -0.123595 0.000000 0.000000
# 5 0.000000 0.000000 0.000000 0.000000 -0.163443 0.000000
# 6 0.000000 0.000000 0.000000 0.000000 0.000000 0.053909
#
#
# Mechanical properties :
#
#
# Convention : Reuss Voigt Hill
#
# Bulk Modulus (GPa) = 57.78145 60.30601 59.04373
# Shear Modulus (GPa) = -29.38784 14.99093 -7.19845
#
# Velocity S-wave (km/s) = -3.81030 2.72138 -1.88580
# Velocity P-wave (km/s) = 3.03113 6.29820 4.94242
#
# Compressibility (1/GPa) = 0.01730659
#
# Stress axis : x y z
#
# Youngs Moduli (GPa) = 71.60441 88.96899 82.92840
#
# Poissons Ratio (x) = 0.54799 0.33527
# Poissons Ratio (y) = 0.44104 -0.01853
# Poissons Ratio (z) = 0.28948 -0.01988
#
# Static dielectric constant tensor:
#      x y z
#    x 1.704490 0.000000 0.000000 
#    y 0.000000 1.703020 0.000000 
#    z 0.000000 0.000000 1.781800 
# 
# From -- ./inp_files/3976.got.cif
#   From: 2010.05.17/outbox.cif.g08.bks.cpg/sg47_2_cif.got.tgz:3976.got - 2010.06.03 20:15:42.
