data_PCOD9383646
_publ_section_title
;
Structure prediction by ZEFSAII (Michael W. Deem and Ramdas Pophale) SiO2 
 PCOD9383646
Probable space group: P M M M
;
_chemical_formula_sum "Si O2"
_cell_formula_units_Z 48
_cell_length_a 7.722656
_cell_length_b 19.218148
_cell_length_c 16.435090
_cell_angle_alpha 90.000000
_cell_angle_beta 90.000000
_cell_angle_gamma 90.000000
_cell_volume 2439.216281
_symmetry_space_group_name_H-M "P M M M"
_symmetry_group_IT_number 47
_symmetry_cell_setting 'orthorhombic'
loop_
_space_group_symop_operation_xyz
x,y,z
-x,-y,z
x,-y,-z
-x,y,-z
-x,-y,-z
x,y,-z
-x,y,z
x,-y,z
loop_
_atom_site_type_symbol
_atom_site_label
_atom_site_fract_x
_atom_site_fract_y
_atom_site_fract_z
Si Si1 0.711918 0.080958 0.000000
Si Si2 0.787950 0.215913 0.411889
Si Si3 0.291392 0.420824 0.321968
Si Si4 0.702822 0.851434 0.167274
Si Si5 0.796507 0.077244 0.664295
Si Si6 0.700431 0.415149 0.500000
Si Si7 0.205511 0.714650 0.753860
O O1 0.771008 0.119448 0.917979
O O2 0.500000 0.083043 0.000000
O O3 0.762603 0.000000 0.000000
O O4 0.731668 0.241894 0.500000
O O5 0.729442 0.136487 0.396378
O O6 0.725944 0.257342 0.333244
O O7 0.000000 0.217380 0.410683
O O8 0.500000 0.422497 0.329105
O O9 0.232734 0.500000 0.307251
O O10 0.221583 0.397108 0.411608
O O11 0.245676 0.366750 0.251291
O O12 0.500000 0.867603 0.170824
O O13 0.782593 0.890439 0.245165
O O14 0.724664 0.768536 0.179665
O O15 0.000000 0.071467 0.646104
O O16 0.719943 0.000000 0.660320
O O17 0.698616 0.500000 0.500000
O O18 0.500000 0.392163 0.500000
O O19 0.000000 0.723225 0.755618
#
# Coordination Sequence:
#
# PCOD9383646 Si02
#       7
#     4   8   8   8   8   4   8
#     4   9  18  32  53  81 104 123 154 197 241 292
#     4   8  15  27  41  59  85 120 161 199 234 273
#     4   9  17  30  48  70  96 129 168 206 247 294
#     4  10  19  33  52  72  96 125 158 193 238 295
#     4   9  17  29  45  66  93 122 154 196 242 285
#     4   7  12  24  41  63  93 125 158 201 248 289
#     4  10  20  32  47  68  98 130 163 203 244 288
#
# _framework density 19.678452
#
# number of rings (size 3 to 8) (size 9 to 14) (size 15 to 20)
#    0.000    3.000    0.000    3.500    1.167    1.667 
#    0.000    3.333    0.000    9.000    0.000    5.250 
#    0.000    4.667    0.000    0.000    0.000    0.000 
#
# Total GULP energy -267543.439578 kJ/mol
# GULP energy per Si atom -5573.821658 kJ/mol
# Density = 1.963366 g / cm^3
# Si number density = 19.678452 Si / 1000 Ang^3
#
#
#
# Elastic Constant Matrix: (Units=GPa)
#
#
# Indices 1 2 3 4 5 6 
#
# 1 32.3245 -6.8975 -5.4467 0.0000 0.0000 0.0000
# 2 -6.8975 106.0591 30.9787 0.0000 0.0000 0.0000
# 3 -5.4467 30.9787 77.7708 0.0000 0.0000 0.0000
# 4 0.0000 0.0000 0.0000 29.0253 0.0000 0.0000
# 5 0.0000 0.0000 0.0000 0.0000 11.7565 0.0000
# 6 0.0000 0.0000 0.0000 0.0000 0.0000 13.2708
#
#
#
# Elastic Compliance Matrix: (Units=1/GPa)
#
#
# Indices 1 2 3 4 5 6 
#
# 1 0.031541 0.001591 0.001575 0.000000 0.000000 0.000000
# 2 0.001591 0.010750 -0.004171 0.000000 0.000000 0.000000
# 3 0.001575 -0.004171 0.014630 0.000000 0.000000 0.000000
# 4 0.000000 0.000000 0.000000 0.034453 0.000000 0.000000
# 5 0.000000 0.000000 0.000000 0.000000 0.085060 0.000000
# 6 0.000000 0.000000 0.000000 0.000000 0.000000 0.075353
#
#
# Mechanical properties :
#
#
# Convention : Reuss Voigt Hill
#
# Bulk Modulus (GPa) = 18.21073 28.15819 23.18446
# Shear Modulus (GPa) = 18.37557 23.97850 21.17704
#
# Velocity S-wave (km/s) = 3.05912 3.49451 3.28404
# Velocity P-wave (km/s) = 4.66388 5.53375 5.11733
#
# Compressibility (1/GPa) = 0.05491267
#
# Stress axis : x y z
#
# Youngs Moduli (GPa) = 31.70453 93.01945 68.35276
#
# Poissons Ratio (x) = -0.14801 -0.10767
# Poissons Ratio (y) = -0.05045 0.28509
# Poissons Ratio (z) = -0.04994 0.38797
#
# Static dielectric constant tensor:
#      x y z
#    x 1.739480 0.000000 0.000000 
#    y 0.000000 1.760960 0.000000 
#    z 0.000000 0.000000 1.682420 
# 
# From -- ./inp_files/21123.got.cif
#   From: 2010.05.17/outbox.cif.g08.bks.cpg/sg47_11_cif.got.tgz:21123.got - 2010.06.03 20:15:42.
