data_PCOD9383074
_publ_section_title
;
Structure prediction by ZEFSAII (Michael W. Deem and Ramdas Pophale) SiO2 
 PCOD9383074
Probable space group: P M M M
;
_chemical_formula_sum "Si O2"
_cell_formula_units_Z 64
_cell_length_a 31.880001
_cell_length_b 9.375903
_cell_length_c 14.715739
_cell_angle_alpha 90.000000
_cell_angle_beta 90.000000
_cell_angle_gamma 90.000000
_cell_volume 4398.590263
_symmetry_space_group_name_H-M "P M M M"
_symmetry_group_IT_number 47
_symmetry_cell_setting 'orthorhombic'
loop_
_space_group_symop_operation_xyz
x,y,z
-x,-y,z
x,-y,-z
-x,y,-z
-x,-y,-z
x,y,-z
-x,y,z
x,-y,z
loop_
_atom_site_type_symbol
_atom_site_label
_atom_site_fract_x
_atom_site_fract_y
_atom_site_fract_z
Si Si1 0.952729 0.327883 0.204511
Si Si2 0.176653 0.670742 0.603437
Si Si3 0.205518 0.828628 0.222214
Si Si4 0.877190 0.829451 0.893524
Si Si5 0.712538 0.170704 0.106785
Si Si6 0.077600 0.672520 0.400095
Si Si7 0.628439 0.336231 0.110632
Si Si8 0.546785 0.833971 0.889539
O O1 0.947596 0.500000 0.200792
O O2 0.917083 0.253245 0.145640
O O3 0.946505 0.281992 0.309883
O O4 0.000000 0.293843 0.174787
O O5 0.189416 0.705380 0.500000
O O6 0.180197 0.500000 0.615229
O O7 0.201431 0.752417 0.681177
O O8 0.126970 0.706352 0.611341
O O9 0.164423 0.790506 0.162971
O O10 0.247342 0.789696 0.166897
O O11 0.205453 0.000000 0.233439
O O12 0.883409 0.000000 0.883690
O O13 0.871127 0.799075 0.000000
O O14 0.670261 0.250562 0.136033
O O15 0.706321 0.000000 0.113229
O O16 0.720516 0.202781 0.000000
O O17 0.063720 0.724778 0.500000
O O18 0.074477 0.500000 0.402827
O O19 0.630294 0.500000 0.139880
O O20 0.585765 0.259991 0.142212
O O21 0.627383 0.334488 0.000000
O O22 0.500000 0.787543 0.860606
O O23 0.552417 0.000000 0.864620
O O24 0.546943 0.829292 0.000000
#
# Coordination Sequence:
#
# PCOD9383074 Si02
#       8
#     8   8   8   8   8   8   8   8
#     4  10  20  33  50  71  91 111 139 173 205 241
#     4   9  17  30  49  70  91 114 136 161 200 251
#     4  10  19  31  49  70  87 107 140 179 212 246
#     4  10  21  36  51  66  86 113 143 174 210 251
#     4   9  17  29  43  58  80 111 144 178 217 258
#     4   8  14  27  47  69  91 112 133 159 196 243
#     4   9  16  24  34  51  76 104 137 179 223 262
#     4   8  13  21  33  48  67  97 139 182 222 263
#
# _framework density 14.550115
#
# number of rings (size 3 to 8) (size 9 to 14) (size 15 to 20)
#    0.000    2.875    1.250    1.875    0.000    5.000 
#    0.000    3.750    0.000    2.625    0.000    0.875 
#    0.000    0.000    0.000    0.000    0.000    0.625 
#
# Total GULP energy -356451.011760 kJ/mol
# GULP energy per Si atom -5569.547059 kJ/mol
# Density = 1.451700 g / cm^3
# Si number density = 14.550115 Si / 1000 Ang^3
#
#
#
# Elastic Constant Matrix: (Units=GPa)
#
#
# Indices 1 2 3 4 5 6 
#
# 1 129.2758 55.0678 51.5372 0.0000 0.0000 0.0000
# 2 55.0678 34.4403 31.7973 0.0000 0.0000 0.0000
# 3 51.5372 31.7973 67.5059 0.0000 0.0000 0.0000
# 4 0.0000 0.0000 0.0000 19.5462 0.0000 0.0000
# 5 0.0000 0.0000 0.0000 0.0000 3.6376 0.0000
# 6 0.0000 0.0000 0.0000 0.0000 0.0000 17.6215
#
#
#
# Elastic Compliance Matrix: (Units=1/GPa)
#
#
# Indices 1 2 3 4 5 6 
#
# 1 0.024264 -0.038388 -0.000442 0.000000 0.000000 0.000000
# 2 -0.038388 0.112114 -0.023502 0.000000 0.000000 0.000000
# 3 -0.000442 -0.023502 0.026221 0.000000 0.000000 0.000000
# 4 0.000000 0.000000 0.000000 0.051161 0.000000 0.000000
# 5 0.000000 0.000000 0.000000 0.000000 0.274903 0.000000
# 6 0.000000 0.000000 0.000000 0.000000 0.000000 0.056749
#
#
# Mechanical properties :
#
#
# Convention : Reuss Voigt Hill
#
# Bulk Modulus (GPa) = 26.36099 56.44740 41.40419
# Shear Modulus (GPa) = 7.32362 14.34905 10.83633
#
# Velocity S-wave (km/s) = 2.24595 3.14376 2.73199
# Velocity P-wave (km/s) = 4.98823 7.21505 6.20240
#
# Compressibility (1/GPa) = 0.03793484
#
# Stress axis : x y z
#
# Youngs Moduli (GPa) = 41.21334 8.91947 38.13696
#
# Poissons Ratio (x) = 0.34240 0.01687
# Poissons Ratio (y) = 1.58211 0.89629
# Poissons Ratio (z) = 0.01823 0.20962
#
# Static dielectric constant tensor:
#      x y z
#    x 1.476760 0.000000 0.000000 
#    y 0.000000 1.483350 0.000000 
#    z 0.000000 0.000000 1.469400 
# 
# From -- ./inp_files/14251.got.cif
#   From: 2010.05.17/outbox.cif.g08.bks.cpg/sg47_8_cif.got.tgz:14251.got - 2010.06.03 20:15:42.
