data_PCOD9383610
_publ_section_title
;
Structure prediction by ZEFSAII (Michael W. Deem and Ramdas Pophale) SiO2 
 PCOD9383610
Probable space group: P M M M
;
_chemical_formula_sum "Si O2"
_cell_formula_units_Z 25
_cell_length_a 8.197144
_cell_length_b 7.776386
_cell_length_c 20.971297
_cell_angle_alpha 90.000000
_cell_angle_beta 90.000000
_cell_angle_gamma 90.000000
_cell_volume 1336.797624
_symmetry_space_group_name_H-M "P M M M"
_symmetry_group_IT_number 47
_symmetry_cell_setting 'orthorhombic'
loop_
_space_group_symop_operation_xyz
x,y,z
-x,-y,z
x,-y,-z
-x,y,-z
-x,-y,-z
x,y,-z
-x,y,z
x,-y,z
loop_
_atom_site_type_symbol
_atom_site_label
_atom_site_fract_x
_atom_site_fract_y
_atom_site_fract_z
Si Si1 0.500000 0.710408 0.573598
Si Si2 0.820672 0.500000 0.131909
Si Si3 0.181094 0.708182 0.348426
Si Si4 0.000000 0.500000 0.000000
Si Si5 0.308732 0.805975 0.788462
O O1 0.500000 0.500000 0.575142
O O2 0.500000 0.763089 0.500000
O O3 0.665128 0.767370 0.609393
O O4 0.731735 0.668471 0.157448
O O5 0.000000 0.500000 0.164186
O O6 0.860293 0.500000 0.057226
O O7 0.184174 0.500000 0.348996
O O8 0.211196 0.766418 0.275995
O O9 0.000000 0.762980 0.369946
O O10 0.500000 0.791717 0.772200
O O11 0.273972 0.000000 0.809789
#
# Coordination Sequence:
#
# PCOD9383610 Si02
#       5
#     4   4   8   1   8
#     4   9  18  32  51  79 121 166 206 253 317 380
#     4  10  21  41  63  89 121 159 201 244 296 370
#     4  10  19  32  54  84 118 157 205 262 313 366
#     4   8  24  44  64  92 128 166 204 240 306 370
#     4  11  22  36  60  93 124 158 204 260 312 361
#
# _framework density 18.701408000000001
#
# number of rings (size 3 to 8) (size 9 to 14) (size 15 to 20)
#    0.480    1.440    3.200    1.440    0.000    3.200 
#    0.000    6.400    0.000    3.840    0.000    2.240 
#    0.000    0.000    0.000    0.000    0.000    0.000 
#
# Total GULP energy -139203.352113 kJ/mol
# GULP energy per Si atom -5568.134085 kJ/mol
# Density = 1.865884 g / cm^3
# Si number density = 18.701408 Si / 1000 Ang^3
#
#
#
# Elastic Constant Matrix: (Units=GPa)
#
#
# Indices 1 2 3 4 5 6 
#
# 1 139.3844 46.4732 61.1860 0.0000 0.0000 0.0000
# 2 46.4732 64.6467 37.5111 0.0000 0.0000 0.0000
# 3 61.1860 37.5111 132.7170 0.0000 0.0000 0.0000
# 4 0.0000 0.0000 0.0000 -5.3578 0.0000 0.0000
# 5 0.0000 0.0000 0.0000 0.0000 26.5237 0.0000
# 6 0.0000 0.0000 0.0000 0.0000 0.0000 5.8457
#
#
#
# Elastic Compliance Matrix: (Units=1/GPa)
#
#
# Indices 1 2 3 4 5 6 
#
# 1 0.010480 -0.005658 -0.003232 0.000000 0.000000 0.000000
# 2 -0.005658 0.021558 -0.003485 0.000000 0.000000 0.000000
# 3 -0.003232 -0.003485 0.010010 0.000000 0.000000 0.000000
# 4 0.000000 0.000000 0.000000 -0.186644 0.000000 0.000000
# 5 0.000000 0.000000 0.000000 0.000000 0.037702 0.000000
# 6 0.000000 0.000000 0.000000 0.000000 0.000000 0.171065
#
#
# Mechanical properties :
#
#
# Convention : Reuss Voigt Hill
#
# Bulk Modulus (GPa) = 57.81100 69.67653 63.74377
# Shear Modulus (GPa) = 52.80586 18.17419 35.49003
#
# Velocity S-wave (km/s) = 5.31955 3.12077 4.36101
# Velocity P-wave (km/s) = 8.28914 7.09393 7.71472
#
# Compressibility (1/GPa) = 0.01729775
#
# Stress axis : x y z
#
# Youngs Moduli (GPa) = 95.42142 46.38595 99.90153
#
# Poissons Ratio (x) = 0.26246 0.32290
# Poissons Ratio (y) = 0.53992 0.34812
# Poissons Ratio (z) = 0.30842 0.16164
#
# Static dielectric constant tensor:
#      x y z
#    x 1.685970 0.000000 0.000000 
#    y 0.000000 1.666510 0.000000 
#    z 0.000000 0.000000 1.588250 
# 
# From -- ./inp_files/28984.got.cif
#   From: 2010.05.17/outbox.cif.g08.bks.cpg/sg47_15_cif.got.tgz:28984.got - 2010.06.03 20:15:42.
