data_PCOD9383637
_publ_section_title
;
Structure prediction by ZEFSAII (Michael W. Deem and Ramdas Pophale) SiO2 
 PCOD9383637
Probable space group: P M M M
;
_chemical_formula_sum "Si O2"
_cell_formula_units_Z 52
_cell_length_a 7.874235
_cell_length_b 29.227988
_cell_length_c 12.182669
_cell_angle_alpha 90.000000
_cell_angle_beta 90.000000
_cell_angle_gamma 90.000000
_cell_volume 2803.817467
_symmetry_space_group_name_H-M "P M M M"
_symmetry_group_IT_number 47
_symmetry_cell_setting 'orthorhombic'
loop_
_space_group_symop_operation_xyz
x,y,z
-x,-y,z
x,-y,-z
-x,y,-z
-x,-y,-z
x,y,-z
-x,y,z
x,-y,z
loop_
_atom_site_type_symbol
_atom_site_label
_atom_site_fract_x
_atom_site_fract_y
_atom_site_fract_z
Si Si1 0.797938 0.137495 0.236233
Si Si2 0.207373 0.051922 0.626013
Si Si3 0.298242 0.172815 0.000000
Si Si4 0.296319 0.773918 0.376211
Si Si5 0.205013 0.599645 0.625692
Si Si6 0.295308 0.687753 0.764087
Si Si7 0.708228 0.721436 0.000000
Si Si8 0.804529 0.500000 0.366732
O O1 0.731326 0.090611 0.290349
O O2 0.752807 0.146771 0.110339
O O3 0.738790 0.180625 0.307652
O O4 0.000000 0.135814 0.244035
O O5 0.256555 0.062726 0.500000
O O6 0.000000 0.051707 0.627914
O O7 0.262120 0.000000 0.651255
O O8 0.500000 0.176557 0.000000
O O9 0.233698 0.225467 0.000000
O O10 0.228768 0.776805 0.500000
O O11 0.500000 0.769152 0.382688
O O12 0.231043 0.729534 0.311484
O O13 0.263396 0.609238 0.500000
O O14 0.249644 0.640077 0.707844
O O15 0.271277 0.549444 0.661982
O O16 0.000000 0.596191 0.620888
O O17 0.500000 0.690569 0.766470
O O18 0.236218 0.696523 0.888457
O O19 0.500000 0.722001 0.000000
O O20 0.809541 0.500000 0.500000
O O21 0.000000 0.500000 0.326905
#
# Coordination Sequence:
#
# PCOD9383637 Si02
#       8
#     8   8   4   8   8   8   4   4
#     4  11  21  33  53  81 105 128 169 222 261 292
#     4   8  15  30  52  77 106 138 167 200 252 312
#     4  11  21  39  58  70  96 141 180 209 251 311
#     4  10  20  33  50  73 103 139 171 199 248 317
#     4   9  17  30  49  74 102 131 162 201 251 301
#     4  10  19  33  51  71  95 129 172 209 242 291
#     4   9  18  35  55  67  87 131 179 207 237 290
#     4   7  12  26  47  68  95 132 166 193 238 307
#
# _framework density 18.546143000000001
#
# number of rings (size 3 to 8) (size 9 to 14) (size 15 to 20)
#    0.000    2.538    1.538    3.000    0.000    2.462 
#    0.000    1.154    0.000    6.000    0.000    8.615 
#    0.000    0.000    0.000    0.000    0.000    0.000 
#
# Total GULP energy -290002.018989 kJ/mol
# GULP energy per Si atom -5576.961904 kJ/mol
# Density = 1.850393 g / cm^3
# Si number density = 18.546143 Si / 1000 Ang^3
#
#
#
# Elastic Constant Matrix: (Units=GPa)
#
#
# Indices 1 2 3 4 5 6 
#
# 1 17.1293 2.3452 5.2454 0.0000 0.0000 0.0000
# 2 2.3452 187.5711 114.7784 0.0000 0.0000 0.0000
# 3 5.2454 114.7784 170.2108 0.0000 0.0000 0.0000
# 4 0.0000 0.0000 0.0000 9.3069 0.0000 0.0000
# 5 0.0000 0.0000 0.0000 0.0000 9.2037 0.0000
# 6 0.0000 0.0000 0.0000 0.0000 0.0000 28.4771
#
#
#
# Elastic Compliance Matrix: (Units=1/GPa)
#
#
# Indices 1 2 3 4 5 6 
#
# 1 0.058980 0.000638 -0.002248 0.000000 0.000000 0.000000
# 2 0.000638 0.009084 -0.006145 0.000000 0.000000 0.000000
# 3 -0.002248 -0.006145 0.010088 0.000000 0.000000 0.000000
# 4 0.000000 0.000000 0.000000 0.107448 0.000000 0.000000
# 5 0.000000 0.000000 0.000000 0.000000 0.108652 0.000000
# 6 0.000000 0.000000 0.000000 0.000000 0.000000 0.035116
#
#
# Mechanical properties :
#
#
# Convention : Reuss Voigt Hill
#
# Bulk Modulus (GPa) = 15.96362 68.84994 42.40678
# Shear Modulus (GPa) = 13.67025 26.23368 19.95196
#
# Velocity S-wave (km/s) = 2.71789 3.76508 3.28350
# Velocity P-wave (km/s) = 4.29831 7.49034 6.10658
#
# Compressibility (1/GPa) = 0.06264243
#
# Stress axis : x y z
#
# Youngs Moduli (GPa) = 16.95480 110.08873 99.12658
#
# Poissons Ratio (x) = -0.07025 0.22283
# Poissons Ratio (y) = -0.01082 0.60913
# Poissons Ratio (z) = 0.03811 0.67650
#
# Static dielectric constant tensor:
#      x y z
#    x 1.685210 0.000000 0.000000 
#    y 0.000000 1.649540 0.000000 
#    z 0.000000 0.000000 1.615690 
# 
# From -- ./inp_files/15529.got.cif
#   From: 2010.05.17/outbox.cif.g08.bks.cpg/sg47_8_cif.got.tgz:15529.got - 2010.06.03 20:15:42.
