data_PCOD9383453
_publ_section_title
;
Structure prediction by ZEFSAII (Michael W. Deem and Ramdas Pophale) SiO2 
 PCOD9383453
Probable space group: P M M M
;
_chemical_formula_sum "Si O2"
_cell_formula_units_Z 64
_cell_length_a 8.770821
_cell_length_b 25.577951
_cell_length_c 15.378724
_cell_angle_alpha 90.000000
_cell_angle_beta 90.000000
_cell_angle_gamma 90.000000
_cell_volume 3450.057248
_symmetry_space_group_name_H-M "P M M M"
_symmetry_group_IT_number 47
_symmetry_cell_setting 'orthorhombic'
loop_
_space_group_symop_operation_xyz
x,y,z
-x,-y,z
x,-y,-z
-x,y,-z
-x,-y,-z
x,y,-z
-x,y,z
x,-y,z
loop_
_atom_site_type_symbol
_atom_site_label
_atom_site_fract_x
_atom_site_fract_y
_atom_site_fract_z
Si Si1 0.177305 0.305052 0.362759
Si Si2 0.183911 0.814085 0.401805
Si Si3 0.317181 0.145632 0.772137
Si Si4 0.315778 0.442205 0.785604
Si Si5 0.317716 0.412967 0.593049
Si Si6 0.816879 0.938308 0.098774
Si Si7 0.175686 0.335960 0.160146
Si Si8 0.316934 0.233301 0.905525
O O1 0.228606 0.246770 0.386513
O O2 0.275803 0.351728 0.402275
O O3 0.183352 0.314451 0.259330
O O4 0.000000 0.310750 0.389969
O O5 0.227807 0.829272 0.500000
O O6 0.252813 0.848541 0.324748
O O7 0.000000 0.815774 0.395614
O O8 0.500000 0.146006 0.768957
O O9 0.260971 0.096215 0.827456
O O10 0.262144 0.196128 0.827962
O O11 0.500000 0.437990 0.786110
O O12 0.273922 0.500000 0.817470
O O13 0.263120 0.436827 0.684408
O O14 0.248004 0.393433 0.837371
O O15 0.259757 0.433691 0.500000
O O16 0.500000 0.419651 0.593161
O O17 0.000000 0.931602 0.103535
O O18 0.784972 0.000000 0.109698
O O19 0.768507 0.923678 0.000000
O O20 0.262469 0.292430 0.105590
O O21 0.000000 0.338746 0.133879
O O22 0.500000 0.232466 0.903001
O O23 0.266414 0.213134 0.000000
#
# Coordination Sequence:
#
# PCOD9383453 Si02
#       8
#     8   8   8   8   8   8   8   8
#     4   9  17  30  47  67  95 132 173 215 260 311
#     4  10  20  34  52  74 106 150 196 236 274 322
#     4  11  22  35  55  84 120 154 186 230 277 324
#     4   9  18  32  49  67  91 128 169 208 259 323
#     4   9  17  27  41  64  92 122 161 210 260 311
#     4   9  19  37  61  88 118 154 194 232 272 325
#     4  10  19  32  52  75 100 130 168 216 264 312
#     4  10  21  36  54  79 112 146 175 207 259 328
#
# _framework density 18.550415999999998
#
# number of rings (size 3 to 8) (size 9 to 14) (size 15 to 20)
#    0.000    2.375    1.250    1.875    0.000    4.250 
#    0.000    1.875    0.000    0.750    0.000    8.750 
#    0.000    0.000    0.000    0.000    0.000    0.000 
#
# Total GULP energy -356986.237701 kJ/mol
# GULP energy per Si atom -5577.909964 kJ/mol
# Density = 1.850819 g / cm^3
# Si number density = 18.550416 Si / 1000 Ang^3
#
#
#
# Elastic Constant Matrix: (Units=GPa)
#
#
# Indices 1 2 3 4 5 6 
#
# 1 12.9357 20.4942 26.9486 0.0000 0.0000 0.0000
# 2 20.4942 92.5932 50.6637 0.0000 0.0000 0.0000
# 3 26.9486 50.6637 97.1576 0.0000 0.0000 0.0000
# 4 0.0000 0.0000 0.0000 3.7868 0.0000 0.0000
# 5 0.0000 0.0000 0.0000 0.0000 16.7676 0.0000
# 6 0.0000 0.0000 0.0000 0.0000 0.0000 23.0901
#
#
#
# Elastic Compliance Matrix: (Units=1/GPa)
#
#
# Indices 1 2 3 4 5 6 
#
# 1 0.206871 -0.020138 -0.046879 0.000000 0.000000 0.000000
# 2 -0.020138 0.017072 -0.003317 0.000000 0.000000 0.000000
# 3 -0.046879 -0.003317 0.025025 0.000000 0.000000 0.000000
# 4 0.000000 0.000000 0.000000 0.264078 0.000000 0.000000
# 5 0.000000 0.000000 0.000000 0.000000 0.059639 0.000000
# 6 0.000000 0.000000 0.000000 0.000000 0.000000 0.043309
#
#
# Mechanical properties :
#
#
# Convention : Reuss Voigt Hill
#
# Bulk Modulus (GPa) = 9.23347 44.32216 26.77782
# Shear Modulus (GPa) = 6.30707 15.70090 11.00399
#
# Velocity S-wave (km/s) = 1.84590 2.91244 2.43820
# Velocity P-wave (km/s) = 3.08730 5.93754 4.73211
#
# Compressibility (1/GPa) = 0.10830160
#
# Stress axis : x y z
#
# Youngs Moduli (GPa) = 4.83392 58.57579 39.96013
#
# Poissons Ratio (x) = 1.17958 1.87329
# Poissons Ratio (y) = 0.09734 0.13254
# Poissons Ratio (z) = 0.22661 0.19428
#
# Static dielectric constant tensor:
#      x y z
#    x 1.627020 0.000000 0.000000 
#    y 0.000000 1.624040 0.000000 
#    z 0.000000 0.000000 1.672050 
# 
# From -- ./inp_files/21879.got.cif
#   From: 2010.05.17/outbox.cif.g08.bks.cpg/sg47_11_cif.got.tgz:21879.got - 2010.06.03 20:15:42.
