data_PCOD9383295
_publ_section_title
;
Structure prediction by ZEFSAII (Michael W. Deem and Ramdas Pophale) SiO2 
 PCOD9383295
Probable space group: P M M M
;
_chemical_formula_sum "Si O2"
_cell_formula_units_Z 36
_cell_length_a 18.649189
_cell_length_b 8.184243
_cell_length_c 15.732490
_cell_angle_alpha 90.000000
_cell_angle_beta 90.000000
_cell_angle_gamma 90.000000
_cell_volume 2401.241996
_symmetry_space_group_name_H-M "P M M M"
_symmetry_group_IT_number 47
_symmetry_cell_setting 'orthorhombic'
loop_
_space_group_symop_operation_xyz
x,y,z
-x,-y,z
x,-y,-z
-x,y,-z
-x,-y,-z
x,y,-z
-x,y,z
x,-y,z
loop_
_atom_site_type_symbol
_atom_site_label
_atom_site_fract_x
_atom_site_fract_y
_atom_site_fract_z
Si Si1 0.582154 0.500000 0.396845
Si Si2 0.083454 0.806369 0.814843
Si Si3 0.916701 0.196487 0.500000
Si Si4 0.824085 0.689628 0.659380
Si Si5 0.086769 0.688342 0.000000
Si Si6 0.675306 0.815926 0.397760
O O1 0.500000 0.500000 0.367055
O O2 0.580877 0.500000 0.500000
O O3 0.623573 0.666388 0.372339
O O4 0.134399 0.721651 0.746818
O O5 0.000000 0.751193 0.805834
O O6 0.084570 0.000000 0.799122
O O7 0.107571 0.771639 0.911473
O O8 0.877238 0.262623 0.416889
O O9 0.000000 0.243425 0.500000
O O10 0.912053 0.000000 0.500000
O O11 0.804595 0.500000 0.651071
O O12 0.751583 0.792076 0.647637
O O13 0.109674 0.500000 0.000000
O O14 0.000000 0.692780 0.000000
O O15 0.687616 0.801757 0.500000
O O16 0.647431 0.000000 0.382154
#
# Coordination Sequence:
#
# PCOD9383295 Si02
#       6
#     4   8   4   8   4   8
#     4   9  18  32  50  72  94 119 156 195 231 276
#     4  10  20  33  48  66  89 120 160 204 248 293
#     4  11  23  35  45  61  87 122 165 209 247 283
#     4  12  22  32  47  66  91 124 164 203 242 287
#     4   9  17  31  49  67  87 113 149 198 251 296
#     4  10  19  32  49  68  94 127 159 193 238 286
#
# _framework density 14.992241999999999
#
# number of rings (size 3 to 8) (size 9 to 14) (size 15 to 20)
#    0.000    1.667    2.222    4.000    0.000    6.667 
#    0.000    2.222    0.000    0.000    0.000    0.000 
#    0.000    0.000    0.000    2.000    0.000    8.000 
#
# Total GULP energy -200882.788675 kJ/mol
# GULP energy per Si atom -5580.077463 kJ/mol
# Density = 1.495812 g / cm^3
# Si number density = 14.992242 Si / 1000 Ang^3
#
#
#
# Elastic Constant Matrix: (Units=GPa)
#
#
# Indices 1 2 3 4 5 6 
#
# 1 76.7078 33.6420 25.1641 0.0000 0.0000 0.0000
# 2 33.6420 88.1510 13.7857 0.0000 0.0000 0.0000
# 3 25.1641 13.7857 63.1765 0.0000 0.0000 0.0000
# 4 0.0000 0.0000 0.0000 21.8366 0.0000 0.0000
# 5 0.0000 0.0000 0.0000 0.0000 -8.8246 0.0000
# 6 0.0000 0.0000 0.0000 0.0000 0.0000 13.6763
#
#
#
# Elastic Compliance Matrix: (Units=1/GPa)
#
#
# Indices 1 2 3 4 5 6 
#
# 1 0.017429 -0.005762 -0.005685 0.000000 0.000000 0.000000
# 2 -0.005762 0.013650 -0.000683 0.000000 0.000000 0.000000
# 3 -0.005685 -0.000683 0.018242 0.000000 0.000000 0.000000
# 4 0.000000 0.000000 0.000000 0.045795 0.000000 0.000000
# 5 0.000000 0.000000 0.000000 0.000000 -0.113320 0.000000
# 6 0.000000 0.000000 0.000000 0.000000 0.000000 0.073119
#
#
# Mechanical properties :
#
#
# Convention : Reuss Voigt Hill
#
# Bulk Modulus (GPa) = 39.90420 41.46877 40.68648
# Shear Modulus (GPa) = 57.12368 15.70056 36.41212
#
# Velocity S-wave (km/s) = 6.17939 3.23963 4.93356
# Velocity P-wave (km/s) = 8.80838 6.45862 7.72338
#
# Compressibility (1/GPa) = 0.02506002
#
# Stress axis : x y z
#
# Youngs Moduli (GPa) = 57.37696 73.25884 54.81840
#
# Poissons Ratio (x) = 0.42215 0.31162
# Poissons Ratio (y) = 0.33063 0.03746
# Poissons Ratio (z) = 0.32617 0.05006
#
# Static dielectric constant tensor:
#      x y z
#    x 1.477060 0.000000 0.000000 
#    y 0.000000 1.531390 0.000000 
#    z 0.000000 0.000000 1.476380 
# 
# From -- ./inp_files/23294.got.cif
#   From: 2010.05.17/outbox.cif.g08.bks.cpg/sg47_12_cif.got.tgz:23294.got - 2010.06.03 20:15:42.
