data_PCOD9383871
_publ_section_title
;
Structure prediction by ZEFSAII (Michael W. Deem and Ramdas Pophale) SiO2 
 PCOD9383871
Probable space group: P M M M
;
_chemical_formula_sum "Si O2"
_cell_formula_units_Z 56
_cell_length_a 18.890130
_cell_length_b 19.835727
_cell_length_c 8.569919
_cell_angle_alpha 90.000000
_cell_angle_beta 90.000000
_cell_angle_gamma 90.000000
_cell_volume 3211.144036
_symmetry_space_group_name_H-M "P M M M"
_symmetry_group_IT_number 47
_symmetry_cell_setting 'orthorhombic'
loop_
_space_group_symop_operation_xyz
x,y,z
-x,-y,z
x,-y,-z
-x,y,-z
-x,-y,-z
x,y,-z
-x,y,z
x,-y,z
loop_
_atom_site_type_symbol
_atom_site_label
_atom_site_fract_x
_atom_site_fract_y
_atom_site_fract_z
Si Si1 0.149753 0.280958 0.189600
Si Si2 0.655124 0.575719 0.812257
Si Si3 0.419464 0.292271 0.313692
Si Si4 0.706402 0.205584 0.813467
Si Si5 0.177581 0.425902 0.189751
Si Si6 0.780400 0.923551 0.313183
Si Si7 0.920844 0.855629 0.810983
O O1 0.227760 0.253891 0.235097
O O2 0.139791 0.357557 0.245146
O O3 0.095974 0.221921 0.236154
O O4 0.148329 0.282954 0.000000
O O5 0.631932 0.500000 0.768589
O O6 0.610798 0.635105 0.736715
O O7 0.738732 0.581257 0.773788
O O8 0.650103 0.581894 0.000000
O O9 0.419147 0.288282 0.500000
O O10 0.500000 0.284041 0.257257
O O11 0.365959 0.236480 0.248270
O O12 0.726295 0.131575 0.753507
O O13 0.705588 0.205309 0.000000
O O14 0.153690 0.500000 0.245241
O O15 0.172823 0.427007 0.000000
O O16 0.778435 0.920737 0.500000
O O17 0.858382 0.901071 0.256680
O O18 0.765692 0.000000 0.262373
O O19 0.000000 0.875092 0.763682
O O20 0.916561 0.858622 0.000000
#
# Coordination Sequence:
#
# PCOD9383871 Si02
#       7
#     8   8   8   8   8   8   8
#     4   8  13  24  44  67  91 123 163 208 256 295
#     4   9  17  30  48  69  94 128 174 224 268 309
#     4  11  23  35  48  70 103 140 173 210 260 312
#     4  10  19  34  56  77  98 128 169 212 250 295
#     4   8  12  20  39  66  91 117 158 213 263 299
#     4  10  21  36  55  80 108 135 161 196 248 306
#     4   9  18  31  48  73 105 140 176 212 247 288
#
# _framework density 17.439267999999998
#
# number of rings (size 3 to 8) (size 9 to 14) (size 15 to 20)
#    0.000    2.714    1.429    3.000    0.000    3.429 
#    0.000    2.857    0.000    0.857    0.000    6.000 
#    0.000    0.000    0.000    3.714    0.000    4.857 
#
# Total GULP energy -312099.223595 kJ/mol
# GULP energy per Si atom -5573.200421 kJ/mol
# Density = 1.739958 g / cm^3
# Si number density = 17.439268 Si / 1000 Ang^3
#
#
#
# Elastic Constant Matrix: (Units=GPa)
#
#
# Indices 1 2 3 4 5 6 
#
# 1 41.4283 26.3353 14.2362 0.0000 0.0000 0.0000
# 2 26.3353 136.9021 21.6514 0.0000 0.0000 0.0000
# 3 14.2362 21.6514 19.3851 0.0000 0.0000 0.0000
# 4 0.0000 0.0000 0.0000 13.6929 0.0000 0.0000
# 5 0.0000 0.0000 0.0000 0.0000 14.3163 0.0000
# 6 0.0000 0.0000 0.0000 0.0000 0.0000 14.1061
#
#
#
# Elastic Compliance Matrix: (Units=1/GPa)
#
#
# Indices 1 2 3 4 5 6 
#
# 1 0.033325 -0.003085 -0.021028 0.000000 0.000000 0.000000
# 2 -0.003085 0.009157 -0.007962 0.000000 0.000000 0.000000
# 3 -0.021028 -0.007962 0.075921 0.000000 0.000000 0.000000
# 4 0.000000 0.000000 0.000000 0.073030 0.000000 0.000000
# 5 0.000000 0.000000 0.000000 0.000000 0.069850 0.000000
# 6 0.000000 0.000000 0.000000 0.000000 0.000000 0.070891
#
#
# Mechanical properties :
#
#
# Convention : Reuss Voigt Hill
#
# Bulk Modulus (GPa) = 18.43192 35.79570 27.11381
# Shear Modulus (GPa) = 12.06533 17.45590 14.76061
#
# Velocity S-wave (km/s) = 2.63315 3.16722 2.91245
# Velocity P-wave (km/s) = 4.45385 5.82628 5.18567
#
# Compressibility (1/GPa) = 0.05425370
#
# Stress axis : x y z
#
# Youngs Moduli (GPa) = 30.00745 109.20408 13.17151
#
# Poissons Ratio (x) = 0.33689 0.27697
# Poissons Ratio (y) = 0.09257 0.10487
# Poissons Ratio (z) = 0.63099 0.86950
#
# Static dielectric constant tensor:
#      x y z
#    x 1.576630 0.000000 0.000000 
#    y 0.000000 1.615870 0.000000 
#    z 0.000000 0.000000 1.593980 
# 
# From -- ./inp_files/9872.got.cif
#   From: 2010.05.17/outbox.cif.g08.bks.cpg/sg47_5_cif.got.tgz:9872.got - 2010.06.03 20:15:42.
