data_PCOD9383032
_publ_section_title
;
Structure prediction by ZEFSAII (Michael W. Deem and Ramdas Pophale) SiO2 
 PCOD9383032
Probable space group: P M M M
;
_chemical_formula_sum "Si O2"
_cell_formula_units_Z 52
_cell_length_a 20.986336
_cell_length_b 7.345829
_cell_length_c 15.505390
_cell_angle_alpha 90.000000
_cell_angle_beta 90.000000
_cell_angle_gamma 90.000000
_cell_volume 2390.342485
_symmetry_space_group_name_H-M "P M M M"
_symmetry_group_IT_number 47
_symmetry_cell_setting 'orthorhombic'
loop_
_space_group_symop_operation_xyz
x,y,z
-x,-y,z
x,-y,-z
-x,y,-z
-x,-y,-z
x,y,-z
-x,y,z
x,-y,z
loop_
_atom_site_type_symbol
_atom_site_label
_atom_site_fract_x
_atom_site_fract_y
_atom_site_fract_z
Si Si1 0.124894 0.785032 0.326198
Si Si2 0.264663 0.718246 0.599844
Si Si3 0.928203 0.292617 0.858314
Si Si4 0.573166 0.278368 0.097590
Si Si5 0.925917 0.795543 0.500000
Si Si6 0.317088 0.722511 0.226696
Si Si7 0.791222 0.721763 0.905759
O O1 0.198644 0.759917 0.350418
O O2 0.094006 0.702533 0.241416
O O3 0.093041 0.706696 0.411633
O O4 0.111392 0.000000 0.317964
O O5 0.266157 0.786124 0.500000
O O6 0.269238 0.500000 0.593219
O O7 0.315003 0.779841 0.673010
O O8 0.932430 0.500000 0.890392
O O9 0.864150 0.210741 0.899674
O O10 0.000000 0.214922 0.867313
O O11 0.500000 0.223522 0.112893
O O12 0.574339 0.500000 0.097680
O O13 0.622195 0.219043 0.170818
O O14 0.591215 0.222747 0.000000
O O15 0.000000 0.817039 0.500000
O O16 0.895440 0.000000 0.500000
O O17 0.316035 0.500000 0.226927
O O18 0.254629 0.780887 0.171654
O O19 0.793782 0.500000 0.900407
O O20 0.764700 0.767939 0.000000
#
# Coordination Sequence:
#
# PCOD9383032 Si02
#       7
#     8   8   8   8   4   8   8
#     4  11  20  32  49  66  88 118 154 195 240 287
#     4  10  19  31  48  68  93 122 154 191 233 280
#     4  10  20  33  47  65  91 119 151 193 238 283
#     4   8  13  21  36  63  98 130 157 187 226 271
#     4   9  18  30  43  61  83 107 140 185 234 284
#     4   9  15  25  42  63  91 124 155 189 228 272
#     4   9  16  26  43  66  88 114 152 194 233 273
#
# _framework density 21.754203
#
# number of rings (size 3 to 8) (size 9 to 14) (size 15 to 20)
#    0.000    2.538    2.308    1.846    0.000    3.077 
#    0.000    1.538    0.000    2.769    0.000    4.308 
#    0.000    0.615    0.000    3.077    0.000    3.077 
#
# Total GULP energy -289900.460257 kJ/mol
# GULP energy per Si atom -5575.008851 kJ/mol
# Density = 2.170469 g / cm^3
# Si number density = 21.754203 Si / 1000 Ang^3
#
#
#
# Elastic Constant Matrix: (Units=GPa)
#
#
# Indices 1 2 3 4 5 6 
#
# 1 115.8439 -0.3850 58.3444 0.0000 0.0000 0.0000
# 2 -0.3850 89.2427 2.3884 0.0000 0.0000 0.0000
# 3 58.3444 2.3884 141.8677 0.0000 0.0000 0.0000
# 4 0.0000 0.0000 0.0000 -51.7390 0.0000 0.0000
# 5 0.0000 0.0000 0.0000 0.0000 36.6054 0.0000
# 6 0.0000 0.0000 0.0000 0.0000 0.0000 100.2558
#
#
#
# Elastic Compliance Matrix: (Units=1/GPa)
#
#
# Indices 1 2 3 4 5 6 
#
# 1 0.010890 0.000167 -0.004481 0.000000 0.000000 0.000000
# 2 0.000167 0.011213 -0.000257 0.000000 0.000000 0.000000
# 3 -0.004481 -0.000257 0.008896 0.000000 0.000000 0.000000
# 4 0.000000 0.000000 0.000000 -0.019328 0.000000 0.000000
# 5 0.000000 0.000000 0.000000 0.000000 0.027318 0.000000
# 6 0.000000 0.000000 0.000000 0.000000 0.000000 0.009974
#
#
# Mechanical properties :
#
#
# Convention : Reuss Voigt Hill
#
# Bulk Modulus (GPa) = 45.75548 51.96107 48.85828
# Shear Modulus (GPa) = 76.46080 36.13155 56.29618
#
# Velocity S-wave (km/s) = 5.93497 4.07984 5.09259
# Velocity P-wave (km/s) = 8.24887 6.79197 7.55561
#
# Compressibility (1/GPa) = 0.02185531
#
# Stress axis : x y z
#
# Youngs Moduli (GPa) = 91.82825 89.18214 112.40801
#
# Poissons Ratio (x) = -0.01489 0.50374
# Poissons Ratio (y) = -0.01533 0.02894
# Poissons Ratio (z) = 0.41152 0.02296
#
# Static dielectric constant tensor:
#      x y z
#    x 1.791600 0.000000 0.000000 
#    y 0.000000 1.832170 0.000000 
#    z 0.000000 0.000000 1.833450 
# 
# From -- ./inp_files/6925.got.cif
#   From: 2010.05.17/outbox.cif.g08.bks.cpg/sg47_4_cif.got.tgz:6925.got - 2010.06.03 20:15:42.
