data_PCOD9383706
_publ_section_title
;
Structure prediction by ZEFSAII (Michael W. Deem and Ramdas Pophale) SiO2 
 PCOD9383706
Probable space group: P M M M
;
_chemical_formula_sum "Si O2"
_cell_formula_units_Z 60
_cell_length_a 20.263426
_cell_length_b 20.072376
_cell_length_c 8.294058
_cell_angle_alpha 90.000000
_cell_angle_beta 90.000000
_cell_angle_gamma 90.000000
_cell_volume 3373.484557
_symmetry_space_group_name_H-M "P M M M"
_symmetry_group_IT_number 47
_symmetry_cell_setting 'orthorhombic'
loop_
_space_group_symop_operation_xyz
x,y,z
-x,-y,z
x,-y,-z
-x,y,-z
-x,-y,-z
x,y,-z
-x,y,z
x,-y,z
loop_
_atom_site_type_symbol
_atom_site_label
_atom_site_fract_x
_atom_site_fract_y
_atom_site_fract_z
Si Si1 0.075593 0.214619 0.196568
Si Si2 0.786074 0.827834 0.194754
Si Si3 0.128243 0.639821 0.188122
Si Si4 0.000000 0.577759 0.682083
Si Si5 0.574986 0.190067 0.694464
Si Si6 0.314172 0.712265 0.191877
Si Si7 0.673410 0.924269 0.694702
Si Si8 0.261465 0.423974 0.309749
O O1 0.137374 0.168606 0.247142
O O2 0.103528 0.287391 0.242264
O O3 0.000000 0.203802 0.253386
O O4 0.072343 0.213269 0.000000
O O5 0.747811 0.759404 0.246991
O O6 0.740824 0.888068 0.254088
O O7 0.785901 0.827239 0.000000
O O8 0.188071 0.604174 0.277473
O O9 0.063688 0.596992 0.217243
O O10 0.147073 0.645229 0.000000
O O11 0.000000 0.500000 0.661479
O O12 0.000000 0.608190 0.500000
O O13 0.573097 0.187641 0.500000
O O14 0.500000 0.193506 0.754119
O O15 0.620310 0.252335 0.743000
O O16 0.614115 0.123983 0.750967
O O17 0.306287 0.635554 0.240816
O O18 0.314702 0.715967 0.000000
O O19 0.671254 0.925427 0.500000
O O20 0.668549 0.000000 0.753298
O O21 0.272625 0.426996 0.500000
O O22 0.268532 0.500000 0.245328
#
# Coordination Sequence:
#
# PCOD9383706 Si02
#       8
#     8   8   8   4   8   8   8   8
#     4   9  16  29  49  71  95 123 162 216 267 307
#     4   9  17  31  51  74  99 130 170 214 260 306
#     4  11  20  33  51  69  91 125 169 215 265 320
#     4  11  23  35  43  59  93 131 166 207 262 325
#     4   9  18  33  54  81 112 144 173 202 245 300
#     4  10  19  33  54  77 102 134 175 218 257 304
#     4   9  18  32  51  78 110 142 174 206 242 290
#     4  11  23  36  50  71 101 134 169 216 270 317
#
# _framework density 17.785762999999999
#
# number of rings (size 3 to 8) (size 9 to 14) (size 15 to 20)
#    0.000    2.200    2.000    1.800    0.000    4.533 
#    0.000    1.333    0.000    0.800    0.000    9.333 
#    0.000    0.000    0.000    0.000    0.000    0.000 
#
# Total GULP energy -334329.774982 kJ/mol
# GULP energy per Si atom -5572.162916 kJ/mol
# Density = 1.774528 g / cm^3
# Si number density = 17.785763 Si / 1000 Ang^3
#
#
#
# Elastic Constant Matrix: (Units=GPa)
#
#
# Indices 1 2 3 4 5 6 
#
# 1 158.4604 81.2279 9.4615 0.0000 0.0000 0.0000
# 2 81.2279 112.1987 8.2969 0.0000 0.0000 0.0000
# 3 9.4615 8.2969 9.0807 0.0000 0.0000 0.0000
# 4 0.0000 0.0000 0.0000 17.7779 0.0000 0.0000
# 5 0.0000 0.0000 0.0000 0.0000 20.5289 0.0000
# 6 0.0000 0.0000 0.0000 0.0000 0.0000 12.5091
#
#
#
# Elastic Compliance Matrix: (Units=1/GPa)
#
#
# Indices 1 2 3 4 5 6 
#
# 1 0.010179 -0.007062 -0.004153 0.000000 0.000000 0.000000
# 2 -0.007062 0.014458 -0.005852 0.000000 0.000000 0.000000
# 3 -0.004153 -0.005852 0.119798 0.000000 0.000000 0.000000
# 4 0.000000 0.000000 0.000000 0.056250 0.000000 0.000000
# 5 0.000000 0.000000 0.000000 0.000000 0.048712 0.000000
# 6 0.000000 0.000000 0.000000 0.000000 0.000000 0.079942
#
#
# Mechanical properties :
#
#
# Convention : Reuss Voigt Hill
#
# Bulk Modulus (GPa) = 9.06616 53.07917 31.07267
# Shear Modulus (GPa) = 12.49253 22.21340 17.35297
#
# Velocity S-wave (km/s) = 2.65314 3.53787 3.12695
# Velocity P-wave (km/s) = 3.80710 6.82621 5.52681
#
# Compressibility (1/GPa) = 0.11030024
#
# Stress axis : x y z
#
# Youngs Moduli (GPa) = 98.24453 69.16558 8.34740
#
# Poissons Ratio (x) = 0.48844 0.03467
# Poissons Ratio (y) = 0.69379 0.04885
# Poissons Ratio (z) = 0.40803 0.40476
#
# Static dielectric constant tensor:
#      x y z
#    x 1.618090 0.000000 0.000000 
#    y 0.000000 1.621370 0.000000 
#    z 0.000000 0.000000 1.641400 
# 
# From -- ./inp_files/11583.got.cif
#   From: 2010.05.17/outbox.cif.g08.bks.cpg/sg47_6_cif.got.tgz:11583.got - 2010.06.03 20:15:42.
