data_PCOD9383996
_publ_section_title
;
Structure prediction by ZEFSAII (Michael W. Deem and Ramdas Pophale) SiO2 
 PCOD9383996
Probable space group: P M M M
;
_chemical_formula_sum "Si O2"
_cell_formula_units_Z 52
_cell_length_a 23.895819
_cell_length_b 14.805264
_cell_length_c 7.910815
_cell_angle_alpha 90.000000
_cell_angle_beta 90.000000
_cell_angle_gamma 90.000000
_cell_volume 2798.719052
_symmetry_space_group_name_H-M "P M M M"
_symmetry_group_IT_number 47
_symmetry_cell_setting 'orthorhombic'
loop_
_space_group_symop_operation_xyz
x,y,z
-x,-y,z
x,-y,-z
-x,y,-z
-x,-y,-z
x,y,-z
-x,y,z
x,-y,z
loop_
_atom_site_type_symbol
_atom_site_label
_atom_site_fract_x
_atom_site_fract_y
_atom_site_fract_z
Si Si1 0.220310 0.897920 0.797670
Si Si2 0.000000 0.102784 0.701297
Si Si3 0.563114 0.895792 0.293653
Si Si4 0.888520 0.790391 0.203767
Si Si5 0.152033 0.399215 0.793673
Si Si6 0.717996 0.600757 0.796226
Si Si7 0.669858 0.787577 0.299678
O O1 0.165790 0.845106 0.732257
O O2 0.276548 0.842381 0.765856
O O3 0.223912 0.000000 0.730327
O O4 0.213704 0.903567 0.000000
O O5 0.944824 0.157353 0.753083
O O6 0.000000 0.096680 0.500000
O O7 0.000000 0.000000 0.770637
O O8 0.562624 0.893567 0.500000
O O9 0.500000 0.872625 0.238173
O O10 0.612225 0.830358 0.232554
O O11 0.574749 0.000000 0.245748
O O12 0.883820 0.686571 0.263767
O O13 0.884776 0.787162 0.000000
O O14 0.135300 0.500000 0.737153
O O15 0.217109 0.384124 0.744686
O O16 0.150997 0.400596 0.000000
O O17 0.701654 0.500000 0.739074
O O18 0.679677 0.682578 0.738190
O O19 0.717987 0.601074 0.000000
O O20 0.669284 0.799492 0.500000
#
# Coordination Sequence:
#
# PCOD9383996 Si02
#       7
#     8   4   8   8   8   8   8
#     4  10  20  33  50  74 104 135 168 209 254 303
#     4  11  25  41  54  71 100 136 171 209 256 305
#     4   8  15  29  47  67  96 137 180 214 247 296
#     4  10  19  35  58  78  97 128 173 213 242 289
#     4   8  14  28  53  80 101 124 160 204 244 288
#     4   9  17  32  53  74 101 137 171 203 247 306
#     4  11  20  29  48  78 107 131 164 213 265 311
#
# _framework density 18.579927999999999
#
# number of rings (size 3 to 8) (size 9 to 14) (size 15 to 20)
#    0.000    2.538    1.538    3.000    0.000    3.077 
#    0.000    0.385    0.000    5.077    0.000    8.615 
#    0.000    0.000    0.000    0.000    0.000    0.000 
#
# Total GULP energy -290035.599100 kJ/mol
# GULP energy per Si atom -5577.607675 kJ/mol
# Density = 1.853764 g / cm^3
# Si number density = 18.579928 Si / 1000 Ang^3
#
#
#
# Elastic Constant Matrix: (Units=GPa)
#
#
# Indices 1 2 3 4 5 6 
#
# 1 142.2988 106.9722 1.4346 0.0000 0.0000 0.0000
# 2 106.9722 185.9939 5.6265 0.0000 0.0000 0.0000
# 3 1.4346 5.6265 13.8012 0.0000 0.0000 0.0000
# 4 0.0000 0.0000 0.0000 15.8605 0.0000 0.0000
# 5 0.0000 0.0000 0.0000 0.0000 17.9860 0.0000
# 6 0.0000 0.0000 0.0000 0.0000 0.0000 84.1386
#
#
#
# Elastic Compliance Matrix: (Units=1/GPa)
#
#
# Indices 1 2 3 4 5 6 
#
# 1 0.012417 -0.007191 0.001641 0.000000 0.000000 0.000000
# 2 -0.007191 0.009608 -0.003170 0.000000 0.000000 0.000000
# 3 0.001641 -0.003170 0.073579 0.000000 0.000000 0.000000
# 4 0.000000 0.000000 0.000000 0.063050 0.000000 0.000000
# 5 0.000000 0.000000 0.000000 0.000000 0.055599 0.000000
# 6 0.000000 0.000000 0.000000 0.000000 0.000000 0.011885
#
#
# Mechanical properties :
#
#
# Convention : Reuss Voigt Hill
#
# Bulk Modulus (GPa) = 12.79350 63.35117 38.07234
# Shear Modulus (GPa) = 18.54380 38.80105 28.67243
#
# Velocity S-wave (km/s) = 3.16263 4.57478 3.93261
# Velocity P-wave (km/s) = 4.49854 7.87880 6.41531
#
# Compressibility (1/GPa) = 0.07816469
#
# Stress axis : x y z
#
# Youngs Moduli (GPa) = 80.53681 104.07774 13.59083
#
# Poissons Ratio (x) = 0.74842 -0.02230
# Poissons Ratio (y) = 0.57914 0.04308
# Poissons Ratio (z) = -0.13216 0.32989
#
# Static dielectric constant tensor:
#      x y z
#    x 1.619050 0.000000 0.000000 
#    y 0.000000 1.664990 0.000000 
#    z 0.000000 0.000000 1.684780 
# 
# From -- ./inp_files/10962.got.cif
#   From: 2010.05.17/outbox.cif.g08.bks.cpg/sg47_6_cif.got.tgz:10962.got - 2010.06.03 20:15:42.
