data_PCOD9383945
_publ_section_title
;
Structure prediction by ZEFSAII (Michael W. Deem and Ramdas Pophale) SiO2 
 PCOD9383945
Probable space group: P M M M
;
_chemical_formula_sum "Si O2"
_cell_formula_units_Z 56
_cell_length_a 14.632458
_cell_length_b 8.334609
_cell_length_c 22.096376
_cell_angle_alpha 90.000000
_cell_angle_beta 90.000000
_cell_angle_gamma 90.000000
_cell_volume 2694.781569
_symmetry_space_group_name_H-M "P M M M"
_symmetry_group_IT_number 47
_symmetry_cell_setting 'orthorhombic'
loop_
_space_group_symop_operation_xyz
x,y,z
-x,-y,z
x,-y,-z
-x,y,-z
-x,-y,-z
x,y,-z
-x,y,z
x,-y,z
loop_
_atom_site_type_symbol
_atom_site_label
_atom_site_fract_x
_atom_site_fract_y
_atom_site_fract_z
Si Si1 0.720787 0.806943 0.068135
Si Si2 0.609280 0.168253 0.429632
Si Si3 0.100443 0.177917 0.642206
Si Si4 0.395937 0.306774 0.818684
Si Si5 0.776245 0.689804 0.257306
Si Si6 0.340321 0.500000 0.569514
Si Si7 0.875527 0.500000 0.567826
Si Si8 0.893683 0.806623 0.854213
O O1 0.649459 0.741926 0.117469
O O2 0.823924 0.770409 0.090854
O O3 0.712458 0.000000 0.068223
O O4 0.705016 0.748070 0.000000
O O5 0.642937 0.174309 0.500000
O O6 0.500000 0.163193 0.432552
O O7 0.632700 0.335188 0.399216
O O8 0.642466 0.000000 0.403178
O O9 0.182496 0.209169 0.688087
O O10 0.099179 0.333193 0.599534
O O11 0.000000 0.178419 0.673495
O O12 0.109717 0.000000 0.613727
O O13 0.500000 0.247397 0.811819
O O14 0.397970 0.500000 0.816350
O O15 0.322570 0.256298 0.767560
O O16 0.773860 0.500000 0.272896
O O17 0.848051 0.717352 0.202584
O O18 0.380632 0.500000 0.500000
O O19 0.233282 0.500000 0.565312
O O20 0.908386 0.500000 0.500000
O O21 0.000000 0.765057 0.863689
O O22 0.889159 0.000000 0.843530
#
# Coordination Sequence:
#
# PCOD9383945 Si02
#       8
#     8   8   8   8   8   4   4   8
#     4   9  18  31  46  69 106 154 207 257 304 360
#     4   8  13  22  40  68  99 132 175 225 269 307
#     4  11  24  42  66  94 123 157 196 241 296 356
#     4   9  19  35  55  81 113 151 196 248 305 363
#     4  10  19  34  59  87 116 147 186 241 305 368
#     4   9  17  29  47  71 103 143 183 221 266 314
#     4  11  25  43  63  91 127 163 199 236 276 337
#     4   9  17  29  47  74 108 147 194 250 310 367
#
# _framework density 20.780906999999999
#
# number of rings (size 3 to 8) (size 9 to 14) (size 15 to 20)
#    0.000    2.571    0.714    1.714    0.000    6.000 
#    0.000    5.000    0.000    1.714    0.000    4.000 
#    0.000    0.000    0.000    0.000    0.000    0.143 
#
# Total GULP energy -312220.914784 kJ/mol
# GULP energy per Si atom -5575.373478 kJ/mol
# Density = 2.073361 g / cm^3
# Si number density = 20.780907 Si / 1000 Ang^3
#
#
#
# Elastic Constant Matrix: (Units=GPa)
#
#
# Indices 1 2 3 4 5 6 
#
# 1 152.4208 40.1292 38.8368 0.0000 0.0000 0.0000
# 2 40.1292 130.2674 34.3921 0.0000 0.0000 0.0000
# 3 38.8368 34.3921 68.6184 0.0000 0.0000 0.0000
# 4 0.0000 0.0000 0.0000 114.4438 0.0000 0.0000
# 5 0.0000 0.0000 0.0000 0.0000 12.5505 0.0000
# 6 0.0000 0.0000 0.0000 0.0000 0.0000 21.5637
#
#
#
# Elastic Compliance Matrix: (Units=1/GPa)
#
#
# Indices 1 2 3 4 5 6 
#
# 1 0.007895 -0.001443 -0.003745 0.000000 0.000000 0.000000
# 2 -0.001443 0.009111 -0.003750 0.000000 0.000000 0.000000
# 3 -0.003745 -0.003750 0.018572 0.000000 0.000000 0.000000
# 4 0.000000 0.000000 0.000000 0.008738 0.000000 0.000000
# 5 0.000000 0.000000 0.000000 0.000000 0.079678 0.000000
# 6 0.000000 0.000000 0.000000 0.000000 0.000000 0.046374
#
#
# Mechanical properties :
#
#
# Convention : Reuss Voigt Hill
#
# Bulk Modulus (GPa) = 56.48953 64.22476 60.35715
# Shear Modulus (GPa) = 25.75390 45.57484 35.66437
#
# Velocity S-wave (km/s) = 3.52420 4.68815 4.14721
# Velocity P-wave (km/s) = 6.61833 7.76387 7.21388
#
# Compressibility (1/GPa) = 0.01770240
#
# Stress axis : x y z
#
# Youngs Moduli (GPa) = 126.66208 109.75629 53.84356
#
# Poissons Ratio (x) = 0.15842 0.20165
# Poissons Ratio (y) = 0.18282 0.20189
# Poissons Ratio (z) = 0.47435 0.41155
#
# Static dielectric constant tensor:
#      x y z
#    x 1.745910 0.000000 0.000000 
#    y 0.000000 1.796640 0.000000 
#    z 0.000000 0.000000 1.740260 
# 
# From -- ./inp_files/31029.got.cif
#   From: 2010.05.17/outbox.cif.g08.bks.cpg/sg47_16_cif.got.tgz:31029.got - 2010.06.03 20:15:42.
