data_PCOD9383440
_publ_section_title
;
Structure prediction by ZEFSAII (Michael W. Deem and Ramdas Pophale) SiO2 
 PCOD9383440
Probable space group: P M M M
;
_chemical_formula_sum "Si O2"
_cell_formula_units_Z 64
_cell_length_a 20.604074
_cell_length_b 9.008230
_cell_length_c 20.215342
_cell_angle_alpha 90.000000
_cell_angle_beta 90.000000
_cell_angle_gamma 90.000000
_cell_volume 3752.093569
_symmetry_space_group_name_H-M "P M M M"
_symmetry_group_IT_number 47
_symmetry_cell_setting 'orthorhombic'
loop_
_space_group_symop_operation_xyz
x,y,z
-x,-y,z
x,-y,-z
-x,y,-z
-x,-y,-z
x,y,-z
-x,y,z
x,-y,z
loop_
_atom_site_type_symbol
_atom_site_label
_atom_site_fract_x
_atom_site_fract_y
_atom_site_fract_z
Si Si1 0.395332 0.325307 0.290956
Si Si2 0.426992 0.175649 0.154120
Si Si3 0.691130 0.325240 0.078798
Si Si4 0.238009 0.326788 0.285251
Si Si5 0.076173 0.322199 0.076413
Si Si6 0.189971 0.823948 0.155234
Si Si7 0.254924 0.675489 0.428257
Si Si8 0.604821 0.176965 0.573325
O O1 0.409733 0.500000 0.287142
O O2 0.423073 0.238576 0.228454
O O3 0.316563 0.308228 0.285589
O O4 0.419162 0.259656 0.360973
O O5 0.500000 0.199096 0.128664
O O6 0.373613 0.258444 0.110706
O O7 0.413462 0.000000 0.155010
O O8 0.695044 0.500000 0.094509
O O9 0.752444 0.244489 0.110938
O O10 0.691082 0.306984 0.000000
O O11 0.225082 0.500000 0.270757
O O12 0.205136 0.228402 0.229680
O O13 0.217166 0.293004 0.360747
O O14 0.084967 0.500000 0.082463
O O15 0.123081 0.239931 0.126647
O O16 0.000000 0.290213 0.086809
O O17 0.092195 0.282679 0.000000
O O18 0.190927 0.000000 0.150899
O O19 0.222402 0.693661 0.500000
O O20 0.274928 0.500000 0.423250
O O21 0.319313 0.775567 0.428675
O O22 0.578671 0.217801 0.500000
O O23 0.597845 0.000000 0.580951
#
# Coordination Sequence:
#
# PCOD9383440 Si02
#       8
#     8   8   8   8   8   8   8   8
#     4  10  19  32  52  73  97 132 171 212 256 308
#     4  11  24  40  58  79 102 129 164 212 269 325
#     4  11  24  41  60  80 103 134 173 214 257 311
#     4   9  17  29  47  71 101 136 173 214 258 306
#     4   9  19  37  59  80 105 141 181 218 259 310
#     4  12  23  33  52  81 113 145 176 216 261 305
#     4   8  14  25  41  63  93 130 171 213 257 305
#     4   9  16  25  41  67  98 130 163 204 255 307
#
# _framework density 17.057144999999998
#
# number of rings (size 3 to 8) (size 9 to 14) (size 15 to 20)
#    0.000    2.125    1.250    4.125    0.000    7.000 
#    0.000    1.875    0.000    0.375    0.000    2.625 
#    0.000    0.500    0.000    5.750    0.000    1.750 
#
# Total GULP energy -357107.130144 kJ/mol
# GULP energy per Si atom -5579.798908 kJ/mol
# Density = 1.701832 g / cm^3
# Si number density = 17.057145 Si / 1000 Ang^3
#
#
#
# Elastic Constant Matrix: (Units=GPa)
#
#
# Indices 1 2 3 4 5 6 
#
# 1 57.7430 45.6402 54.8382 0.0000 0.0000 0.0000
# 2 45.6402 80.3940 64.5608 0.0000 0.0000 0.0000
# 3 54.8382 64.5608 111.6028 0.0000 0.0000 0.0000
# 4 0.0000 0.0000 0.0000 14.8511 0.0000 0.0000
# 5 0.0000 0.0000 0.0000 0.0000 39.0735 0.0000
# 6 0.0000 0.0000 0.0000 0.0000 0.0000 18.1971
#
#
#
# Elastic Compliance Matrix: (Units=1/GPa)
#
#
# Indices 1 2 3 4 5 6 
#
# 1 0.038026 -0.012294 -0.011573 0.000000 0.000000 0.000000
# 2 -0.012294 0.027205 -0.009697 0.000000 0.000000 0.000000
# 3 -0.011573 -0.009697 0.020257 0.000000 0.000000 0.000000
# 4 0.000000 0.000000 0.000000 0.067335 0.000000 0.000000
# 5 0.000000 0.000000 0.000000 0.000000 0.025593 0.000000
# 6 0.000000 0.000000 0.000000 0.000000 0.000000 0.054954
#
#
# Mechanical properties :
#
#
# Convention : Reuss Voigt Hill
#
# Bulk Modulus (GPa) = 54.46609 64.42426 59.44518
# Shear Modulus (GPa) = 16.30696 20.07106 18.18901
#
# Velocity S-wave (km/s) = 3.09531 3.43402 3.26906
# Velocity P-wave (km/s) = 6.69145 7.31949 7.01250
#
# Compressibility (1/GPa) = 0.01836005
#
# Stress axis : x y z
#
# Youngs Moduli (GPa) = 26.29777 36.75744 49.36659
#
# Poissons Ratio (x) = 0.45189 0.57132
# Poissons Ratio (y) = 0.32330 0.47871
# Poissons Ratio (z) = 0.30434 0.35644
#
# Static dielectric constant tensor:
#      x y z
#    x 1.565470 0.000000 0.000000 
#    y 0.000000 1.564870 0.000000 
#    z 0.000000 0.000000 1.607980 
# 
# From -- ./inp_files/31530.got.cif
#   From: 2010.05.17/outbox.cif.g08.bks.cpg/sg47_16_cif.got.tgz:31530.got - 2010.06.03 20:15:42.
