data_PCOD9383694
_publ_section_title
;
Structure prediction by ZEFSAII (Michael W. Deem and Ramdas Pophale) SiO2 
 PCOD9383694
Probable space group: P M M M
;
_chemical_formula_sum "Si O2"
_cell_formula_units_Z 52
_cell_length_a 28.757852
_cell_length_b 12.174109
_cell_length_c 8.953696
_cell_angle_alpha 90.000000
_cell_angle_beta 90.000000
_cell_angle_gamma 90.000000
_cell_volume 3134.699937
_symmetry_space_group_name_H-M "P M M M"
_symmetry_group_IT_number 47
_symmetry_cell_setting 'orthorhombic'
loop_
_space_group_symop_operation_xyz
x,y,z
-x,-y,z
x,-y,-z
-x,y,-z
-x,-y,-z
x,y,-z
-x,y,z
x,-y,z
loop_
_atom_site_type_symbol
_atom_site_label
_atom_site_fract_x
_atom_site_fract_y
_atom_site_fract_z
Si Si1 0.799120 0.000000 0.672581
Si Si2 0.446385 0.871618 0.320537
Si Si3 0.186472 0.767472 0.819459
Si Si4 0.357056 0.214272 0.179088
Si Si5 0.000000 0.366583 0.672759
Si Si6 0.312540 0.000000 0.326617
Si Si7 0.096090 0.372070 0.820414
Si Si8 0.276233 0.374375 0.818232
O O1 0.814939 0.111263 0.752489
O O2 0.813688 0.000000 0.500000
O O3 0.743015 0.000000 0.677673
O O4 0.442362 0.864155 0.500000
O O5 0.500000 0.848426 0.280530
O O6 0.408891 0.793654 0.243789
O O7 0.436938 0.000000 0.280289
O O8 0.140833 0.698485 0.776698
O O9 0.232913 0.701690 0.770369
O O10 0.188008 0.774426 0.000000
O O11 0.324980 0.317556 0.223668
O O12 0.331384 0.107307 0.244359
O O13 0.358360 0.208878 0.000000
O O14 0.047713 0.331202 0.751151
O O15 0.000000 0.500000 0.682316
O O16 0.000000 0.335242 0.500000
O O17 0.327979 0.000000 0.500000
O O18 0.103003 0.500000 0.777396
O O19 0.092194 0.368993 0.000000
O O20 0.271926 0.500000 0.766519
O O21 0.274691 0.376310 0.000000
#
# Coordination Sequence:
#
# PCOD9383694 Si02
#       8
#     4   8   8   8   4   4   8   8
#     4  11  23  35  49  71 103 139 171 205 246 293
#     4   9  18  32  49  70  99 134 164 196 247 302
#     4  10  19  33  54  76 101 133 170 208 246 295
#     4  11  20  30  51  78 101 127 164 208 247 289
#     4   9  17  29  47  72 103 138 171 207 253 301
#     4  11  21  33  48  68 100 138 169 198 243 297
#     4   9  17  30  51  78 104 132 169 212 254 296
#     4   9  18  32  50  74 103 132 162 200 248 296
#
# _framework density 16.588511
#
# number of rings (size 3 to 8) (size 9 to 14) (size 15 to 20)
#    0.000    2.231    2.308    2.077    0.000    4.308 
#    0.000    0.769    0.000    6.000    0.000    6.462 
#    0.000    0.000    0.000    0.000    0.000    0.000 
#
# Total GULP energy -289999.550045 kJ/mol
# GULP energy per Si atom -5576.914424 kJ/mol
# Density = 1.655075 g / cm^3
# Si number density = 16.588511 Si / 1000 Ang^3
#
#
#
# Elastic Constant Matrix: (Units=GPa)
#
#
# Indices 1 2 3 4 5 6 
#
# 1 146.0390 68.2217 42.4145 0.0000 0.0000 0.0000
# 2 68.2217 113.3612 29.5639 0.0000 0.0000 0.0000
# 3 42.4145 29.5639 29.8959 0.0000 0.0000 0.0000
# 4 0.0000 0.0000 0.0000 7.5420 0.0000 0.0000
# 5 0.0000 0.0000 0.0000 0.0000 22.9060 0.0000
# 6 0.0000 0.0000 0.0000 0.0000 0.0000 22.7430
#
#
#
# Elastic Compliance Matrix: (Units=1/GPa)
#
#
# Indices 1 2 3 4 5 6 
#
# 1 0.012877 -0.004022 -0.014292 0.000000 0.000000 0.000000
# 2 -0.004022 0.013143 -0.007291 0.000000 0.000000 0.000000
# 3 -0.014292 -0.007291 0.060936 0.000000 0.000000 0.000000
# 4 0.000000 0.000000 0.000000 0.132590 0.000000 0.000000
# 5 0.000000 0.000000 0.000000 0.000000 0.043657 0.000000
# 6 0.000000 0.000000 0.000000 0.000000 0.000000 0.043970
#
#
# Mechanical properties :
#
#
# Convention : Reuss Voigt Hill
#
# Bulk Modulus (GPa) = 27.97483 63.29960 45.63721
# Shear Modulus (GPa) = 13.50262 20.57795 17.04029
#
# Velocity S-wave (km/s) = 2.85612 3.52589 3.20853
# Velocity P-wave (km/s) = 5.27040 7.40387 6.42629
#
# Compressibility (1/GPa) = 0.03574642
#
# Stress axis : x y z
#
# Youngs Moduli (GPa) = 77.65532 76.08331 16.41076
#
# Poissons Ratio (x) = 0.30604 0.23454
# Poissons Ratio (y) = 0.31237 0.11965
# Poissons Ratio (z) = 1.10984 0.55470
#
# Static dielectric constant tensor:
#      x y z
#    x 1.567050 0.000000 0.000000 
#    y 0.000000 1.536250 0.000000 
#    z 0.000000 0.000000 1.555990 
# 
# From -- ./inp_files/13291.got.cif
#   From: 2010.05.17/outbox.cif.g08.bks.cpg/sg47_7_cif.got.tgz:13291.got - 2010.06.03 20:15:42.
