data_PCOD9383664
_publ_section_title
;
Structure prediction by ZEFSAII (Michael W. Deem and Ramdas Pophale) SiO2 
 PCOD9383664
Probable space group: P M M M
;
_chemical_formula_sum "Si O2"
_cell_formula_units_Z 64
_cell_length_a 9.062153
_cell_length_b 17.920549
_cell_length_c 21.380188
_cell_angle_alpha 90.000000
_cell_angle_beta 90.000000
_cell_angle_gamma 90.000000
_cell_volume 3472.115953
_symmetry_space_group_name_H-M "P M M M"
_symmetry_group_IT_number 47
_symmetry_cell_setting 'orthorhombic'
loop_
_space_group_symop_operation_xyz
x,y,z
-x,-y,z
x,-y,-z
-x,y,-z
-x,-y,-z
x,y,-z
-x,y,z
x,-y,z
loop_
_atom_site_type_symbol
_atom_site_label
_atom_site_fract_x
_atom_site_fract_y
_atom_site_fract_z
Si Si1 0.677350 0.260026 0.431966
Si Si2 0.828897 0.365328 0.734071
Si Si3 0.822735 0.084637 0.209048
Si Si4 0.677173 0.789278 0.704648
Si Si5 0.328875 0.580779 0.851764
Si Si6 0.826300 0.583021 0.594027
Si Si7 0.823278 0.121084 0.069721
Si Si8 0.165531 0.298137 0.072826
O O1 0.718744 0.227360 0.500000
O O2 0.500000 0.265134 0.429228
O O3 0.723023 0.215467 0.369171
O O4 0.741718 0.343991 0.429589
O O5 0.733617 0.289723 0.731435
O O6 0.770301 0.413998 0.790495
O O7 0.814693 0.408842 0.668956
O O8 0.000000 0.344984 0.741758
O O9 0.747466 0.144804 0.254293
O O10 0.770544 0.089360 0.136200
O O11 0.000000 0.098339 0.208515
O O12 0.797037 0.000000 0.230941
O O13 0.500000 0.793844 0.707823
O O14 0.500000 0.586383 0.834429
O O15 0.305654 0.500000 0.883026
O O16 0.281234 0.650042 0.893441
O O17 0.774874 0.500000 0.575209
O O18 0.000000 0.588934 0.577664
O O19 0.802855 0.210207 0.076044
O O20 0.000000 0.106518 0.067656
O O21 0.766599 0.098424 0.000000
O O22 0.000000 0.310014 0.099004
O O23 0.162397 0.317611 0.000000
#
# Coordination Sequence:
#
# PCOD9383664 Si02
#       8
#     8   8   8   8   8   8   8   8
#     4   9  19  35  53  74 100 133 176 221 262 307
#     4  10  19  33  53  73  96 129 170 213 256 305
#     4  10  20  33  53  83 114 141 170 206 249 300
#     4  10  20  35  56  79 104 136 172 212 260 312
#     4  11  23  34  45  66  96 129 168 217 269 314
#     4   9  18  31  47  71 103 136 169 207 254 307
#     4   8  15  30  52  77 104 134 169 207 245 289
#     4   9  18  33  52  70  89 122 170 216 256 306
#
# _framework density 18.432563999999999
#
# number of rings (size 3 to 8) (size 9 to 14) (size 15 to 20)
#    0.000    2.500    0.000    3.000    0.000    5.250 
#    0.000    3.750    0.000    1.500    0.000    3.500 
#    0.000    0.000    0.000    0.000    0.000    0.000 
#
# Total GULP energy -356724.300718 kJ/mol
# GULP energy per Si atom -5573.817199 kJ/mol
# Density = 1.839061 g / cm^3
# Si number density = 18.432564 Si / 1000 Ang^3
#
#
#
# Elastic Constant Matrix: (Units=GPa)
#
#
# Indices 1 2 3 4 5 6 
#
# 1 31.5381 28.0022 22.4754 0.0000 0.0000 0.0000
# 2 28.0022 76.1154 55.0843 0.0000 0.0000 0.0000
# 3 22.4754 55.0843 102.2003 0.0000 0.0000 0.0000
# 4 0.0000 0.0000 0.0000 -11.7041 0.0000 0.0000
# 5 0.0000 0.0000 0.0000 0.0000 19.9496 0.0000
# 6 0.0000 0.0000 0.0000 0.0000 0.0000 -3.0149
#
#
#
# Elastic Compliance Matrix: (Units=1/GPa)
#
#
# Indices 1 2 3 4 5 6 
#
# 1 0.047263 -0.016175 -0.001676 0.000000 0.000000 0.000000
# 2 -0.016175 0.027075 -0.011036 0.000000 0.000000 0.000000
# 3 -0.001676 -0.011036 0.016102 0.000000 0.000000 0.000000
# 4 0.000000 0.000000 0.000000 -0.085440 0.000000 0.000000
# 5 0.000000 0.000000 0.000000 0.000000 0.050126 0.000000
# 6 0.000000 0.000000 0.000000 0.000000 0.000000 -0.331690
#
#
# Mechanical properties :
#
#
# Convention : Reuss Voigt Hill
#
# Bulk Modulus (GPa) = 30.61245 46.77529 38.69387
# Shear Modulus (GPa) = -24.04985 7.99894 -8.02545
#
# Velocity S-wave (km/s) = -3.61605 2.08542 -2.08888
# Velocity P-wave (km/s) = 0.88912 5.58840 3.90126
#
# Compressibility (1/GPa) = 0.03266645
#
# Stress axis : x y z
#
# Youngs Moduli (GPa) = 21.15802 36.93407 62.10600
#
# Poissons Ratio (x) = 0.59741 0.10408
# Poissons Ratio (y) = 0.34223 0.68540
# Poissons Ratio (z) = 0.03546 0.40761
#
# Static dielectric constant tensor:
#      x y z
#    x 1.620500 0.000000 0.000000 
#    y 0.000000 1.615120 0.000000 
#    z 0.000000 0.000000 1.681180 
# 
# From -- ./inp_files/11662.got.cif
#   From: 2010.05.17/outbox.cif.g08.bks.cpg/sg47_6_cif.got.tgz:11662.got - 2010.06.03 20:15:42.
