data_PCOD9383332
_publ_section_title
;
Structure prediction by ZEFSAII (Michael W. Deem and Ramdas Pophale) SiO2 
 PCOD9383332
Probable space group: P M M M
;
_chemical_formula_sum "Si O2"
_cell_formula_units_Z 60
_cell_length_a 19.938077
_cell_length_b 20.346573
_cell_length_c 7.850213
_cell_angle_alpha 90.000000
_cell_angle_beta 90.000000
_cell_angle_gamma 90.000000
_cell_volume 3184.607990
_symmetry_space_group_name_H-M "P M M M"
_symmetry_group_IT_number 47
_symmetry_cell_setting 'orthorhombic'
loop_
_space_group_symop_operation_xyz
x,y,z
-x,-y,z
x,-y,-z
-x,y,-z
-x,-y,-z
x,y,-z
-x,y,z
x,-y,z
loop_
_atom_site_type_symbol
_atom_site_label
_atom_site_fract_x
_atom_site_fract_y
_atom_site_fract_z
Si Si1 0.325520 0.714189 0.794386
Si Si2 0.846521 0.375973 0.303148
Si Si3 0.208328 0.811598 0.202354
Si Si4 0.691925 0.074565 0.705660
Si Si5 0.078808 0.500000 0.194199
Si Si6 0.575920 0.829338 0.705367
Si Si7 0.703142 0.425780 0.801340
Si Si8 0.076253 0.248772 0.702999
O O1 0.257799 0.752491 0.732572
O O2 0.387034 0.761481 0.750324
O O3 0.332947 0.639515 0.728489
O O4 0.320264 0.710779 0.000000
O O5 0.828524 0.362839 0.500000
O O6 0.897068 0.436110 0.291287
O O7 0.780204 0.401909 0.210772
O O8 0.885572 0.313510 0.227510
O O9 0.245967 0.878924 0.246889
O O10 0.132409 0.806654 0.267725
O O11 0.205930 0.805099 0.000000
O O12 0.688903 0.072618 0.500000
O O13 0.625052 0.112496 0.766952
O O14 0.696770 0.000000 0.768372
O O15 0.000000 0.500000 0.182962
O O16 0.106469 0.500000 0.000000
O O17 0.573746 0.833662 0.500000
O O18 0.500000 0.833106 0.769801
O O19 0.696274 0.500000 0.727983
O O20 0.684477 0.430831 0.000000
O O21 0.070447 0.258239 0.500000
O O22 0.000000 0.239603 0.768190
#
# Coordination Sequence:
#
# PCOD9383332 Si02
#       8
#     8   8   8   8   4   8   8   8
#     4   9  18  32  50  73 100 133 173 212 254 305
#     4  11  21  32  48  69  93 123 162 211 263 314
#     4  10  19  32  52  76 102 133 172 215 255 300
#     4   9  18  33  54  80 110 143 172 199 241 297
#     4  11  23  35  45  59  87 129 168 203 254 319
#     4   9  18  32  52  80 110 139 171 206 245 291
#     4  10  19  32  50  70  97 130 168 215 264 311
#     4  10  21  35  50  70  98 131 168 214 265 313
#
# _framework density 18.840622
#
# number of rings (size 3 to 8) (size 9 to 14) (size 15 to 20)
#    0.000    2.200    2.000    1.400    0.000    3.733 
#    0.000    1.333    0.000    0.800    0.000    9.333 
#    0.000    0.000    0.000    0.000    0.000    0.000 
#
# Total GULP energy -334431.427491 kJ/mol
# GULP energy per Si atom -5573.857125 kJ/mol
# Density = 1.879774 g / cm^3
# Si number density = 18.840622 Si / 1000 Ang^3
#
#
#
# Elastic Constant Matrix: (Units=GPa)
#
#
# Indices 1 2 3 4 5 6 
#
# 1 99.4505 68.5572 -3.7253 0.0000 0.0000 0.0000
# 2 68.5572 160.7824 4.3760 0.0000 0.0000 0.0000
# 3 -3.7253 4.3760 28.1149 0.0000 0.0000 0.0000
# 4 0.0000 0.0000 0.0000 15.8701 0.0000 0.0000
# 5 0.0000 0.0000 0.0000 0.0000 13.2088 0.0000
# 6 0.0000 0.0000 0.0000 0.0000 0.0000 11.1712
#
#
#
# Elastic Compliance Matrix: (Units=1/GPa)
#
#
# Indices 1 2 3 4 5 6 
#
# 1 0.014472 -0.006249 0.002890 0.000000 0.000000 0.000000
# 2 -0.006249 0.008945 -0.002220 0.000000 0.000000 0.000000
# 3 0.002890 -0.002220 0.036297 0.000000 0.000000 0.000000
# 4 0.000000 0.000000 0.000000 0.063011 0.000000 0.000000
# 5 0.000000 0.000000 0.000000 0.000000 0.075707 0.000000
# 6 0.000000 0.000000 0.000000 0.000000 0.000000 0.089516
#
#
# Mechanical properties :
#
#
# Convention : Reuss Voigt Hill
#
# Bulk Modulus (GPa) = 20.59545 47.41818 34.00681
# Shear Modulus (GPa) = 15.85837 22.65935 19.25886
#
# Velocity S-wave (km/s) = 2.90437 3.47174 3.20065
# Velocity P-wave (km/s) = 4.71193 6.42599 5.63452
#
# Compressibility (1/GPa) = 0.04855441
#
# Stress axis : x y z
#
# Youngs Moduli (GPa) = 69.10123 111.79817 27.55056
#
# Poissons Ratio (x) = 0.69866 -0.07963
# Poissons Ratio (y) = 0.43183 0.06117
# Poissons Ratio (z) = -0.19971 0.24822
#
# Static dielectric constant tensor:
#      x y z
#    x 1.655850 0.000000 0.000000 
#    y 0.000000 1.679260 0.000000 
#    z 0.000000 0.000000 1.715650 
# 
# From -- ./inp_files/10020.got.cif
#   From: 2010.05.17/outbox.cif.g08.bks.cpg/sg47_6_cif.got.tgz:10020.got - 2010.06.03 20:15:42.
