data_PCOD9383040
_publ_section_title
;
Structure prediction by ZEFSAII (Michael W. Deem and Ramdas Pophale) SiO2 
 PCOD9383040
Probable space group: P M M M
;
_chemical_formula_sum "Si O2"
_cell_formula_units_Z 52
_cell_length_a 18.816452
_cell_length_b 9.211790
_cell_length_c 18.170121
_cell_angle_alpha 90.000000
_cell_angle_beta 90.000000
_cell_angle_gamma 90.000000
_cell_volume 3149.485297
_symmetry_space_group_name_H-M "P M M M"
_symmetry_group_IT_number 47
_symmetry_cell_setting 'orthorhombic'
loop_
_space_group_symop_operation_xyz
x,y,z
-x,-y,z
x,-y,-z
-x,y,-z
-x,-y,-z
x,y,-z
-x,y,z
x,-y,z
loop_
_atom_site_type_symbol
_atom_site_label
_atom_site_fract_x
_atom_site_fract_y
_atom_site_fract_z
Si Si1 0.288206 0.166028 0.364152
Si Si2 0.348776 0.672191 0.859630
Si Si3 0.219011 0.165730 0.200365
Si Si4 0.081540 0.825577 0.720170
Si Si5 0.417370 0.673162 0.699817
Si Si6 0.846934 0.672562 0.582761
Si Si7 0.584905 0.170703 0.000000
O O1 0.254130 0.163269 0.281941
O O2 0.364434 0.240638 0.353640
O O3 0.231797 0.259227 0.409908
O O4 0.293006 0.000000 0.390106
O O5 0.349311 0.500000 0.871539
O O6 0.269028 0.730740 0.846757
O O7 0.392278 0.701931 0.783980
O O8 0.383778 0.754054 0.927599
O O9 0.138346 0.213546 0.216439
O O10 0.220360 0.000000 0.172144
O O11 0.105286 0.746908 0.645248
O O12 0.000000 0.793018 0.737902
O O13 0.088776 0.000000 0.709500
O O14 0.500000 0.711346 0.691067
O O15 0.409152 0.500000 0.688107
O O16 0.873824 0.698670 0.500000
O O17 0.843424 0.500000 0.595371
O O18 0.500000 0.187026 0.000000
O O19 0.602017 0.000000 0.000000
#
# Coordination Sequence:
#
# PCOD9383040 Si02
#       7
#     8   8   8   8   8   8   4
#     4   9  17  29  46  66  87 115 153 195 234 274
#     4  10  19  31  48  69  94 125 160 193 225 269
#     4   8  15  29  47  67  92 121 154 190 227 269
#     4   9  18  32  50  73  99 125 154 190 231 274
#     4   9  17  29  46  68  93 120 150 188 235 281
#     4  10  20  32  46  65  91 124 158 190 229 280
#     4  11  23  35  47  67  98 133 164 195 233 274
#
# _framework density 16.510635000000001
#
# number of rings (size 3 to 8) (size 9 to 14) (size 15 to 20)
#    0.000    2.692    0.000    3.000    0.000    7.692 
#    0.000    1.538    0.000    0.462    0.000    3.769 
#    0.000    4.308    0.000    0.000    0.000    0.000 
#
# Total GULP energy -289830.730202 kJ/mol
# GULP energy per Si atom -5573.667889 kJ/mol
# Density = 1.647306 g / cm^3
# Si number density = 16.510635 Si / 1000 Ang^3
#
#
#
# Elastic Constant Matrix: (Units=GPa)
#
#
# Indices 1 2 3 4 5 6 
#
# 1 118.4107 34.4815 9.0504 0.0000 0.0000 0.0000
# 2 34.4815 50.4904 18.9365 0.0000 0.0000 0.0000
# 3 9.0504 18.9365 21.4426 0.0000 0.0000 0.0000
# 4 0.0000 0.0000 0.0000 20.2900 0.0000 0.0000
# 5 0.0000 0.0000 0.0000 0.0000 16.5039 0.0000
# 6 0.0000 0.0000 0.0000 0.0000 0.0000 22.7424
#
#
#
# Elastic Compliance Matrix: (Units=1/GPa)
#
#
# Indices 1 2 3 4 5 6 
#
# 1 0.010660 -0.008362 0.002886 0.000000 0.000000 0.000000
# 2 -0.008362 0.036174 -0.028417 0.000000 0.000000 0.000000
# 3 0.002886 -0.028417 0.070514 0.000000 0.000000 0.000000
# 4 0.000000 0.000000 0.000000 0.049285 0.000000 0.000000
# 5 0.000000 0.000000 0.000000 0.000000 0.060592 0.000000
# 6 0.000000 0.000000 0.000000 0.000000 0.000000 0.043971
#
#
# Mechanical properties :
#
#
# Convention : Reuss Voigt Hill
#
# Bulk Modulus (GPa) = 20.17721 35.03115 27.60418
# Shear Modulus (GPa) = 14.06461 20.43229 17.24845
#
# Velocity S-wave (km/s) = 2.92182 3.52166 3.23567
# Velocity P-wave (km/s) = 4.86106 6.14813 5.54209
#
# Compressibility (1/GPa) = 0.04956087
#
# Stress axis : x y z
#
# Youngs Moduli (GPa) = 93.81145 27.64404 14.18166
#
# Poissons Ratio (x) = 0.23116 -0.04092
# Poissons Ratio (y) = 0.78446 0.40300
# Poissons Ratio (z) = -0.27070 0.78556
#
# Static dielectric constant tensor:
#      x y z
#    x 1.565840 0.000000 0.000000 
#    y 0.000000 1.554640 0.000000 
#    z 0.000000 0.000000 1.538170 
# 
# From -- ./inp_files/9533.got.cif
#   From: 2010.05.17/outbox.cif.g08.bks.cpg/sg47_5_cif.got.tgz:9533.got - 2010.06.03 20:15:42.
