data_PCOD9383192
_publ_section_title
;
Structure prediction by ZEFSAII (Michael W. Deem and Ramdas Pophale) SiO2 
 PCOD9383192
Probable space group: P M M M
;
_chemical_formula_sum "Si O2"
_cell_formula_units_Z 52
_cell_length_a 23.780763
_cell_length_b 9.163653
_cell_length_c 14.189530
_cell_angle_alpha 90.000000
_cell_angle_beta 90.000000
_cell_angle_gamma 90.000000
_cell_volume 3092.163367
_symmetry_space_group_name_H-M "P M M M"
_symmetry_group_IT_number 47
_symmetry_cell_setting 'orthorhombic'
loop_
_space_group_symop_operation_xyz
x,y,z
-x,-y,z
x,-y,-z
-x,y,-z
-x,-y,-z
x,y,-z
-x,y,z
x,-y,z
loop_
_atom_site_type_symbol
_atom_site_label
_atom_site_fract_x
_atom_site_fract_y
_atom_site_fract_z
Si Si1 0.065163 0.325997 0.307280
Si Si2 0.932367 0.163620 0.500000
Si Si3 0.649133 0.668074 0.753328
Si Si4 0.730624 0.824119 0.389275
Si Si5 0.567249 0.826434 0.893111
Si Si6 0.755364 0.336487 0.109687
Si Si7 0.170358 0.828566 0.244756
O O1 0.068668 0.500000 0.312383
O O2 0.080928 0.253764 0.407305
O O3 0.112295 0.258817 0.241108
O O4 0.000000 0.287703 0.285766
O O5 0.000000 0.149927 0.500000
O O6 0.907771 0.000000 0.500000
O O7 0.635867 0.500000 0.729469
O O8 0.678047 0.749632 0.664587
O O9 0.598082 0.746688 0.807119
O O10 0.698031 0.668364 0.832146
O O11 0.734048 0.785447 0.500000
O O12 0.787690 0.784596 0.331381
O O13 0.725125 0.000000 0.382179
O O14 0.500000 0.806635 0.887019
O O15 0.578863 0.000000 0.887454
O O16 0.584382 0.778093 0.000000
O O17 0.779866 0.500000 0.125089
O O18 0.794971 0.213440 0.152298
O O19 0.745080 0.317440 0.000000
O O20 0.159398 0.000000 0.253423
#
# Coordination Sequence:
#
# PCOD9383192 Si02
#       7
#     8   4   8   8   8   8   8
#     4  10  20  33  48  68  96 129 163 197 240 298
#     4   9  17  29  45  65  89 119 155 193 232 275
#     4  10  19  31  50  77 105 133 167 205 249 296
#     4   9  19  35  52  71  98 133 170 207 247 293
#     4   9  18  32  50  74 105 140 174 206 244 293
#     4   9  18  33  51  71  99 132 163 199 245 298
#     4  10  20  32  50  75  99 126 162 205 250 293
#
# _framework density 16.816706
#
# number of rings (size 3 to 8) (size 9 to 14) (size 15 to 20)
#    0.000    2.538    0.000    2.538    1.077    4.923 
#    0.000    0.769    0.000    0.923    0.000    6.462 
#    0.000    0.000    0.000    0.000    0.000    0.000 
#
# Total GULP energy -289714.564731 kJ/mol
# GULP energy per Si atom -5571.433937 kJ/mol
# Density = 1.677843 g / cm^3
# Si number density = 16.816706 Si / 1000 Ang^3
#
#
#
# Elastic Constant Matrix: (Units=GPa)
#
#
# Indices 1 2 3 4 5 6 
#
# 1 51.1485 32.2227 17.0855 0.0000 0.0000 0.0000
# 2 32.2227 57.1327 23.7684 0.0000 0.0000 0.0000
# 3 17.0855 23.7684 72.1931 0.0000 0.0000 0.0000
# 4 0.0000 0.0000 0.0000 61.2532 0.0000 0.0000
# 5 0.0000 0.0000 0.0000 0.0000 16.9498 0.0000
# 6 0.0000 0.0000 0.0000 0.0000 0.0000 27.3372
#
#
#
# Elastic Compliance Matrix: (Units=1/GPa)
#
#
# Indices 1 2 3 4 5 6 
#
# 1 0.030527 -0.016467 -0.001803 0.000000 0.000000 0.000000
# 2 -0.016467 0.029164 -0.005705 0.000000 0.000000 0.000000
# 3 -0.001803 -0.005705 0.016157 0.000000 0.000000 0.000000
# 4 0.000000 0.000000 0.000000 0.016326 0.000000 0.000000
# 5 0.000000 0.000000 0.000000 0.000000 0.058998 0.000000
# 6 0.000000 0.000000 0.000000 0.000000 0.000000 0.036580
#
#
# Mechanical properties :
#
#
# Convention : Reuss Voigt Hill
#
# Bulk Modulus (GPa) = 35.84491 36.29196 36.06843
# Shear Modulus (GPa) = 20.40812 28.26788 24.33800
#
# Velocity S-wave (km/s) = 3.48740 4.10437 3.80840
# Velocity P-wave (km/s) = 6.13003 6.63995 6.39008
#
# Compressibility (1/GPa) = 0.02789796
#
# Stress axis : x y z
#
# Youngs Moduli (GPa) = 32.75751 34.28909 61.89423
#
# Poissons Ratio (x) = 0.56465 0.11161
# Poissons Ratio (y) = 0.53943 0.35308
# Poissons Ratio (z) = 0.05907 0.19560
#
# Static dielectric constant tensor:
#      x y z
#    x 1.570020 0.000000 0.000000 
#    y 0.000000 1.580580 0.000000 
#    z 0.000000 0.000000 1.561280 
# 
# From -- ./inp_files/6940.got.cif
#   From: 2010.05.17/outbox.cif.g08.bks.cpg/sg47_4_cif.got.tgz:6940.got - 2010.06.03 20:15:42.
