data_PCOD9383425
_publ_section_title
;
Structure prediction by ZEFSAII (Michael W. Deem and Ramdas Pophale) SiO2 
 PCOD9383425
Probable space group: P M M M
;
_chemical_formula_sum "Si O2"
_cell_formula_units_Z 48
_cell_length_a 8.563245
_cell_length_b 19.071493
_cell_length_c 16.968272
_cell_angle_alpha 90.000000
_cell_angle_beta 90.000000
_cell_angle_gamma 90.000000
_cell_volume 2771.154118
_symmetry_space_group_name_H-M "P M M M"
_symmetry_group_IT_number 47
_symmetry_cell_setting 'orthorhombic'
loop_
_space_group_symop_operation_xyz
x,y,z
-x,-y,z
x,-y,-z
-x,y,-z
-x,-y,-z
x,y,-z
-x,y,z
x,-y,z
loop_
_atom_site_type_symbol
_atom_site_label
_atom_site_fract_x
_atom_site_fract_y
_atom_site_fract_z
Si Si1 0.188533 0.078441 0.184257
Si Si2 0.188854 0.215723 0.910068
Si Si3 0.313343 0.704311 0.763462
Si Si4 0.813017 0.815340 0.500000
Si Si5 0.811217 0.580399 0.337120
Si Si6 0.190168 0.347330 0.500000
Si Si7 0.313088 0.156985 0.332189
O O1 0.238557 0.139661 0.124138
O O2 0.249761 0.100501 0.270168
O O3 0.000000 0.079269 0.185955
O O4 0.239673 0.000000 0.162924
O O5 0.252167 0.272865 0.848930
O O6 0.000000 0.217712 0.908342
O O7 0.240037 0.225293 0.000000
O O8 0.500000 0.702560 0.764129
O O9 0.248020 0.631737 0.730832
O O10 0.263385 0.767165 0.703802
O O11 0.759121 0.733663 0.500000
O O12 0.751800 0.849721 0.419890
O O13 0.000000 0.815953 0.500000
O O14 0.759767 0.500000 0.329061
O O15 0.759014 0.612852 0.420981
O O16 0.000000 0.581161 0.336937
O O17 0.000000 0.347389 0.500000
O O18 0.500000 0.154728 0.333381
#
# Coordination Sequence:
#
# PCOD9383425 Si02
#       7
#     8   8   8   4   8   4   8
#     4   9  18  33  53  77 105 134 164 201 248 301
#     4   9  18  33  55  81 105 130 163 203 248 300
#     4  10  20  33  50  72 102 137 171 207 248 298
#     4  11  19  30  52  74  96 131 174 219 258 293
#     4  10  19  32  51  75 104 137 173 211 252 299
#     4   9  17  29  48  74 102 132 167 210 253 293
#     4  10  20  33  49  71 100 135 174 212 250 295
#
# _framework density 17.321303
#
# number of rings (size 3 to 8) (size 9 to 14) (size 15 to 20)
#    0.000    2.333    1.667    1.500    0.000    3.667 
#    0.000    2.500    0.000    4.000    0.000    8.167 
#    0.000    0.000    0.000    0.000    0.000    0.000 
#
# Total GULP energy -267809.173410 kJ/mol
# GULP energy per Si atom -5579.357779 kJ/mol
# Density = 1.728188 g / cm^3
# Si number density = 17.321303 Si / 1000 Ang^3
#
#
#
# Elastic Constant Matrix: (Units=GPa)
#
#
# Indices 1 2 3 4 5 6 
#
# 1 10.8322 11.3254 17.6988 0.0000 0.0000 0.0000
# 2 11.3254 82.5267 47.1297 0.0000 0.0000 0.0000
# 3 17.6988 47.1297 147.9082 0.0000 0.0000 0.0000
# 4 0.0000 0.0000 0.0000 14.0961 0.0000 0.0000
# 5 0.0000 0.0000 0.0000 0.0000 8.6519 0.0000
# 6 0.0000 0.0000 0.0000 0.0000 0.0000 15.1131
#
#
#
# Elastic Compliance Matrix: (Units=1/GPa)
#
#
# Indices 1 2 3 4 5 6 
#
# 1 0.121427 -0.010227 -0.011271 0.000000 0.000000 0.000000
# 2 -0.010227 0.015674 -0.003771 0.000000 0.000000 0.000000
# 3 -0.011271 -0.003771 0.009311 0.000000 0.000000 0.000000
# 4 0.000000 0.000000 0.000000 0.070941 0.000000 0.000000
# 5 0.000000 0.000000 0.000000 0.000000 0.115581 0.000000
# 6 0.000000 0.000000 0.000000 0.000000 0.000000 0.066168
#
#
# Mechanical properties :
#
#
# Convention : Reuss Voigt Hill
#
# Bulk Modulus (GPa) = 10.43033 43.73054 27.08043
# Shear Modulus (GPa) = 10.38209 18.57976 14.48093
#
# Velocity S-wave (km/s) = 2.45089 3.27869 2.89453
# Velocity P-wave (km/s) = 3.74751 6.29560 5.18066
#
# Compressibility (1/GPa) = 0.09587425
#
# Stress axis : x y z
#
# Youngs Moduli (GPa) = 8.23542 63.79941 107.39774
#
# Poissons Ratio (x) = 0.65247 1.21052
# Poissons Ratio (y) = 0.08422 0.40496
# Poissons Ratio (z) = 0.09282 0.24057
#
# Static dielectric constant tensor:
#      x y z
#    x 1.580620 0.000000 0.000000 
#    y 0.000000 1.583480 0.000000 
#    z 0.000000 0.000000 1.568000 
# 
# From -- ./inp_files/6516.got.cif
#   From: 2010.05.17/outbox.cif.g08.bks.cpg/sg47_4_cif.got.tgz:6516.got - 2010.06.03 20:15:42.
