data_PCOD9383300
_publ_section_title
;
Structure prediction by ZEFSAII (Michael W. Deem and Ramdas Pophale) SiO2 
 PCOD9383300
Probable space group: P M M M
;
_chemical_formula_sum "Si O2"
_cell_formula_units_Z 52
_cell_length_a 14.118838
_cell_length_b 27.767286
_cell_length_c 8.085712
_cell_angle_alpha 90.000000
_cell_angle_beta 90.000000
_cell_angle_gamma 90.000000
_cell_volume 3169.937190
_symmetry_space_group_name_H-M "P M M M"
_symmetry_group_IT_number 47
_symmetry_cell_setting 'orthorhombic'
loop_
_space_group_symop_operation_xyz
x,y,z
-x,-y,z
x,-y,-z
-x,y,-z
-x,-y,-z
x,y,-z
-x,y,z
x,-y,z
loop_
_atom_site_type_symbol
_atom_site_label
_atom_site_fract_x
_atom_site_fract_y
_atom_site_fract_z
Si Si1 0.262088 0.688987 0.810359
Si Si2 0.387154 0.500000 0.196921
Si Si3 0.385241 0.116751 0.816758
Si Si4 0.615653 0.944219 0.500000
Si Si5 0.611554 0.603844 0.694451
Si Si6 0.609122 0.776705 0.302888
Si Si7 0.887071 0.620633 0.685647
Si Si8 0.885140 0.445012 0.000000
O O1 0.333802 0.643980 0.795309
O O2 0.318144 0.734719 0.741133
O O3 0.170380 0.669898 0.713127
O O4 0.236432 0.697533 0.000000
O O5 0.500000 0.500000 0.235070
O O6 0.351448 0.550092 0.270324
O O7 0.376437 0.500000 0.000000
O O8 0.500000 0.113437 0.817034
O O9 0.352336 0.083695 0.665078
O O10 0.364645 0.172773 0.781335
O O11 0.351788 0.102710 0.000000
O O12 0.500000 0.942854 0.500000
O O13 0.643700 0.000000 0.500000
O O14 0.621554 0.614785 0.500000
O O15 0.500000 0.605139 0.735807
O O16 0.608584 0.784234 0.500000
O O17 0.500000 0.764035 0.254374
O O18 0.866198 0.602095 0.500000
O O19 0.859361 0.584522 0.834586
O O20 0.000000 0.627940 0.697344
O O21 0.849309 0.500000 0.000000
O O22 0.000000 0.447459 0.000000
#
# Coordination Sequence:
#
# PCOD9383300 Si02
#       8
#     8   4   8   4   8   8   8   4
#     4  12  23  34  50  73  96 120 158 198 234 285
#     4   9  17  31  49  65  84 113 144 179 229 279
#     4   9  16  27  42  61  88 123 163 205 251 291
#     4   9  16  26  40  60  88 124 167 210 250 289
#     4  10  20  34  49  66  90 118 149 186 227 277
#     4  10  19  32  49  69  97 130 164 207 250 290
#     4  10  21  39  59  77 101 127 152 190 237 289
#     4   9  18  36  60  82 101 121 149 187 235 290
#
# _framework density 16.404111
#
# number of rings (size 3 to 8) (size 9 to 14) (size 15 to 20)
#    0.000    2.077    1.538    3.000    0.000    5.231 
#    1.385    3.077    0.000    0.000    0.000    0.000 
#    0.000    0.000    0.000    0.000    0.000    1.538 
#
# Total GULP energy -290161.770036 kJ/mol
# GULP energy per Si atom -5580.034039 kJ/mol
# Density = 1.636677 g / cm^3
# Si number density = 16.404111 Si / 1000 Ang^3
#
#
#
# Elastic Constant Matrix: (Units=GPa)
#
#
# Indices 1 2 3 4 5 6 
#
# 1 47.3390 25.0286 17.3762 0.0000 0.0000 0.0000
# 2 25.0286 94.4714 57.3478 0.0000 0.0000 0.0000
# 3 17.3762 57.3478 114.9273 0.0000 0.0000 0.0000
# 4 0.0000 0.0000 0.0000 7.7190 0.0000 0.0000
# 5 0.0000 0.0000 0.0000 0.0000 14.3068 0.0000
# 6 0.0000 0.0000 0.0000 0.0000 0.0000 4.0071
#
#
#
# Elastic Compliance Matrix: (Units=1/GPa)
#
#
# Indices 1 2 3 4 5 6 
#
# 1 0.024601 -0.006111 -0.000670 0.000000 0.000000 0.000000
# 2 -0.006111 0.016703 -0.007411 0.000000 0.000000 0.000000
# 3 -0.000670 -0.007411 0.012500 0.000000 0.000000 0.000000
# 4 0.000000 0.000000 0.000000 0.129551 0.000000 0.000000
# 5 0.000000 0.000000 0.000000 0.000000 0.069897 0.000000
# 6 0.000000 0.000000 0.000000 0.000000 0.000000 0.249556
#
#
# Mechanical properties :
#
#
# Convention : Reuss Voigt Hill
#
# Bulk Modulus (GPa) = 39.33782 50.69363 45.01573
# Shear Modulus (GPa) = 9.26500 15.67224 12.46862
#
# Velocity S-wave (km/s) = 2.37913 3.09428 2.75997
# Velocity P-wave (km/s) = 5.61956 6.61334 6.13660
#
# Compressibility (1/GPa) = 0.02542083
#
# Stress axis : x y z
#
# Youngs Moduli (GPa) = 40.64859 59.87066 79.99791
#
# Poissons Ratio (x) = 0.36585 0.05362
# Poissons Ratio (y) = 0.24839 0.59283
# Poissons Ratio (z) = 0.02725 0.44368
#
# Static dielectric constant tensor:
#      x y z
#    x 1.554630 0.000000 0.000000 
#    y 0.000000 1.536870 0.000000 
#    z 0.000000 0.000000 1.595220 
# 
# From -- ./inp_files/7714.got.cif
#   From: 2010.05.17/outbox.cif.g08.bks.cpg/sg47_4_cif.got.tgz:7714.got - 2010.06.03 20:15:42.
