data_PCOD9383508
_publ_section_title
;
Structure prediction by ZEFSAII (Michael W. Deem and Ramdas Pophale) SiO2 
 PCOD9383508
Probable space group: P M M M
;
_chemical_formula_sum "Si O2"
_cell_formula_units_Z 52
_cell_length_a 18.339237
_cell_length_b 13.756799
_cell_length_c 12.351630
_cell_angle_alpha 90.000000
_cell_angle_beta 90.000000
_cell_angle_gamma 90.000000
_cell_volume 3116.182817
_symmetry_space_group_name_H-M "P M M M"
_symmetry_group_IT_number 47
_symmetry_cell_setting 'orthorhombic'
loop_
_space_group_symop_operation_xyz
x,y,z
-x,-y,z
x,-y,-z
-x,y,-z
-x,-y,-z
x,y,-z
-x,y,z
x,-y,z
loop_
_atom_site_type_symbol
_atom_site_label
_atom_site_fract_x
_atom_site_fract_y
_atom_site_fract_z
Si Si1 0.913902 0.881543 0.000000
Si Si2 0.421760 0.384242 0.500000
Si Si3 0.416749 0.115510 0.296182
Si Si4 0.137143 0.884032 0.233477
Si Si5 0.735198 0.195713 0.374148
Si Si6 0.320036 0.613636 0.296182
Si Si7 0.416617 0.284761 0.127235
Si Si8 0.000000 0.118761 0.624457
O O1 0.875008 0.847728 0.889312
O O2 0.000000 0.855290 0.000000
O O3 0.912143 0.000000 0.000000
O O4 0.429574 0.500000 0.500000
O O5 0.500000 0.335863 0.500000
O O6 0.378858 0.365069 0.609123
O O7 0.500000 0.130898 0.339408
O O8 0.347470 0.153722 0.364257
O O9 0.411903 0.180692 0.187394
O O10 0.409038 0.000000 0.278273
O O11 0.212383 0.861993 0.293435
O O12 0.071344 0.848923 0.310148
O O13 0.129859 0.000000 0.226996
O O14 0.756934 0.190151 0.500000
O O15 0.739174 0.306462 0.329504
O O16 0.300219 0.500000 0.298728
O O17 0.359431 0.644442 0.185514
O O18 0.500000 0.320486 0.144137
O O19 0.403783 0.276094 0.000000
O O20 0.000000 0.150512 0.500000
O O21 0.000000 0.000000 0.623570
#
# Coordination Sequence:
#
# PCOD9383508 Si02
#       8
#     4   4   8   8   8   8   8   4
#     4   9  16  32  56  80 108 140 172 205 246 306
#     4   9  16  28  50  74  91 116 161 216 273 324
#     4   9  19  35  51  69  98 140 186 223 256 297
#     4  10  19  32  52  79 110 141 172 207 252 304
#     4  11  22  35  50  75 105 138 176 221 265 315
#     4  10  20  35  51  70  97 129 168 215 269 321
#     4   9  18  32  50  72  95 121 160 213 271 325
#     4   9  16  27  47  77 110 141 165 196 251 314
#
# _framework density 16.687083000000001
#
# number of rings (size 3 to 8) (size 9 to 14) (size 15 to 20)
#    0.000    2.385    1.538    1.385    0.000    4.308 
#    5.538    3.077    0.000    0.000    0.000    0.538 
#    0.000    2.462    0.000    0.000    0.000    0.000 
#
# Total GULP energy -289523.894672 kJ/mol
# GULP energy per Si atom -5567.767205 kJ/mol
# Density = 1.664910 g / cm^3
# Si number density = 16.687083 Si / 1000 Ang^3
#
#
#
# Elastic Constant Matrix: (Units=GPa)
#
#
# Indices 1 2 3 4 5 6 
#
# 1 60.0190 10.0722 38.1774 0.0000 0.0000 0.0000
# 2 10.0722 47.9990 14.2863 0.0000 0.0000 0.0000
# 3 38.1774 14.2863 127.1380 0.0000 0.0000 0.0000
# 4 0.0000 0.0000 0.0000 15.2472 0.0000 0.0000
# 5 0.0000 0.0000 0.0000 0.0000 28.2918 0.0000
# 6 0.0000 0.0000 0.0000 0.0000 0.0000 4.1878
#
#
#
# Elastic Compliance Matrix: (Units=1/GPa)
#
#
# Indices 1 2 3 4 5 6 
#
# 1 0.020905 -0.002606 -0.005985 0.000000 0.000000 0.000000
# 2 -0.002606 0.021879 -0.001676 0.000000 0.000000 0.000000
# 3 -0.005985 -0.001676 0.009851 0.000000 0.000000 0.000000
# 4 0.000000 0.000000 0.000000 0.065586 0.000000 0.000000
# 5 0.000000 0.000000 0.000000 0.000000 0.035346 0.000000
# 6 0.000000 0.000000 0.000000 0.000000 0.000000 0.238792
#
#
# Mechanical properties :
#
#
# Convention : Reuss Voigt Hill
#
# Bulk Modulus (GPa) = 31.14984 40.02529 35.58757
# Shear Modulus (GPa) = 11.80378 21.05337 16.42858
#
# Velocity S-wave (km/s) = 2.66251 3.55583 3.14109
# Velocity P-wave (km/s) = 5.30655 6.39503 5.87605
#
# Compressibility (1/GPa) = 0.03210289
#
# Stress axis : x y z
#
# Youngs Moduli (GPa) = 47.83432 45.70511 101.51316
#
# Poissons Ratio (x) = 0.11909 0.60753
# Poissons Ratio (y) = 0.12463 0.17015
# Poissons Ratio (z) = 0.28628 0.07661
#
# Static dielectric constant tensor:
#      x y z
#    x 1.625090 0.000000 0.000000 
#    y 0.000000 1.565860 0.000000 
#    z 0.000000 0.000000 1.564050 
# 
# From -- ./inp_files/18627.got.cif
#   From: 2010.05.17/outbox.cif.g08.bks.cpg/sg47_10_cif.got.tgz:18627.got - 2010.06.03 20:15:42.
