data_PCOD9383146
_publ_section_title
;
Structure prediction by ZEFSAII (Michael W. Deem and Ramdas Pophale) SiO2 
 PCOD9383146
Probable space group: P M M M
;
_chemical_formula_sum "Si O2"
_cell_formula_units_Z 48
_cell_length_a 14.402348
_cell_length_b 10.472613
_cell_length_c 18.439129
_cell_angle_alpha 90.000000
_cell_angle_beta 90.000000
_cell_angle_gamma 90.000000
_cell_volume 2781.177826
_symmetry_space_group_name_H-M "P M M M"
_symmetry_group_IT_number 47
_symmetry_cell_setting 'orthorhombic'
loop_
_space_group_symop_operation_xyz
x,y,z
-x,-y,z
x,-y,-z
-x,y,-z
-x,-y,-z
x,y,-z
-x,y,z
x,-y,z
loop_
_atom_site_type_symbol
_atom_site_label
_atom_site_fract_x
_atom_site_fract_y
_atom_site_fract_z
Si Si1 0.111679 0.500000 0.580855
Si Si2 0.891516 0.740395 0.681018
Si Si3 0.243372 0.850634 0.915184
Si Si4 0.700806 0.850962 0.649239
Si Si5 0.609347 0.843917 0.500000
Si Si6 0.890871 0.352663 0.847542
Si Si7 0.394826 0.844898 0.204517
O O1 0.151346 0.500000 0.500000
O O2 0.132692 0.375621 0.627347
O O3 0.000000 0.500000 0.574833
O O4 0.810969 0.839969 0.662776
O O5 0.882641 0.690579 0.763401
O O6 0.000000 0.778649 0.670349
O O7 0.163458 0.750673 0.894866
O O8 0.329398 0.815907 0.863425
O O9 0.217554 0.000000 0.899833
O O10 0.266390 0.842750 0.000000
O O11 0.662203 0.798946 0.572935
O O12 0.650151 0.796088 0.720513
O O13 0.676545 0.000000 0.647659
O O14 0.500000 0.809161 0.500000
O O15 0.612536 0.000000 0.500000
O O16 0.858748 0.500000 0.855410
O O17 0.000000 0.350027 0.865429
O O18 0.500000 0.799758 0.196240
O O19 0.397127 0.000000 0.208194
#
# Coordination Sequence:
#
# PCOD9383146 Si02
#       7
#     4   8   8   8   4   8   8
#     4   9  18  32  50  72  97 129 172 217 256 298
#     4  10  19  32  51  75 103 135 174 216 257 308
#     4  10  21  36  54  81 113 140 174 224 280 331
#     4  10  19  31  49  77 108 137 171 210 260 320
#     4   9  18  32  49  72 105 140 173 216 263 309
#     4  10  20  36  57  79 107 144 184 222 261 315
#     4   9  17  31  52  76 102 135 176 220 264 313
#
# _framework density 17.258873000000001
#
# number of rings (size 3 to 8) (size 9 to 14) (size 15 to 20)
#    0.000    2.333    2.500    0.500    1.167    3.667 
#    0.000    5.000    0.000    2.000    0.000    3.500 
#    0.000    0.000    0.000    0.000    0.000    0.000 
#
# Total GULP energy -267281.541272 kJ/mol
# GULP energy per Si atom -5568.365443 kJ/mol
# Density = 1.721959 g / cm^3
# Si number density = 17.258873 Si / 1000 Ang^3
#
#
#
# Elastic Constant Matrix: (Units=GPa)
#
#
# Indices 1 2 3 4 5 6 
#
# 1 99.4024 26.7371 58.1971 0.0000 0.0000 0.0000
# 2 26.7371 30.5908 36.9444 0.0000 0.0000 0.0000
# 3 58.1971 36.9444 131.0779 0.0000 0.0000 0.0000
# 4 0.0000 0.0000 0.0000 24.3142 0.0000 0.0000
# 5 0.0000 0.0000 0.0000 0.0000 10.3607 0.0000
# 6 0.0000 0.0000 0.0000 0.0000 0.0000 -6.1568
#
#
#
# Elastic Compliance Matrix: (Units=1/GPa)
#
#
# Indices 1 2 3 4 5 6 
#
# 1 0.014648 -0.007502 -0.004389 0.000000 0.000000 0.000000
# 2 -0.007502 0.053401 -0.011720 0.000000 0.000000 0.000000
# 3 -0.004389 -0.011720 0.012881 0.000000 0.000000 0.000000
# 4 0.000000 0.000000 0.000000 0.041128 0.000000 0.000000
# 5 0.000000 0.000000 0.000000 0.000000 0.096518 0.000000
# 6 0.000000 0.000000 0.000000 0.000000 0.000000 -0.162423
#
#
# Mechanical properties :
#
#
# Convention : Reuss Voigt Hill
#
# Bulk Modulus (GPa) = 29.66708 56.09204 42.87956
# Shear Modulus (GPa) = 43.62566 14.98313 29.30440
#
# Velocity S-wave (km/s) = 5.03310 2.94962 4.12507
# Velocity P-wave (km/s) = 7.14163 6.64615 6.89834
#
# Compressibility (1/GPa) = 0.03370739
#
# Stress axis : x y z
#
# Youngs Moduli (GPa) = 68.27086 18.72620 77.63300
#
# Poissons Ratio (x) = 0.14048 0.34073
# Poissons Ratio (y) = 0.51215 0.90989
# Poissons Ratio (z) = 0.29964 0.21948
#
# Static dielectric constant tensor:
#      x y z
#    x 1.579800 0.000000 0.000000 
#    y 0.000000 1.595400 0.000000 
#    z 0.000000 0.000000 1.601430 
# 
# From -- ./inp_files/9202.got.cif
#   From: 2010.05.17/outbox.cif.g08.bks.cpg/sg47_5_cif.got.tgz:9202.got - 2010.06.03 20:15:42.
