data_PCOD9383041
_publ_section_title
;
Structure prediction by ZEFSAII (Michael W. Deem and Ramdas Pophale) SiO2 
 PCOD9383041
Probable space group: P M M M
;
_chemical_formula_sum "Si O2"
_cell_formula_units_Z 52
_cell_length_a 8.976486
_cell_length_b 19.172914
_cell_length_c 19.421180
_cell_angle_alpha 90.000000
_cell_angle_beta 90.000000
_cell_angle_gamma 90.000000
_cell_volume 3342.489838
_symmetry_space_group_name_H-M "P M M M"
_symmetry_group_IT_number 47
_symmetry_cell_setting 'orthorhombic'
loop_
_space_group_symop_operation_xyz
x,y,z
-x,-y,z
x,-y,-z
-x,y,-z
-x,-y,-z
x,y,-z
-x,y,z
x,-y,z
loop_
_atom_site_type_symbol
_atom_site_label
_atom_site_fract_x
_atom_site_fract_y
_atom_site_fract_z
Si Si1 0.178782 0.646234 0.078693
Si Si2 0.678309 0.079680 0.918592
Si Si3 0.321884 0.418885 0.500000
Si Si4 0.678427 0.719800 0.284462
Si Si5 0.679423 0.422049 0.209646
Si Si6 0.822503 0.209993 0.845292
Si Si7 0.176325 0.301567 0.423784
O O1 0.255090 0.596863 0.134836
O O2 0.211158 0.725689 0.102600
O O3 0.000000 0.637000 0.082218
O O4 0.226482 0.634622 0.000000
O O5 0.500000 0.087386 0.909731
O O6 0.762645 0.138324 0.876177
O O7 0.717921 0.000000 0.899628
O O8 0.709823 0.088178 0.000000
O O9 0.286547 0.500000 0.500000
O O10 0.500000 0.410212 0.500000
O O11 0.250954 0.377633 0.435628
O O12 0.500000 0.723628 0.286071
O O13 0.723324 0.641204 0.260212
O O14 0.743494 0.770220 0.226137
O O15 0.746309 0.733660 0.359261
O O16 0.500000 0.420754 0.205668
O O17 0.725729 0.500000 0.230870
O O18 0.000000 0.207852 0.835996
O O19 0.200144 0.268159 0.500000
O O20 0.000000 0.307649 0.413046
#
# Coordination Sequence:
#
# PCOD9383041 Si02
#       7
#     8   8   4   8   8   8   8
#     4   9  18  31  45  62  84 111 146 188 233 279
#     4   9  18  32  49  71 101 134 165 198 237 282
#     4   9  17  29  45  65  89 119 154 189 230 285
#     4  10  19  32  50  68  90 122 158 194 237 287
#     4   9  19  33  45  60  82 109 146 191 236 280
#     4  10  19  31  48  69  95 124 158 196 236 281
#     4   9  19  32  47  67  93 118 146 189 236 282
#
# _framework density 15.557264999999999
#
# number of rings (size 3 to 8) (size 9 to 14) (size 15 to 20)
#    0.462    2.231    0.000    2.308    0.000    4.615 
#    0.000    3.846    0.000    0.000    0.000    0.000 
#    0.000    0.615    0.000    6.462    0.000    2.769 
#
# Total GULP energy -289652.056882 kJ/mol
# GULP energy per Si atom -5570.231863 kJ/mol
# Density = 1.552186 g / cm^3
# Si number density = 15.557265 Si / 1000 Ang^3
#
#
#
# Elastic Constant Matrix: (Units=GPa)
#
#
# Indices 1 2 3 4 5 6 
#
# 1 40.5713 27.8546 33.3327 0.0000 0.0000 0.0000
# 2 27.8546 67.9384 22.3018 0.0000 0.0000 0.0000
# 3 33.3327 22.3018 81.2840 0.0000 0.0000 0.0000
# 4 0.0000 0.0000 0.0000 14.5771 0.0000 0.0000
# 5 0.0000 0.0000 0.0000 0.0000 26.6182 0.0000
# 6 0.0000 0.0000 0.0000 0.0000 0.0000 18.7349
#
#
#
# Elastic Compliance Matrix: (Units=1/GPa)
#
#
# Indices 1 2 3 4 5 6 
#
# 1 0.047081 -0.014249 -0.015397 0.000000 0.000000 0.000000
# 2 -0.014249 0.020488 0.000222 0.000000 0.000000 0.000000
# 3 -0.015397 0.000222 0.018556 0.000000 0.000000 0.000000
# 4 0.000000 0.000000 0.000000 0.068601 0.000000 0.000000
# 5 0.000000 0.000000 0.000000 0.000000 0.037568 0.000000
# 6 0.000000 0.000000 0.000000 0.000000 0.000000 0.053376
#
#
# Mechanical properties :
#
#
# Convention : Reuss Voigt Hill
#
# Bulk Modulus (GPa) = 36.66185 39.64132 38.15158
# Shear Modulus (GPa) = 15.94334 19.07302 17.50818
#
# Velocity S-wave (km/s) = 3.20475 3.50521 3.35834
# Velocity P-wave (km/s) = 6.10826 6.47443 6.29400
#
# Compressibility (1/GPa) = 0.02727631
#
# Stress axis : x y z
#
# Youngs Moduli (GPa) = 21.24017 48.80830 53.89135
#
# Poissons Ratio (x) = 0.69545 0.82978
# Poissons Ratio (y) = 0.30264 -0.01194
# Poissons Ratio (z) = 0.32704 -0.01082
#
# Static dielectric constant tensor:
#      x y z
#    x 1.514130 0.000000 0.000000 
#    y 0.000000 1.503980 0.000000 
#    z 0.000000 0.000000 1.524500 
# 
# From -- ./inp_files/26953.got.cif
#   From: 2010.05.17/outbox.cif.g08.bks.cpg/sg47_14_cif.got.tgz:26953.got - 2010.06.03 20:15:42.
