data_PCOD9383220
_publ_section_title
;
Structure prediction by ZEFSAII (Michael W. Deem and Ramdas Pophale) SiO2 
 PCOD9383220
Probable space group: P M M M
;
_chemical_formula_sum "Si O2"
_cell_formula_units_Z 56
_cell_length_a 7.435843
_cell_length_b 21.053225
_cell_length_c 16.089220
_cell_angle_alpha 90.000000
_cell_angle_beta 90.000000
_cell_angle_gamma 90.000000
_cell_volume 2518.742867
_symmetry_space_group_name_H-M "P M M M"
_symmetry_group_IT_number 47
_symmetry_cell_setting 'orthorhombic'
loop_
_space_group_symop_operation_xyz
x,y,z
-x,-y,z
x,-y,-z
-x,y,-z
-x,-y,-z
x,y,-z
-x,y,z
x,-y,z
loop_
_atom_site_type_symbol
_atom_site_label
_atom_site_fract_x
_atom_site_fract_y
_atom_site_fract_z
Si Si1 0.213731 0.430177 0.726854
Si Si2 0.283372 0.617252 0.910450
Si Si3 0.284067 0.793736 0.679937
Si Si4 0.281308 0.756520 0.136539
Si Si5 0.718912 0.896608 0.910895
Si Si6 0.280366 0.068819 0.274501
Si Si7 0.213281 0.331392 0.408922
O O1 0.286809 0.500000 0.706413
O O2 0.237615 0.416751 0.824596
O O3 0.285879 0.374455 0.666920
O O4 0.000000 0.432016 0.713869
O O5 0.500000 0.617831 0.912809
O O6 0.220509 0.690372 0.901381
O O7 0.221350 0.591365 0.000000
O O8 0.500000 0.796458 0.683003
O O9 0.223398 0.763658 0.767808
O O10 0.220996 0.866878 0.679112
O O11 0.236405 0.743149 0.610341
O O12 0.500000 0.755279 0.134822
O O13 0.230338 0.822212 0.093289
O O14 0.500000 0.900393 0.910223
O O15 0.775180 0.925401 0.822666
O O16 0.778660 0.923053 0.000000
O O17 0.500000 0.069579 0.275109
O O18 0.223027 0.000000 0.307072
O O19 0.287308 0.347309 0.500000
O O20 0.000000 0.342370 0.411779
#
# Coordination Sequence:
#
# PCOD9383220 Si02
#       7
#     8   8   8   8   8   8   8
#     4  10  22  39  56  75 103 137 168 204 255 311
#     4  10  19  31  51  77 105 139 177 214 250 291
#     4   9  16  29  51  75 101 134 168 205 250 299
#     4   8  13  23  40  64  94 128 165 204 244 285
#     4   8  12  17  28  51  87 128 165 201 243 288
#     4   8  14  23  37  62  96 133 169 203 243 292
#     4  10  21  37  58  82 103 125 160 209 262 314
#
# _framework density 22.233315000000001
#
# number of rings (size 3 to 8) (size 9 to 14) (size 15 to 20)
#    0.000    3.000    1.429    2.143    0.000    3.429 
#    0.000    4.286    0.000    0.857    0.000    5.000 
#    0.000    0.000    0.000    3.714    0.000    4.286 
#
# Total GULP energy -312319.399117 kJ/mol
# GULP energy per Si atom -5577.132127 kJ/mol
# Density = 2.218271 g / cm^3
# Si number density = 22.233315 Si / 1000 Ang^3
#
#
#
# Elastic Constant Matrix: (Units=GPa)
#
#
# Indices 1 2 3 4 5 6 
#
# 1 67.8708 4.3731 3.9968 0.0000 0.0000 0.0000
# 2 4.3731 143.0342 63.2601 0.0000 0.0000 0.0000
# 3 3.9968 63.2601 113.1682 0.0000 0.0000 0.0000
# 4 0.0000 0.0000 0.0000 -6.6399 0.0000 0.0000
# 5 0.0000 0.0000 0.0000 0.0000 7.8470 0.0000
# 6 0.0000 0.0000 0.0000 0.0000 0.0000 7.1038
#
#
#
# Elastic Compliance Matrix: (Units=1/GPa)
#
#
# Indices 1 2 3 4 5 6 
#
# 1 0.014774 -0.000293 -0.000358 0.000000 0.000000 0.000000
# 2 -0.000293 0.009293 -0.005184 0.000000 0.000000 0.000000
# 3 -0.000358 -0.005184 0.011747 0.000000 0.000000 0.000000
# 4 0.000000 0.000000 0.000000 -0.150606 0.000000 0.000000
# 5 0.000000 0.000000 0.000000 0.000000 0.127437 0.000000
# 6 0.000000 0.000000 0.000000 0.000000 0.000000 0.140770
#
#
# Mechanical properties :
#
#
# Convention : Reuss Voigt Hill
#
# Bulk Modulus (GPa) = 41.42012 51.92590 46.67301
# Shear Modulus (GPa) = 28.87926 18.49174 23.68550
#
# Velocity S-wave (km/s) = 3.60796 2.88707 3.26746
# Velocity P-wave (km/s) = 6.00223 5.87531 5.93911
#
# Compressibility (1/GPa) = 0.02414285
#
# Stress axis : x y z
#
# Youngs Moduli (GPa) = 67.68720 107.60481 85.12719
#
# Poissons Ratio (x) = 0.03158 0.03045
# Poissons Ratio (y) = 0.01986 0.44134
# Poissons Ratio (z) = 0.02421 0.55788
#
# Static dielectric constant tensor:
#      x y z
#    x 1.880770 0.000000 0.000000 
#    y 0.000000 1.826040 0.000000 
#    z 0.000000 0.000000 1.816170 
# 
# From -- ./inp_files/21566.got.cif
#   From: 2010.05.17/outbox.cif.g08.bks.cpg/sg47_11_cif.got.tgz:21566.got - 2010.06.03 20:15:42.
