data_PCOD9383628
_publ_section_title
;
Structure prediction by ZEFSAII (Michael W. Deem and Ramdas Pophale) SiO2 
 PCOD9383628
Probable space group: P M M M
;
_chemical_formula_sum "Si O2"
_cell_formula_units_Z 64
_cell_length_a 8.265862
_cell_length_b 15.282768
_cell_length_c 24.442886
_cell_angle_alpha 90.000000
_cell_angle_beta 90.000000
_cell_angle_gamma 90.000000
_cell_volume 3087.753716
_symmetry_space_group_name_H-M "P M M M"
_symmetry_group_IT_number 47
_symmetry_cell_setting 'orthorhombic'
loop_
_space_group_symop_operation_xyz
x,y,z
-x,-y,z
x,-y,-z
-x,y,-z
-x,-y,-z
x,y,-z
-x,y,z
x,-y,z
loop_
_atom_site_type_symbol
_atom_site_label
_atom_site_fract_x
_atom_site_fract_y
_atom_site_fract_z
Si Si1 0.810528 0.715144 0.248103
Si Si2 0.815352 0.905155 0.623801
Si Si3 0.185843 0.906013 0.123085
Si Si4 0.195336 0.732429 0.064016
Si Si5 0.259271 0.098347 0.750406
Si Si6 0.691500 0.601165 0.851366
Si Si7 0.303473 0.398363 0.650139
Si Si8 0.306808 0.262884 0.438506
O O1 0.690463 0.799155 0.249320
O O2 0.782210 0.659163 0.193755
O O3 0.772063 0.653562 0.299229
O O4 0.000000 0.744083 0.250111
O O5 0.818795 0.901873 0.689923
O O6 0.728934 0.822991 0.597314
O O7 0.000000 0.902759 0.604676
O O8 0.742840 0.000000 0.608894
O O9 0.256257 0.818544 0.096784
O O10 0.180906 0.901943 0.189094
O O11 0.000000 0.908417 0.103888
O O12 0.262834 0.000000 0.108557
O O13 0.272581 0.647135 0.091065
O O14 0.000000 0.726391 0.070934
O O15 0.229915 0.741057 0.000000
O O16 0.336592 0.000000 0.750423
O O17 0.500000 0.604362 0.839597
O O18 0.742716 0.500000 0.849863
O O19 0.500000 0.393559 0.654491
O O20 0.258273 0.500000 0.650320
O O21 0.250948 0.347317 0.595474
O O22 0.240195 0.256309 0.500000
O O23 0.500000 0.270191 0.442562
#
# Coordination Sequence:
#
# PCOD9383628 Si02
#       8
#     8   8   8   8   8   8   8   8
#     4  12  22  36  63  93 120 149 184 231 284 340
#     4  10  20  35  57  85 116 150 189 233 284 344
#     4   9  16  29  53  85 119 151 183 223 275 337
#     4  10  21  37  59  89 119 148 191 245 292 333
#     4  10  19  32  56  90 122 150 182 224 279 341
#     4  11  25  43  61  82 113 154 196 237 286 346
#     4  10  22  40  60  83 114 150 188 234 290 349
#     4  10  22  39  58  81 110 148 196 245 288 333
#
# _framework density 20.727042000000001
#
# number of rings (size 3 to 8) (size 9 to 14) (size 15 to 20)
#    0.000    1.750    2.500    2.250    0.000    7.250 
#    0.000    5.000    0.000    2.625    0.000    2.625 
#    0.000    0.000    0.000    0.000    0.000    0.000 
#
# Total GULP energy -356441.663861 kJ/mol
# GULP energy per Si atom -5569.400998 kJ/mol
# Density = 2.067987 g / cm^3
# Si number density = 20.727042 Si / 1000 Ang^3
#
#
#
# Elastic Constant Matrix: (Units=GPa)
#
#
# Indices 1 2 3 4 5 6 
#
# 1 30.7215 23.9471 18.2599 0.0000 0.0000 0.0000
# 2 23.9471 197.1970 62.3433 0.0000 0.0000 0.0000
# 3 18.2599 62.3433 107.3096 0.0000 0.0000 0.0000
# 4 0.0000 0.0000 0.0000 9.4194 0.0000 0.0000
# 5 0.0000 0.0000 0.0000 0.0000 8.9113 0.0000
# 6 0.0000 0.0000 0.0000 0.0000 0.0000 8.2086
#
#
#
# Elastic Compliance Matrix: (Units=1/GPa)
#
#
# Indices 1 2 3 4 5 6 
#
# 1 0.037723 -0.003126 -0.004603 0.000000 0.000000 0.000000
# 2 -0.003126 0.006471 -0.003228 0.000000 0.000000 0.000000
# 3 -0.004603 -0.003228 0.011977 0.000000 0.000000 0.000000
# 4 0.000000 0.000000 0.000000 0.106164 0.000000 0.000000
# 5 0.000000 0.000000 0.000000 0.000000 0.112217 0.000000
# 6 0.000000 0.000000 0.000000 0.000000 0.000000 0.121824
#
#
# Mechanical properties :
#
#
# Convention : Reuss Voigt Hill
#
# Bulk Modulus (GPa) = 29.18986 60.48098 44.83542
# Shear Modulus (GPa) = 11.63579 20.68636 16.16108
#
# Velocity S-wave (km/s) = 2.37192 3.16260 2.79536
# Velocity P-wave (km/s) = 4.64918 6.52527 5.66542
#
# Compressibility (1/GPa) = 0.03425847
#
# Stress axis : x y z
#
# Youngs Moduli (GPa) = 26.50909 154.53448 83.49201
#
# Poissons Ratio (x) = 0.48304 0.38431
# Poissons Ratio (y) = 0.08286 0.26948
# Poissons Ratio (z) = 0.12202 0.49877
#
# Static dielectric constant tensor:
#      x y z
#    x 1.683960 0.000000 0.000000 
#    y 0.000000 1.756810 0.000000 
#    z 0.000000 0.000000 1.719000 
# 
# From -- ./inp_files/32092.got.cif
#   From: 2010.05.17/outbox.cif.g08.bks.cpg/sg47_17_cif.got.tgz:32092.got - 2010.06.03 20:15:42.
