data_PCOD9383175
_publ_section_title
;
Structure prediction by ZEFSAII (Michael W. Deem and Ramdas Pophale) SiO2 
 PCOD9383175
Probable space group: P M M M
;
_chemical_formula_sum "Si O2"
_cell_formula_units_Z 64
_cell_length_a 8.910913
_cell_length_b 21.241361
_cell_length_c 17.911600
_cell_angle_alpha 90.000000
_cell_angle_beta 90.000000
_cell_angle_gamma 90.000000
_cell_volume 3390.306213
_symmetry_space_group_name_H-M "P M M M"
_symmetry_group_IT_number 47
_symmetry_cell_setting 'orthorhombic'
loop_
_space_group_symop_operation_xyz
x,y,z
-x,-y,z
x,-y,-z
-x,y,-z
-x,-y,-z
x,y,-z
-x,y,z
x,-y,z
loop_
_atom_site_type_symbol
_atom_site_label
_atom_site_fract_x
_atom_site_fract_y
_atom_site_fract_z
Si Si1 0.181211 0.203954 0.301358
Si Si2 0.322028 0.300258 0.416275
Si Si3 0.823406 0.069307 0.875801
Si Si4 0.179345 0.571274 0.626158
Si Si5 0.320669 0.198053 0.136469
Si Si6 0.820766 0.570310 0.196410
Si Si7 0.177559 0.932866 0.305467
Si Si8 0.680183 0.334470 0.081599
O O1 0.238129 0.259083 0.354318
O O2 0.247722 0.208295 0.218155
O O3 0.233156 0.135086 0.331714
O O4 0.000000 0.204635 0.296679
O O5 0.289844 0.276498 0.500000
O O6 0.500000 0.297381 0.403324
O O7 0.266882 0.372155 0.411453
O O8 0.739234 0.132793 0.898236
O O9 0.811207 0.068366 0.785005
O O10 0.000000 0.074418 0.893792
O O11 0.770539 0.000000 0.901962
O O12 0.220440 0.500000 0.603275
O O13 0.207392 0.576906 0.715228
O O14 0.000000 0.578236 0.614105
O O15 0.500000 0.193698 0.144164
O O16 0.282658 0.260857 0.091055
O O17 0.769577 0.500000 0.173933
O O18 0.746932 0.624114 0.147547
O O19 0.000000 0.573148 0.186884
O O20 0.000000 0.934358 0.322591
O O21 0.243772 0.000000 0.330922
O O22 0.500000 0.339188 0.084815
O O23 0.731549 0.356776 0.000000
#
# Coordination Sequence:
#
# PCOD9383175 Si02
#       8
#     8   8   8   8   8   8   8   8
#     4  10  19  32  53  77 101 132 170 211 255 307
#     4  11  24  38  51  72 105 140 172 210 253 296
#     4   8  14  26  45  70 100 131 164 206 255 305
#     4   9  19  37  60  83 105 130 163 204 249 302
#     4  10  19  31  50  75 102 132 169 214 260 305
#     4   9  19  36  57  81 105 127 158 204 254 301
#     4   7  11  22  42  69  97 122 152 195 246 294
#     4  10  22  37  50  69 101 139 175 209 247 297
#
# _framework density 18.877351000000001
#
# number of rings (size 3 to 8) (size 9 to 14) (size 15 to 20)
#    0.000    2.750    0.000    4.125    0.000    6.000 
#    0.000    3.750    0.000    1.875    0.000    5.250 
#    0.000    0.000    0.000    0.000    0.000    0.000 
#
# Total GULP energy -356759.909510 kJ/mol
# GULP energy per Si atom -5574.373586 kJ/mol
# Density = 1.883438 g / cm^3
# Si number density = 18.877351 Si / 1000 Ang^3
#
#
#
# Elastic Constant Matrix: (Units=GPa)
#
#
# Indices 1 2 3 4 5 6 
#
# 1 28.8970 25.9002 18.7577 0.0000 0.0000 0.0000
# 2 25.9002 101.0578 23.8948 0.0000 0.0000 0.0000
# 3 18.7577 23.8948 35.6169 0.0000 0.0000 0.0000
# 4 0.0000 0.0000 0.0000 -13.5652 0.0000 0.0000
# 5 0.0000 0.0000 0.0000 0.0000 -61.2547 0.0000
# 6 0.0000 0.0000 0.0000 0.0000 0.0000 0.2805
#
#
#
# Elastic Compliance Matrix: (Units=1/GPa)
#
#
# Indices 1 2 3 4 5 6 
#
# 1 0.059057 -0.009249 -0.024898 0.000000 0.000000 0.000000
# 2 -0.009249 0.013209 -0.003991 0.000000 0.000000 0.000000
# 3 -0.024898 -0.003991 0.043866 0.000000 0.000000 0.000000
# 4 0.000000 0.000000 0.000000 -0.073718 0.000000 0.000000
# 5 0.000000 0.000000 0.000000 0.000000 -0.016325 0.000000
# 6 0.000000 0.000000 0.000000 0.000000 0.000000 3.565012
#
#
# Mechanical properties :
#
#
# Convention : Reuss Voigt Hill
#
# Bulk Modulus (GPa) = 25.08915 33.63081 29.35998
# Shear Modulus (GPa) = 1.35845 -8.43995 -3.54075
#
# Velocity S-wave (km/s) = 0.84922 -2.11675 -1.37103
# Velocity P-wave (km/s) = 3.77903 3.44672 3.61669
#
# Compressibility (1/GPa) = 0.03985787
#
# Stress axis : x y z
#
# Youngs Moduli (GPa) = 16.93282 75.70369 22.79645
#
# Poissons Ratio (x) = 0.70017 0.56758
# Poissons Ratio (y) = 0.15661 0.09098
# Poissons Ratio (z) = 0.42159 0.30214
#
# Static dielectric constant tensor:
#      x y z
#    x 1.625820 0.000000 0.000000 
#    y 0.000000 1.696080 0.000000 
#    z 0.000000 0.000000 1.641150 
# 
# From -- ./inp_files/27014.got.cif
#   From: 2010.05.17/outbox.cif.g08.bks.cpg/sg47_14_cif.got.tgz:27014.got - 2010.06.03 20:15:42.
