data_PCOD9383231
_publ_section_title
;
Structure prediction by ZEFSAII (Michael W. Deem and Ramdas Pophale) SiO2 
 PCOD9383231
Probable space group: P M M M
;
_chemical_formula_sum "Si O2"
_cell_formula_units_Z 64
_cell_length_a 9.145516
_cell_length_b 14.326432
_cell_length_c 28.415031
_cell_angle_alpha 90.000000
_cell_angle_beta 90.000000
_cell_angle_gamma 90.000000
_cell_volume 3723.011612
_symmetry_space_group_name_H-M "P M M M"
_symmetry_group_IT_number 47
_symmetry_cell_setting 'orthorhombic'
loop_
_space_group_symop_operation_xyz
x,y,z
-x,-y,z
x,-y,-z
-x,y,-z
-x,-y,-z
x,y,-z
-x,y,z
x,-y,z
loop_
_atom_site_type_symbol
_atom_site_label
_atom_site_fract_x
_atom_site_fract_y
_atom_site_fract_z
Si Si1 0.828106 0.243338 0.379760
Si Si2 0.326085 0.766139 0.719644
Si Si3 0.676042 0.890763 0.190277
Si Si4 0.664224 0.888640 0.445172
Si Si5 0.170710 0.609246 0.775649
Si Si6 0.324893 0.393427 0.055698
Si Si7 0.171455 0.732457 0.131254
Si Si8 0.674520 0.610476 0.553797
O O1 0.754327 0.223529 0.329699
O O2 0.785955 0.158306 0.413853
O O3 0.757535 0.331588 0.406678
O O4 0.000000 0.255558 0.374420
O O5 0.500000 0.768236 0.713124
O O6 0.287152 0.844396 0.758959
O O7 0.273839 0.668005 0.741527
O O8 0.500000 0.884002 0.185086
O O9 0.751783 0.825924 0.150977
O O10 0.716657 0.000000 0.188128
O O11 0.680047 0.863798 0.500000
O O12 0.500000 0.858326 0.430185
O O13 0.669257 0.000000 0.441784
O O14 0.204882 0.500000 0.776906
O O15 0.185469 0.656409 0.826763
O O16 0.000000 0.620338 0.761374
O O17 0.500000 0.387195 0.062631
O O18 0.280317 0.500000 0.068897
O O19 0.245964 0.315228 0.086365
O O20 0.296476 0.382575 0.000000
O O21 0.000000 0.749540 0.123195
O O22 0.717339 0.636584 0.500000
O O23 0.500000 0.625968 0.557683
O O24 0.700251 0.500000 0.558903
#
# Coordination Sequence:
#
# PCOD9383231 Si02
#       8
#     8   8   8   8   8   8   8   8
#     4  12  24  35  51  77 108 138 164 198 251 308
#     4  10  21  36  53  74  99 130 171 213 252 300
#     4   9  19  37  59  79  99 129 173 222 267 311
#     4   9  19  37  59  79  99 127 163 200 239 288
#     4   9  18  33  51  72 102 136 167 205 255 307
#     4   9  18  32  50  75 110 151 190 225 261 302
#     4  10  19  31  51  80 110 140 175 214 261 316
#     4   9  19  37  59  79  99 129 172 216 253 295
#
# _framework density 17.190384000000002
#
# number of rings (size 3 to 8) (size 9 to 14) (size 15 to 20)
#    0.000    2.375    0.000    3.750    0.000    6.000 
#    0.000    3.125    0.000    0.375    0.000    2.625 
#    0.000    0.000    0.000    0.000    0.000    0.000 
#
# Total GULP energy -357083.314327 kJ/mol
# GULP energy per Si atom -5579.426786 kJ/mol
# Density = 1.715126 g / cm^3
# Si number density = 17.190384 Si / 1000 Ang^3
#
#
#
# Elastic Constant Matrix: (Units=GPa)
#
#
# Indices 1 2 3 4 5 6 
#
# 1 70.0605 51.6893 57.2925 0.0000 0.0000 0.0000
# 2 51.6893 132.0726 57.9401 0.0000 0.0000 0.0000
# 3 57.2925 57.9401 90.6494 0.0000 0.0000 0.0000
# 4 0.0000 0.0000 0.0000 22.5460 0.0000 0.0000
# 5 0.0000 0.0000 0.0000 0.0000 23.3989 0.0000
# 6 0.0000 0.0000 0.0000 0.0000 0.0000 37.1621
#
#
#
# Elastic Compliance Matrix: (Units=1/GPa)
#
#
# Indices 1 2 3 4 5 6 
#
# 1 0.031786 -0.005040 -0.016868 0.000000 0.000000 0.000000
# 2 -0.005040 0.011321 -0.004051 0.000000 0.000000 0.000000
# 3 -0.016868 -0.004051 0.024281 0.000000 0.000000 0.000000
# 4 0.000000 0.000000 0.000000 0.044354 0.000000 0.000000
# 5 0.000000 0.000000 0.000000 0.000000 0.042737 0.000000
# 6 0.000000 0.000000 0.000000 0.000000 0.000000 0.026909
#
#
# Mechanical properties :
#
#
# Convention : Reuss Voigt Hill
#
# Bulk Modulus (GPa) = 64.63665 69.62516 67.13090
# Shear Modulus (GPa) = 20.96769 25.01211 22.98990
#
# Velocity S-wave (km/s) = 3.49626 3.81859 3.66097
# Velocity P-wave (km/s) = 7.34714 7.74807 7.55027
#
# Compressibility (1/GPa) = 0.01547110
#
# Stress axis : x y z
#
# Youngs Moduli (GPa) = 31.46081 88.33026 41.18378
#
# Poissons Ratio (x) = 0.44519 0.69468
# Poissons Ratio (y) = 0.15856 0.16682
# Poissons Ratio (z) = 0.53067 0.35780
#
# Static dielectric constant tensor:
#      x y z
#    x 1.574220 0.000000 0.000000 
#    y 0.000000 1.579610 0.000000 
#    z 0.000000 0.000000 1.567690 
# 
# From -- ./inp_files/32136.got.cif
#   From: 2010.05.17/outbox.cif.g08.bks.cpg/sg47_17_cif.got.tgz:32136.got - 2010.06.03 20:15:42.
