data_PCOD9383966
_publ_section_title
;
Structure prediction by ZEFSAII (Michael W. Deem and Ramdas Pophale) SiO2 
 PCOD9383966
Probable space group: P M M M
;
_chemical_formula_sum "Si O2"
_cell_formula_units_Z 44
_cell_length_a 29.836679
_cell_length_b 10.342906
_cell_length_c 7.532868
_cell_angle_alpha 90.000000
_cell_angle_beta 90.000000
_cell_angle_gamma 90.000000
_cell_volume 2324.627745
_symmetry_space_group_name_H-M "P M M M"
_symmetry_group_IT_number 47
_symmetry_cell_setting 'orthorhombic'
loop_
_space_group_symop_operation_xyz
x,y,z
-x,-y,z
x,-y,-z
-x,y,-z
-x,-y,-z
x,y,-z
-x,y,z
x,-y,z
loop_
_atom_site_type_symbol
_atom_site_label
_atom_site_fract_x
_atom_site_fract_y
_atom_site_fract_z
Si Si1 0.799725 0.147737 0.711737
Si Si2 0.392945 0.743547 0.791453
Si Si3 0.551598 0.000000 0.713098
Si Si4 0.876358 0.652566 0.287374
Si Si5 0.949406 0.343963 0.000000
Si Si6 0.448538 0.500000 0.218332
Si Si7 0.301656 0.147675 0.213350
O O1 0.804725 0.139673 0.500000
O O2 0.836141 0.252618 0.770964
O O3 0.748746 0.190959 0.747239
O O4 0.805111 0.000000 0.782239
O O5 0.421801 0.625805 0.718846
O O6 0.343214 0.768837 0.717540
O O7 0.421552 0.874082 0.774155
O O8 0.387112 0.715380 0.000000
O O9 0.500000 0.000000 0.775583
O O10 0.551135 0.000000 0.500000
O O11 0.883300 0.665728 0.500000
O O12 0.866305 0.500000 0.253691
O O13 0.920158 0.688896 0.173676
O O14 0.952564 0.500000 0.000000
O O15 0.000000 0.291988 0.000000
O O16 0.500000 0.500000 0.275954
O O17 0.449644 0.500000 0.000000
O O18 0.306096 0.000000 0.280005
O O19 0.305817 0.142452 0.000000
#
# Coordination Sequence:
#
# PCOD9383966 Si02
#       7
#     8   8   4   8   4   4   8
#     4   9  18  32  51  74 100 137 177 210 255 312
#     4  10  19  35  55  75 101 129 165 210 257 310
#     4  11  23  35  51  77 101 127 167 211 257 308
#     4   9  18  33  52  76 108 140 177 226 268 311
#     4   9  18  32  53  81 111 143 183 225 266 315
#     4   9  18  32  53  77  99 127 165 207 253 310
#     4   9  17  30  48  73 100 128 164 209 254 303
#
# _framework density 18.927762000000001
#
# number of rings (size 3 to 8) (size 9 to 14) (size 15 to 20)
#    0.000    2.636    0.909    0.818    1.273    2.545 
#    1.636    2.273    0.000    2.727    0.000    2.545 
#    0.000    0.000    0.000    0.000    0.000    0.000 
#
# Total GULP energy -245339.723886 kJ/mol
# GULP energy per Si atom -5575.902816 kJ/mol
# Density = 1.888468 g / cm^3
# Si number density = 18.927762 Si / 1000 Ang^3
#
#
#
# Elastic Constant Matrix: (Units=GPa)
#
#
# Indices 1 2 3 4 5 6 
#
# 1 213.9310 94.4058 29.0763 0.0000 0.0000 0.0000
# 2 94.4058 106.9751 12.8791 0.0000 0.0000 0.0000
# 3 29.0763 12.8791 54.6039 0.0000 0.0000 0.0000
# 4 0.0000 0.0000 0.0000 17.8401 0.0000 0.0000
# 5 0.0000 0.0000 0.0000 0.0000 60.6892 0.0000
# 6 0.0000 0.0000 0.0000 0.0000 0.0000 -44.7517
#
#
#
# Elastic Compliance Matrix: (Units=1/GPa)
#
#
# Indices 1 2 3 4 5 6 
#
# 1 0.008019 -0.006754 -0.002677 0.000000 0.000000 0.000000
# 2 -0.006754 0.015311 -0.000015 0.000000 0.000000 0.000000
# 3 -0.002677 -0.000015 0.019743 0.000000 0.000000 0.000000
# 4 0.000000 0.000000 0.000000 0.056053 0.000000 0.000000
# 5 0.000000 0.000000 0.000000 0.000000 0.016477 0.000000
# 6 0.000000 0.000000 0.000000 0.000000 0.000000 -0.022346
#
#
# Mechanical properties :
#
#
# Convention : Reuss Voigt Hill
#
# Bulk Modulus (GPa) = 41.35596 72.02585 56.69091
# Shear Modulus (GPa) = 41.59423 22.69878 32.14650
#
# Velocity S-wave (km/s) = 4.69286 3.46675 4.12561
# Velocity P-wave (km/s) = 7.15966 7.35935 7.26019
#
# Compressibility (1/GPa) = 0.02418031
#
# Stress axis : x y z
#
# Youngs Moduli (GPa) = 124.70548 65.31463 50.65200
#
# Poissons Ratio (x) = 0.44116 0.13559
# Poissons Ratio (y) = 0.84231 0.00074
# Poissons Ratio (z) = 0.33382 0.00095
#
# Static dielectric constant tensor:
#      x y z
#    x 1.649990 0.000000 0.000000 
#    y 0.000000 1.644500 0.000000 
#    z 0.000000 0.000000 1.708040 
# 
# From -- ./inp_files/13709.got.cif
#   From: 2010.05.17/outbox.cif.g08.bks.cpg/sg47_7_cif.got.tgz:13709.got - 2010.06.03 20:15:42.
