data_PCOD9383199
_publ_section_title
;
Structure prediction by ZEFSAII (Michael W. Deem and Ramdas Pophale) SiO2 
 PCOD9383199
Probable space group: P M M M
;
_chemical_formula_sum "Si O2"
_cell_formula_units_Z 56
_cell_length_a 9.007861
_cell_length_b 20.619497
_cell_length_c 15.544119
_cell_angle_alpha 90.000000
_cell_angle_beta 90.000000
_cell_angle_gamma 90.000000
_cell_volume 2887.126780
_symmetry_space_group_name_H-M "P M M M"
_symmetry_group_IT_number 47
_symmetry_cell_setting 'orthorhombic'
loop_
_space_group_symop_operation_xyz
x,y,z
-x,-y,z
x,-y,-z
-x,y,-z
-x,-y,-z
x,y,-z
-x,y,z
x,-y,z
loop_
_atom_site_type_symbol
_atom_site_label
_atom_site_fract_x
_atom_site_fract_y
_atom_site_fract_z
Si Si1 0.322447 0.119374 0.596461
Si Si2 0.172801 0.744253 0.633890
Si Si3 0.324018 0.828113 0.902324
Si Si4 0.825276 0.074110 0.231638
Si Si5 0.321166 0.428280 0.215687
Si Si6 0.827504 0.704226 0.166281
Si Si7 0.678145 0.609835 0.592583
O O1 0.285029 0.096173 0.500000
O O2 0.500000 0.117634 0.605912
O O3 0.264236 0.192996 0.606357
O O4 0.246769 0.081503 0.674383
O O5 0.180953 0.733500 0.736777
O O6 0.243294 0.679399 0.595636
O O7 0.000000 0.751437 0.610341
O O8 0.500000 0.826736 0.886956
O O9 0.248853 0.875842 0.833958
O O10 0.259579 0.755928 0.890751
O O11 0.296146 0.850239 0.000000
O O12 0.000000 0.088919 0.238208
O O13 0.806814 0.000000 0.201909
O O14 0.500000 0.421609 0.208992
O O15 0.279722 0.500000 0.183526
O O16 0.244181 0.367126 0.170818
O O17 0.282382 0.424589 0.317842
O O18 0.000000 0.700391 0.141931
O O19 0.714062 0.578635 0.500000
O O20 0.500000 0.618345 0.595219
#
# Coordination Sequence:
#
# PCOD9383199 Si02
#       7
#     8   8   8   8   8   8   8
#     4  11  23  37  57  85 118 160 208 255 302 352
#     4  10  19  31  50  77 109 148 195 246 301 355
#     4  11  24  42  68  99 126 155 194 242 298 362
#     4  11  25  44  65  91 125 164 203 246 299 355
#     4   9  18  32  51  76 109 153 200 246 300 359
#     4  10  20  35  58  86 117 154 195 243 298 355
#     4   9  17  28  43  67 102 144 193 247 299 352
#
# _framework density 19.396447999999999
#
# number of rings (size 3 to 8) (size 9 to 14) (size 15 to 20)
#    0.000    1.857    1.429    2.571    0.000    7.714 
#    0.000    4.286    0.000    0.429    0.000    7.000 
#    0.000    0.000    0.000    0.000    0.000    0.000 
#
# Total GULP energy -312741.171395 kJ/mol
# GULP energy per Si atom -5584.663775 kJ/mol
# Density = 1.935230 g / cm^3
# Si number density = 19.396448 Si / 1000 Ang^3
#
#
#
# Elastic Constant Matrix: (Units=GPa)
#
#
# Indices 1 2 3 4 5 6 
#
# 1 67.7275 56.6520 48.3556 0.0000 0.0000 0.0000
# 2 56.6520 105.6332 49.9358 0.0000 0.0000 0.0000
# 3 48.3556 49.9358 69.2949 0.0000 0.0000 0.0000
# 4 0.0000 0.0000 0.0000 -10.2930 0.0000 0.0000
# 5 0.0000 0.0000 0.0000 0.0000 9.3407 0.0000
# 6 0.0000 0.0000 0.0000 0.0000 0.0000 27.0208
#
#
#
# Elastic Compliance Matrix: (Units=1/GPa)
#
#
# Indices 1 2 3 4 5 6 
#
# 1 0.036823 -0.011529 -0.017388 0.000000 0.000000 0.000000
# 2 -0.011529 0.017967 -0.004903 0.000000 0.000000 0.000000
# 3 -0.017388 -0.004903 0.030098 0.000000 0.000000 0.000000
# 4 0.000000 0.000000 0.000000 -0.097153 0.000000 0.000000
# 5 0.000000 0.000000 0.000000 0.000000 0.107058 0.000000
# 6 0.000000 0.000000 0.000000 0.000000 0.000000 0.037008
#
#
# Mechanical properties :
#
#
# Convention : Reuss Voigt Hill
#
# Bulk Modulus (GPa) = 57.97352 61.39360 59.68356
# Shear Modulus (GPa) = 24.36758 11.06119 17.71438
#
# Velocity S-wave (km/s) = 3.54826 2.39062 3.02533
# Velocity P-wave (km/s) = 6.83670 6.27222 6.56054
#
# Compressibility (1/GPa) = 0.01724925
#
# Stress axis : x y z
#
# Youngs Moduli (GPa) = 27.15679 55.65658 33.22476
#
# Poissons Ratio (x) = 0.64165 0.57772
# Poissons Ratio (y) = 0.31308 0.16289
# Poissons Ratio (z) = 0.47221 0.27287
#
# Static dielectric constant tensor:
#      x y z
#    x 1.643450 0.000000 0.000000 
#    y 0.000000 1.661930 0.000000 
#    z 0.000000 0.000000 1.697150 
# 
# From -- ./inp_files/7214.got.cif
#   From: 2010.05.17/outbox.cif.g08.bks.cpg/sg47_4_cif.got.tgz:7214.got - 2010.06.03 20:15:42.
