data_PCOD9383924
_publ_section_title
;
Structure prediction by ZEFSAII (Michael W. Deem and Ramdas Pophale) SiO2 
 PCOD9383924
Probable space group: P M M M
;
_chemical_formula_sum "Si O2"
_cell_formula_units_Z 48
_cell_length_a 14.176242
_cell_length_b 7.903704
_cell_length_c 20.539565
_cell_angle_alpha 90.000000
_cell_angle_beta 90.000000
_cell_angle_gamma 90.000000
_cell_volume 2301.351876
_symmetry_space_group_name_H-M "P M M M"
_symmetry_group_IT_number 47
_symmetry_cell_setting 'orthorhombic'
loop_
_space_group_symop_operation_xyz
x,y,z
-x,-y,z
x,-y,-z
-x,y,-z
-x,-y,-z
x,y,-z
-x,y,z
x,-y,z
loop_
_atom_site_type_symbol
_atom_site_label
_atom_site_fract_x
_atom_site_fract_y
_atom_site_fract_z
Si Si1 0.500000 0.708131 0.374883
Si Si2 0.694083 0.298449 0.570660
Si Si3 0.000000 0.703964 0.425660
Si Si4 0.893739 0.207220 0.187274
Si Si5 0.314164 0.204006 0.860994
Si Si6 0.500000 0.701924 0.224080
Si Si7 0.390856 0.206795 0.000000
Si Si8 0.839254 0.803421 0.329346
O O1 0.500000 0.500000 0.373983
O O2 0.590118 0.764872 0.415242
O O3 0.500000 0.763478 0.299204
O O4 0.730935 0.233271 0.500000
O O5 0.694119 0.500000 0.564523
O O6 0.746007 0.267644 0.638916
O O7 0.088061 0.774118 0.387128
O O8 0.000000 0.500000 0.422831
O O9 0.000000 0.755688 0.500000
O O10 0.793176 0.261108 0.155827
O O11 0.880991 0.264813 0.262320
O O12 0.000000 0.260474 0.164708
O O13 0.895498 0.000000 0.184342
O O14 0.402515 0.247415 0.813270
O O15 0.310374 0.000000 0.860966
O O16 0.342052 0.263035 0.933370
O O17 0.500000 0.500000 0.225684
O O18 0.500000 0.258853 0.000000
O O19 0.389465 0.000000 0.000000
O O20 0.823908 0.000000 0.317293
#
# Coordination Sequence:
#
# PCOD9383924 Si02
#       8
#     4   8   4   8   8   4   4   8
#     4   9  19  35  53  73 102 140 177 220 268 316
#     4  10  20  35  54  74  99 135 179 222 268 324
#     4  11  23  37  53  75 101 132 175 222 266 317
#     4   9  18  34  55  80 108 141 182 224 265 315
#     4  10  19  34  58  81 110 149 182 216 263 320
#     4  11  21  33  52  82 115 138 175 230 274 317
#     4   9  16  30  53  85 115 140 179 220 257 309
#     4  11  21  35  54  76 104 135 170 217 274 322
#
# _framework density 20.857306000000001
#
# number of rings (size 3 to 8) (size 9 to 14) (size 15 to 20)
#    0.000    2.000    1.667    2.750    0.000    4.000 
#    0.000    3.333    0.000    3.500    0.000    0.000 
#    0.000    1.333    0.000    0.000    0.000    0.000 
#
# Total GULP energy -267460.852019 kJ/mol
# GULP energy per Si atom -5572.101084 kJ/mol
# Density = 2.080983 g / cm^3
# Si number density = 20.857306 Si / 1000 Ang^3
#
#
#
# Elastic Constant Matrix: (Units=GPa)
#
#
# Indices 1 2 3 4 5 6 
#
# 1 144.5826 7.8521 41.1124 0.0000 0.0000 0.0000
# 2 7.8521 17.2626 9.1669 0.0000 0.0000 0.0000
# 3 41.1124 9.1669 112.3597 0.0000 0.0000 0.0000
# 4 0.0000 0.0000 0.0000 47.3906 0.0000 0.0000
# 5 0.0000 0.0000 0.0000 0.0000 59.9120 0.0000
# 6 0.0000 0.0000 0.0000 0.0000 0.0000 14.5251
#
#
#
# Elastic Compliance Matrix: (Units=1/GPa)
#
#
# Indices 1 2 3 4 5 6 
#
# 1 0.007793 -0.002123 -0.002678 0.000000 0.000000 0.000000
# 2 -0.002123 0.061130 -0.004211 0.000000 0.000000 0.000000
# 3 -0.002678 -0.004211 0.010224 0.000000 0.000000 0.000000
# 4 0.000000 0.000000 0.000000 0.021101 0.000000 0.000000
# 5 0.000000 0.000000 0.000000 0.000000 0.016691 0.000000
# 6 0.000000 0.000000 0.000000 0.000000 0.000000 0.068846
#
#
# Mechanical properties :
#
#
# Convention : Reuss Voigt Hill
#
# Bulk Modulus (GPa) = 16.36026 43.38530 29.87278
# Shear Modulus (GPa) = 22.30315 38.77045 30.53680
#
# Velocity S-wave (km/s) = 3.27359 4.31611 3.83048
# Velocity P-wave (km/s) = 4.70632 6.75903 5.82383
#
# Compressibility (1/GPa) = 0.06112373
#
# Stress axis : x y z
#
# Youngs Moduli (GPa) = 128.31453 16.35853 97.81335
#
# Poissons Ratio (x) = 0.03472 0.26198
# Poissons Ratio (y) = 0.27236 0.41186
# Poissons Ratio (z) = 0.34368 0.06888
#
# Static dielectric constant tensor:
#      x y z
#    x 1.449880 0.000000 0.000000 
#    y 0.000000 1.761970 0.000000 
#    z 0.000000 0.000000 1.736840 
# 
# From -- ./inp_files/28071.got.cif
#   From: 2010.05.17/outbox.cif.g08.bks.cpg/sg47_15_cif.got.tgz:28071.got - 2010.06.03 20:15:42.
