data_PCOD9383749
_publ_section_title
;
Structure prediction by ZEFSAII (Michael W. Deem and Ramdas Pophale) SiO2 
 PCOD9383749
Probable space group: P M M M
;
_chemical_formula_sum "Si O2"
_cell_formula_units_Z 52
_cell_length_a 7.651099
_cell_length_b 15.724240
_cell_length_c 20.592654
_cell_angle_alpha 90.000000
_cell_angle_beta 90.000000
_cell_angle_gamma 90.000000
_cell_volume 2477.455188
_symmetry_space_group_name_H-M "P M M M"
_symmetry_group_IT_number 47
_symmetry_cell_setting 'orthorhombic'
loop_
_space_group_symop_operation_xyz
x,y,z
-x,-y,z
x,-y,-z
-x,y,-z
-x,-y,-z
x,y,-z
-x,y,z
x,-y,z
loop_
_atom_site_type_symbol
_atom_site_label
_atom_site_fract_x
_atom_site_fract_y
_atom_site_fract_z
Si Si1 0.791035 0.000000 0.424956
Si Si2 0.788736 0.595694 0.925426
Si Si3 0.785835 0.168361 0.357784
Si Si4 0.789156 0.341686 0.425738
Si Si5 0.793353 0.097414 0.220201
Si Si6 0.290839 0.592090 0.712096
Si Si7 0.703452 0.728154 0.185403
O O1 0.723978 0.086260 0.396103
O O2 0.765191 0.000000 0.500000
O O3 0.000000 0.000000 0.411092
O O4 0.730386 0.500000 0.907381
O O5 0.726131 0.666078 0.875554
O O6 0.000000 0.595950 0.924134
O O7 0.734863 0.611409 0.000000
O O8 0.726816 0.251190 0.396626
O O9 0.726485 0.144745 0.285332
O O10 0.000000 0.173516 0.357020
O O11 0.727065 0.358220 0.500000
O O12 0.743146 0.401580 0.365031
O O13 0.000000 0.340259 0.429651
O O14 0.771800 0.176450 0.171103
O O15 0.000000 0.086753 0.229232
O O16 0.724962 0.000000 0.210313
O O17 0.500000 0.592873 0.721151
O O18 0.224058 0.500000 0.735601
O O19 0.219785 0.672923 0.753225
O O20 0.500000 0.739390 0.198319
#
# Coordination Sequence:
#
# PCOD9383749 Si02
#       7
#     4   8   8   8   8   8   8
#     4   9  14  20  36  64  95 125 158 205 272 339
#     4   9  19  37  62  93 126 156 185 219 265 323
#     4   9  15  26  43  67  97 127 164 216 276 333
#     4  10  20  33  50  72  98 130 174 231 288 336
#     4  10  19  33  55  80 107 143 188 234 280 333
#     4  10  22  38  53  72 101 140 185 227 271 328
#     4  11  22  36  57  84 116 152 188 229 274 324
#
# _framework density 20.989279
#
# number of rings (size 3 to 8) (size 9 to 14) (size 15 to 20)
#    0.000    2.231    2.308    1.846    0.000    4.923 
#    0.000    2.308    0.000    0.462    0.000    3.231 
#    0.000    4.923    0.000    0.000    0.000    0.000 
#
# Total GULP energy -289723.103620 kJ/mol
# GULP energy per Si atom -5571.598147 kJ/mol
# Density = 2.094151 g / cm^3
# Si number density = 20.989279 Si / 1000 Ang^3
#
#
#
# Elastic Constant Matrix: (Units=GPa)
#
#
# Indices 1 2 3 4 5 6 
#
# 1 45.2556 9.2046 1.3185 0.0000 0.0000 0.0000
# 2 9.2046 173.7339 55.1013 0.0000 0.0000 0.0000
# 3 1.3185 55.1013 88.3372 0.0000 0.0000 0.0000
# 4 0.0000 0.0000 0.0000 31.2686 0.0000 0.0000
# 5 0.0000 0.0000 0.0000 0.0000 12.4948 0.0000
# 6 0.0000 0.0000 0.0000 0.0000 0.0000 3.1743
#
#
#
# Elastic Compliance Matrix: (Units=1/GPa)
#
#
# Indices 1 2 3 4 5 6 
#
# 1 0.022355 -0.001345 0.000505 0.000000 0.000000 0.000000
# 2 -0.001345 0.007256 -0.004506 0.000000 0.000000 0.000000
# 3 0.000505 -0.004506 0.014123 0.000000 0.000000 0.000000
# 4 0.000000 0.000000 0.000000 0.031981 0.000000 0.000000
# 5 0.000000 0.000000 0.000000 0.000000 0.080034 0.000000
# 6 0.000000 0.000000 0.000000 0.000000 0.000000 0.315028
#
#
# Mechanical properties :
#
#
# Convention : Reuss Voigt Hill
#
# Bulk Modulus (GPa) = 30.26278 48.73061 39.49669
# Shear Modulus (GPa) = 10.15262 25.50102 17.82682
#
# Velocity S-wave (km/s) = 2.20172 3.48940 2.91749
# Velocity P-wave (km/s) = 4.57306 6.28505 5.49613
#
# Compressibility (1/GPa) = 0.03304389
#
# Stress axis : x y z
#
# Youngs Moduli (GPa) = 44.73176 137.81060 70.80405
#
# Poissons Ratio (x) = 0.18530 -0.03576
# Poissons Ratio (y) = 0.06015 0.31905
# Poissons Ratio (z) = -0.02259 0.62100
#
# Static dielectric constant tensor:
#      x y z
#    x 1.788840 0.000000 0.000000 
#    y 0.000000 1.819460 0.000000 
#    z 0.000000 0.000000 1.777490 
# 
# From -- ./inp_files/29623.got.cif
#   From: 2010.05.17/outbox.cif.g08.bks.cpg/sg47_15_cif.got.tgz:29623.got - 2010.06.03 20:15:42.
