data_PCOD9383536
_publ_section_title
;
Structure prediction by ZEFSAII (Michael W. Deem and Ramdas Pophale) SiO2 
 PCOD9383536
Probable space group: P M M M
;
_chemical_formula_sum "Si O2"
_cell_formula_units_Z 64
_cell_length_a 8.322578
_cell_length_b 21.089846
_cell_length_c 17.901637
_cell_angle_alpha 90.000000
_cell_angle_beta 90.000000
_cell_angle_gamma 90.000000
_cell_volume 3142.129131
_symmetry_space_group_name_H-M "P M M M"
_symmetry_group_IT_number 47
_symmetry_cell_setting 'orthorhombic'
loop_
_space_group_symop_operation_xyz
x,y,z
-x,-y,z
x,-y,-z
-x,y,-z
-x,-y,-z
x,y,-z
-x,y,z
x,-y,z
loop_
_atom_site_type_symbol
_atom_site_label
_atom_site_fract_x
_atom_site_fract_y
_atom_site_fract_z
Si Si1 0.193725 0.067625 0.788942
Si Si2 0.307553 0.931515 0.382327
Si Si3 0.310684 0.704586 0.081400
Si Si4 0.190420 0.794134 0.790230
Si Si5 0.314513 0.427742 0.713818
Si Si6 0.189780 0.657146 0.581704
Si Si7 0.187484 0.571347 0.123137
Si Si8 0.690612 0.792290 0.378493
O O1 0.269067 0.067900 0.706118
O O2 0.234534 0.136013 0.822730
O O3 0.000000 0.067009 0.781121
O O4 0.240713 0.000000 0.824797
O O5 0.500000 0.931423 0.393455
O O6 0.250285 0.861645 0.406389
O O7 0.246480 0.000000 0.411481
O O8 0.500000 0.716583 0.085772
O O9 0.230284 0.740304 0.150468
O O10 0.279596 0.629628 0.087354
O O11 0.250354 0.726452 0.000000
O O12 0.279505 0.787730 0.710976
O O13 0.000000 0.792793 0.774170
O O14 0.500000 0.420151 0.737570
O O15 0.293317 0.500000 0.686148
O O16 0.274742 0.378492 0.649403
O O17 0.207467 0.420463 0.787474
O O18 0.245255 0.634632 0.500000
O O19 0.223112 0.731934 0.587173
O O20 0.000000 0.645803 0.588099
O O21 0.245243 0.500000 0.105047
O O22 0.000000 0.575372 0.103148
O O23 0.500000 0.788044 0.392965
#
# Coordination Sequence:
#
# PCOD9383536 Si02
#       8
#     8   8   8   8   8   8   8   8
#     4   8  14  25  43  70 101 130 163 206 256 306
#     4   8  14  25  43  70 101 130 163 206 256 306
#     4  11  24  39  54  74 104 141 178 217 259 304
#     4  10  19  32  53  78 105 137 173 215 260 309
#     4  10  21  38  61  86 110 136 168 208 253 304
#     4  11  24  39  54  74 104 141 178 217 259 304
#     4  10  21  38  61  86 110 136 168 208 253 304
#     4  10  19  32  53  78 105 137 173 215 260 309
#
# _framework density 20.368355000000001
#
# number of rings (size 3 to 8) (size 9 to 14) (size 15 to 20)
#    0.000    2.250    0.000    3.000    0.000    5.000 
#    0.000    2.500    0.000    0.750    0.000    5.250 
#    0.000    0.000    0.000    0.000    0.000    0.000 
#
# Total GULP energy -357013.528771 kJ/mol
# GULP energy per Si atom -5578.336387 kJ/mol
# Density = 2.032200 g / cm^3
# Si number density = 20.368355 Si / 1000 Ang^3
#
#
#
# Elastic Constant Matrix: (Units=GPa)
#
#
# Indices 1 2 3 4 5 6 
#
# 1 16.6463 -0.6529 -7.0360 0.0000 0.0000 0.0000
# 2 -0.6529 87.5734 22.0475 0.0000 0.0000 0.0000
# 3 -7.0360 22.0475 46.4506 0.0000 0.0000 0.0000
# 4 0.0000 0.0000 0.0000 -33.5815 0.0000 0.0000
# 5 0.0000 0.0000 0.0000 0.0000 9.5923 0.0000
# 6 0.0000 0.0000 0.0000 0.0000 0.0000 19.7369
#
#
#
# Elastic Compliance Matrix: (Units=1/GPa)
#
#
# Indices 1 2 3 4 5 6 
#
# 1 0.064571 -0.002250 0.010848 0.000000 0.000000 0.000000
# 2 -0.002250 0.013047 -0.006534 0.000000 0.000000 0.000000
# 3 0.010848 -0.006534 0.026273 0.000000 0.000000 0.000000
# 4 0.000000 0.000000 0.000000 -0.029778 0.000000 0.000000
# 5 0.000000 0.000000 0.000000 0.000000 0.104250 0.000000
# 6 0.000000 0.000000 0.000000 0.000000 0.000000 0.050667
#
#
# Mechanical properties :
#
#
# Convention : Reuss Voigt Hill
#
# Bulk Modulus (GPa) = 9.25749 19.93194 14.59472
# Shear Modulus (GPa) = 19.16404 8.23697 13.70050
#
# Velocity S-wave (km/s) = 3.07069 2.01315 2.59634
# Velocity P-wave (km/s) = 4.13849 3.90009 4.02106
#
# Compressibility (1/GPa) = 0.10802062
#
# Stress axis : x y z
#
# Youngs Moduli (GPa) = 15.48693 76.64535 38.06248
#
# Poissons Ratio (x) = 0.17244 -0.41292
# Poissons Ratio (y) = 0.03484 0.24868
# Poissons Ratio (z) = -0.16801 0.50076
#
# Static dielectric constant tensor:
#      x y z
#    x 1.690330 0.000000 0.000000 
#    y 0.000000 1.773980 0.000000 
#    z 0.000000 0.000000 1.707850 
# 
# From -- ./inp_files/10041.got.cif
#   From: 2010.05.17/outbox.cif.g08.bks.cpg/sg47_6_cif.got.tgz:10041.got - 2010.06.03 20:15:42.
