data_PCOD9383102
_publ_section_title
;
Structure prediction by ZEFSAII (Michael W. Deem and Ramdas Pophale) SiO2 
 PCOD9383102
Probable space group: P M M M
;
_chemical_formula_sum "Si O2"
_cell_formula_units_Z 64
_cell_length_a 19.855459
_cell_length_b 7.417971
_cell_length_c 19.198238
_cell_angle_alpha 90.000000
_cell_angle_beta 90.000000
_cell_angle_gamma 90.000000
_cell_volume 2827.655086
_symmetry_space_group_name_H-M "P M M M"
_symmetry_group_IT_number 47
_symmetry_cell_setting 'orthorhombic'
loop_
_space_group_symop_operation_xyz
x,y,z
-x,-y,z
x,-y,-z
-x,y,-z
-x,-y,-z
x,y,-z
-x,y,z
x,-y,z
loop_
_atom_site_type_symbol
_atom_site_label
_atom_site_fract_x
_atom_site_fract_y
_atom_site_fract_z
Si Si1 0.187215 0.284310 0.920139
Si Si2 0.573510 0.283818 0.418349
Si Si3 0.075132 0.214426 0.648744
Si Si4 0.792216 0.221161 0.578197
Si Si5 0.684941 0.199564 0.316248
Si Si6 0.576509 0.779043 0.792793
Si Si7 0.923068 0.716718 0.809688
Si Si8 0.340629 0.215368 0.921831
O O1 0.179382 0.500000 0.923371
O O2 0.131594 0.216171 0.865571
O O3 0.264109 0.249912 0.896968
O O4 0.179831 0.215983 0.000000
O O5 0.575402 0.246796 0.500000
O O6 0.500000 0.230171 0.391119
O O7 0.580172 0.500000 0.409675
O O8 0.632437 0.187174 0.379498
O O9 0.131958 0.278418 0.595885
O O10 0.095016 0.241943 0.729623
O O11 0.000000 0.289486 0.639606
O O12 0.071341 0.000000 0.638382
O O13 0.771308 0.277091 0.500000
O O14 0.747812 0.285504 0.643984
O O15 0.788251 0.000000 0.579251
O O16 0.636805 0.284340 0.257907
O O17 0.705483 0.000000 0.290738
O O18 0.500000 0.720097 0.777875
O O19 0.602068 0.723655 0.868984
O O20 0.576173 0.000000 0.788019
O O21 0.924674 0.500000 0.815543
O O22 0.000000 0.781720 0.821773
O O23 0.347383 0.000000 0.925480
O O24 0.346250 0.288800 0.000000
#
# Coordination Sequence:
#
# PCOD9383102 Si02
#       8
#     8   8   8   8   8   8   8   8
#     4   9  18  32  50  73 102 135 169 205 244 288
#     4   9  18  32  48  66  92 126 158 191 237 289
#     4   9  18  32  51  74  98 129 167 205 247 292
#     4   9  18  31  48  73 101 128 162 204 247 291
#     4  10  19  31  49  72  96 124 159 201 244 288
#     4   9  18  31  48  73 101 128 162 204 247 291
#     4   9  18  32  50  73 102 135 169 205 244 288
#     4   9  18  32  51  74  98 129 167 205 247 292
#
# _framework density 22.633596000000001
#
# number of rings (size 3 to 8) (size 9 to 14) (size 15 to 20)
#    0.000    2.875    0.000    1.125    1.750    2.750 
#    0.000    5.625    0.000    2.250    0.000    7.000 
#    0.000    0.000    0.000    0.000    0.000    0.000 
#
# Total GULP energy -357047.533717 kJ/mol
# GULP energy per Si atom -5578.867714 kJ/mol
# Density = 2.258208 g / cm^3
# Si number density = 22.633596 Si / 1000 Ang^3
#
#
#
# Elastic Constant Matrix: (Units=GPa)
#
#
# Indices 1 2 3 4 5 6 
#
# 1 103.5714 -0.4519 65.7532 0.0000 0.0000 0.0000
# 2 -0.4519 71.2109 -0.9626 0.0000 0.0000 0.0000
# 3 65.7532 -0.9626 86.0413 0.0000 0.0000 0.0000
# 4 0.0000 0.0000 0.0000 22.5027 0.0000 0.0000
# 5 0.0000 0.0000 0.0000 0.0000 40.8300 0.0000
# 6 0.0000 0.0000 0.0000 0.0000 0.0000 25.9168
#
#
#
# Elastic Compliance Matrix: (Units=1/GPa)
#
#
# Indices 1 2 3 4 5 6 
#
# 1 0.018754 -0.000075 -0.014333 0.000000 0.000000 0.000000
# 2 -0.000075 0.014045 0.000214 0.000000 0.000000 0.000000
# 3 -0.014333 0.000214 0.022578 0.000000 0.000000 0.000000
# 4 0.000000 0.000000 0.000000 0.044439 0.000000 0.000000
# 5 0.000000 0.000000 0.000000 0.000000 0.024492 0.000000
# 6 0.000000 0.000000 0.000000 0.000000 0.000000 0.038585
#
#
# Mechanical properties :
#
#
# Convention : Reuss Voigt Hill
#
# Bulk Modulus (GPa) = 37.04987 43.27789 40.16388
# Shear Modulus (GPa) = 24.96543 30.94891 27.95717
#
# Velocity S-wave (km/s) = 3.32479 3.70183 3.51836
# Velocity P-wave (km/s) = 5.58067 6.11833 5.85568
#
# Compressibility (1/GPa) = 0.02699065
#
# Stress axis : x y z
#
# Youngs Moduli (GPa) = 53.32127 71.19863 44.29085
#
# Poissons Ratio (x) = 0.00532 0.63482
# Poissons Ratio (y) = 0.00399 -0.00949
# Poissons Ratio (z) = 0.76425 -0.01526
#
# Static dielectric constant tensor:
#      x y z
#    x 1.842040 0.000000 0.000000 
#    y 0.000000 1.877790 0.000000 
#    z 0.000000 0.000000 1.840320 
# 
# From -- ./inp_files/28795.got.cif
#   From: 2010.05.17/outbox.cif.g08.bks.cpg/sg47_15_cif.got.tgz:28795.got - 2010.06.03 20:15:42.
