data_PCOD9383374
_publ_section_title
;
Structure prediction by ZEFSAII (Michael W. Deem and Ramdas Pophale) SiO2 
 PCOD9383374
Probable space group: P M M M
;
_chemical_formula_sum "Si O2"
_cell_formula_units_Z 52
_cell_length_a 14.658206
_cell_length_b 9.698004
_cell_length_c 16.594959
_cell_angle_alpha 90.000000
_cell_angle_beta 90.000000
_cell_angle_gamma 90.000000
_cell_volume 2359.062046
_symmetry_space_group_name_H-M "P M M M"
_symmetry_group_IT_number 47
_symmetry_cell_setting 'orthorhombic'
loop_
_space_group_symop_operation_xyz
x,y,z
-x,-y,z
x,-y,-z
-x,y,-z
-x,-y,-z
x,y,-z
-x,y,z
x,-y,z
loop_
_atom_site_type_symbol
_atom_site_label
_atom_site_fract_x
_atom_site_fract_y
_atom_site_fract_z
Si Si1 0.640078 0.843279 0.000000
Si Si2 0.388539 0.352811 0.407831
Si Si3 0.137121 0.160713 0.000000
Si Si4 0.857364 0.342174 0.845055
Si Si5 0.111710 0.837944 0.500000
Si Si6 0.360195 0.345844 0.144075
Si Si7 0.392391 0.148221 0.287797
Si Si8 0.890184 0.340329 0.342040
O O1 0.751352 0.843087 0.000000
O O2 0.607820 0.758245 0.076213
O O3 0.609849 0.000000 0.000000
O O4 0.361665 0.355144 0.500000
O O5 0.500000 0.349980 0.405468
O O6 0.361389 0.500000 0.369715
O O7 0.352281 0.214659 0.367801
O O8 0.109301 0.242726 0.082141
O O9 0.108012 0.000000 0.000000
O O10 0.893602 0.500000 0.851323
O O11 0.749203 0.351686 0.859918
O O12 0.868772 0.296345 0.751187
O O13 0.139182 0.755308 0.417705
O O14 0.000000 0.837980 0.500000
O O15 0.139829 0.000000 0.500000
O O16 0.395272 0.500000 0.135943
O O17 0.383189 0.271692 0.226099
O O18 0.500000 0.130517 0.299282
O O19 0.353354 0.000000 0.263091
O O20 0.857878 0.500000 0.351376
O O21 0.000000 0.343402 0.345837
#
# Coordination Sequence:
#
# PCOD9383374 Si02
#       8
#     4   8   4   8   4   8   8   8
#     4   9  17  31  50  71  94 121 157 197 238 287
#     4   8  14  26  45  67  89 115 149 187 226 272
#     4   9  17  29  48  73  98 130 167 200 242 293
#     4   9  18  32  51  74  99 128 165 206 246 289
#     4   9  17  29  47  73 103 133 166 205 248 293
#     4  10  19  32  51  72  95 123 159 198 239 285
#     4  10  20  32  47  69  96 124 155 194 240 288
#     4   9  17  31  52  76 101 132 170 208 245 287
#
# _framework density 22.042660000000001
#
# number of rings (size 3 to 8) (size 9 to 14) (size 15 to 20)
#    0.000    2.846    0.000    2.077    0.000    5.231 
#    0.000    2.308    1.692    4.615    0.000    0.000 
#    0.000    0.000    0.000    0.000    0.000    0.000 
#
# Total GULP energy -289821.808152 kJ/mol
# GULP energy per Si atom -5573.496311 kJ/mol
# Density = 2.199249 g / cm^3
# Si number density = 22.042660 Si / 1000 Ang^3
#
#
#
# Elastic Constant Matrix: (Units=GPa)
#
#
# Indices 1 2 3 4 5 6 
#
# 1 66.0086 9.4074 4.3699 0.0000 0.0000 0.0000
# 2 9.4074 202.3961 108.6961 0.0000 0.0000 0.0000
# 3 4.3699 108.6961 159.3652 0.0000 0.0000 0.0000
# 4 0.0000 0.0000 0.0000 50.4582 0.0000 0.0000
# 5 0.0000 0.0000 0.0000 0.0000 -2.5083 0.0000
# 6 0.0000 0.0000 0.0000 0.0000 0.0000 2.6444
#
#
#
# Elastic Compliance Matrix: (Units=1/GPa)
#
#
# Indices 1 2 3 4 5 6 
#
# 1 0.015252 -0.000764 0.000103 0.000000 0.000000 0.000000
# 2 -0.000764 0.007835 -0.005323 0.000000 0.000000 0.000000
# 3 0.000103 -0.005323 0.009903 0.000000 0.000000 0.000000
# 4 0.000000 0.000000 0.000000 0.019818 0.000000 0.000000
# 5 0.000000 0.000000 0.000000 0.000000 -0.398669 0.000000
# 6 0.000000 0.000000 0.000000 0.000000 0.000000 0.378156
#
#
# Mechanical properties :
#
#
# Convention : Reuss Voigt Hill
#
# Bulk Modulus (GPa) = 47.57158 74.74630 61.15894
# Shear Modulus (GPa) = 97.52276 30.47196 63.99736
#
# Velocity S-wave (km/s) = 6.65874 3.72211 5.39411
# Velocity P-wave (km/s) = 8.98592 7.24262 8.16096
#
# Compressibility (1/GPa) = 0.02102095
#
# Stress axis : x y z
#
# Youngs Moduli (GPa) = 65.56677 127.63230 100.98328
#
# Poissons Ratio (x) = 0.09754 -0.01041
# Poissons Ratio (y) = 0.05011 0.53753
# Poissons Ratio (z) = -0.00676 0.67938
#
# Static dielectric constant tensor:
#      x y z
#    x 1.879100 0.000000 0.000000 
#    y 0.000000 1.833160 0.000000 
#    z 0.000000 0.000000 2.220540 
# 
# From -- ./inp_files/25064.got.cif
#   From: 2010.05.17/outbox.cif.g08.bks.cpg/sg47_13_cif.got.tgz:25064.got - 2010.06.03 20:15:42.
