data_PCOD9383704
_publ_section_title
;
Structure prediction by ZEFSAII (Michael W. Deem and Ramdas Pophale) SiO2 
 PCOD9383704
Probable space group: P M M M
;
_chemical_formula_sum "Si O2"
_cell_formula_units_Z 40
_cell_length_a 8.811556
_cell_length_b 13.289398
_cell_length_c 19.645988
_cell_angle_alpha 90.000000
_cell_angle_beta 90.000000
_cell_angle_gamma 90.000000
_cell_volume 2300.550591
_symmetry_space_group_name_H-M "P M M M"
_symmetry_group_IT_number 47
_symmetry_cell_setting 'orthorhombic'
loop_
_space_group_symop_operation_xyz
x,y,z
-x,-y,z
x,-y,-z
-x,y,-z
-x,-y,-z
x,y,-z
-x,y,z
x,-y,z
loop_
_atom_site_type_symbol
_atom_site_label
_atom_site_fract_x
_atom_site_fract_y
_atom_site_fract_z
Si Si1 0.825339 0.000000 0.833080
Si Si2 0.183001 0.782334 0.677168
Si Si3 0.682139 0.383681 0.420579
Si Si4 0.818450 0.385002 0.919337
Si Si5 0.174229 0.000000 0.667464
Si Si6 0.319476 0.211413 0.172319
O O1 0.826018 0.000000 0.750171
O O2 0.743978 0.103504 0.853085
O O3 0.000000 0.000000 0.855643
O O4 0.234734 0.693287 0.628535
O O5 0.240007 0.891255 0.649015
O O6 0.249696 0.770032 0.752745
O O7 0.000000 0.786724 0.682231
O O8 0.718527 0.365099 0.500000
O O9 0.500000 0.373478 0.412922
O O10 0.720977 0.500000 0.405357
O O11 0.776994 0.500000 0.900294
O O12 0.732895 0.301223 0.876449
O O13 0.000000 0.374350 0.908976
O O14 0.789723 0.373568 0.000000
O O15 0.000000 0.000000 0.643347
O O16 0.500000 0.206492 0.177221
#
# Coordination Sequence:
#
# PCOD9383704 Si02
#       6
#     4   8   8   8   4   8
#     4   9  17  33  54  75 104 139 174 212 256 306
#     4  10  19  33  54  77 102 134 173 214 253 301
#     4   9  19  36  54  72 100 136 170 211 266 317
#     4   9  19  37  58  77 101 137 178 217 260 311
#     4   7  14  29  48  71  98 128 160 200 250 293
#     4  11  21  33  53  81 110 138 171 213 261 311
#
# _framework density 17.387142999999998
#
# number of rings (size 3 to 8) (size 9 to 14) (size 15 to 20)
#    0.000    2.600    0.000    5.100    0.000    2.400 
#    0.000    4.500    0.000    6.000    0.000    0.000 
#    0.000    0.000    0.000    0.000    0.000    0.000 
#
# Total GULP energy -222995.592994 kJ/mol
# GULP energy per Si atom -5574.889825 kJ/mol
# Density = 1.734757 g / cm^3
# Si number density = 17.387143 Si / 1000 Ang^3
#
#
#
# Elastic Constant Matrix: (Units=GPa)
#
#
# Indices 1 2 3 4 5 6 
#
# 1 87.7502 82.2340 47.6548 0.0000 0.0000 0.0000
# 2 82.2340 175.6784 79.5385 0.0000 0.0000 0.0000
# 3 47.6548 79.5385 53.0257 0.0000 0.0000 0.0000
# 4 0.0000 0.0000 0.0000 -113.9685 0.0000 0.0000
# 5 0.0000 0.0000 0.0000 0.0000 -24.5740 0.0000
# 6 0.0000 0.0000 0.0000 0.0000 0.0000 25.2693
#
#
#
# Elastic Compliance Matrix: (Units=1/GPa)
#
#
# Indices 1 2 3 4 5 6 
#
# 1 0.023326 -0.004449 -0.014289 0.000000 0.000000 0.000000
# 2 -0.004449 0.018588 -0.023884 0.000000 0.000000 0.000000
# 3 -0.014289 -0.023884 0.067527 0.000000 0.000000 0.000000
# 4 0.000000 0.000000 0.000000 -0.008774 0.000000 0.000000
# 5 0.000000 0.000000 0.000000 0.000000 -0.040693 0.000000
# 6 0.000000 0.000000 0.000000 0.000000 0.000000 0.039574
#
#
# Mechanical properties :
#
#
# Convention : Reuss Voigt Hill
#
# Bulk Modulus (GPa) = 41.32957 81.70101 61.51529
# Shear Modulus (GPa) = 25.92595 -15.51952 5.20322
#
# Velocity S-wave (km/s) = 3.86566 -2.99086 1.73178
# Velocity P-wave (km/s) = 6.61410 5.92995 6.28135
#
# Compressibility (1/GPa) = 0.02419575
#
# Stress axis : x y z
#
# Youngs Moduli (GPa) = 42.87148 53.79736 14.80891
#
# Poissons Ratio (x) = 0.23934 0.21161
# Poissons Ratio (y) = 0.19073 0.35370
# Poissons Ratio (z) = 0.61261 1.28490
#
# Static dielectric constant tensor:
#      x y z
#    x 1.584500 0.000000 0.000000 
#    y 0.000000 1.606970 0.000000 
#    z 0.000000 0.000000 1.558760 
# 
# From -- ./inp_files/29365.got.cif
#   From: 2010.05.17/outbox.cif.g08.bks.cpg/sg47_15_cif.got.tgz:29365.got - 2010.06.03 20:15:42.
