data_PCOD9383285
_publ_section_title
;
Structure prediction by ZEFSAII (Michael W. Deem and Ramdas Pophale) SiO2 
 PCOD9383285
Probable space group: P M M M
;
_chemical_formula_sum "Si O2"
_cell_formula_units_Z 56
_cell_length_a 16.977390
_cell_length_b 29.315301
_cell_length_c 9.053166
_cell_angle_alpha 90.000000
_cell_angle_beta 90.000000
_cell_angle_gamma 90.000000
_cell_volume 4505.736257
_symmetry_space_group_name_H-M "P M M M"
_symmetry_group_IT_number 47
_symmetry_cell_setting 'orthorhombic'
loop_
_space_group_symop_operation_xyz
x,y,z
-x,-y,z
x,-y,-z
-x,y,-z
-x,-y,-z
x,y,-z
-x,y,z
x,-y,z
loop_
_atom_site_type_symbol
_atom_site_label
_atom_site_fract_x
_atom_site_fract_y
_atom_site_fract_z
Si Si1 0.177793 0.585939 0.676960
Si Si2 0.095634 0.949582 0.672995
Si Si3 0.500000 0.555349 0.670407
Si Si4 0.905602 0.500000 0.172525
Si Si5 0.904300 0.234774 0.330853
Si Si6 0.336621 0.554978 0.175107
Si Si7 0.905511 0.671290 0.174642
Si Si8 0.096065 0.142598 0.170193
O O1 0.176980 0.583708 0.500000
O O2 0.127760 0.544430 0.746562
O O3 0.265579 0.579117 0.739914
O O4 0.139657 0.632566 0.735370
O O5 0.115727 0.944865 0.500000
O O6 0.123083 0.905546 0.762418
O O7 0.000000 0.949615 0.680758
O O8 0.121609 0.000000 0.724612
O O9 0.500000 0.500000 0.668311
O O10 0.500000 0.570769 0.500000
O O11 0.579330 0.568586 0.756150
O O12 0.000000 0.500000 0.176383
O O13 0.880285 0.500000 0.000000
O O14 0.878285 0.239992 0.500000
O O15 0.882858 0.278599 0.233449
O O16 0.877895 0.186744 0.262249
O O17 0.000000 0.233492 0.331677
O O18 0.327477 0.500000 0.194579
O O19 0.333791 0.564080 0.000000
O O20 0.000000 0.665909 0.196399
O O21 0.890093 0.666953 0.000000
O O22 0.000000 0.142249 0.175183
O O23 0.119037 0.147028 0.000000
#
# Coordination Sequence:
#
# PCOD9383285 Si02
#       8
#     8   8   4   4   8   8   8   8
#     4  12  23  33  47  64  82 101 125 154 184 217
#     4   8  13  20  28  38  54  76 100 126 159 201
#     4   9  17  29  47  69  91 107 125 149 174 204
#     4  11  23  37  49  60  77 102 129 155 185 221
#     4   9  16  26  39  52  65  82 108 142 177 213
#     4  10  19  32  49  66  86 108 129 148 174 212
#     4  10  20  33  46  58  74  96 122 153 189 226
#     4   9  15  21  30  44  60  78 101 130 166 207
#
# _framework density 12.428601
#
# number of rings (size 3 to 8) (size 9 to 14) (size 15 to 20)
#    0.000    2.286    0.714    4.286    0.000    8.286 
#    0.000    1.429    0.000    0.000    0.000    0.000 
#    0.000    0.000    0.000    0.000    0.000    0.000 
#
# Total GULP energy -312145.150920 kJ/mol
# GULP energy per Si atom -5574.020552 kJ/mol
# Density = 1.240031 g / cm^3
# Si number density = 12.428601 Si / 1000 Ang^3
#
#
#
# Elastic Constant Matrix: (Units=GPa)
#
#
# Indices 1 2 3 4 5 6 
#
# 1 43.5963 25.8180 36.5011 0.0000 0.0000 0.0000
# 2 25.8180 89.7261 52.6510 0.0000 0.0000 0.0000
# 3 36.5011 52.6510 110.9409 0.0000 0.0000 0.0000
# 4 0.0000 0.0000 0.0000 20.9423 0.0000 0.0000
# 5 0.0000 0.0000 0.0000 0.0000 13.7785 0.0000
# 6 0.0000 0.0000 0.0000 0.0000 0.0000 -0.4243
#
#
#
# Elastic Compliance Matrix: (Units=1/GPa)
#
#
# Indices 1 2 3 4 5 6 
#
# 1 0.032817 -0.004306 -0.008754 0.000000 0.000000 0.000000
# 2 -0.004306 0.016012 -0.006182 0.000000 0.000000 0.000000
# 3 -0.008754 -0.006182 0.014828 0.000000 0.000000 0.000000
# 4 0.000000 0.000000 0.000000 0.047750 0.000000 0.000000
# 5 0.000000 0.000000 0.000000 0.000000 0.072577 0.000000
# 6 0.000000 0.000000 0.000000 0.000000 0.000000 -2.356822
#
#
# Mechanical properties :
#
#
# Convention : Reuss Voigt Hill
#
# Bulk Modulus (GPa) = 39.72579 52.68928 46.20754
# Shear Modulus (GPa) = -2.35187 15.47885 6.56349
#
# Velocity S-wave (km/s) = -1.37710 3.53288 2.30053
# Velocity P-wave (km/s) = 5.43176 7.68943 6.65700
#
# Compressibility (1/GPa) = 0.02517257
#
# Stress axis : x y z
#
# Youngs Moduli (GPa) = 30.47223 62.45402 67.44087
#
# Poissons Ratio (x) = 0.26894 0.59034
# Poissons Ratio (y) = 0.13122 0.41693
# Poissons Ratio (z) = 0.26674 0.38610
#
# Static dielectric constant tensor:
#      x y z
#    x 1.375010 0.000000 0.000000 
#    y 0.000000 1.404200 0.000000 
#    z 0.000000 0.000000 1.415230 
# 
# From -- ./inp_files/8184.got.cif
#   From: 2010.05.17/outbox.cif.g08.bks.cpg/sg47_5_cif.got.tgz:8184.got - 2010.06.03 20:15:42.
