data_PCOD9383854
_publ_section_title
;
Structure prediction by ZEFSAII (Michael W. Deem and Ramdas Pophale) SiO2 
 PCOD9383854
Probable space group: P M M M
;
_chemical_formula_sum "Si O2"
_cell_formula_units_Z 52
_cell_length_a 16.799159
_cell_length_b 17.526741
_cell_length_c 7.393042
_cell_angle_alpha 90.000000
_cell_angle_beta 90.000000
_cell_angle_gamma 90.000000
_cell_volume 2176.766690
_symmetry_space_group_name_H-M "P M M M"
_symmetry_group_IT_number 47
_symmetry_cell_setting 'orthorhombic'
loop_
_space_group_symop_operation_xyz
x,y,z
-x,-y,z
x,-y,-z
-x,y,-z
-x,-y,-z
x,y,-z
-x,y,z
x,-y,z
loop_
_atom_site_type_symbol
_atom_site_label
_atom_site_fract_x
_atom_site_fract_y
_atom_site_fract_z
Si Si1 0.150535 0.584587 0.705667
Si Si2 0.905784 0.249313 0.283168
Si Si3 0.586779 0.760123 0.789677
Si Si4 0.320262 0.633187 0.784201
Si Si5 0.649245 0.081691 0.717650
Si Si6 0.165468 0.086171 0.279865
Si Si7 0.500000 0.584124 0.780266
O O1 0.119041 0.584030 0.500000
O O2 0.130028 0.500000 0.783605
O O3 0.125726 0.667623 0.785889
O O4 0.246517 0.590694 0.700299
O O5 0.889622 0.250183 0.500000
O O6 0.873010 0.166649 0.217925
O O7 0.000000 0.249072 0.253986
O O8 0.500000 0.739761 0.709244
O O9 0.669815 0.721970 0.727004
O O10 0.597081 0.849136 0.780586
O O11 0.582298 0.737760 0.000000
O O12 0.410689 0.611320 0.733951
O O13 0.309053 0.622665 0.000000
O O14 0.648417 0.083312 0.500000
O O15 0.741485 0.089516 0.771217
O O16 0.619451 0.000000 0.779141
O O17 0.159642 0.085853 0.500000
O O18 0.136242 0.000000 0.224106
O O19 0.500000 0.500000 0.708156
O O20 0.500000 0.583833 0.000000
#
# Coordination Sequence:
#
# PCOD9383854 Si02
#       7
#     8   8   8   8   8   8   4
#     4  10  21  35  51  74 104 136 171 213 258 304
#     4   9  17  29  47  72 101 134 170 206 250 306
#     4  10  20  33  48  69  98 128 163 211 261 304
#     4  10  19  34  54  75  98 128 169 210 253 309
#     4   9  18  32  49  69  96 133 173 208 247 302
#     4   8  14  26  45  70  99 128 161 205 252 296
#     4   9  16  28  49  73  94 119 154 198 243 291
#
# _framework density 23.888642000000001
#
# number of rings (size 3 to 8) (size 9 to 14) (size 15 to 20)
#    0.000    2.692    0.769    2.308    0.000    4.308 
#    0.000    5.000    0.000    1.846    0.000    1.077 
#    0.000    0.000    0.000   13.231    0.000   10.769 
#
# Total GULP energy -289540.489881 kJ/mol
# GULP energy per Si atom -5568.086344 kJ/mol
# Density = 2.383427 g / cm^3
# Si number density = 23.888642 Si / 1000 Ang^3
#
#
#
# Elastic Constant Matrix: (Units=GPa)
#
#
# Indices 1 2 3 4 5 6 
#
# 1 36.9137 38.3736 2.8285 0.0000 0.0000 0.0000
# 2 38.3736 177.5101 9.0495 0.0000 0.0000 0.0000
# 3 2.8285 9.0495 74.8558 0.0000 0.0000 0.0000
# 4 0.0000 0.0000 0.0000 -31.4246 0.0000 0.0000
# 5 0.0000 0.0000 0.0000 0.0000 -3.8449 0.0000
# 6 0.0000 0.0000 0.0000 0.0000 0.0000 12.8775
#
#
#
# Elastic Compliance Matrix: (Units=1/GPa)
#
#
# Indices 1 2 3 4 5 6 
#
# 1 0.034955 -0.007536 -0.000410 0.000000 0.000000 0.000000
# 2 -0.007536 0.007293 -0.000597 0.000000 0.000000 0.000000
# 3 -0.000410 -0.000597 0.013447 0.000000 0.000000 0.000000
# 4 0.000000 0.000000 0.000000 -0.031822 0.000000 0.000000
# 5 0.000000 0.000000 0.000000 0.000000 -0.260087 0.000000
# 6 0.000000 0.000000 0.000000 0.000000 0.000000 0.077655
#
#
# Mechanical properties :
#
#
# Convention : Reuss Voigt Hill
#
# Bulk Modulus (GPa) = 25.89992 43.30920 34.60456
# Shear Modulus (GPa) = -38.87883 11.45682 -13.71100
#
# Velocity S-wave (km/s) = -4.03861 2.19234 -2.39833
# Velocity P-wave (km/s) = 3.29874 4.95756 2.61685
#
# Compressibility (1/GPa) = 0.03861015
#
# Stress axis : x y z
#
# Youngs Moduli (GPa) = 28.60797 137.11886 74.36792
#
# Poissons Ratio (x) = 1.03328 0.03048
# Poissons Ratio (y) = 0.21558 0.04439
# Poissons Ratio (z) = 0.01172 0.08185
#
# Static dielectric constant tensor:
#      x y z
#    x 1.860750 0.000000 0.000000 
#    y 0.000000 2.071240 0.000000 
#    z 0.000000 0.000000 1.898160 
# 
# From -- ./inp_files/17659.got.cif
#   From: 2010.05.17/outbox.cif.g08.bks.cpg/sg47_9_cif.got.tgz:17659.got - 2010.06.03 20:15:42.
