data_PCOD9383944
_publ_section_title
;
Structure prediction by ZEFSAII (Michael W. Deem and Ramdas Pophale) SiO2 
 PCOD9383944
Probable space group: P M M M
;
_chemical_formula_sum "Si O2"
_cell_formula_units_Z 56
_cell_length_a 10.098905
_cell_length_b 20.405634
_cell_length_c 13.910394
_cell_angle_alpha 90.000000
_cell_angle_beta 90.000000
_cell_angle_gamma 90.000000
_cell_volume 2866.578312
_symmetry_space_group_name_H-M "P M M M"
_symmetry_group_IT_number 47
_symmetry_cell_setting 'orthorhombic'
loop_
_space_group_symop_operation_xyz
x,y,z
-x,-y,z
x,-y,-z
-x,y,-z
-x,-y,-z
x,y,-z
-x,y,z
x,-y,z
loop_
_atom_site_type_symbol
_atom_site_label
_atom_site_fract_x
_atom_site_fract_y
_atom_site_fract_z
Si Si1 0.853493 0.152669 0.890300
Si Si2 0.856206 0.706778 0.195583
Si Si3 0.264451 0.322983 0.612690
Si Si4 0.650945 0.385249 0.884639
Si Si5 0.847611 0.500000 0.117299
Si Si6 0.343208 0.827936 0.395340
Si Si7 0.342699 0.076429 0.773759
Si Si8 0.500000 0.575947 0.616533
O O1 0.851323 0.215500 0.820263
O O2 0.740325 0.101976 0.863694
O O3 0.000000 0.122529 0.881644
O O4 0.839130 0.176800 0.000000
O O5 0.845948 0.681438 0.305017
O O6 0.723997 0.680969 0.144279
O O7 0.000000 0.684831 0.154532
O O8 0.226333 0.331927 0.500000
O O9 0.326609 0.249878 0.620927
O O10 0.370625 0.379663 0.639148
O O11 0.500000 0.392947 0.848698
O O12 0.757843 0.438908 0.851700
O O13 0.643645 0.390392 0.000000
O O14 0.000000 0.500000 0.150855
O O15 0.852586 0.500000 0.000000
O O16 0.283255 0.842227 0.500000
O O17 0.500000 0.839475 0.400129
O O18 0.295870 0.877304 0.313927
O O19 0.500000 0.086216 0.788264
O O20 0.320778 0.000000 0.754034
O O21 0.500000 0.500000 0.652009
O O22 0.500000 0.572154 0.500000
#
# Coordination Sequence:
#
# PCOD9383944 Si02
#       8
#     8   8   8   8   4   8   8   4
#     4  10  22  40  60  82 111 151 199 246 295 356
#     4  11  23  38  58  84 114 149 191 245 300 355
#     4  10  19  34  59  86 114 151 193 239 292 349
#     4  10  21  36  56  83 113 147 191 241 291 346
#     4   9  17  33  57  81 112 153 190 231 289 356
#     4   9  16  30  55  86 118 152 190 234 288 352
#     4  10  21  36  57  87 121 154 192 243 294 346
#     4   9  18  34  58  90 122 154 197 246 296 346
#
# _framework density 19.535484
#
# number of rings (size 3 to 8) (size 9 to 14) (size 15 to 20)
#    0.000    2.143    2.143    1.071    1.000    4.286 
#    1.286    2.857    0.000    0.429    0.000    3.000 
#    0.000    0.000    0.000    0.000    0.000    0.000 
#
# Total GULP energy -311943.040543 kJ/mol
# GULP energy per Si atom -5570.411438 kJ/mol
# Density = 1.949102 g / cm^3
# Si number density = 19.535484 Si / 1000 Ang^3
#
#
#
# Elastic Constant Matrix: (Units=GPa)
#
#
# Indices 1 2 3 4 5 6 
#
# 1 118.0638 53.2059 33.4322 0.0000 0.0000 0.0000
# 2 53.2059 94.4608 28.7964 0.0000 0.0000 0.0000
# 3 33.4322 28.7964 58.7322 0.0000 0.0000 0.0000
# 4 0.0000 0.0000 0.0000 25.1462 0.0000 0.0000
# 5 0.0000 0.0000 0.0000 0.0000 23.3016 0.0000
# 6 0.0000 0.0000 0.0000 0.0000 0.0000 17.1321
#
#
#
# Elastic Compliance Matrix: (Units=1/GPa)
#
#
# Indices 1 2 3 4 5 6 
#
# 1 0.012171 -0.005577 -0.004194 0.000000 0.000000 0.000000
# 2 -0.005577 0.015002 -0.004181 0.000000 0.000000 0.000000
# 3 -0.004194 -0.004181 0.021464 0.000000 0.000000 0.000000
# 4 0.000000 0.000000 0.000000 0.039767 0.000000 0.000000
# 5 0.000000 0.000000 0.000000 0.000000 0.042916 0.000000
# 6 0.000000 0.000000 0.000000 0.000000 0.000000 0.058370
#
#
# Mechanical properties :
#
#
# Convention : Reuss Voigt Hill
#
# Bulk Modulus (GPa) = 48.23137 55.79177 52.01157
# Shear Modulus (GPa) = 22.27134 23.50413 22.88773
#
# Velocity S-wave (km/s) = 3.38012 3.47241 3.42657
# Velocity P-wave (km/s) = 6.32268 6.68566 6.50670
#
# Compressibility (1/GPa) = 0.02073340
#
# Stress axis : x y z
#
# Youngs Moduli (GPa) = 82.16431 66.65685 46.59059
#
# Poissons Ratio (x) = 0.37173 0.19538
# Poissons Ratio (y) = 0.45822 0.19480
# Poissons Ratio (z) = 0.34457 0.27870
#
# Static dielectric constant tensor:
#      x y z
#    x 1.678510 0.000000 0.000000 
#    y 0.000000 1.703090 0.000000 
#    z 0.000000 0.000000 1.749930 
# 
# From -- ./inp_files/21667.got.cif
#   From: 2010.05.17/outbox.cif.g08.bks.cpg/sg47_11_cif.got.tgz:21667.got - 2010.06.03 20:15:42.
