data_PCOD9383148
_publ_section_title
;
Structure prediction by ZEFSAII (Michael W. Deem and Ramdas Pophale) SiO2 
 PCOD9383148
Probable space group: P M M M
;
_chemical_formula_sum "Si O2"
_cell_formula_units_Z 52
_cell_length_a 7.891804
_cell_length_b 18.022313
_cell_length_c 18.340028
_cell_angle_alpha 90.000000
_cell_angle_beta 90.000000
_cell_angle_gamma 90.000000
_cell_volume 2608.475806
_symmetry_space_group_name_H-M "P M M M"
_symmetry_group_IT_number 47
_symmetry_cell_setting 'orthorhombic'
loop_
_space_group_symop_operation_xyz
x,y,z
-x,-y,z
x,-y,-z
-x,y,-z
-x,-y,-z
x,y,-z
-x,y,z
x,-y,z
loop_
_atom_site_type_symbol
_atom_site_label
_atom_site_fract_x
_atom_site_fract_y
_atom_site_fract_z
Si Si1 0.205382 0.914956 0.809876
Si Si2 0.311530 0.190141 0.679514
Si Si3 0.691688 0.631379 0.691111
Si Si4 0.693210 0.412104 0.000000
Si Si5 0.197997 0.351357 0.154325
Si Si6 0.000000 0.195840 0.418378
Si Si7 0.000000 0.623672 0.414541
Si Si8 0.206402 0.204594 0.081967
O O1 0.283519 0.861808 0.748962
O O2 0.247716 0.875689 0.886424
O O3 0.000000 0.912366 0.802110
O O4 0.259387 0.000000 0.804794
O O5 0.500000 0.179711 0.650337
O O6 0.291680 0.278407 0.694698
O O7 0.166085 0.170348 0.623192
O O8 0.500000 0.613120 0.668103
O O9 0.718510 0.609574 0.775959
O O10 0.834040 0.603650 0.634137
O O11 0.781483 0.388746 0.075312
O O12 0.686512 0.500000 0.000000
O O13 0.500000 0.382946 0.000000
O O14 0.266258 0.268686 0.136924
O O15 0.000000 0.345892 0.173520
O O16 0.000000 0.169281 0.500000
O O17 0.000000 0.286143 0.418337
O O18 0.000000 0.598273 0.500000
O O19 0.000000 0.210959 0.080462
O O20 0.267191 0.217224 0.000000
#
# Coordination Sequence:
#
# PCOD9383148 Si02
#       8
#     8   8   8   4   8   4   4   8
#     4  10  19  31  50  72 100 138 177 226 283 331
#     4  10  19  31  51  74 100 135 176 222 271 332
#     4  10  19  31  52  81 109 146 193 233 278 339
#     4  11  25  41  55  81 124 163 196 239 284 326
#     4  11  19  33  58  82 109 149 196 241 276 325
#     4   9  18  32  51  74 103 132 165 218 276 335
#     4   9  18  32  50  78 115 148 178 228 292 343
#     4   9  17  29  49  77 103 134 181 230 277 324
#
# _framework density 19.935013999999999
#
# number of rings (size 3 to 8) (size 9 to 14) (size 15 to 20)
#    0.000    2.077    3.846    0.692    0.000    1.846 
#    0.000    4.615    0.000    0.923    0.000    2.154 
#    0.000    1.231    0.000    3.231    0.000    0.154 
#
# Total GULP energy -290029.373700 kJ/mol
# GULP energy per Si atom -5577.487956 kJ/mol
# Density = 1.988964 g / cm^3
# Si number density = 19.935014 Si / 1000 Ang^3
#
#
#
# Elastic Constant Matrix: (Units=GPa)
#
#
# Indices 1 2 3 4 5 6 
#
# 1 92.8691 3.7698 52.9990 0.0000 0.0000 0.0000
# 2 3.7698 28.6063 -0.2589 0.0000 0.0000 0.0000
# 3 52.9990 -0.2589 136.2061 0.0000 0.0000 0.0000
# 4 0.0000 0.0000 0.0000 -13.1813 0.0000 0.0000
# 5 0.0000 0.0000 0.0000 0.0000 -23.1039 0.0000
# 6 0.0000 0.0000 0.0000 0.0000 0.0000 9.1968
#
#
#
# Elastic Compliance Matrix: (Units=1/GPa)
#
#
# Indices 1 2 3 4 5 6 
#
# 1 0.013943 -0.001887 -0.005429 0.000000 0.000000 0.000000
# 2 -0.001887 0.035213 0.000801 0.000000 0.000000 0.000000
# 3 -0.005429 0.000801 0.009456 0.000000 0.000000 0.000000
# 4 0.000000 0.000000 0.000000 -0.075865 0.000000 0.000000
# 5 0.000000 0.000000 0.000000 0.000000 -0.043283 0.000000
# 6 0.000000 0.000000 0.000000 0.000000 0.000000 0.108734
#
#
# Mechanical properties :
#
#
# Convention : Reuss Voigt Hill
#
# Bulk Modulus (GPa) = 21.93809 41.18905 31.56357
# Shear Modulus (GPa) = 65.42820 7.99377 36.71099
#
# Velocity S-wave (km/s) = 5.73515 2.00465 4.29596
# Velocity P-wave (km/s) = 7.40842 5.10536 6.36197
#
# Compressibility (1/GPa) = 0.04558283
#
# Stress axis : x y z
#
# Youngs Moduli (GPa) = 71.72300 28.39849 105.75625
#
# Poissons Ratio (x) = 0.05357 0.57412
# Poissons Ratio (y) = 0.13531 -0.08471
# Poissons Ratio (z) = 0.38937 -0.02275
#
# Static dielectric constant tensor:
#      x y z
#    x 1.719260 0.000000 0.000000 
#    y 0.000000 1.701150 0.000000 
#    z 0.000000 0.000000 1.703920 
# 
# From -- ./inp_files/26789.got.cif
#   From: 2010.05.17/outbox.cif.g08.bks.cpg/sg47_14_cif.got.tgz:26789.got - 2010.06.03 20:15:42.
