data_PCOD9383747
_publ_section_title
;
Structure prediction by ZEFSAII (Michael W. Deem and Ramdas Pophale) SiO2 
 PCOD9383747
Probable space group: P M M M
;
_chemical_formula_sum "Si O2"
_cell_formula_units_Z 56
_cell_length_a 22.092927
_cell_length_b 7.864318
_cell_length_c 14.800088
_cell_angle_alpha 90.000000
_cell_angle_beta 90.000000
_cell_angle_gamma 90.000000
_cell_volume 2571.453181
_symmetry_space_group_name_H-M "P M M M"
_symmetry_group_IT_number 47
_symmetry_cell_setting 'orthorhombic'
loop_
_space_group_symop_operation_xyz
x,y,z
-x,-y,z
x,-y,-z
-x,y,-z
-x,-y,-z
x,y,-z
-x,y,z
x,-y,z
loop_
_atom_site_type_symbol
_atom_site_label
_atom_site_fract_x
_atom_site_fract_y
_atom_site_fract_z
Si Si1 0.572263 0.193428 0.097927
Si Si2 0.815764 0.208574 0.604323
Si Si3 0.697672 0.797384 0.289337
Si Si4 0.747181 0.205215 0.899527
Si Si5 0.934382 0.798976 0.291407
Si Si6 0.567462 0.306026 0.702099
Si Si7 0.888031 0.703026 0.898944
O O1 0.500000 0.177916 0.089821
O O2 0.577784 0.296190 0.189568
O O3 0.596547 0.000000 0.110970
O O4 0.593861 0.257120 0.000000
O O5 0.818117 0.257791 0.500000
O O6 0.753772 0.267406 0.651506
O O7 0.875216 0.269675 0.657742
O O8 0.815426 0.000000 0.607952
O O9 0.708226 0.734033 0.186029
O O10 0.631324 0.766438 0.331015
O O11 0.704003 0.000000 0.283951
O O12 0.817200 0.253788 0.884725
O O13 0.744257 0.000000 0.901747
O O14 0.730470 0.267795 0.000000
O O15 0.924428 0.777998 0.184431
O O16 0.000000 0.726372 0.317155
O O17 0.935791 0.000000 0.311460
O O18 0.500000 0.228317 0.684600
O O19 0.564323 0.500000 0.672854
O O20 0.895180 0.500000 0.897216
O O21 0.904549 0.763844 0.000000
#
# Coordination Sequence:
#
# PCOD9383747 Si02
#       7
#     8   8   8   8   8   8   8
#     4   8  14  26  44  65  92 130 175 217 256 306
#     4   9  18  35  59  87 115 139 173 225 279 329
#     4  10  19  33  55  80 106 140 180 222 272 326
#     4   9  17  31  52  77 106 140 182 230 274 319
#     4  10  20  35  57  85 116 150 187 225 269 321
#     4  10  21  34  48  71 104 139 175 220 273 326
#     4  10  20  33  51  77 112 153 192 230 272 316
#
# _framework density 21.777570000000001
#
# number of rings (size 3 to 8) (size 9 to 14) (size 15 to 20)
#    0.000    2.571    1.429    1.286    0.000    4.000 
#    0.000    5.714    0.000    2.143    0.000    4.000 
#    0.000    0.000    0.000    0.000    0.000    0.000 
#
# Total GULP energy -312205.410030 kJ/mol
# GULP energy per Si atom -5575.096608 kJ/mol
# Density = 2.172800 g / cm^3
# Si number density = 21.777570 Si / 1000 Ang^3
#
#
#
# Elastic Constant Matrix: (Units=GPa)
#
#
# Indices 1 2 3 4 5 6 
#
# 1 185.3835 4.7920 68.5266 0.0000 0.0000 0.0000
# 2 4.7920 18.3762 1.0149 0.0000 0.0000 0.0000
# 3 68.5266 1.0149 78.3458 0.0000 0.0000 0.0000
# 4 0.0000 0.0000 0.0000 1.1793 0.0000 0.0000
# 5 0.0000 0.0000 0.0000 0.0000 -2.2175 0.0000
# 6 0.0000 0.0000 0.0000 0.0000 0.0000 -36.5402
#
#
#
# Elastic Compliance Matrix: (Units=1/GPa)
#
#
# Indices 1 2 3 4 5 6 
#
# 1 0.008025 -0.001706 -0.006997 0.000000 0.000000 0.000000
# 2 -0.001706 0.054820 0.000782 0.000000 0.000000 0.000000
# 3 -0.006997 0.000782 0.018874 0.000000 0.000000 0.000000
# 4 0.000000 0.000000 0.000000 0.847980 0.000000 0.000000
# 5 0.000000 0.000000 0.000000 0.000000 -0.450958 0.000000
# 6 0.000000 0.000000 0.000000 0.000000 0.000000 -0.027367
#
#
# Mechanical properties :
#
#
# Convention : Reuss Voigt Hill
#
# Bulk Modulus (GPa) = 15.17984 47.86361 31.52173
# Shear Modulus (GPa) = 10.22132 6.33577 8.27855
#
# Velocity S-wave (km/s) = 2.16880 1.70752 1.95184
# Velocity P-wave (km/s) = 3.64103 5.09054 4.42554
#
# Compressibility (1/GPa) = 0.06587683
#
# Stress axis : x y z
#
# Youngs Moduli (GPa) = 124.61530 18.24149 52.98377
#
# Poissons Ratio (x) = 0.03112 0.37072
# Poissons Ratio (y) = 0.21262 -0.04145
# Poissons Ratio (z) = 0.87191 -0.01427
#
# Static dielectric constant tensor:
#      x y z
#    x 1.852170 0.000000 0.000000 
#    y 0.000000 1.829870 0.000000 
#    z 0.000000 0.000000 1.805330 
# 
# From -- ./inp_files/25118.got.cif
#   From: 2010.05.17/outbox.cif.g08.bks.cpg/sg47_13_cif.got.tgz:25118.got - 2010.06.03 20:15:42.
