data_PCOD9383959
_publ_section_title
;
Structure prediction by ZEFSAII (Michael W. Deem and Ramdas Pophale) SiO2 
 PCOD9383959
Probable space group: P M M M
;
_chemical_formula_sum "Si O2"
_cell_formula_units_Z 56
_cell_length_a 15.115372
_cell_length_b 22.900550
_cell_length_c 9.588016
_cell_angle_alpha 90.000000
_cell_angle_beta 90.000000
_cell_angle_gamma 90.000000
_cell_volume 3318.894924
_symmetry_space_group_name_H-M "P M M M"
_symmetry_group_IT_number 47
_symmetry_cell_setting 'orthorhombic'
loop_
_space_group_symop_operation_xyz
x,y,z
-x,-y,z
x,-y,-z
-x,y,-z
-x,-y,-z
x,y,-z
-x,y,z
x,-y,z
loop_
_atom_site_type_symbol
_atom_site_label
_atom_site_fract_x
_atom_site_fract_y
_atom_site_fract_z
Si Si1 0.855388 0.568277 0.343044
Si Si2 0.603823 0.740107 0.333880
Si Si3 0.772615 0.222776 0.830890
Si Si4 0.904699 0.325662 0.834818
Si Si5 0.100927 0.000000 0.331385
Si Si6 0.603345 0.500000 0.850323
Si Si7 0.348213 0.394802 0.345119
Si Si8 0.892977 0.869748 0.667654
O O1 0.892416 0.571050 0.500000
O O2 0.853071 0.500000 0.302025
O O3 0.902045 0.612157 0.239284
O O4 0.756605 0.594427 0.350736
O O5 0.618078 0.751349 0.500000
O O6 0.500000 0.751688 0.302879
O O7 0.675832 0.773905 0.240219
O O8 0.623298 0.671002 0.312098
O O9 0.824065 0.283402 0.796956
O O10 0.834538 0.174059 0.758926
O O11 0.768334 0.216700 0.000000
O O12 0.000000 0.297004 0.801721
O O13 0.899919 0.334232 0.000000
O O14 0.136826 0.936204 0.294665
O O15 0.097811 0.000000 0.500000
O O16 0.000000 0.000000 0.279927
O O17 0.500000 0.500000 0.868983
O O18 0.622644 0.441791 0.766074
O O19 0.650363 0.500000 0.000000
O O20 0.383844 0.408589 0.500000
O O21 0.879935 0.860835 0.500000
O O22 0.000000 0.864707 0.691123
#
# Coordination Sequence:
#
# PCOD9383959 Si02
#       8
#     8   8   8   8   4   4   8   8
#     4  10  20  35  54  74  94 119 159 210 261 313
#     4  10  21  37  57  78  99 128 171 221 268 318
#     4  11  22  35  53  78 111 145 176 216 263 317
#     4  10  22  38  53  71  98 134 172 209 254 307
#     4   7  12  26  49  79 114 149 186 225 259 294
#     4  11  23  33  45  71 100 123 154 197 249 318
#     4  10  19  35  55  72  93 123 159 204 260 317
#     4   9  17  31  54  83 115 152 190 224 258 299
#
# _framework density 16.873085
#
# number of rings (size 3 to 8) (size 9 to 14) (size 15 to 20)
#    0.000    2.143    2.143    2.357    0.000    4.857 
#    0.000    1.786    0.000    1.286    0.000    0.500 
#    0.000    4.000    0.000    0.000    0.000    0.000 
#
# Total GULP energy -311886.430053 kJ/mol
# GULP energy per Si atom -5569.400537 kJ/mol
# Density = 1.683468 g / cm^3
# Si number density = 16.873085 Si / 1000 Ang^3
#
#
#
# Elastic Constant Matrix: (Units=GPa)
#
#
# Indices 1 2 3 4 5 6 
#
# 1 106.4009 40.9630 47.0734 0.0000 0.0000 0.0000
# 2 40.9630 101.2993 51.4339 0.0000 0.0000 0.0000
# 3 47.0734 51.4339 65.4203 0.0000 0.0000 0.0000
# 4 0.0000 0.0000 0.0000 18.8744 0.0000 0.0000
# 5 0.0000 0.0000 0.0000 0.0000 22.2669 0.0000
# 6 0.0000 0.0000 0.0000 0.0000 0.0000 18.3562
#
#
#
# Elastic Compliance Matrix: (Units=1/GPa)
#
#
# Indices 1 2 3 4 5 6 
#
# 1 0.013837 -0.000899 -0.009249 0.000000 0.000000 0.000000
# 2 -0.000899 0.016489 -0.012317 0.000000 0.000000 0.000000
# 3 -0.009249 -0.012317 0.031625 0.000000 0.000000 0.000000
# 4 0.000000 0.000000 0.000000 0.052982 0.000000 0.000000
# 5 0.000000 0.000000 0.000000 0.000000 0.044910 0.000000
# 6 0.000000 0.000000 0.000000 0.000000 0.000000 0.054478
#
#
# Mechanical properties :
#
#
# Convention : Reuss Voigt Hill
#
# Bulk Modulus (GPa) = 58.75469 61.34011 60.04740
# Shear Modulus (GPa) = 18.87335 20.80952 19.84144
#
# Velocity S-wave (km/s) = 3.34810 3.51564 3.43289
# Velocity P-wave (km/s) = 7.05999 7.27409 7.16784
#
# Compressibility (1/GPa) = 0.01701992
#
# Stress axis : x y z
#
# Youngs Moduli (GPa) = 72.27233 60.64620 31.62056
#
# Poissons Ratio (x) = 0.05451 0.29247
# Poissons Ratio (y) = 0.06496 0.38947
# Poissons Ratio (z) = 0.66848 0.74698
#
# Static dielectric constant tensor:
#      x y z
#    x 1.610470 0.000000 0.000000 
#    y 0.000000 1.542180 0.000000 
#    z 0.000000 0.000000 1.748010 
# 
# From -- ./inp_files/7395.got.cif
#   From: 2010.05.17/outbox.cif.g08.bks.cpg/sg47_4_cif.got.tgz:7395.got - 2010.06.03 20:15:42.
