data_PCOD9383036
_publ_section_title
;
Structure prediction by ZEFSAII (Michael W. Deem and Ramdas Pophale) SiO2 
 PCOD9383036
Probable space group: P M M M
;
_chemical_formula_sum "Si O2"
_cell_formula_units_Z 56
_cell_length_a 19.524215
_cell_length_b 8.299625
_cell_length_c 19.477488
_cell_angle_alpha 90.000000
_cell_angle_beta 90.000000
_cell_angle_gamma 90.000000
_cell_volume 3156.203500
_symmetry_space_group_name_H-M "P M M M"
_symmetry_group_IT_number 47
_symmetry_cell_setting 'orthorhombic'
loop_
_space_group_symop_operation_xyz
x,y,z
-x,-y,z
x,-y,-z
-x,y,-z
-x,-y,-z
x,y,-z
-x,y,z
x,-y,z
loop_
_atom_site_type_symbol
_atom_site_label
_atom_site_fract_x
_atom_site_fract_y
_atom_site_fract_z
Si Si1 0.790777 0.194426 0.788041
Si Si2 0.076544 0.805783 0.707152
Si Si3 0.156570 0.305228 0.577827
Si Si4 0.291455 0.692405 0.340049
Si Si5 0.421961 0.194392 0.421209
Si Si6 0.278638 0.192115 0.077723
Si Si7 0.574106 0.689126 0.083102
O O1 0.863129 0.253838 0.757567
O O2 0.732050 0.240088 0.733421
O O3 0.771908 0.255560 0.863726
O O4 0.793809 0.000000 0.790693
O O5 0.100497 0.758230 0.630947
O O6 0.000000 0.746650 0.722173
O O7 0.075892 0.000000 0.711438
O O8 0.147053 0.249654 0.500000
O O9 0.154444 0.500000 0.578489
O O10 0.230996 0.255684 0.607298
O O11 0.290285 0.500000 0.336034
O O12 0.364305 0.746060 0.369290
O O13 0.406780 0.246653 0.500000
O O14 0.500000 0.245999 0.404880
O O15 0.421257 0.000000 0.420885
O O16 0.356226 0.224208 0.102930
O O17 0.269605 0.000000 0.073342
O O18 0.270606 0.258033 0.000000
O O19 0.500000 0.750735 0.108179
O O20 0.579017 0.500000 0.100631
O O21 0.572255 0.699667 0.000000
#
# Coordination Sequence:
#
# PCOD9383036 Si02
#       7
#     8   8   8   8   8   8   8
#     4   9  18  33  50  67  91 122 152 185 231 283
#     4   9  18  32  49  68  90 119 154 187 219 262
#     4   9  18  31  46  67  95 123 149 181 225 272
#     4  10  19  31  48  69  93 121 157 198 234 272
#     4   9  18  32  49  69  94 126 163 200 238 278
#     4   9  17  29  47  70  92 116 150 191 231 273
#     4   8  14  25  41  62  89 118 144 173 214 262
#
# _framework density 17.742834999999999
#
# number of rings (size 3 to 8) (size 9 to 14) (size 15 to 20)
#    0.000    3.000    0.000    1.714    0.000    3.429 
#    0.000    4.286    0.000    1.286    0.000    3.000 
#    0.000    0.000    0.000   10.714    0.000   11.143 
#
# Total GULP energy -311933.743070 kJ/mol
# GULP energy per Si atom -5570.245412 kJ/mol
# Density = 1.770245 g / cm^3
# Si number density = 17.742835 Si / 1000 Ang^3
#
#
#
# Elastic Constant Matrix: (Units=GPa)
#
#
# Indices 1 2 3 4 5 6 
#
# 1 122.5817 9.0907 76.2626 0.0000 0.0000 0.0000
# 2 9.0907 3.8214 9.5988 0.0000 0.0000 0.0000
# 3 76.2626 9.5988 113.1588 0.0000 0.0000 0.0000
# 4 0.0000 0.0000 0.0000 9.7300 0.0000 0.0000
# 5 0.0000 0.0000 0.0000 0.0000 12.8792 0.0000
# 6 0.0000 0.0000 0.0000 0.0000 0.0000 10.5103
#
#
#
# Elastic Compliance Matrix: (Units=1/GPa)
#
#
# Indices 1 2 3 4 5 6 
#
# 1 0.014514 -0.012653 -0.008708 0.000000 0.000000 0.000000
# 2 -0.012653 0.343564 -0.020615 0.000000 0.000000 0.000000
# 3 -0.008708 -0.020615 0.016455 0.000000 0.000000 0.000000
# 4 0.000000 0.000000 0.000000 0.102775 0.000000 0.000000
# 5 0.000000 0.000000 0.000000 0.000000 0.077644 0.000000
# 6 0.000000 0.000000 0.000000 0.000000 0.000000 0.095145
#
#
# Mechanical properties :
#
#
# Convention : Reuss Voigt Hill
#
# Bulk Modulus (GPa) = 3.44141 47.71847 25.57994
# Shear Modulus (GPa) = 6.01749 16.26455 11.14102
#
# Velocity S-wave (km/s) = 1.84360 3.03096 2.50854
# Velocity P-wave (km/s) = 2.54473 6.26114 4.77899
#
# Compressibility (1/GPa) = 0.29057893
#
# Stress axis : x y z
#
# Youngs Moduli (GPa) = 68.89942 2.91066 60.77290
#
# Poissons Ratio (x) = 0.03683 0.52922
# Poissons Ratio (y) = 0.87181 1.25286
# Poissons Ratio (z) = 0.59999 0.06000
#
# Static dielectric constant tensor:
#      x y z
#    x 1.623620 0.000000 0.000000 
#    y 0.000000 1.613620 0.000000 
#    z 0.000000 0.000000 1.611770 
# 
# From -- ./inp_files/11513.got.cif
#   From: 2010.05.17/outbox.cif.g08.bks.cpg/sg47_6_cif.got.tgz:11513.got - 2010.06.03 20:15:42.
