data_PCOD9383008
_publ_section_title
;
Structure prediction by ZEFSAII (Michael W. Deem and Ramdas Pophale) SiO2 
 PCOD9383008
Probable space group: P M M M
;
_chemical_formula_sum "Si O2"
_cell_formula_units_Z 64
_cell_length_a 19.853945
_cell_length_b 7.725414
_cell_length_c 24.416719
_cell_angle_alpha 90.000000
_cell_angle_beta 90.000000
_cell_angle_gamma 90.000000
_cell_volume 3745.035009
_symmetry_space_group_name_H-M "P M M M"
_symmetry_group_IT_number 47
_symmetry_cell_setting 'orthorhombic'
loop_
_space_group_symop_operation_xyz
x,y,z
-x,-y,z
x,-y,-z
-x,y,-z
-x,-y,-z
x,y,-z
-x,y,z
x,-y,z
loop_
_atom_site_type_symbol
_atom_site_label
_atom_site_fract_x
_atom_site_fract_y
_atom_site_fract_z
Si Si1 0.789345 0.199313 0.828916
Si Si2 0.923614 0.208363 0.438350
Si Si3 0.574493 0.710925 0.893731
Si Si4 0.075878 0.290739 0.774993
Si Si5 0.843676 0.292738 0.331243
Si Si6 0.574847 0.711702 0.234036
Si Si7 0.712237 0.301370 0.277045
Si Si8 0.283777 0.290627 0.939537
O O1 0.867864 0.237885 0.818916
O O2 0.747041 0.302596 0.783162
O O3 0.763501 0.236524 0.889565
O O4 0.776707 0.000000 0.815964
O O5 0.906581 0.268251 0.500000
O O6 0.872428 0.257952 0.390915
O O7 0.000000 0.269080 0.425538
O O8 0.925662 0.000000 0.439762
O O9 0.500000 0.767727 0.912315
O O10 0.574196 0.500000 0.895439
O O11 0.582741 0.760714 0.829892
O O12 0.639824 0.769029 0.926711
O O13 0.074042 0.500000 0.774169
O O14 0.104864 0.230583 0.716013
O O15 0.000000 0.228232 0.784341
O O16 0.839843 0.500000 0.324426
O O17 0.769319 0.222946 0.316491
O O18 0.500000 0.764651 0.252029
O O19 0.576656 0.500000 0.234609
O O20 0.638346 0.776802 0.268615
O O21 0.701780 0.500000 0.294703
O O22 0.284792 0.500000 0.939531
O O23 0.262866 0.231901 0.000000
#
# Coordination Sequence:
#
# PCOD9383008 Si02
#       8
#     8   8   8   8   8   8   8   8
#     4  11  21  31  45  65  90 116 142 175 216 262
#     4   9  18  31  44  59  85 123 159 186 213 247
#     4   8  13  22  40  66  88 106 138 183 220 251
#     4   9  18  33  52  71  91 114 140 175 218 263
#     4   9  17  27  43  68  93 117 144 178 217 253
#     4   8  12  20  40  65  85 110 144 181 218 256
#     4   9  16  29  46  63  89 118 147 183 220 261
#     4  10  19  31  48  65  83 112 147 181 218 262
#
# _framework density 17.089292
#
# number of rings (size 3 to 8) (size 9 to 14) (size 15 to 20)
#    0.000    2.875    1.250    3.375    0.000    3.750 
#    0.000    1.875    0.000    1.875    0.000    3.500 
#    0.000    0.500    0.000    6.250    0.000    1.000 
#
# Total GULP energy -356639.481746 kJ/mol
# GULP energy per Si atom -5572.491902 kJ/mol
# Density = 1.705040 g / cm^3
# Si number density = 17.089292 Si / 1000 Ang^3
#
#
#
# Elastic Constant Matrix: (Units=GPa)
#
#
# Indices 1 2 3 4 5 6 
#
# 1 134.0147 1.1802 66.4384 0.0000 0.0000 0.0000
# 2 1.1802 30.5714 -1.1517 0.0000 0.0000 0.0000
# 3 66.4384 -1.1517 98.1707 0.0000 0.0000 0.0000
# 4 0.0000 0.0000 0.0000 31.4912 0.0000 0.0000
# 5 0.0000 0.0000 0.0000 0.0000 27.3729 0.0000
# 6 0.0000 0.0000 0.0000 0.0000 0.0000 -21.1046
#
#
#
# Elastic Compliance Matrix: (Units=1/GPa)
#
#
# Indices 1 2 3 4 5 6 
#
# 1 0.011245 -0.000721 -0.007619 0.000000 0.000000 0.000000
# 2 -0.000721 0.032771 0.000873 0.000000 0.000000 0.000000
# 3 -0.007619 0.000873 0.015353 0.000000 0.000000 0.000000
# 4 0.000000 0.000000 0.000000 0.031755 0.000000 0.000000
# 5 0.000000 0.000000 0.000000 0.000000 0.036532 0.000000
# 6 0.000000 0.000000 0.000000 0.000000 0.000000 -0.047383
#
#
# Mechanical properties :
#
#
# Convention : Reuss Voigt Hill
#
# Bulk Modulus (GPa) = 22.50528 43.96563 33.23545
# Shear Modulus (GPa) = 45.44640 20.63792 33.04216
#
# Velocity S-wave (km/s) = 5.16248 3.47890 4.40193
# Velocity P-wave (km/s) = 6.98089 6.47455 6.73248
#
# Compressibility (1/GPa) = 0.04443402
#
# Stress axis : x y z
#
# Youngs Moduli (GPa) = 88.92595 30.51478 65.13490
#
# Poissons Ratio (x) = 0.02201 0.49625
# Poissons Ratio (y) = 0.06413 -0.05683
# Poissons Ratio (z) = 0.67752 -0.02662
#
# Static dielectric constant tensor:
#      x y z
#    x 1.608080 0.000000 0.000000 
#    y 0.000000 1.638910 0.000000 
#    z 0.000000 0.000000 1.555030 
# 
# From -- ./inp_files/11924.got.cif
#   From: 2010.05.17/outbox.cif.g08.bks.cpg/sg47_6_cif.got.tgz:11924.got - 2010.06.03 20:15:42.
