data_PCOD9383738
_publ_section_title
;
Structure prediction by ZEFSAII (Michael W. Deem and Ramdas Pophale) SiO2 
 PCOD9383738
Probable space group: P M M M
;
_chemical_formula_sum "Si O2"
_cell_formula_units_Z 56
_cell_length_a 7.491293
_cell_length_b 15.873998
_cell_length_c 21.338534
_cell_angle_alpha 90.000000
_cell_angle_beta 90.000000
_cell_angle_gamma 90.000000
_cell_volume 2537.509542
_symmetry_space_group_name_H-M "P M M M"
_symmetry_group_IT_number 47
_symmetry_cell_setting 'orthorhombic'
loop_
_space_group_symop_operation_xyz
x,y,z
-x,-y,z
x,-y,-z
-x,y,-z
-x,-y,-z
x,y,-z
-x,y,z
x,-y,z
loop_
_atom_site_type_symbol
_atom_site_label
_atom_site_fract_x
_atom_site_fract_y
_atom_site_fract_z
Si Si1 0.795124 0.500000 0.925891
Si Si2 0.216571 0.856724 0.069242
Si Si3 0.214743 0.092722 0.426677
Si Si4 0.290417 0.911533 0.792489
Si Si5 0.207313 0.324606 0.887707
Si Si6 0.717679 0.731330 0.751278
Si Si7 0.281028 0.400728 0.500000
Si Si8 0.711164 0.283255 0.614465
O O1 0.708838 0.587297 0.906051
O O2 0.000000 0.500000 0.899795
O O3 0.806582 0.500000 0.000000
O O4 0.274455 0.903937 0.132107
O O5 0.279283 0.760491 0.080946
O O6 0.000000 0.858557 0.070064
O O7 0.273086 0.886040 0.000000
O O8 0.268294 0.096028 0.500000
O O9 0.268295 0.182683 0.397846
O O10 0.000000 0.091318 0.424343
O O11 0.276339 0.000000 0.401894
O O12 0.500000 0.912504 0.777586
O O13 0.217921 0.827466 0.761327
O O14 0.210096 0.000000 0.771949
O O15 0.218452 0.315471 0.813143
O O16 0.000000 0.326694 0.908139
O O17 0.500000 0.730802 0.752807
O O18 0.779761 0.698644 0.684270
O O19 0.227991 0.500000 0.500000
O O20 0.500000 0.400836 0.500000
O O21 0.220220 0.345111 0.439931
O O22 0.500000 0.298430 0.615881
#
# Coordination Sequence:
#
# PCOD9383738 Si02
#       8
#     4   8   8   8   8   8   4   8
#     4   9  16  28  51  79 101 124 161 208 254 300
#     4   9  17  29  46  68  93 121 155 199 246 284
#     4   9  18  32  50  75 108 140 164 197 255 315
#     4   9  18  32  47  63  90 128 163 195 234 284
#     4   9  17  31  50  71  96 127 162 199 242 296
#     4   9  19  34  50  71  99 130 164 202 247 293
#     4   9  18  34  54  77 104 130 165 215 262 303
#     4  10  19  33  55  79 101 133 176 217 255 299
#
# _framework density 22.068884000000001
#
# number of rings (size 3 to 8) (size 9 to 14) (size 15 to 20)
#    0.000    2.857    0.714    0.857    0.000    4.000 
#    1.286    3.929    0.000    2.571    0.000    0.000 
#    0.000    0.000    0.000    0.000    0.000    0.000 
#
# Total GULP energy -312277.853794 kJ/mol
# GULP energy per Si atom -5576.390246 kJ/mol
# Density = 2.201865 g / cm^3
# Si number density = 22.068884 Si / 1000 Ang^3
#
#
#
# Elastic Constant Matrix: (Units=GPa)
#
#
# Indices 1 2 3 4 5 6 
#
# 1 62.7466 -2.1854 -7.9918 0.0000 0.0000 0.0000
# 2 -2.1854 126.6093 27.5840 0.0000 0.0000 0.0000
# 3 -7.9918 27.5840 90.8028 0.0000 0.0000 0.0000
# 4 0.0000 0.0000 0.0000 -67.5859 0.0000 0.0000
# 5 0.0000 0.0000 0.0000 0.0000 11.0169 0.0000
# 6 0.0000 0.0000 0.0000 0.0000 0.0000 34.4039
#
#
#
# Elastic Compliance Matrix: (Units=1/GPa)
#
#
# Indices 1 2 3 4 5 6 
#
# 1 0.016118 -0.000033 0.001429 0.000000 0.000000 0.000000
# 2 -0.000033 0.008458 -0.002572 0.000000 0.000000 0.000000
# 3 0.001429 -0.002572 0.011920 0.000000 0.000000 0.000000
# 4 0.000000 0.000000 0.000000 -0.014796 0.000000 0.000000
# 5 0.000000 0.000000 0.000000 0.000000 0.090770 0.000000
# 6 0.000000 0.000000 0.000000 0.000000 0.000000 0.029066
#
#
# Mechanical properties :
#
#
# Convention : Reuss Voigt Hill
#
# Bulk Modulus (GPa) = 29.28888 34.99692 32.14290
# Shear Modulus (GPa) = 32.20184 13.08376 22.64280
#
# Velocity S-wave (km/s) = 3.82403 2.43751 3.20661
# Velocity P-wave (km/s) = 5.72695 4.88000 5.32036
#
# Compressibility (1/GPa) = 0.03414265
#
# Stress axis : x y z
#
# Youngs Moduli (GPa) = 62.04268 118.22891 83.89239
#
# Poissons Ratio (x) = 0.00391 -0.11985
# Poissons Ratio (y) = 0.00205 0.21580
# Poissons Ratio (z) = -0.08863 0.30412
#
# Static dielectric constant tensor:
#      x y z
#    x 1.843060 0.000000 0.000000 
#    y 0.000000 1.841240 0.000000 
#    z 0.000000 0.000000 1.791090 
# 
# From -- ./inp_files/29809.got.cif
#   From: 2010.05.17/outbox.cif.g08.bks.cpg/sg47_15_cif.got.tgz:29809.got - 2010.06.03 20:15:42.
