data_PCOD9383458
_publ_section_title
;
Structure prediction by ZEFSAII (Michael W. Deem and Ramdas Pophale) SiO2 
 PCOD9383458
Probable space group: P M M M
;
_chemical_formula_sum "Si O2"
_cell_formula_units_Z 52
_cell_length_a 21.483113
_cell_length_b 13.661149
_cell_length_c 7.421590
_cell_angle_alpha 90.000000
_cell_angle_beta 90.000000
_cell_angle_gamma 90.000000
_cell_volume 2178.117977
_symmetry_space_group_name_H-M "P M M M"
_symmetry_group_IT_number 47
_symmetry_cell_setting 'orthorhombic'
loop_
_space_group_symop_operation_xyz
x,y,z
-x,-y,z
x,-y,-z
-x,y,-z
-x,-y,-z
x,y,-z
-x,y,z
x,-y,z
loop_
_atom_site_type_symbol
_atom_site_label
_atom_site_fract_x
_atom_site_fract_y
_atom_site_fract_z
Si Si1 0.572147 0.888812 0.282457
Si Si2 0.896677 0.394070 0.709655
Si Si3 0.628139 0.310120 0.791747
Si Si4 0.931673 0.178571 0.281337
Si Si5 0.236946 0.681402 0.219782
Si Si6 0.201567 0.104742 0.791196
Si Si7 0.500000 0.384190 0.789347
O O1 0.573495 0.886506 0.500000
O O2 0.500000 0.866832 0.228447
O O3 0.619656 0.807317 0.213820
O O4 0.586059 0.000000 0.225529
O O5 0.915117 0.395749 0.500000
O O6 0.914305 0.500000 0.787694
O O7 0.922824 0.291483 0.782516
O O8 0.821840 0.381591 0.720289
O O9 0.693973 0.345722 0.718402
O O10 0.564306 0.347575 0.706628
O O11 0.628070 0.342754 0.000000
O O12 0.928356 0.178973 0.500000
O O13 0.873175 0.116834 0.216275
O O14 0.000000 0.143300 0.228988
O O15 0.226079 0.793068 0.284760
O O16 0.235688 0.680895 0.000000
O O17 0.219699 0.000000 0.710495
O O18 0.220643 0.103605 0.000000
O O19 0.500000 0.500000 0.787768
O O20 0.500000 0.350675 0.000000
#
# Coordination Sequence:
#
# PCOD9383458 Si02
#       7
#     8   8   8   8   8   8   4
#     4   9  18  32  49  70  98 130 158 189 238 296
#     4   9  18  33  52  73  98 129 164 202 244 291
#     4  10  19  32  52  75  97 126 165 207 249 292
#     4   9  18  32  50  74 102 129 160 201 245 287
#     4   9  19  33  50  73  98 127 165 207 248 291
#     4   9  18  33  50  68  96 133 167 200 240 286
#     4   9  18  32  48  69  98 126 155 197 248 299
#
# _framework density 23.873821
#
# number of rings (size 3 to 8) (size 9 to 14) (size 15 to 20)
#    0.000    2.846    0.769    0.462    0.000    3.692 
#    0.000    6.923    0.000    0.923    0.000    4.308 
#    0.000    0.000    0.000    0.000    0.000    0.000 
#
# Total GULP energy -290300.833688 kJ/mol
# GULP energy per Si atom -5582.708340 kJ/mol
# Density = 2.381948 g / cm^3
# Si number density = 23.873821 Si / 1000 Ang^3
#
#
#
# Elastic Constant Matrix: (Units=GPa)
#
#
# Indices 1 2 3 4 5 6 
#
# 1 88.6664 -23.5200 -7.0415 0.0000 0.0000 0.0000
# 2 -23.5200 60.5132 -1.3875 0.0000 0.0000 0.0000
# 3 -7.0415 -1.3875 82.9811 0.0000 0.0000 0.0000
# 4 0.0000 0.0000 0.0000 -130.0115 0.0000 0.0000
# 5 0.0000 0.0000 0.0000 0.0000 11.6762 0.0000
# 6 0.0000 0.0000 0.0000 0.0000 0.0000 -5.5976
#
#
#
# Elastic Compliance Matrix: (Units=1/GPa)
#
#
# Indices 1 2 3 4 5 6 
#
# 1 0.012685 0.004957 0.001159 0.000000 0.000000 0.000000
# 2 0.004957 0.018469 0.000729 0.000000 0.000000 0.000000
# 3 0.001159 0.000729 0.012162 0.000000 0.000000 0.000000
# 4 0.000000 0.000000 0.000000 -0.007692 0.000000 0.000000
# 5 0.000000 0.000000 0.000000 0.000000 0.085644 0.000000
# 6 0.000000 0.000000 0.000000 0.000000 0.000000 -0.178647
#
#
# Mechanical properties :
#
#
# Convention : Reuss Voigt Hill
#
# Bulk Modulus (GPa) = 17.54171 18.69585 18.11878
# Shear Modulus (GPa) = -96.02902 -7.17929 -51.60416
#
# Velocity S-wave (km/s) = -6.34909 -1.73600 -4.65428
# Velocity P-wave (km/s) = 6.81060 1.95700 4.61272
#
# Compressibility (1/GPa) = 0.05700700
#
# Stress axis : x y z
#
# Youngs Moduli (GPa) = 78.83195 54.14557 82.22667
#
# Poissons Ratio (x) = -0.26840 -0.09533
# Poissons Ratio (y) = -0.39077 -0.05998
# Poissons Ratio (z) = -0.09139 -0.03950
#
# Static dielectric constant tensor:
#      x y z
#    x 1.908970 0.000000 0.000000 
#    y 0.000000 1.909420 0.000000 
#    z 0.000000 0.000000 1.919450 
# 
# From -- ./inp_files/11044.got.cif
#   From: 2010.05.17/outbox.cif.g08.bks.cpg/sg47_6_cif.got.tgz:11044.got - 2010.06.03 20:15:42.
