data_PCOD9383219
_publ_section_title
;
Structure prediction by ZEFSAII (Michael W. Deem and Ramdas Pophale) SiO2 
 PCOD9383219
Probable space group: P M M M
;
_chemical_formula_sum "Si O2"
_cell_formula_units_Z 64
_cell_length_a 17.851743
_cell_length_b 20.810943
_cell_length_c 9.161486
_cell_angle_alpha 90.000000
_cell_angle_beta 90.000000
_cell_angle_gamma 90.000000
_cell_volume 3403.598377
_symmetry_space_group_name_H-M "P M M M"
_symmetry_group_IT_number 47
_symmetry_cell_setting 'orthorhombic'
loop_
_space_group_symop_operation_xyz
x,y,z
-x,-y,z
x,-y,-z
-x,y,-z
-x,-y,-z
x,y,-z
-x,y,z
x,-y,z
loop_
_atom_site_type_symbol
_atom_site_label
_atom_site_fract_x
_atom_site_fract_y
_atom_site_fract_z
Si Si1 0.698350 0.928442 0.329733
Si Si2 0.791949 0.574689 0.330476
Si Si3 0.367397 0.426544 0.174401
Si Si4 0.915366 0.340978 0.173705
Si Si5 0.119571 0.929712 0.329918
Si Si6 0.128098 0.198822 0.173432
Si Si7 0.305687 0.798916 0.173708
Si Si8 0.584104 0.699575 0.327133
O O1 0.679024 0.917908 0.500000
O O2 0.789293 0.929646 0.322208
O O3 0.671805 0.869395 0.232272
O O4 0.672584 0.000000 0.286384
O O5 0.775473 0.590076 0.500000
O O6 0.815469 0.500000 0.323685
O O7 0.717307 0.580584 0.233814
O O8 0.855852 0.619483 0.265576
O O9 0.391578 0.500000 0.206942
O O10 0.411875 0.370755 0.255248
O O11 0.369981 0.417859 0.000000
O O12 0.910414 0.265691 0.212819
O O13 0.000000 0.364109 0.196680
O O14 0.898121 0.345899 0.000000
O O15 0.098913 0.926190 0.500000
O O16 0.096781 0.864968 0.249069
O O17 0.094909 0.000000 0.273106
O O18 0.216850 0.207551 0.207119
O O19 0.121695 0.189756 0.000000
O O20 0.354275 0.744819 0.252765
O O21 0.314791 0.794052 0.000000
O O22 0.597974 0.694975 0.500000
O O23 0.500000 0.725737 0.304900
#
# Coordination Sequence:
#
# PCOD9383219 Si02
#       8
#     8   8   8   8   8   8   8   8
#     4   8  14  26  45  70 101 134 167 208 261 319
#     4  10  21  37  58  83 109 137 171 213 260 311
#     4  10  21  38  61  86 110 137 171 212 258 310
#     4  10  21  36  53  74 104 142 181 221 264 311
#     4   8  14  25  43  69  98 127 162 205 254 307
#     4   9  18  31  48  73 101 130 169 214 259 308
#     4  10  19  31  51  77 104 135 173 220 268 315
#     4  11  24  39  55  77 107 143 180 217 258 307
#
# _framework density 18.803628
#
# number of rings (size 3 to 8) (size 9 to 14) (size 15 to 20)
#    0.000    2.500    0.000    3.000    0.000    5.750 
#    0.000    5.000    0.000    0.750    0.000    5.250 
#    0.000    0.000    0.000    0.000    0.000    0.000 
#
# Total GULP energy -357109.596427 kJ/mol
# GULP energy per Si atom -5579.837444 kJ/mol
# Density = 1.876083 g / cm^3
# Si number density = 18.803628 Si / 1000 Ang^3
#
#
#
# Elastic Constant Matrix: (Units=GPa)
#
#
# Indices 1 2 3 4 5 6 
#
# 1 42.5822 37.2408 28.6587 0.0000 0.0000 0.0000
# 2 37.2408 80.5475 35.6621 0.0000 0.0000 0.0000
# 3 28.6587 35.6621 52.5242 0.0000 0.0000 0.0000
# 4 0.0000 0.0000 0.0000 40.6056 0.0000 0.0000
# 5 0.0000 0.0000 0.0000 0.0000 7.2757 0.0000
# 6 0.0000 0.0000 0.0000 0.0000 0.0000 -25.3645
#
#
#
# Elastic Compliance Matrix: (Units=1/GPa)
#
#
# Indices 1 2 3 4 5 6 
#
# 1 0.046878 -0.014798 -0.015531 0.000000 0.000000 0.000000
# 2 -0.014798 0.022422 -0.007150 0.000000 0.000000 0.000000
# 3 -0.015531 -0.007150 0.032368 0.000000 0.000000 0.000000
# 4 0.000000 0.000000 0.000000 0.024627 0.000000 0.000000
# 5 0.000000 0.000000 0.000000 0.000000 0.137443 0.000000
# 6 0.000000 0.000000 0.000000 0.000000 0.000000 -0.039425
#
#
# Mechanical properties :
#
#
# Convention : Reuss Voigt Hill
#
# Bulk Modulus (GPa) = 37.43795 42.08635 39.76215
# Shear Modulus (GPa) = 16.22461 9.44285 12.83373
#
# Velocity S-wave (km/s) = 2.94061 2.24337 2.61533
# Velocity P-wave (km/s) = 5.61095 5.39823 5.50562
#
# Compressibility (1/GPa) = 0.02671087
#
# Stress axis : x y z
#
# Youngs Moduli (GPa) = 21.33185 44.59853 30.89515
#
# Poissons Ratio (x) = 0.65995 0.47983
# Poissons Ratio (y) = 0.31566 0.22090
# Poissons Ratio (z) = 0.33131 0.31887
#
# Static dielectric constant tensor:
#      x y z
#    x 1.644140 0.000000 0.000000 
#    y 0.000000 1.656200 0.000000 
#    z 0.000000 0.000000 1.625880 
# 
# From -- ./inp_files/9936.got.cif
#   From: 2010.05.17/outbox.cif.g08.bks.cpg/sg47_5_cif.got.tgz:9936.got - 2010.06.03 20:15:42.
