data_PCOD9383104
_publ_section_title
;
Structure prediction by ZEFSAII (Michael W. Deem and Ramdas Pophale) SiO2 
 PCOD9383104
Probable space group: P M M M
;
_chemical_formula_sum "Si O2"
_cell_formula_units_Z 44
_cell_length_a 7.270596
_cell_length_b 30.419041
_cell_length_c 8.597467
_cell_angle_alpha 90.000000
_cell_angle_beta 90.000000
_cell_angle_gamma 90.000000
_cell_volume 1901.454987
_symmetry_space_group_name_H-M "P M M M"
_symmetry_group_IT_number 47
_symmetry_cell_setting 'orthorhombic'
loop_
_space_group_symop_operation_xyz
x,y,z
-x,-y,z
x,-y,-z
-x,y,-z
-x,-y,-z
x,y,-z
-x,y,z
x,-y,z
loop_
_atom_site_type_symbol
_atom_site_label
_atom_site_fract_x
_atom_site_fract_y
_atom_site_fract_z
Si Si1 0.221923 0.448274 0.000000
Si Si2 0.276134 0.769238 0.323844
Si Si3 0.277838 0.679608 0.174113
Si Si4 0.276042 0.139789 0.178124
Si Si5 0.787703 0.409130 0.672817
Si Si6 0.276664 0.047870 0.682128
O O1 0.290649 0.428642 0.165093
O O2 0.257792 0.500000 0.000000
O O3 0.000000 0.441169 0.000000
O O4 0.221952 0.760055 0.500000
O O5 0.500000 0.769998 0.318148
O O6 0.218003 0.728806 0.216424
O O7 0.215119 0.817651 0.273403
O O8 0.500000 0.679344 0.175191
O O9 0.217468 0.643195 0.297098
O O10 0.216756 0.667453 0.000000
O O11 0.500000 0.138992 0.187020
O O12 0.212689 0.092268 0.236849
O O13 0.225158 0.146102 0.000000
O O14 0.710404 0.419024 0.500000
O O15 0.000000 0.423811 0.668032
O O16 0.228926 0.049943 0.500000
O O17 0.500000 0.047979 0.690863
O O18 0.216909 0.000000 0.743768
#
# Coordination Sequence:
#
# PCOD9383104 Si02
#       6
#     4   8   8   8   8   8
#     4   9  18  34  55  79 107 135 165 205 246 283
#     4   9  16  25  37  54  77 106 141 181 224 271
#     4  10  19  31  49  72  98 129 164 202 244 289
#     4   9  15  21  29  42  62  88 121 165 214 262
#     4  10  20  34  54  79 105 134 167 202 243 290
#     4   8  13  20  28  37  51  76 113 157 206 259
#
# _framework density 23.140174999999999
#
# number of rings (size 3 to 8) (size 9 to 14) (size 15 to 20)
#    0.000    2.818    0.909    2.182    0.000    6.182 
#    0.000    3.636    0.000    1.091    0.000    1.273 
#    0.000    0.000    0.000    0.000    0.000    0.909 
#
# Total GULP energy -245686.390956 kJ/mol
# GULP energy per Si atom -5583.781613 kJ/mol
# Density = 2.308751 g / cm^3
# Si number density = 23.140175 Si / 1000 Ang^3
#
#
#
# Elastic Constant Matrix: (Units=GPa)
#
#
# Indices 1 2 3 4 5 6 
#
# 1 101.2661 -2.3969 6.9072 0.0000 0.0000 0.0000
# 2 -2.3969 117.0834 57.1531 0.0000 0.0000 0.0000
# 3 6.9072 57.1531 154.8695 0.0000 0.0000 0.0000
# 4 0.0000 0.0000 0.0000 31.5224 0.0000 0.0000
# 5 0.0000 0.0000 0.0000 0.0000 -10.3698 0.0000
# 6 0.0000 0.0000 0.0000 0.0000 0.0000 -4.3569
#
#
#
# Elastic Compliance Matrix: (Units=1/GPa)
#
#
# Indices 1 2 3 4 5 6 
#
# 1 0.009930 0.000512 -0.000632 0.000000 0.000000 0.000000
# 2 0.000512 0.010444 -0.003877 0.000000 0.000000 0.000000
# 3 -0.000632 -0.003877 0.007916 0.000000 0.000000 0.000000
# 4 0.000000 0.000000 0.000000 0.031723 0.000000 0.000000
# 5 0.000000 0.000000 0.000000 0.000000 -0.096434 0.000000
# 6 0.000000 0.000000 0.000000 0.000000 0.000000 -0.229522
#
#
# Mechanical properties :
#
#
# Convention : Reuss Voigt Hill
#
# Bulk Modulus (GPa) = 49.27104 55.17175 52.22140
# Shear Modulus (GPa) = -19.90583 24.12953 2.11185
#
# Velocity S-wave (km/s) = -2.93615 3.23267 0.95636
# Velocity P-wave (km/s) = 3.13752 6.15043 4.88220
#
# Compressibility (1/GPa) = 0.02029590
#
# Stress axis : x y z
#
# Youngs Moduli (GPa) = 100.70322 95.74934 126.32625
#
# Poissons Ratio (x) = -0.04899 0.07980
# Poissons Ratio (y) = -0.05152 0.48977
# Poissons Ratio (z) = 0.06361 0.37123
#
# Static dielectric constant tensor:
#      x y z
#    x 2.068270 0.000000 0.000000 
#    y 0.000000 1.823710 0.000000 
#    z 0.000000 0.000000 1.828970 
# 
# From -- ./inp_files/2115.got.cif
#   From: 2010.05.17/outbox.cif.g08.bks.cpg/sg47_2_cif.got.tgz:2115.got - 2010.06.03 20:15:42.
