data_PCOD9383163
_publ_section_title
;
Structure prediction by ZEFSAII (Michael W. Deem and Ramdas Pophale) SiO2 
 PCOD9383163
Probable space group: P M M M
;
_chemical_formula_sum "Si O2"
_cell_formula_units_Z 64
_cell_length_a 14.194471
_cell_length_b 9.148546
_cell_length_c 29.482602
_cell_angle_alpha 90.000000
_cell_angle_beta 90.000000
_cell_angle_gamma 90.000000
_cell_volume 3828.574458
_symmetry_space_group_name_H-M "P M M M"
_symmetry_group_IT_number 47
_symmetry_cell_setting 'orthorhombic'
loop_
_space_group_symop_operation_xyz
x,y,z
-x,-y,z
x,-y,-z
-x,y,-z
-x,-y,-z
x,y,-z
-x,y,z
x,-y,z
loop_
_atom_site_type_symbol
_atom_site_label
_atom_site_fract_x
_atom_site_fract_y
_atom_site_fract_z
Si Si1 0.612611 0.674067 0.726454
Si Si2 0.203004 0.675137 0.948562
Si Si3 0.703736 0.824728 0.187287
Si Si4 0.392517 0.674216 0.897595
Si Si5 0.292434 0.672987 0.446878
Si Si6 0.612702 0.165745 0.634222
Si Si7 0.107099 0.175657 0.863662
Si Si8 0.105017 0.166834 0.554911
O O1 0.500000 0.701998 0.732707
O O2 0.625996 0.500000 0.727105
O O3 0.669731 0.750682 0.766575
O O4 0.642124 0.740610 0.677982
O O5 0.189297 0.500000 0.945855
O O6 0.312143 0.703987 0.934935
O O7 0.138879 0.752113 0.910973
O O8 0.184001 0.722246 0.000000
O O9 0.638066 0.763309 0.146860
O O10 0.811086 0.786489 0.172543
O O11 0.695813 0.000000 0.190217
O O12 0.500000 0.707523 0.911018
O O13 0.387846 0.500000 0.887377
O O14 0.307080 0.712303 0.500000
O O15 0.304981 0.500000 0.442634
O O16 0.358189 0.758989 0.412516
O O17 0.186711 0.721213 0.433451
O O18 0.500000 0.159976 0.635794
O O19 0.649399 0.000000 0.636776
O O20 0.000000 0.218184 0.851708
O O21 0.109604 0.000000 0.868677
O O22 0.101269 0.165096 0.500000
O O23 0.000000 0.204052 0.571180
O O24 0.127565 0.000000 0.569026
#
# Coordination Sequence:
#
# PCOD9383163 Si02
#       8
#     8   8   8   8   8   8   8   8
#     4  10  20  34  53  76 102 129 154 186 235 293
#     4   9  18  31  46  67  95 126 163 206 247 286
#     4  10  19  31  50  74  97 121 153 195 239 285
#     4   9  17  29  45  66  94 127 160 194 236 288
#     4  10  20  32  48  72 102 136 171 208 251 296
#     4  10  21  36  53  73  98 130 169 209 245 285
#     4   9  19  35  52  70  94 126 163 201 242 288
#     4   8  14  26  45  68  93 122 158 200 243 285
#
# _framework density 16.716404000000001
#
# number of rings (size 3 to 8) (size 9 to 14) (size 15 to 20)
#    0.000    2.625    0.000    2.250    0.000    6.000 
#    0.000    5.000    0.000    0.750    0.000    5.250 
#    0.000    0.000    0.000    0.000    0.000    0.000 
#
# Total GULP energy -356666.868595 kJ/mol
# GULP energy per Si atom -5572.919822 kJ/mol
# Density = 1.667836 g / cm^3
# Si number density = 16.716404 Si / 1000 Ang^3
#
#
#
# Elastic Constant Matrix: (Units=GPa)
#
#
# Indices 1 2 3 4 5 6 
#
# 1 63.3556 32.1128 30.1083 0.0000 0.0000 0.0000
# 2 32.1128 58.4032 49.8497 0.0000 0.0000 0.0000
# 3 30.1083 49.8497 96.1548 0.0000 0.0000 0.0000
# 4 0.0000 0.0000 0.0000 24.3682 0.0000 0.0000
# 5 0.0000 0.0000 0.0000 0.0000 15.1238 0.0000
# 6 0.0000 0.0000 0.0000 0.0000 0.0000 24.0290
#
#
#
# Elastic Compliance Matrix: (Units=1/GPa)
#
#
# Indices 1 2 3 4 5 6 
#
# 1 0.021948 -0.011125 -0.001105 0.000000 0.000000 0.000000
# 2 -0.011125 0.036352 -0.015363 0.000000 0.000000 0.000000
# 3 -0.001105 -0.015363 0.018710 0.000000 0.000000 0.000000
# 4 0.000000 0.000000 0.000000 0.041037 0.000000 0.000000
# 5 0.000000 0.000000 0.000000 0.000000 0.066121 0.000000
# 6 0.000000 0.000000 0.000000 0.000000 0.000000 0.041616
#
#
# Mechanical properties :
#
#
# Convention : Reuss Voigt Hill
#
# Bulk Modulus (GPa) = 45.81810 49.11726 47.46768
# Shear Modulus (GPa) = 17.34641 19.76039 18.55340
#
# Velocity S-wave (km/s) = 3.22481 3.44189 3.33512
# Velocity P-wave (km/s) = 6.42919 6.72621 6.57938
#
# Compressibility (1/GPa) = 0.02182544
#
# Stress axis : x y z
#
# Youngs Moduli (GPa) = 45.56264 27.50883 53.44654
#
# Poissons Ratio (x) = 0.30603 0.05905
# Poissons Ratio (y) = 0.50688 0.82108
# Poissons Ratio (z) = 0.05034 0.42261
#
# Static dielectric constant tensor:
#      x y z
#    x 1.578340 0.000000 0.000000 
#    y 0.000000 1.560980 0.000000 
#    z 0.000000 0.000000 1.537930 
# 
# From -- ./inp_files/32801.got.cif
#   From: 2010.05.17/outbox.cif.g08.bks.cpg/sg47_17_cif.got.tgz:32801.got - 2010.06.03 20:15:42.
