data_PCOD9383051
_publ_section_title
;
Structure prediction by ZEFSAII (Michael W. Deem and Ramdas Pophale) SiO2 
 PCOD9383051
Probable space group: P M M M
;
_chemical_formula_sum "Si O2"
_cell_formula_units_Z 52
_cell_length_a 13.104195
_cell_length_b 25.052878
_cell_length_c 7.464626
_cell_angle_alpha 90.000000
_cell_angle_beta 90.000000
_cell_angle_gamma 90.000000
_cell_volume 2450.620283
_symmetry_space_group_name_H-M "P M M M"
_symmetry_group_IT_number 47
_symmetry_cell_setting 'orthorhombic'
loop_
_space_group_symop_operation_xyz
x,y,z
-x,-y,z
x,-y,-z
-x,y,-z
-x,-y,-z
x,y,-z
-x,y,z
x,-y,z
loop_
_atom_site_type_symbol
_atom_site_label
_atom_site_fract_x
_atom_site_fract_y
_atom_site_fract_z
Si Si1 0.500000 0.252865 0.282471
Si Si2 0.377937 0.057299 0.791919
Si Si3 0.271815 0.403218 0.218663
Si Si4 0.107629 0.194450 0.707030
Si Si5 0.322254 0.824396 0.293070
Si Si6 0.500000 0.620382 0.788762
Si Si7 0.111363 0.681922 0.216613
Si Si8 0.879421 0.500000 0.218297
O O1 0.500000 0.251702 0.500000
O O2 0.596934 0.217950 0.218022
O O3 0.500000 0.314979 0.230165
O O4 0.500000 0.054194 0.787738
O O5 0.354685 0.114163 0.707402
O O6 0.339395 0.000000 0.718671
O O7 0.346391 0.060238 0.000000
O O8 0.390298 0.402043 0.280677
O O9 0.210926 0.350108 0.274400
O O10 0.192450 0.449924 0.271276
O O11 0.275813 0.404532 0.000000
O O12 0.106212 0.176216 0.500000
O O13 0.211822 0.176863 0.794714
O O14 0.111563 0.258579 0.710354
O O15 0.000000 0.178124 0.789608
O O16 0.310356 0.807507 0.500000
O O17 0.500000 0.607985 0.000000
O O18 0.000000 0.657079 0.263356
O O19 0.114179 0.684520 0.000000
O O20 0.000000 0.500000 0.276465
O O21 0.884391 0.500000 0.000000
#
# Coordination Sequence:
#
# PCOD9383051 Si02
#       8
#     4   8   8   8   8   4   8   4
#     4  10  20  32  46  70  99 125 156 191 228 275
#     4   9  18  32  49  71  98 125 154 190 235 284
#     4   9  17  28  42  64  92 120 151 187 229 278
#     4   9  18  31  46  66  93 125 159 192 230 278
#     4  10  19  31  48  70  96 124 156 196 234 271
#     4  10  20  31  44  65  95 126 152 182 224 277
#     4   9  16  27  44  65  88 114 149 193 233 271
#     4   9  16  27  45  67  91 119 150 190 240 279
#
# _framework density 21.219118000000002
#
# number of rings (size 3 to 8) (size 9 to 14) (size 15 to 20)
#    0.000    2.692    0.769    1.846    0.000    3.692 
#    0.000    2.308    0.000    0.462    0.000    5.923 
#    0.000    4.923    0.000    0.000    0.000    0.000 
#
# Total GULP energy -289603.554602 kJ/mol
# GULP energy per Si atom -5569.299127 kJ/mol
# Density = 2.117082 g / cm^3
# Si number density = 21.219118 Si / 1000 Ang^3
#
#
#
# Elastic Constant Matrix: (Units=GPa)
#
#
# Indices 1 2 3 4 5 6 
#
# 1 181.3462 46.9496 12.9405 0.0000 0.0000 0.0000
# 2 46.9496 66.3246 -8.8875 0.0000 0.0000 0.0000
# 3 12.9405 -8.8875 60.5996 0.0000 0.0000 0.0000
# 4 0.0000 0.0000 0.0000 -0.0376 0.0000 0.0000
# 5 0.0000 0.0000 0.0000 0.0000 -6.4608 0.0000
# 6 0.0000 0.0000 0.0000 0.0000 0.0000 3.5857
#
#
#
# Elastic Compliance Matrix: (Units=1/GPa)
#
#
# Indices 1 2 3 4 5 6 
#
# 1 0.007048 -0.005295 -0.002282 0.000000 0.000000 0.000000
# 2 -0.005295 0.019357 0.003970 0.000000 0.000000 0.000000
# 3 -0.002282 0.003970 0.017571 0.000000 0.000000 0.000000
# 4 0.000000 0.000000 0.000000-26.608886 0.000000 0.000000
# 5 0.000000 0.000000 0.000000 0.000000 -0.154780 0.000000
# 6 0.000000 0.000000 0.000000 0.000000 0.000000 0.278882
#
#
# Mechanical properties :
#
#
# Convention : Reuss Voigt Hill
#
# Bulk Modulus (GPa) = 27.20131 45.58616 36.39373
# Shear Modulus (GPa) = -0.18924 16.56866 8.18971
#
# Velocity S-wave (km/s) = -0.29896 2.79738 1.96672
# Velocity P-wave (km/s) = 3.56762 5.65366 4.72715
#
# Compressibility (1/GPa) = 0.03676294
#
# Stress axis : x y z
#
# Youngs Moduli (GPa) = 141.88600 51.65997 56.91149
#
# Poissons Ratio (x) = 0.27353 0.12985
# Poissons Ratio (y) = 0.75125 -0.22592
# Poissons Ratio (z) = 0.32372 -0.20507
#
# Static dielectric constant tensor:
#      x y z
#    x 1.829690 0.000000 0.000000 
#    y 0.000000 1.623880 0.000000 
#    z 0.000000 0.000000 1.814340 
# 
# From -- ./inp_files/4658.got.cif
#   From: 2010.05.17/outbox.cif.g08.bks.cpg/sg47_3_cif.got.tgz:4658.got - 2010.06.03 20:15:42.
