data_PCOD9383441
_publ_section_title
;
Structure prediction by ZEFSAII (Michael W. Deem and Ramdas Pophale) SiO2 
 PCOD9383441
Probable space group: P M M M
;
_chemical_formula_sum "Si O2"
_cell_formula_units_Z 52
_cell_length_a 8.631428
_cell_length_b 29.093913
_cell_length_c 12.029551
_cell_angle_alpha 90.000000
_cell_angle_beta 90.000000
_cell_angle_gamma 90.000000
_cell_volume 3020.885090
_symmetry_space_group_name_H-M "P M M M"
_symmetry_group_IT_number 47
_symmetry_cell_setting 'orthorhombic'
loop_
_space_group_symop_operation_xyz
x,y,z
-x,-y,z
x,-y,-z
-x,y,-z
-x,-y,-z
x,y,-z
-x,y,z
x,-y,z
loop_
_atom_site_type_symbol
_atom_site_label
_atom_site_fract_x
_atom_site_fract_y
_atom_site_fract_z
Si Si1 0.188656 0.447991 0.872145
Si Si2 0.315518 0.217977 0.500000
Si Si3 0.685407 0.271997 0.130303
Si Si4 0.320699 0.000000 0.865302
Si Si5 0.186042 0.813921 0.732606
Si Si6 0.186578 0.902569 0.128546
Si Si7 0.187248 0.321965 0.500000
Si Si8 0.187712 0.359332 0.739005
O O1 0.239077 0.500000 0.844830
O O2 0.239655 0.408256 0.788403
O O3 0.000000 0.448224 0.870867
O O4 0.234558 0.437791 0.000000
O O5 0.500000 0.219045 0.500000
O O6 0.254706 0.193148 0.389482
O O7 0.254052 0.270505 0.500000
O O8 0.500000 0.269677 0.142823
O O9 0.760962 0.229244 0.193662
O O10 0.747157 0.318674 0.184824
O O11 0.723862 0.270542 0.000000
O O12 0.242774 0.047704 0.830239
O O13 0.500000 0.000000 0.834062
O O14 0.309391 0.000000 0.000000
O O15 0.237770 0.860603 0.794017
O O16 0.000000 0.814071 0.725468
O O17 0.000000 0.902741 0.126694
O O18 0.239364 0.895879 0.000000
O O19 0.233512 0.348462 0.612231
O O20 0.000000 0.318004 0.500000
O O21 0.000000 0.357993 0.743779
#
# Coordination Sequence:
#
# PCOD9383441 Si02
#       8
#     8   4   8   4   8   8   4   8
#     4   8  14  26  46  73 102 132 171 219 269 319
#     4  12  24  38  56  76 104 143 181 219 270 320
#     4  11  23  35  49  75 109 139 170 215 269 323
#     4   9  17  29  49  78 111 146 179 213 259 315
#     4  11  22  37  57  79 105 139 182 225 264 315
#     4   9  18  33  54  80 109 141 177 218 264 313
#     4  10  20  34  51  74 101 135 179 225 259 306
#     4  10  19  32  52  74 100 136 178 220 264 315
#
# _framework density 17.213498999999999
#
# number of rings (size 3 to 8) (size 9 to 14) (size 15 to 20)
#    0.000    2.077    1.538    3.231    0.000    4.615 
#    0.000    1.923    0.000    3.231    0.000    5.385 
#    0.000    1.846    0.000    0.000    0.000    0.000 
#
# Total GULP energy -290187.659382 kJ/mol
# GULP energy per Si atom -5580.531911 kJ/mol
# Density = 1.717432 g / cm^3
# Si number density = 17.213499 Si / 1000 Ang^3
#
#
#
# Elastic Constant Matrix: (Units=GPa)
#
#
# Indices 1 2 3 4 5 6 
#
# 1 21.9332 30.4773 37.1720 0.0000 0.0000 0.0000
# 2 30.4773 175.3816 98.9867 0.0000 0.0000 0.0000
# 3 37.1720 98.9867 141.5094 0.0000 0.0000 0.0000
# 4 0.0000 0.0000 0.0000 1.6589 0.0000 0.0000
# 5 0.0000 0.0000 0.0000 0.0000 18.1734 0.0000
# 6 0.0000 0.0000 0.0000 0.0000 0.0000 -19.8944
#
#
#
# Elastic Compliance Matrix: (Units=1/GPa)
#
#
# Indices 1 2 3 4 5 6 
#
# 1 0.083471 -0.003519 -0.019465 0.000000 0.000000 0.000000
# 2 -0.003519 0.009570 -0.005770 0.000000 0.000000 0.000000
# 3 -0.019465 -0.005770 0.016216 0.000000 0.000000 0.000000
# 4 0.000000 0.000000 0.000000 0.602793 0.000000 0.000000
# 5 0.000000 0.000000 0.000000 0.000000 0.055025 0.000000
# 6 0.000000 0.000000 0.000000 0.000000 0.000000 -0.050265
#
#
# Mechanical properties :
#
#
# Convention : Reuss Voigt Hill
#
# Bulk Modulus (GPa) = 19.32386 74.67734 47.00060
# Shear Modulus (GPa) = 6.31658 11.46682 8.89170
#
# Velocity S-wave (km/s) = 1.91769 2.58379 2.27525
# Velocity P-wave (km/s) = 4.01917 7.23730 5.85373
#
# Compressibility (1/GPa) = 0.05174948
#
# Stress axis : x y z
#
# Youngs Moduli (GPa) = 11.98015 104.49394 61.66903
#
# Poissons Ratio (x) = 0.36776 1.20036
# Poissons Ratio (y) = 0.04216 0.35581
# Poissons Ratio (z) = 0.23319 0.60290
#
# Static dielectric constant tensor:
#      x y z
#    x 1.578140 0.000000 0.000000 
#    y 0.000000 1.568520 0.000000 
#    z 0.000000 0.000000 1.571890 
# 
# From -- ./inp_files/15561.got.cif
#   From: 2010.05.17/outbox.cif.g08.bks.cpg/sg47_8_cif.got.tgz:15561.got - 2010.06.03 20:15:42.
