data_PCOD9383090
_publ_section_title
;
Structure prediction by ZEFSAII (Michael W. Deem and Ramdas Pophale) SiO2 
 PCOD9383090
Probable space group: P M M M
;
_chemical_formula_sum "Si O2"
_cell_formula_units_Z 56
_cell_length_a 14.534496
_cell_length_b 23.662933
_cell_length_c 8.749811
_cell_angle_alpha 90.000000
_cell_angle_beta 90.000000
_cell_angle_gamma 90.000000
_cell_volume 3009.312042
_symmetry_space_group_name_H-M "P M M M"
_symmetry_group_IT_number 47
_symmetry_cell_setting 'orthorhombic'
loop_
_space_group_symop_operation_xyz
x,y,z
-x,-y,z
x,-y,-z
-x,y,-z
-x,-y,-z
x,y,-z
-x,y,z
x,-y,z
loop_
_atom_site_type_symbol
_atom_site_label
_atom_site_fract_x
_atom_site_fract_y
_atom_site_fract_z
Si Si1 0.110003 0.212605 0.321338
Si Si2 0.606435 0.847502 0.684677
Si Si3 0.214196 0.106789 0.818778
Si Si4 0.892811 0.000000 0.683456
Si Si5 0.104582 0.335897 0.815339
Si Si6 0.390034 0.718279 0.320902
Si Si7 0.393390 0.500000 0.187284
Si Si8 0.711829 0.611849 0.816625
O O1 0.135689 0.210086 0.500000
O O2 0.163209 0.164323 0.231394
O O3 0.128013 0.274941 0.255847
O O4 0.000000 0.203055 0.309133
O O5 0.611785 0.849794 0.500000
O O6 0.500000 0.858678 0.726917
O O7 0.681760 0.888122 0.757029
O O8 0.629515 0.782532 0.730069
O O9 0.159191 0.055087 0.744708
O O10 0.214003 0.101109 0.000000
O O11 0.890557 0.000000 0.500000
O O12 0.000000 0.000000 0.731655
O O13 0.182210 0.380492 0.767986
O O14 0.000000 0.350374 0.770739
O O15 0.106840 0.330597 0.000000
O O16 0.365381 0.714209 0.500000
O O17 0.500000 0.710912 0.308435
O O18 0.339764 0.668943 0.231589
O O19 0.500000 0.500000 0.234450
O O20 0.340795 0.556346 0.240338
O O21 0.392868 0.500000 0.000000
O O22 0.711036 0.608461 0.000000
#
# Coordination Sequence:
#
# PCOD9383090 Si02
#       8
#     8   8   8   4   8   8   4   8
#     4  10  20  34  54  80 109 143 181 217 259 319
#     4   9  19  37  59  82 111 147 184 222 266 319
#     4  12  24  37  57  85 116 147 179 222 273 319
#     4  11  25  45  66  85 108 143 187 228 264 313
#     4   9  18  32  49  73 104 132 164 214 270 317
#     4   9  18  32  51  77 107 136 168 212 264 311
#     4   9  18  32  48  68  96 129 169 217 262 309
#     4  10  19  31  49  71  96 133 176 213 257 314
#
# _framework density 18.608903999999999
#
# number of rings (size 3 to 8) (size 9 to 14) (size 15 to 20)
#    0.000    2.143    0.000    4.500    0.000    7.714 
#    0.000    2.500    0.000    5.571    0.000    0.000 
#    0.000    3.429    0.000    0.000    0.000    0.000 
#
# Total GULP energy -312705.708168 kJ/mol
# GULP energy per Si atom -5584.030503 kJ/mol
# Density = 1.856655 g / cm^3
# Si number density = 18.608904 Si / 1000 Ang^3
#
#
#
# Elastic Constant Matrix: (Units=GPa)
#
#
# Indices 1 2 3 4 5 6 
#
# 1 138.5923 105.8349 41.5913 0.0000 0.0000 0.0000
# 2 105.8349 97.7220 32.1976 0.0000 0.0000 0.0000
# 3 41.5913 32.1976 35.8932 0.0000 0.0000 0.0000
# 4 0.0000 0.0000 0.0000 -45.1306 0.0000 0.0000
# 5 0.0000 0.0000 0.0000 0.0000 20.5391 0.0000
# 6 0.0000 0.0000 0.0000 0.0000 0.0000 33.7542
#
#
#
# Elastic Compliance Matrix: (Units=1/GPa)
#
#
# Indices 1 2 3 4 5 6 
#
# 1 0.045076 -0.044871 -0.011981 0.000000 0.000000 0.000000
# 2 -0.044871 0.059193 -0.001104 0.000000 0.000000 0.000000
# 3 -0.011981 -0.001104 0.042734 0.000000 0.000000 0.000000
# 4 0.000000 0.000000 0.000000 -0.022158 0.000000 0.000000
# 5 0.000000 0.000000 0.000000 0.000000 0.048688 0.000000
# 6 0.000000 0.000000 0.000000 0.000000 0.000000 0.029626
#
#
# Mechanical properties :
#
#
# Convention : Reuss Voigt Hill
#
# Bulk Modulus (GPa) = 32.16384 70.16166 51.16275
# Shear Modulus (GPa) = 15.17751 8.00478 11.59115
#
# Velocity S-wave (km/s) = 2.85898 2.07628 2.49847
# Velocity P-wave (km/s) = 5.31225 6.59796 5.98970
#
# Compressibility (1/GPa) = 0.03109082
#
# Stress axis : x y z
#
# Youngs Moduli (GPa) = 22.18469 16.89395 23.40042
#
# Poissons Ratio (x) = 0.75804 0.28037
# Poissons Ratio (y) = 0.99544 0.02584
# Poissons Ratio (z) = 0.26580 0.01865
#
# Static dielectric constant tensor:
#      x y z
#    x 1.669640 0.000000 0.000000 
#    y 0.000000 1.614060 0.000000 
#    z 0.000000 0.000000 1.622270 
# 
# From -- ./inp_files/7409.got.cif
#   From: 2010.05.17/outbox.cif.g08.bks.cpg/sg47_4_cif.got.tgz:7409.got - 2010.06.03 20:15:42.
