data_PCOD9383402
_publ_section_title
;
Structure prediction by ZEFSAII (Michael W. Deem and Ramdas Pophale) SiO2 
 PCOD9383402
Probable space group: P M M M
;
_chemical_formula_sum "Si O2"
_cell_formula_units_Z 44
_cell_length_a 8.036295
_cell_length_b 30.808270
_cell_length_c 9.464680
_cell_angle_alpha 90.000000
_cell_angle_beta 90.000000
_cell_angle_gamma 90.000000
_cell_volume 2343.306609
_symmetry_space_group_name_H-M "P M M M"
_symmetry_group_IT_number 47
_symmetry_cell_setting 'orthorhombic'
loop_
_space_group_symop_operation_xyz
x,y,z
-x,-y,z
x,-y,-z
-x,y,-z
-x,-y,-z
x,y,-z
-x,y,z
x,-y,z
loop_
_atom_site_type_symbol
_atom_site_label
_atom_site_fract_x
_atom_site_fract_y
_atom_site_fract_z
Si Si1 0.200883 0.548943 0.838041
Si Si2 0.701601 0.714474 0.162071
Si Si3 0.684568 0.106452 0.328002
Si Si4 0.801692 0.798721 0.336615
Si Si5 0.000000 0.949905 0.672682
Si Si6 0.300105 0.631654 0.660003
O O1 0.255425 0.500000 0.799560
O O2 0.260100 0.586401 0.735030
O O3 0.000000 0.548991 0.837744
O O4 0.255244 0.557487 0.000000
O O5 0.500000 0.713697 0.161506
O O6 0.756907 0.757913 0.241216
O O7 0.761755 0.672127 0.247088
O O8 0.758675 0.713505 0.000000
O O9 0.688138 0.105953 0.500000
O O10 0.500000 0.092718 0.282947
O O11 0.717934 0.156438 0.288118
O O12 0.834788 0.075723 0.280650
O O13 0.751095 0.790267 0.500000
O O14 0.000000 0.805727 0.335701
O O15 0.000000 0.949305 0.500000
O O16 0.000000 0.000000 0.716520
O O17 0.235219 0.633286 0.500000
O O18 0.500000 0.635502 0.653890
#
# Coordination Sequence:
#
# PCOD9383402 Si02
#       6
#     8   8   8   8   4   8
#     4   9  19  36  56  77 102 134 172 213 259 312
#     4  10  21  36  53  74 101 133 170 212 260 315
#     4   9  16  27  44  66  96 136 178 221 270 320
#     4  10  19  32  51  74 101 134 175 219 262 316
#     4   9  16  26  40  64 101 139 179 225 268 321
#     4  10  21  36  54  77 105 136 172 214 260 313
#
# _framework density 18.776886999999999
#
# number of rings (size 3 to 8) (size 9 to 14) (size 15 to 20)
#    0.000    2.455    0.909    2.182    0.000    5.455 
#    0.000    4.545    0.000    0.000    0.000    0.000 
#    0.000    1.455    0.000    3.818    0.000    3.636 
#
# Total GULP energy -245538.560369 kJ/mol
# GULP energy per Si atom -5580.421827 kJ/mol
# Density = 1.873415 g / cm^3
# Si number density = 18.776887 Si / 1000 Ang^3
#
#
#
# Elastic Constant Matrix: (Units=GPa)
#
#
# Indices 1 2 3 4 5 6 
#
# 1 66.6384 52.1463 30.8452 0.0000 0.0000 0.0000
# 2 52.1463 164.3860 76.8932 0.0000 0.0000 0.0000
# 3 30.8452 76.8932 87.4512 0.0000 0.0000 0.0000
# 4 0.0000 0.0000 0.0000 -31.7158 0.0000 0.0000
# 5 0.0000 0.0000 0.0000 0.0000 17.5933 0.0000
# 6 0.0000 0.0000 0.0000 0.0000 0.0000 37.7987
#
#
#
# Elastic Compliance Matrix: (Units=1/GPa)
#
#
# Indices 1 2 3 4 5 6 
#
# 1 0.020289 -0.005246 -0.002543 0.000000 0.000000 0.000000
# 2 -0.005246 0.011690 -0.008428 0.000000 0.000000 0.000000
# 3 -0.002543 -0.008428 0.019742 0.000000 0.000000 0.000000
# 4 0.000000 0.000000 0.000000 -0.031530 0.000000 0.000000
# 5 0.000000 0.000000 0.000000 0.000000 0.056840 0.000000
# 6 0.000000 0.000000 0.000000 0.000000 0.000000 0.026456
#
#
# Mechanical properties :
#
#
# Convention : Reuss Voigt Hill
#
# Bulk Modulus (GPa) = 51.85097 70.91611 61.38354
# Shear Modulus (GPa) = 35.12454 15.30799 25.21627
#
# Velocity S-wave (km/s) = 4.32977 2.85837 3.66859
# Velocity P-wave (km/s) = 7.25741 6.98165 7.12087
#
# Compressibility (1/GPa) = 0.01928604
#
# Stress axis : x y z
#
# Youngs Moduli (GPa) = 49.28773 85.54476 50.65241
#
# Poissons Ratio (x) = 0.44881 0.12882
# Poissons Ratio (y) = 0.25859 0.42690
# Poissons Ratio (z) = 0.12535 0.72097
#
# Static dielectric constant tensor:
#      x y z
#    x 1.673780 0.000000 0.000000 
#    y 0.000000 1.619700 0.000000 
#    z 0.000000 0.000000 1.631600 
# 
# From -- ./inp_files/2317.got.cif
#   From: 2010.05.17/outbox.cif.g08.bks.cpg/sg47_2_cif.got.tgz:2317.got - 2010.06.03 20:15:42.
