data_PCOD9383559
_publ_section_title
;
Structure prediction by ZEFSAII (Michael W. Deem and Ramdas Pophale) SiO2 
 PCOD9383559
Probable space group: P M M M
;
_chemical_formula_sum "Si O2"
_cell_formula_units_Z 44
_cell_length_a 17.341470
_cell_length_b 10.612733
_cell_length_c 13.627625
_cell_angle_alpha 90.000000
_cell_angle_beta 90.000000
_cell_angle_gamma 90.000000
_cell_volume 2508.033433
_symmetry_space_group_name_H-M "P M M M"
_symmetry_group_IT_number 47
_symmetry_cell_setting 'orthorhombic'
loop_
_space_group_symop_operation_xyz
x,y,z
-x,-y,z
x,-y,-z
-x,y,-z
-x,-y,-z
x,y,-z
-x,y,z
x,-y,z
loop_
_atom_site_type_symbol
_atom_site_label
_atom_site_fract_x
_atom_site_fract_y
_atom_site_fract_z
Si Si1 0.907631 0.143537 0.883545
Si Si2 0.194608 0.353465 0.218655
Si Si3 0.586188 0.500000 0.382267
Si Si4 0.585400 0.860197 0.745607
Si Si5 0.360605 0.641955 0.883482
Si Si6 0.301218 0.732339 0.383701
O O1 0.865588 0.254160 0.824936
O O2 0.000000 0.151597 0.871092
O O3 0.883876 0.000000 0.855258
O O4 0.891590 0.157380 0.000000
O O5 0.169034 0.500000 0.222891
O O6 0.271251 0.350143 0.150371
O O7 0.224775 0.305579 0.324645
O O8 0.500000 0.500000 0.341006
O O9 0.578823 0.500000 0.500000
O O10 0.637848 0.379513 0.360022
O O11 0.500000 0.844964 0.699728
O O12 0.596600 0.753091 0.826935
O O13 0.653912 0.847142 0.666662
O O14 0.589096 0.000000 0.789426
O O15 0.387691 0.500000 0.857374
O O16 0.366750 0.655845 0.000000
O O17 0.290838 0.743193 0.500000
#
# Coordination Sequence:
#
# PCOD9383559 Si02
#       6
#     8   8   4   8   8   8
#     4   9  19  36  57  82 112 144 176 210 253 311
#     4  10  19  32  53  81 110 136 169 217 268 314
#     4   9  16  28  50  76  96 125 174 224 268 311
#     4  10  22  36  49  71 102 135 174 223 276 324
#     4   9  19  35  53  74 101 135 175 217 263 319
#     4  10  20  35  53  75 103 138 177 220 270 320
#
# _framework density 17.543626
#
# number of rings (size 3 to 8) (size 9 to 14) (size 15 to 20)
#    0.000    2.455    0.909    1.636    1.273    6.909 
#    0.000    3.636    0.000    0.545    0.000    2.545 
#    0.000    0.000    0.000    0.000    0.000    0.000 
#
# Total GULP energy -245292.162515 kJ/mol
# GULP energy per Si atom -5574.821875 kJ/mol
# Density = 1.750370 g / cm^3
# Si number density = 17.543626 Si / 1000 Ang^3
#
#
#
# Elastic Constant Matrix: (Units=GPa)
#
#
# Indices 1 2 3 4 5 6 
#
# 1 53.6570 51.1708 32.8055 0.0000 0.0000 0.0000
# 2 51.1708 143.1872 62.6363 0.0000 0.0000 0.0000
# 3 32.8055 62.6363 106.4979 0.0000 0.0000 0.0000
# 4 0.0000 0.0000 0.0000 19.5541 0.0000 0.0000
# 5 0.0000 0.0000 0.0000 0.0000 25.5126 0.0000
# 6 0.0000 0.0000 0.0000 0.0000 0.0000 3.9786
#
#
#
# Elastic Compliance Matrix: (Units=1/GPa)
#
#
# Indices 1 2 3 4 5 6 
#
# 1 0.029414 -0.008817 -0.003875 0.000000 0.000000 0.000000
# 2 -0.008817 0.012046 -0.004369 0.000000 0.000000 0.000000
# 3 -0.003875 -0.004369 0.013153 0.000000 0.000000 0.000000
# 4 0.000000 0.000000 0.000000 0.051140 0.000000 0.000000
# 5 0.000000 0.000000 0.000000 0.000000 0.039196 0.000000
# 6 0.000000 0.000000 0.000000 0.000000 0.000000 0.251346
#
#
# Mechanical properties :
#
#
# Convention : Reuss Voigt Hill
#
# Bulk Modulus (GPa) = 48.80014 66.28524 57.54269
# Shear Modulus (GPa) = 11.43516 20.25769 15.84643
#
# Velocity S-wave (km/s) = 2.55583 3.40178 3.00869
# Velocity P-wave (km/s) = 6.04868 7.30031 6.70377
#
# Compressibility (1/GPa) = 0.02049175
#
# Stress axis : x y z
#
# Youngs Moduli (GPa) = 33.99716 83.01699 76.02766
#
# Poissons Ratio (x) = 0.73192 0.29463
# Poissons Ratio (y) = 0.29974 0.33215
# Poissons Ratio (z) = 0.13175 0.36269
#
# Static dielectric constant tensor:
#      x y z
#    x 1.584460 0.000000 0.000000 
#    y 0.000000 1.642020 0.000000 
#    z 0.000000 0.000000 1.600510 
# 
# From -- ./inp_files/24328.got.cif
#   From: 2010.05.17/outbox.cif.g08.bks.cpg/sg47_13_cif.got.tgz:24328.got - 2010.06.03 20:15:42.
