data_PCOD9383851
_publ_section_title
;
Structure prediction by ZEFSAII (Michael W. Deem and Ramdas Pophale) SiO2 
 PCOD9383851
Probable space group: P M M M
;
_chemical_formula_sum "Si O2"
_cell_formula_units_Z 52
_cell_length_a 8.127940
_cell_length_b 18.677766
_cell_length_c 18.901527
_cell_angle_alpha 90.000000
_cell_angle_beta 90.000000
_cell_angle_gamma 90.000000
_cell_volume 2869.474107
_symmetry_space_group_name_H-M "P M M M"
_symmetry_group_IT_number 47
_symmetry_cell_setting 'orthorhombic'
loop_
_space_group_symop_operation_xyz
x,y,z
-x,-y,z
x,-y,-z
-x,y,-z
-x,-y,-z
x,y,-z
-x,y,z
x,-y,z
loop_
_atom_site_type_symbol
_atom_site_label
_atom_site_fract_x
_atom_site_fract_y
_atom_site_fract_z
Si Si1 0.303166 0.080067 0.833985
Si Si2 0.692231 0.625016 0.924434
Si Si3 0.813621 0.274053 0.717777
Si Si4 0.185486 0.227534 0.882726
Si Si5 0.687664 0.869298 0.672766
Si Si6 0.000000 0.085546 0.580423
Si Si7 0.300907 0.420081 0.229860
O O1 0.500000 0.080146 0.841835
O O2 0.236705 0.144724 0.881982
O O3 0.272664 0.098590 0.751021
O O4 0.240585 0.000000 0.849408
O O5 0.500000 0.605193 0.925244
O O6 0.706433 0.711352 0.918933
O O7 0.760517 0.594010 0.850911
O O8 0.765263 0.602187 0.000000
O O9 0.811005 0.249501 0.799917
O O10 0.698477 0.216892 0.679604
O O11 0.761888 0.356446 0.720633
O O12 0.000000 0.265879 0.691568
O O13 0.000000 0.235207 0.909214
O O14 0.500000 0.890831 0.654478
O O15 0.833537 0.892006 0.620955
O O16 0.000000 0.113308 0.500000
O O17 0.000000 0.000000 0.578487
O O18 0.500000 0.415324 0.228106
O O19 0.253931 0.500000 0.251561
#
# Coordination Sequence:
#
# PCOD9383851 Si02
#       7
#     8   8   8   8   8   4   8
#     4   9  17  28  45  69  92 115 147 193 248 299
#     4   9  17  29  44  59  80 119 165 201 236 288
#     4   9  16  29  48  70  95 126 165 207 253 301
#     4   9  17  27  41  62  85 111 146 194 247 294
#     4  10  19  34  54  75 101 137 178 214 249 293
#     4  11  24  38  52  76 111 147 180 213 247 285
#     4   9  17  28  43  68 101 130 158 201 255 306
#
# _framework density 18.121787000000001
#
# number of rings (size 3 to 8) (size 9 to 14) (size 15 to 20)
#    0.000    2.692    0.769    1.385    1.077    6.154 
#    0.000    2.308    0.000    0.462    0.000    7.538 
#    0.000    1.231    0.000    3.231    0.000    0.000 
#
# Total GULP energy -289654.224953 kJ/mol
# GULP energy per Si atom -5570.273557 kJ/mol
# Density = 1.808054 g / cm^3
# Si number density = 18.121787 Si / 1000 Ang^3
#
#
#
# Elastic Constant Matrix: (Units=GPa)
#
#
# Indices 1 2 3 4 5 6 
#
# 1 47.4857 -1.2600 13.6750 0.0000 0.0000 0.0000
# 2 -1.2600 100.4478 -8.9909 0.0000 0.0000 0.0000
# 3 13.6750 -8.9909 18.9064 0.0000 0.0000 0.0000
# 4 0.0000 0.0000 0.0000 0.9531 0.0000 0.0000
# 5 0.0000 0.0000 0.0000 0.0000 5.2071 0.0000
# 6 0.0000 0.0000 0.0000 0.0000 0.0000 19.7349
#
#
#
# Elastic Compliance Matrix: (Units=1/GPa)
#
#
# Indices 1 2 3 4 5 6 
#
# 1 0.026803 -0.001461 -0.020082 0.000000 0.000000 0.000000
# 2 -0.001461 0.010478 0.006040 0.000000 0.000000 0.000000
# 3 -0.020082 0.006040 0.070290 0.000000 0.000000 0.000000
# 4 0.000000 0.000000 0.000000 1.049165 0.000000 0.000000
# 5 0.000000 0.000000 0.000000 0.000000 0.192044 0.000000
# 6 0.000000 0.000000 0.000000 0.000000 0.000000 0.050672
#
#
# Mechanical properties :
#
#
# Convention : Reuss Voigt Hill
#
# Bulk Modulus (GPa) = 13.06104 19.29869 16.17986
# Shear Modulus (GPa) = 3.43411 16.07341 9.75376
#
# Velocity S-wave (km/s) = 1.37809 2.98143 2.32250
# Velocity P-wave (km/s) = 3.12333 4.74599 4.01744
#
# Compressibility (1/GPa) = 0.07656358
#
# Stress axis : x y z
#
# Youngs Moduli (GPa) = 37.30868 95.44087 14.22685
#
# Poissons Ratio (x) = 0.13947 0.28570
# Poissons Ratio (y) = 0.05452 -0.08592
# Poissons Ratio (z) = 0.74923 -0.57643
#
# Static dielectric constant tensor:
#      x y z
#    x 1.646660 0.000000 0.000000 
#    y 0.000000 1.654950 0.000000 
#    z 0.000000 0.000000 1.617160 
# 
# From -- ./inp_files/9560.got.cif
#   From: 2010.05.17/outbox.cif.g08.bks.cpg/sg47_5_cif.got.tgz:9560.got - 2010.06.03 20:15:42.
