data_PCOD9383886
_publ_section_title
;
Structure prediction by ZEFSAII (Michael W. Deem and Ramdas Pophale) SiO2 
 PCOD9383886
Probable space group: P M M M
;
_chemical_formula_sum "Si O2"
_cell_formula_units_Z 64
_cell_length_a 8.800760
_cell_length_b 25.534621
_cell_length_c 15.750612
_cell_angle_alpha 90.000000
_cell_angle_beta 90.000000
_cell_angle_gamma 90.000000
_cell_volume 3539.541651
_symmetry_space_group_name_H-M "P M M M"
_symmetry_group_IT_number 47
_symmetry_cell_setting 'orthorhombic'
loop_
_space_group_symop_operation_xyz
x,y,z
-x,-y,z
x,-y,-z
-x,y,-z
-x,-y,-z
x,y,-z
-x,y,z
x,-y,z
loop_
_atom_site_type_symbol
_atom_site_label
_atom_site_fract_x
_atom_site_fract_y
_atom_site_fract_z
Si Si1 0.185074 0.401425 0.407955
Si Si2 0.817032 0.938892 0.097223
Si Si3 0.183683 0.558937 0.225626
Si Si4 0.176371 0.742913 0.172043
Si Si5 0.681216 0.357519 0.904185
Si Si6 0.317706 0.173117 0.592038
Si Si7 0.682382 0.147176 0.220233
Si Si8 0.176782 0.283345 0.630652
O O1 0.235114 0.421882 0.500000
O O2 0.234179 0.430551 0.322744
O O3 0.228214 0.340231 0.399698
O O4 0.000000 0.402820 0.407328
O O5 0.742674 0.901206 0.165921
O O6 0.000000 0.934406 0.102356
O O7 0.778117 0.000000 0.110752
O O8 0.772965 0.925110 0.000000
O O9 0.226220 0.500000 0.200221
O O10 0.249566 0.602456 0.163488
O O11 0.000000 0.562940 0.224060
O O12 0.255868 0.700632 0.112742
O O13 0.256364 0.799069 0.178804
O O14 0.183000 0.718824 0.267207
O O15 0.000000 0.749702 0.149098
O O16 0.500000 0.356770 0.895326
O O17 0.720800 0.373795 0.000000
O O18 0.262673 0.152726 0.500000
O O19 0.500000 0.169360 0.592304
O O20 0.264183 0.147341 0.680677
O O21 0.270784 0.234009 0.598212
O O22 0.500000 0.147884 0.219801
O O23 0.000000 0.276469 0.605875
#
# Coordination Sequence:
#
# PCOD9383886 Si02
#       8
#     8   8   8   8   8   8   8   8
#     4   9  16  28  49  78 108 134 165 209 259 310
#     4   9  19  37  59  81 107 142 185 231 277 324
#     4  10  21  38  58  79 104 135 174 218 262 315
#     4  10  19  34  56  80 109 142 176 214 260 316
#     4  11  24  40  58  79 104 135 172 218 272 325
#     4   9  18  31  46  70 108 148 182 216 256 306
#     4  10  20  33  53  83 116 148 183 223 267 316
#     4   9  16  28  48  73 102 135 171 212 256 305
#
# _framework density 18.081437000000001
#
# number of rings (size 3 to 8) (size 9 to 14) (size 15 to 20)
#    0.000    2.375    1.250    1.875    0.000    4.500 
#    0.000    3.125    0.000    0.750    0.000    3.500 
#    0.000    0.000    0.000    0.000    0.000    0.000 
#
# Total GULP energy -356963.052070 kJ/mol
# GULP energy per Si atom -5577.547689 kJ/mol
# Density = 1.804028 g / cm^3
# Si number density = 18.081437 Si / 1000 Ang^3
#
#
#
# Elastic Constant Matrix: (Units=GPa)
#
#
# Indices 1 2 3 4 5 6 
#
# 1 22.7660 28.2591 34.2288 0.0000 0.0000 0.0000
# 2 28.2591 87.2396 66.6444 0.0000 0.0000 0.0000
# 3 34.2288 66.6444 121.5977 0.0000 0.0000 0.0000
# 4 0.0000 0.0000 0.0000 2.3762 0.0000 0.0000
# 5 0.0000 0.0000 0.0000 0.0000 16.5933 0.0000
# 6 0.0000 0.0000 0.0000 0.0000 0.0000 -2.5669
#
#
#
# Elastic Compliance Matrix: (Units=1/GPa)
#
#
# Indices 1 2 3 4 5 6 
#
# 1 0.088094 -0.016501 -0.015754 0.000000 0.000000 0.000000
# 2 -0.016501 0.022809 -0.007856 0.000000 0.000000 0.000000
# 3 -0.015754 -0.007856 0.016964 0.000000 0.000000 0.000000
# 4 0.000000 0.000000 0.000000 0.420841 0.000000 0.000000
# 5 0.000000 0.000000 0.000000 0.000000 0.060265 0.000000
# 6 0.000000 0.000000 0.000000 0.000000 0.000000 -0.389573
#
#
# Mechanical properties :
#
#
# Convention : Reuss Voigt Hill
#
# Bulk Modulus (GPa) = 20.98859 54.42977 37.70918
# Shear Modulus (GPa) = 15.84764 10.11191 12.97978
#
# Velocity S-wave (km/s) = 2.96372 2.36740 2.68218
# Velocity P-wave (km/s) = 4.83161 6.13520 5.52201
#
# Compressibility (1/GPa) = 0.04764494
#
# Stress axis : x y z
#
# Youngs Moduli (GPa) = 11.35154 43.84163 58.94734
#
# Poissons Ratio (x) = 0.72343 0.92866
# Poissons Ratio (y) = 0.18731 0.46311
# Poissons Ratio (z) = 0.17883 0.34443
#
# Static dielectric constant tensor:
#      x y z
#    x 1.612350 0.000000 0.000000 
#    y 0.000000 1.583120 0.000000 
#    z 0.000000 0.000000 1.657900 
# 
# From -- ./inp_files/7915.got.cif
#   From: 2010.05.17/outbox.cif.g08.bks.cpg/sg47_4_cif.got.tgz:7915.got - 2010.06.03 20:15:42.
