data_PCOD9383623
_publ_section_title
;
Structure prediction by ZEFSAII (Michael W. Deem and Ramdas Pophale) SiO2 
 PCOD9383623
Probable space group: P M M M
;
_chemical_formula_sum "Si O2"
_cell_formula_units_Z 56
_cell_length_a 21.795797
_cell_length_b 7.543222
_cell_length_c 14.887076
_cell_angle_alpha 90.000000
_cell_angle_beta 90.000000
_cell_angle_gamma 90.000000
_cell_volume 2447.592136
_symmetry_space_group_name_H-M "P M M M"
_symmetry_group_IT_number 47
_symmetry_cell_setting 'orthorhombic'
loop_
_space_group_symop_operation_xyz
x,y,z
-x,-y,z
x,-y,-z
-x,y,-z
-x,-y,-z
x,y,-z
-x,y,z
x,-y,z
loop_
_atom_site_type_symbol
_atom_site_label
_atom_site_fract_x
_atom_site_fract_y
_atom_site_fract_z
Si Si1 0.199260 0.700528 0.605356
Si Si2 0.378147 0.787855 0.792964
Si Si3 0.669560 0.713248 0.603166
Si Si4 0.745013 0.783003 0.105739
Si Si5 0.932556 0.297395 0.354911
Si Si6 0.500000 0.217231 0.895561
Si Si7 0.927455 0.295592 0.000000
Si Si8 0.871904 0.799193 0.182825
O O1 0.210246 0.684119 0.500000
O O2 0.193897 0.500000 0.643718
O O3 0.263299 0.784859 0.635457
O O4 0.131931 0.784257 0.613083
O O5 0.375189 0.750653 0.686223
O O6 0.317406 0.723698 0.845788
O O7 0.439265 0.723529 0.842667
O O8 0.377437 0.000000 0.802277
O O9 0.655096 0.773304 0.500000
O O10 0.675581 0.500000 0.598220
O O11 0.803843 0.724923 0.164854
O O12 0.746944 0.000000 0.105258
O O13 0.748800 0.729950 0.000000
O O14 0.934167 0.500000 0.389363
O O15 0.918533 0.298754 0.248868
O O16 0.000000 0.219741 0.373528
O O17 0.500000 0.000000 0.895380
O O18 0.500000 0.271224 0.000000
O O19 0.901956 0.201479 0.086476
O O20 0.906294 0.500000 0.000000
O O21 0.000000 0.293679 0.000000
O O22 0.865773 0.000000 0.216360
#
# Coordination Sequence:
#
# PCOD9383623 Si02
#       8
#     8   8   8   8   8   4   4   8
#     4   8  15  30  52  75  99 131 171 214 261 313
#     4  10  19  32  56  84 109 140 177 218 259 303
#     4   9  18  34  55  78 107 142 177 216 265 317
#     4   9  17  31  51  76 103 130 166 215 264 309
#     4  10  20  32  47  70  99 129 165 213 264 311
#     4   9  18  34  56  85 116 148 183 213 254 313
#     4  11  23  37  51  67  91 124 163 208 256 301
#     4  11  21  34  51  70  95 129 167 205 251 309
#
# _framework density 22.879629000000001
#
# number of rings (size 3 to 8) (size 9 to 14) (size 15 to 20)
#    0.000    2.429    0.714    3.214    0.000    4.857 
#    0.000    2.857    0.000    5.143    0.000    1.000 
#    0.000    0.000    0.000    0.000    0.000    0.000 
#
# Total GULP energy -312298.107870 kJ/mol
# GULP energy per Si atom -5576.751926 kJ/mol
# Density = 2.282755 g / cm^3
# Si number density = 22.879629 Si / 1000 Ang^3
#
#
#
# Elastic Constant Matrix: (Units=GPa)
#
#
# Indices 1 2 3 4 5 6 
#
# 1 147.3036 18.1733 51.4992 0.0000 0.0000 0.0000
# 2 18.1733 62.4006 8.2693 0.0000 0.0000 0.0000
# 3 51.4992 8.2693 116.9031 0.0000 0.0000 0.0000
# 4 0.0000 0.0000 0.0000 17.3595 0.0000 0.0000
# 5 0.0000 0.0000 0.0000 0.0000 55.2212 0.0000
# 6 0.0000 0.0000 0.0000 0.0000 0.0000 -2.6419
#
#
#
# Elastic Compliance Matrix: (Units=1/GPa)
#
#
# Indices 1 2 3 4 5 6 
#
# 1 0.008251 -0.001939 -0.003498 0.000000 0.000000 0.000000
# 2 -0.001939 0.016633 -0.000322 0.000000 0.000000 0.000000
# 3 -0.003498 -0.000322 0.010118 0.000000 0.000000 0.000000
# 4 0.000000 0.000000 0.000000 0.057605 0.000000 0.000000
# 5 0.000000 0.000000 0.000000 0.000000 0.018109 0.000000
# 6 0.000000 0.000000 0.000000 0.000000 0.000000 -0.378511
#
#
# Mechanical properties :
#
#
# Convention : Reuss Voigt Hill
#
# Bulk Modulus (GPa) = 42.58369 53.61009 48.09689
# Shear Modulus (GPa) = -20.12483 30.56545 5.22031
#
# Velocity S-wave (km/s) = -2.96902 3.65899 1.51215
# Velocity P-wave (km/s) = 2.62661 6.42909 4.91082
#
# Compressibility (1/GPa) = 0.02348317
#
# Stress axis : x y z
#
# Youngs Moduli (GPa) = 121.20122 60.12136 98.83730
#
# Poissons Ratio (x) = 0.11660 0.34568
# Poissons Ratio (y) = 0.23506 0.03184
# Poissons Ratio (z) = 0.42390 0.01937
#
# Static dielectric constant tensor:
#      x y z
#    x 1.865520 0.000000 0.000000 
#    y 0.000000 1.927470 0.000000 
#    z 0.000000 0.000000 1.868050 
# 
# From -- ./inp_files/25201.got.cif
#   From: 2010.05.17/outbox.cif.g08.bks.cpg/sg47_13_cif.got.tgz:25201.got - 2010.06.03 20:15:42.
