data_PCOD9383510
_publ_section_title
;
Structure prediction by ZEFSAII (Michael W. Deem and Ramdas Pophale) SiO2 
 PCOD9383510
Probable space group: P M M M
;
_chemical_formula_sum "Si O2"
_cell_formula_units_Z 48
_cell_length_a 14.303757
_cell_length_b 10.286849
_cell_length_c 18.249228
_cell_angle_alpha 90.000000
_cell_angle_beta 90.000000
_cell_angle_gamma 90.000000
_cell_volume 2685.202146
_symmetry_space_group_name_H-M "P M M M"
_symmetry_group_IT_number 47
_symmetry_cell_setting 'orthorhombic'
loop_
_space_group_symop_operation_xyz
x,y,z
-x,-y,z
x,-y,-z
-x,y,-z
-x,-y,-z
x,y,-z
-x,y,z
x,-y,z
loop_
_atom_site_type_symbol
_atom_site_label
_atom_site_fract_x
_atom_site_fract_y
_atom_site_fract_z
Si Si1 0.107034 0.342732 0.500000
Si Si2 0.391740 0.745166 0.323415
Si Si3 0.888875 0.151764 0.231618
Si Si4 0.612589 0.000000 0.417345
Si Si5 0.793926 0.842598 0.081131
Si Si6 0.395960 0.156486 0.842950
Si Si7 0.802440 0.352402 0.653567
O O1 0.103751 0.500000 0.500000
O O2 0.160719 0.307396 0.425812
O O3 0.000000 0.294673 0.500000
O O4 0.500000 0.708992 0.339286
O O5 0.386791 0.781638 0.237506
O O6 0.309868 0.646689 0.342714
O O7 0.365653 0.872610 0.370638
O O8 0.861257 0.190108 0.148611
O O9 0.839110 0.249903 0.286918
O O10 0.000000 0.157835 0.241440
O O11 0.859224 0.000000 0.242524
O O12 0.500000 0.000000 0.423001
O O13 0.651165 0.000000 0.500000
O O14 0.689165 0.803525 0.105289
O O15 0.794604 0.000000 0.077425
O O16 0.818140 0.793718 0.000000
O O17 0.500000 0.186505 0.871585
O O18 0.390548 0.000000 0.833531
O O19 0.837215 0.500000 0.666915
#
# Coordination Sequence:
#
# PCOD9383510 Si02
#       7
#     4   8   8   4   8   8   8
#     4   9  20  40  60  78 105 142 185 229 272 325
#     4  10  19  32  52  79 113 148 183 225 271 325
#     4  10  21  37  58  83 110 141 182 233 282 329
#     4   9  18  30  48  78 111 147 186 223 276 332
#     4   9  17  29  48  78 113 144 175 217 273 333
#     4   9  15  26  46  73 106 143 179 218 265 316
#     4  11  23  38  59  84 110 147 188 225 275 332
#
# _framework density 17.875748999999999
#
# number of rings (size 3 to 8) (size 9 to 14) (size 15 to 20)
#    0.000    2.333    2.500    0.500    2.333    2.000 
#    0.000    3.750    0.000    3.500    0.000    1.167 
#    0.000    2.667    0.000    0.000    0.000    0.000 
#
# Total GULP energy -267479.647123 kJ/mol
# GULP energy per Si atom -5572.492648 kJ/mol
# Density = 1.783506 g / cm^3
# Si number density = 17.875749 Si / 1000 Ang^3
#
#
#
# Elastic Constant Matrix: (Units=GPa)
#
#
# Indices 1 2 3 4 5 6 
#
# 1 86.3161 29.0578 40.9276 0.0000 0.0000 0.0000
# 2 29.0578 51.9881 40.7482 0.0000 0.0000 0.0000
# 3 40.9276 40.7482 127.1987 0.0000 0.0000 0.0000
# 4 0.0000 0.0000 0.0000 43.7231 0.0000 0.0000
# 5 0.0000 0.0000 0.0000 0.0000 12.7003 0.0000
# 6 0.0000 0.0000 0.0000 0.0000 0.0000 20.5562
#
#
#
# Elastic Compliance Matrix: (Units=1/GPa)
#
#
# Indices 1 2 3 4 5 6 
#
# 1 0.015011 -0.006148 -0.002860 0.000000 0.000000 0.000000
# 2 -0.006148 0.028202 -0.007056 0.000000 0.000000 0.000000
# 3 -0.002860 -0.007056 0.011043 0.000000 0.000000 0.000000
# 4 0.000000 0.000000 0.000000 0.022871 0.000000 0.000000
# 5 0.000000 0.000000 0.000000 0.000000 0.078738 0.000000
# 6 0.000000 0.000000 0.000000 0.000000 0.000000 0.048647
#
#
# Mechanical properties :
#
#
# Convention : Reuss Voigt Hill
#
# Bulk Modulus (GPa) = 45.19545 54.10781 49.65163
# Shear Modulus (GPa) = 20.49021 25.71387 23.10204
#
# Velocity S-wave (km/s) = 3.38932 3.79684 3.59885
# Velocity P-wave (km/s) = 6.37610 7.03959 6.71604
#
# Compressibility (1/GPa) = 0.02212612
#
# Stress axis : x y z
#
# Youngs Moduli (GPa) = 66.61585 35.45790 90.55820
#
# Poissons Ratio (x) = 0.21801 0.25904
# Poissons Ratio (y) = 0.40958 0.63901
# Poissons Ratio (z) = 0.19055 0.25020
#
# Static dielectric constant tensor:
#      x y z
#    x 1.638430 0.000000 0.000000 
#    y 0.000000 1.604190 0.000000 
#    z 0.000000 0.000000 1.606330 
# 
# From -- ./inp_files/23604.got.cif
#   From: 2010.05.17/outbox.cif.g08.bks.cpg/sg47_12_cif.got.tgz:23604.got - 2010.06.03 20:15:42.
