data_PCOD9383773
_publ_section_title
;
Structure prediction by ZEFSAII (Michael W. Deem and Ramdas Pophale) SiO2 
 PCOD9383773
Probable space group: P M M M
;
_chemical_formula_sum "Si O2"
_cell_formula_units_Z 48
_cell_length_a 18.106648
_cell_length_b 14.409397
_cell_length_c 9.690968
_cell_angle_alpha 90.000000
_cell_angle_beta 90.000000
_cell_angle_gamma 90.000000
_cell_volume 2528.430528
_symmetry_space_group_name_H-M "P M M M"
_symmetry_group_IT_number 47
_symmetry_cell_setting 'orthorhombic'
loop_
_space_group_symop_operation_xyz
x,y,z
-x,-y,z
x,-y,-z
-x,y,-z
-x,-y,-z
x,y,-z
-x,y,z
x,-y,z
loop_
_atom_site_type_symbol
_atom_site_label
_atom_site_fract_x
_atom_site_fract_y
_atom_site_fract_z
Si Si1 0.912285 0.271307 0.662587
Si Si2 0.583578 0.110306 0.500000
Si Si3 0.648741 0.308101 0.153780
Si Si4 0.500000 0.389924 0.165524
Si Si5 0.197561 0.610478 0.836661
Si Si6 0.155609 0.106278 0.163628
Si Si7 0.330275 0.893915 0.219214
O O1 0.892532 0.267216 0.500000
O O2 0.868477 0.351582 0.743312
O O3 0.888847 0.177469 0.742484
O O4 0.000000 0.284335 0.672585
O O5 0.500000 0.151198 0.500000
O O6 0.633794 0.127217 0.367131
O O7 0.573264 0.000000 0.500000
O O8 0.575292 0.346904 0.223887
O O9 0.727404 0.338600 0.213630
O O10 0.643940 0.197544 0.140379
O O11 0.651182 0.350998 0.000000
O O12 0.500000 0.500000 0.180489
O O13 0.500000 0.367769 0.000000
O O14 0.206099 0.500000 0.826268
O O15 0.185491 0.633432 0.000000
O O16 0.241523 0.108004 0.209835
O O17 0.129532 0.000000 0.178218
O O18 0.152931 0.130192 0.000000
O O19 0.352037 0.000000 0.177804
#
# Coordination Sequence:
#
# PCOD9383773 Si02
#       7
#     8   4   8   4   8   8   8
#     4  11  25  42  61  88 122 159 200 248 303 369
#     4   9  20  36  52  76 113 161 210 245 284 346
#     4  10  19  33  55  84 116 150 189 236 293 355
#     4   9  18  32  51  78 111 146 185 232 285 339
#     4  10  21  39  64  90 116 153 204 257 306 363
#     4  10  21  38  62  91 123 159 200 249 302 359
#     4  10  20  33  55  83 114 151 195 244 290 347
#
# _framework density 18.984107999999999
#
# number of rings (size 3 to 8) (size 9 to 14) (size 15 to 20)
#    0.000    2.000    1.667    1.500    2.333    5.667 
#    0.000    3.333    0.000    1.500    0.000    0.583 
#    0.000    0.000    0.000    0.000    0.000    0.000 
#
# Total GULP energy -267409.302714 kJ/mol
# GULP energy per Si atom -5571.027140 kJ/mol
# Density = 1.894090 g / cm^3
# Si number density = 18.984108 Si / 1000 Ang^3
#
#
#
# Elastic Constant Matrix: (Units=GPa)
#
#
# Indices 1 2 3 4 5 6 
#
# 1 99.5810 42.1187 58.8954 0.0000 0.0000 0.0000
# 2 42.1187 107.4218 37.8057 0.0000 0.0000 0.0000
# 3 58.8954 37.8057 108.5654 0.0000 0.0000 0.0000
# 4 0.0000 0.0000 0.0000 33.3323 0.0000 0.0000
# 5 0.0000 0.0000 0.0000 0.0000 27.6259 0.0000
# 6 0.0000 0.0000 0.0000 0.0000 0.0000 18.1367
#
#
#
# Elastic Compliance Matrix: (Units=1/GPa)
#
#
# Indices 1 2 3 4 5 6 
#
# 1 0.015955 -0.003658 -0.007382 0.000000 0.000000 0.000000
# 2 -0.003658 0.011448 -0.002002 0.000000 0.000000 0.000000
# 3 -0.007382 -0.002002 0.013913 0.000000 0.000000 0.000000
# 4 0.000000 0.000000 0.000000 0.030001 0.000000 0.000000
# 5 0.000000 0.000000 0.000000 0.000000 0.036198 0.000000
# 6 0.000000 0.000000 0.000000 0.000000 0.000000 0.055137
#
#
# Mechanical properties :
#
#
# Convention : Reuss Voigt Hill
#
# Bulk Modulus (GPa) = 65.64992 65.91198 65.78095
# Shear Modulus (GPa) = 25.79823 27.60220 26.70021
#
# Velocity S-wave (km/s) = 3.69038 3.81722 3.75434
# Velocity P-wave (km/s) = 7.26740 7.36364 7.31568
#
# Compressibility (1/GPa) = 0.01523231
#
# Stress axis : x y z
#
# Youngs Moduli (GPa) = 62.67662 87.35199 71.87698
#
# Poissons Ratio (x) = 0.31952 0.53057
# Poissons Ratio (y) = 0.22926 0.14391
# Poissons Ratio (z) = 0.46265 0.17489
#
# Static dielectric constant tensor:
#      x y z
#    x 1.681050 0.000000 0.000000 
#    y 0.000000 1.668180 0.000000 
#    z 0.000000 0.000000 1.652860 
# 
# From -- ./inp_files/9155.got.cif
#   From: 2010.05.17/outbox.cif.g08.bks.cpg/sg47_5_cif.got.tgz:9155.got - 2010.06.03 20:15:42.
