data_PCOD9383435
_publ_section_title
;
Structure prediction by ZEFSAII (Michael W. Deem and Ramdas Pophale) SiO2 
 PCOD9383435
Probable space group: P M M M
;
_chemical_formula_sum "Si O2"
_cell_formula_units_Z 40
_cell_length_a 23.931739
_cell_length_b 11.928419
_cell_length_c 9.297829
_cell_angle_alpha 90.000000
_cell_angle_beta 90.000000
_cell_angle_gamma 90.000000
_cell_volume 2654.230884
_symmetry_space_group_name_H-M "P M M M"
_symmetry_group_IT_number 47
_symmetry_cell_setting 'orthorhombic'
loop_
_space_group_symop_operation_xyz
x,y,z
-x,-y,z
x,-y,-z
-x,y,-z
-x,-y,-z
x,y,-z
-x,y,z
x,-y,z
loop_
_atom_site_type_symbol
_atom_site_label
_atom_site_fract_x
_atom_site_fract_y
_atom_site_fract_z
Si Si1 0.328319 0.363629 0.335295
Si Si2 0.000000 0.373657 0.174249
Si Si3 0.784903 0.630938 0.172227
Si Si4 0.437898 0.636284 0.167685
Si Si5 0.066947 0.000000 0.672646
Si Si6 0.106183 0.776114 0.173728
O O1 0.325525 0.326752 0.500000
O O2 0.330235 0.500000 0.334257
O O3 0.272282 0.334158 0.249454
O O4 0.385240 0.324099 0.259407
O O5 0.944742 0.306136 0.214154
O O6 0.000000 0.500000 0.230086
O O7 0.000000 0.379417 0.000000
O O8 0.797321 0.500000 0.209486
O O9 0.836253 0.712230 0.207985
O O10 0.776908 0.634097 0.000000
O O11 0.500000 0.672082 0.216393
O O12 0.437655 0.500000 0.173025
O O13 0.431258 0.666627 0.000000
O O14 0.095219 0.108896 0.743441
O O15 0.072905 0.000000 0.500000
O O16 0.000000 0.000000 0.705497
O O17 0.104309 0.794281 0.000000
#
# Coordination Sequence:
#
# PCOD9383435 Si02
#       6
#     8   4   8   8   4   8
#     4   9  16  24  35  53  79 113 148 180 216 260
#     4   9  16  27  47  74  96 111 136 179 224 261
#     4   9  17  29  45  66  90 115 145 182 225 270
#     4   8  13  21  33  49  71 103 144 187 225 257
#     4  11  23  37  51  67  91 119 146 179 222 271
#     4  10  19  32  52  72  89 113 147 185 222 264
#
# _framework density 15.070278999999999
#
# number of rings (size 3 to 8) (size 9 to 14) (size 15 to 20)
#    0.000    2.800    1.000    2.100    0.000    6.400 
#    0.000    2.000    0.000    2.400    0.000    0.000 
#    0.000    0.000    0.000    0.900    0.000   17.800 
#
# Total GULP energy -222758.225386 kJ/mol
# GULP energy per Si atom -5568.955635 kJ/mol
# Density = 1.503598 g / cm^3
# Si number density = 15.070279 Si / 1000 Ang^3
#
#
#
# Elastic Constant Matrix: (Units=GPa)
#
#
# Indices 1 2 3 4 5 6 
#
# 1 172.4294 59.4111 74.0660 0.0000 0.0000 0.0000
# 2 59.4111 77.6634 38.3270 0.0000 0.0000 0.0000
# 3 74.0660 38.3270 53.6761 0.0000 0.0000 0.0000
# 4 0.0000 0.0000 0.0000 9.1774 0.0000 0.0000
# 5 0.0000 0.0000 0.0000 0.0000 14.6042 0.0000
# 6 0.0000 0.0000 0.0000 0.0000 0.0000 0.5677
#
#
#
# Elastic Compliance Matrix: (Units=1/GPa)
#
#
# Indices 1 2 3 4 5 6 
#
# 1 0.014413 -0.001870 -0.018553 0.000000 0.000000 0.000000
# 2 -0.001870 0.020125 -0.011790 0.000000 0.000000 0.000000
# 3 -0.018553 -0.011790 0.052650 0.000000 0.000000 0.000000
# 4 0.000000 0.000000 0.000000 0.108963 0.000000 0.000000
# 5 0.000000 0.000000 0.000000 0.000000 0.068473 0.000000
# 6 0.000000 0.000000 0.000000 0.000000 0.000000 1.761584
#
#
# Mechanical properties :
#
#
# Convention : Reuss Voigt Hill
#
# Bulk Modulus (GPa) = 43.93296 71.93081 57.93189
# Shear Modulus (GPa) = 2.38297 13.66752 8.02524
#
# Velocity S-wave (km/s) = 1.25884 3.01478 2.31015
# Velocity P-wave (km/s) = 5.59716 7.74289 6.75576
#
# Compressibility (1/GPa) = 0.02276195
#
# Stress axis : x y z
#
# Youngs Moduli (GPa) = 69.38140 49.69006 18.99347
#
# Poissons Ratio (x) = 0.09291 0.35239
# Poissons Ratio (y) = 0.12973 0.22393
# Poissons Ratio (z) = 1.28724 0.58584
#
# Static dielectric constant tensor:
#      x y z
#    x 1.502530 0.000000 0.000000 
#    y 0.000000 1.472940 0.000000 
#    z 0.000000 0.000000 1.498880 
# 
# From -- ./inp_files/10724.got.cif
#   From: 2010.05.17/outbox.cif.g08.bks.cpg/sg47_6_cif.got.tgz:10724.got - 2010.06.03 20:15:42.
