data_PCOD9383416
_publ_section_title
;
Structure prediction by ZEFSAII (Michael W. Deem and Ramdas Pophale) SiO2 
 PCOD9383416
Probable space group: P M M M
;
_chemical_formula_sum "Si O2"
_cell_formula_units_Z 52
_cell_length_a 10.706997
_cell_length_b 12.981512
_cell_length_c 18.582062
_cell_angle_alpha 90.000000
_cell_angle_beta 90.000000
_cell_angle_gamma 90.000000
_cell_volume 2582.776730
_symmetry_space_group_name_H-M "P M M M"
_symmetry_group_IT_number 47
_symmetry_cell_setting 'orthorhombic'
loop_
_space_group_symop_operation_xyz
x,y,z
-x,-y,z
x,-y,-z
-x,y,-z
-x,-y,-z
x,y,-z
-x,y,z
x,-y,z
loop_
_atom_site_type_symbol
_atom_site_label
_atom_site_fract_x
_atom_site_fract_y
_atom_site_fract_z
Si Si1 0.776529 0.886021 0.227450
Si Si2 0.138823 0.335085 0.733375
Si Si3 0.000000 0.624226 0.079537
Si Si4 0.856412 0.729278 0.420346
Si Si5 0.359651 0.880638 0.373536
Si Si6 0.357816 0.173186 0.082566
Si Si7 0.727177 0.616727 0.134803
O O1 0.859369 0.787238 0.247639
O O2 0.666527 0.878310 0.287311
O O3 0.724600 0.874104 0.146601
O O4 0.833132 0.000000 0.236059
O O5 0.157677 0.344843 0.648247
O O6 0.253731 0.379613 0.779214
O O7 0.000000 0.376944 0.751180
O O8 0.132176 0.650467 0.112897
O O9 0.000000 0.500000 0.076989
O O10 0.000000 0.668092 0.000000
O O11 0.843703 0.683683 0.500000
O O12 0.750701 0.815662 0.409491
O O13 0.000000 0.769926 0.414828
O O14 0.500000 0.843105 0.388829
O O15 0.351568 0.000000 0.395661
O O16 0.500000 0.135119 0.087627
O O17 0.357074 0.295733 0.100710
O O18 0.314718 0.157363 0.000000
O O19 0.701128 0.500000 0.111256
#
# Coordination Sequence:
#
# PCOD9383416 Si02
#       7
#     8   8   4   8   8   8   8
#     4   9  18  32  50  71  97 130 168 208 245 284
#     4   9  17  31  51  74  98 126 163 202 241 291
#     4   9  16  26  44  70  94 116 144 181 230 284
#     4   9  18  31  46  66  95 129 160 195 244 298
#     4   9  17  29  46  68  93 123 162 207 250 291
#     4  10  21  34  48  70  99 130 165 203 243 290
#     4  10  19  32  51  74  97 124 157 196 243 293
#
# _framework density 20.133369999999999
#
# number of rings (size 3 to 8) (size 9 to 14) (size 15 to 20)
#    0.000    2.692    0.769    0.923    0.000    3.692 
#    0.000    6.154    0.000    0.462    0.000    4.308 
#    0.000    0.000    0.000   11.231    0.000    2.308 
#
# Total GULP energy -289546.647322 kJ/mol
# GULP energy per Si atom -5568.204756 kJ/mol
# Density = 2.008755 g / cm^3
# Si number density = 20.133370 Si / 1000 Ang^3
#
#
#
# Elastic Constant Matrix: (Units=GPa)
#
#
# Indices 1 2 3 4 5 6 
#
# 1 64.6739 -6.5822 8.9568 0.0000 0.0000 0.0000
# 2 -6.5822 50.7139 -12.9759 0.0000 0.0000 0.0000
# 3 8.9568 -12.9759 122.5293 0.0000 0.0000 0.0000
# 4 0.0000 0.0000 0.0000 9.9287 0.0000 0.0000
# 5 0.0000 0.0000 0.0000 0.0000 16.8215 0.0000
# 6 0.0000 0.0000 0.0000 0.0000 0.0000 -1.6902
#
#
#
# Elastic Compliance Matrix: (Units=1/GPa)
#
#
# Indices 1 2 3 4 5 6 
#
# 1 0.015779 0.001802 -0.000963 0.000000 0.000000 0.000000
# 2 0.001802 0.020473 0.002036 0.000000 0.000000 0.000000
# 3 -0.000963 0.002036 0.008447 0.000000 0.000000 0.000000
# 4 0.000000 0.000000 0.000000 0.100718 0.000000 0.000000
# 5 0.000000 0.000000 0.000000 0.000000 0.059448 0.000000
# 6 0.000000 0.000000 0.000000 0.000000 0.000000 -0.591658
#
#
# Mechanical properties :
#
#
# Convention : Reuss Voigt Hill
#
# Bulk Modulus (GPa) = 19.82142 24.07939 21.95040
# Shear Modulus (GPa) = -13.30753 21.57992 4.13620
#
# Velocity S-wave (km/s) = -2.57372 3.27746 1.43487
# Velocity P-wave (km/s) = 1.01705 5.12916 3.69747
#
# Compressibility (1/GPa) = 0.05045048
#
# Stress axis : x y z
#
# Youngs Moduli (GPa) = 63.37588 48.84402 118.38044
#
# Poissons Ratio (x) = -0.08800 0.11396
# Poissons Ratio (y) = -0.11418 -0.24107
# Poissons Ratio (z) = 0.06101 -0.09947
#
# Static dielectric constant tensor:
#      x y z
#    x 1.713450 0.000000 0.000000 
#    y 0.000000 1.720310 0.000000 
#    z 0.000000 0.000000 1.802360 
# 
# From -- ./inp_files/22868.got.cif
#   From: 2010.05.17/outbox.cif.g08.bks.cpg/sg47_12_cif.got.tgz:22868.got - 2010.06.03 20:15:42.
