data_PCOD9383235
_publ_section_title
;
Structure prediction by ZEFSAII (Michael W. Deem and Ramdas Pophale) SiO2 
 PCOD9383235
Probable space group: P M M M
;
_chemical_formula_sum "Si O2"
_cell_formula_units_Z 44
_cell_length_a 15.937903
_cell_length_b 7.986379
_cell_length_c 18.168657
_cell_angle_alpha 90.000000
_cell_angle_beta 90.000000
_cell_angle_gamma 90.000000
_cell_volume 2312.618106
_symmetry_space_group_name_H-M "P M M M"
_symmetry_group_IT_number 47
_symmetry_cell_setting 'orthorhombic'
loop_
_space_group_symop_operation_xyz
x,y,z
-x,-y,z
x,-y,-z
-x,y,-z
-x,-y,-z
x,y,-z
-x,y,z
x,-y,z
loop_
_atom_site_type_symbol
_atom_site_label
_atom_site_fract_x
_atom_site_fract_y
_atom_site_fract_z
Si Si1 0.674880 0.696651 0.152928
Si Si2 0.593835 0.204522 0.585920
Si Si3 0.737084 0.807934 0.692897
Si Si4 0.846203 0.296908 0.080671
Si Si5 0.500000 0.201011 0.085158
Si Si6 0.908416 0.700688 0.239514
O O1 0.685845 0.500000 0.169925
O O2 0.692335 0.794303 0.227864
O O3 0.747741 0.739755 0.094447
O O4 0.583567 0.731249 0.122612
O O5 0.603249 0.248062 0.500000
O O6 0.500000 0.258659 0.610413
O O7 0.671522 0.268224 0.634503
O O8 0.593716 0.000000 0.590436
O O9 0.829963 0.738446 0.707979
O O10 0.748743 0.000000 0.671738
O O11 0.855788 0.500000 0.079345
O O12 0.890334 0.236907 0.155813
O O13 0.873371 0.235132 0.000000
O O14 0.500000 0.000000 0.089889
O O15 0.500000 0.250923 0.000000
O O16 0.911402 0.500000 0.234161
O O17 0.000000 0.761682 0.263983
#
# Coordination Sequence:
#
# PCOD9383235 Si02
#       6
#     8   8   8   8   4   8
#     4  10  20  33  48  68  96 133 171 204 246 306
#     4   8  15  29  50  77 106 133 161 197 246 304
#     4  10  19  31  52  78 102 130 164 207 253 301
#     4   8  14  26  45  67  89 115 156 208 251 289
#     4  11  23  35  47  67  96 129 170 221 267 300
#     4   9  18  32  49  70  98 132 169 210 258 309
#
# _framework density 19.026054999999999
#
# number of rings (size 3 to 8) (size 9 to 14) (size 15 to 20)
#    0.000    2.818    0.000    3.545    1.273    2.182 
#    0.000    1.818    0.000    7.636    0.000   14.000 
#    0.000    0.000    0.000    0.000    0.000    0.000 
#
# Total GULP energy -245193.830211 kJ/mol
# GULP energy per Si atom -5572.587050 kJ/mol
# Density = 1.898275 g / cm^3
# Si number density = 19.026055 Si / 1000 Ang^3
#
#
#
# Elastic Constant Matrix: (Units=GPa)
#
#
# Indices 1 2 3 4 5 6 
#
# 1 171.3874 12.5036 63.6718 0.0000 0.0000 0.0000
# 2 12.5036 14.0346 2.9083 0.0000 0.0000 0.0000
# 3 63.6718 2.9083 73.3106 0.0000 0.0000 0.0000
# 4 0.0000 0.0000 0.0000 3.4546 0.0000 0.0000
# 5 0.0000 0.0000 0.0000 0.0000 3.4468 0.0000
# 6 0.0000 0.0000 0.0000 0.0000 0.0000 18.2943
#
#
#
# Elastic Compliance Matrix: (Units=1/GPa)
#
#
# Indices 1 2 3 4 5 6 
#
# 1 0.009180 -0.006580 -0.007712 0.000000 0.000000 0.000000
# 2 -0.006580 0.076560 0.002678 0.000000 0.000000 0.000000
# 3 -0.007712 0.002678 0.020232 0.000000 0.000000 0.000000
# 4 0.000000 0.000000 0.000000 0.289470 0.000000 0.000000
# 5 0.000000 0.000000 0.000000 0.000000 0.290120 0.000000
# 6 0.000000 0.000000 0.000000 0.000000 0.000000 0.054662
#
#
# Mechanical properties :
#
#
# Convention : Reuss Voigt Hill
#
# Bulk Modulus (GPa) = 12.08551 46.32223 29.20387
# Shear Modulus (GPa) = 6.32084 17.01573 11.66829
#
# Velocity S-wave (km/s) = 1.82467 2.99379 2.47913
# Velocity P-wave (km/s) = 3.28711 6.02910 4.85567
#
# Compressibility (1/GPa) = 0.08274372
#
# Stress axis : x y z
#
# Youngs Moduli (GPa) = 108.93479 13.06163 49.42615
#
# Poissons Ratio (x) = 0.08595 0.38116
# Poissons Ratio (y) = 0.71683 -0.13236
# Poissons Ratio (z) = 0.84008 -0.03498
#
# Static dielectric constant tensor:
#      x y z
#    x 1.680540 0.000000 0.000000 
#    y 0.000000 1.697810 0.000000 
#    z 0.000000 0.000000 1.644760 
# 
# From -- ./inp_files/8957.got.cif
#   From: 2010.05.17/outbox.cif.g08.bks.cpg/sg47_5_cif.got.tgz:8957.got - 2010.06.03 20:15:42.
