data_PCOD9383476
_publ_section_title
;
Structure prediction by ZEFSAII (Michael W. Deem and Ramdas Pophale) SiO2 
 PCOD9383476
Probable space group: P M M M
;
_chemical_formula_sum "Si O2"
_cell_formula_units_Z 60
_cell_length_a 20.830971
_cell_length_b 8.071919
_cell_length_c 18.081488
_cell_angle_alpha 90.000000
_cell_angle_beta 90.000000
_cell_angle_gamma 90.000000
_cell_volume 3040.328265
_symmetry_space_group_name_H-M "P M M M"
_symmetry_group_IT_number 47
_symmetry_cell_setting 'orthorhombic'
loop_
_space_group_symop_operation_xyz
x,y,z
-x,-y,z
x,-y,-z
-x,y,-z
-x,-y,-z
x,y,-z
-x,y,z
x,-y,z
loop_
_atom_site_type_symbol
_atom_site_label
_atom_site_fract_x
_atom_site_fract_y
_atom_site_fract_z
Si Si1 0.239821 0.806913 0.631366
Si Si2 0.573731 0.198610 0.814748
Si Si3 0.891414 0.307531 0.580686
Si Si4 0.627408 0.691380 0.342346
Si Si5 0.500000 0.187579 0.587095
Si Si6 0.795680 0.798875 0.798613
Si Si7 0.070129 0.802084 0.743469
Si Si8 0.310561 0.796883 0.084820
O O1 0.185861 0.708378 0.587495
O O2 0.314031 0.778546 0.615529
O O3 0.233866 0.761184 0.718189
O O4 0.223201 0.000000 0.623216
O O5 0.500000 0.263011 0.814740
O O6 0.610290 0.237172 0.738368
O O7 0.621633 0.257015 0.879422
O O8 0.569428 0.000000 0.820950
O O9 0.911172 0.239620 0.500000
O O10 0.909726 0.500000 0.583093
O O11 0.917296 0.226499 0.655927
O O12 0.644104 0.500000 0.334609
O O13 0.562612 0.717874 0.386984
O O14 0.500000 0.174327 0.500000
O O15 0.500000 0.000000 0.619818
O O16 0.869145 0.737972 0.790616
O O17 0.748772 0.740551 0.863478
O O18 0.797691 0.000000 0.804241
O O19 0.000000 0.733898 0.762682
O O20 0.068999 0.000000 0.754179
O O21 0.310291 0.000000 0.086405
O O22 0.303976 0.745225 0.000000
#
# Coordination Sequence:
#
# PCOD9383476 Si02
#       8
#     8   8   8   8   4   8   8   8
#     4  10  19  34  56  76  99 135 178 219 260 310
#     4  10  19  32  52  76 106 143 182 223 265 322
#     4  10  21  35  50  74 108 138 168 215 272 323
#     4  12  23  35  55  80 105 136 174 222 275 323
#     4  11  25  43  59  75  98 133 178 225 273 326
#     4   8  14  27  48  73 100 132 170 217 261 302
#     4   9  18  32  51  74 100 137 185 228 264 312
#     4   9  16  27  48  80 111 138 175 224 273 317
#
# _framework density 19.73471
#
# number of rings (size 3 to 8) (size 9 to 14) (size 15 to 20)
#    0.000    2.200    2.000    3.000    0.000    2.933 
#    0.000    2.667    0.000    0.800    0.000    3.733 
#    0.000    0.000    0.000    3.467    0.000    4.533 
#
# Total GULP energy -334663.876968 kJ/mol
# GULP energy per Si atom -5577.731283 kJ/mol
# Density = 1.968979 g / cm^3
# Si number density = 19.734710 Si / 1000 Ang^3
#
#
#
# Elastic Constant Matrix: (Units=GPa)
#
#
# Indices 1 2 3 4 5 6 
#
# 1 109.1810 0.9417 10.6934 0.0000 0.0000 0.0000
# 2 0.9417 20.4777 1.0080 0.0000 0.0000 0.0000
# 3 10.6934 1.0080 63.1566 0.0000 0.0000 0.0000
# 4 0.0000 0.0000 0.0000 -18.4587 0.0000 0.0000
# 5 0.0000 0.0000 0.0000 0.0000 18.1186 0.0000
# 6 0.0000 0.0000 0.0000 0.0000 0.0000 9.4689
#
#
#
# Elastic Compliance Matrix: (Units=1/GPa)
#
#
# Indices 1 2 3 4 5 6 
#
# 1 0.009316 -0.000351 -0.001572 0.000000 0.000000 0.000000
# 2 -0.000351 0.048885 -0.000721 0.000000 0.000000 0.000000
# 3 -0.001572 -0.000721 0.016111 0.000000 0.000000 0.000000
# 4 0.000000 0.000000 0.000000 -0.054175 0.000000 0.000000
# 5 0.000000 0.000000 0.000000 0.000000 0.055192 0.000000
# 6 0.000000 0.000000 0.000000 0.000000 0.000000 0.105609
#
#
# Mechanical properties :
#
#
# Convention : Reuss Voigt Hill
#
# Bulk Modulus (GPa) = 14.48741 24.23351 19.36046
# Shear Modulus (GPa) = 23.89669 13.83724 18.86696
#
# Velocity S-wave (km/s) = 3.48357 2.65082 3.09533
# Velocity P-wave (km/s) = 4.85153 4.65569 4.75462
#
# Compressibility (1/GPa) = 0.06902545
#
# Stress axis : x y z
#
# Youngs Moduli (GPa) = 107.34140 20.45604 62.06831
#
# Poissons Ratio (x) = 0.00718 0.09756
# Poissons Ratio (y) = 0.03768 0.04474
# Poissons Ratio (z) = 0.16871 0.01474
#
# Static dielectric constant tensor:
#      x y z
#    x 1.744490 0.000000 0.000000 
#    y 0.000000 1.725480 0.000000 
#    z 0.000000 0.000000 1.668850 
# 
# From -- ./inp_files/28775.got.cif
#   From: 2010.05.17/outbox.cif.g08.bks.cpg/sg47_15_cif.got.tgz:28775.got - 2010.06.03 20:15:42.
