data_PCOD9383138
_publ_section_title
;
Structure prediction by ZEFSAII (Michael W. Deem and Ramdas Pophale) SiO2 
 PCOD9383138
Probable space group: P M M M
;
_chemical_formula_sum "Si O2"
_cell_formula_units_Z 52
_cell_length_a 9.814891
_cell_length_b 14.014350
_cell_length_c 22.694573
_cell_angle_alpha 90.000000
_cell_angle_beta 90.000000
_cell_angle_gamma 90.000000
_cell_volume 3121.623031
_symmetry_space_group_name_H-M "P M M M"
_symmetry_group_IT_number 47
_symmetry_cell_setting 'orthorhombic'
loop_
_space_group_symop_operation_xyz
x,y,z
-x,-y,z
x,-y,-z
-x,y,-z
-x,-y,-z
x,y,-z
-x,y,z
x,-y,z
loop_
_atom_site_type_symbol
_atom_site_label
_atom_site_fract_x
_atom_site_fract_y
_atom_site_fract_z
Si Si1 0.658483 0.609297 0.826089
Si Si2 0.500000 0.115707 0.433767
Si Si3 0.252557 0.115117 0.351821
Si Si4 0.837887 0.115330 0.116116
Si Si5 0.662924 0.194380 0.226249
Si Si6 0.843034 0.615745 0.064467
Si Si7 0.338479 0.116404 0.000000
Si Si8 0.000000 0.883859 0.431658
O O1 0.500000 0.608989 0.844200
O O2 0.694182 0.500000 0.809536
O O3 0.673561 0.690710 0.777459
O O4 0.749338 0.641534 0.881229
O O5 0.500000 0.152556 0.500000
O O6 0.373702 0.143380 0.394741
O O7 0.500000 0.000000 0.437574
O O8 0.277249 0.157213 0.287563
O O9 0.124785 0.144764 0.390678
O O10 0.249612 0.000000 0.345244
O O11 0.753704 0.152049 0.172920
O O12 0.000000 0.143344 0.114847
O O13 0.837633 0.000000 0.117815
O O14 0.750515 0.143899 0.057877
O O15 0.500000 0.169814 0.220719
O O16 0.843011 0.500000 0.063599
O O17 0.000000 0.645239 0.071936
O O18 0.794350 0.647330 0.000000
O O19 0.500000 0.147560 0.000000
O O20 0.343350 0.000000 0.000000
O O21 0.000000 0.851029 0.500000
O O22 0.000000 0.000000 0.435228
#
# Coordination Sequence:
#
# PCOD9383138 Si02
#       8
#     8   4   8   8   8   8   4   4
#     4   9  19  35  52  70  95 128 166 211 260 309
#     4   9  16  28  48  74 103 136 170 203 239 282
#     4  10  19  31  49  74 106 140 172 206 241 290
#     4  10  21  35  53  75 101 133 171 214 256 304
#     4  11  22  35  50  73 103 137 175 213 258 306
#     4   8  14  27  48  71  92 115 147 193 253 315
#     4   9  17  33  55  75  96 129 172 217 261 300
#     4   9  18  32  50  74 107 144 172 197 239 294
#
# _framework density 16.658000000000001
#
# number of rings (size 3 to 8) (size 9 to 14) (size 15 to 20)
#    0.000    2.538    0.769    2.077    1.077    5.231 
#    1.385    1.538    0.000    0.000    0.000    0.000 
#    0.000    3.692    0.000    0.000    0.000    0.000 
#
# Total GULP energy -289645.084286 kJ/mol
# GULP energy per Si atom -5570.097775 kJ/mol
# Density = 1.662009 g / cm^3
# Si number density = 16.658000 Si / 1000 Ang^3
#
#
#
# Elastic Constant Matrix: (Units=GPa)
#
#
# Indices 1 2 3 4 5 6 
#
# 1 142.8427 27.3166 93.0714 0.0000 0.0000 0.0000
# 2 27.3166 53.6043 42.4087 0.0000 0.0000 0.0000
# 3 93.0714 42.4087 177.3194 0.0000 0.0000 0.0000
# 4 0.0000 0.0000 0.0000 13.8700 0.0000 0.0000
# 5 0.0000 0.0000 0.0000 0.0000 32.7984 0.0000
# 6 0.0000 0.0000 0.0000 0.0000 0.0000 9.0213
#
#
#
# Elastic Compliance Matrix: (Units=1/GPa)
#
#
# Indices 1 2 3 4 5 6 
#
# 1 0.010706 -0.001246 -0.005322 0.000000 0.000000 0.000000
# 2 -0.001246 0.023154 -0.004884 0.000000 0.000000 0.000000
# 3 -0.005322 -0.004884 0.009601 0.000000 0.000000 0.000000
# 4 0.000000 0.000000 0.000000 0.072098 0.000000 0.000000
# 5 0.000000 0.000000 0.000000 0.000000 0.030489 0.000000
# 6 0.000000 0.000000 0.000000 0.000000 0.000000 0.110849
#
#
# Mechanical properties :
#
#
# Convention : Reuss Voigt Hill
#
# Bulk Modulus (GPa) = 48.64118 77.70663 63.17390
# Shear Modulus (GPa) = 17.44278 25.20260 21.32269
#
# Velocity S-wave (km/s) = 3.23942 3.89388 3.58163
# Velocity P-wave (km/s) = 6.57686 8.18327 7.42364
#
# Compressibility (1/GPa) = 0.02055871
#
# Stress axis : x y z
#
# Youngs Moduli (GPa) = 93.40293 43.18953 104.15863
#
# Poissons Ratio (x) = 0.05380 0.55429
# Poissons Ratio (y) = 0.11636 0.50868
# Poissons Ratio (z) = 0.49705 0.21092
#
# Static dielectric constant tensor:
#      x y z
#    x 1.547710 0.000000 0.000000 
#    y 0.000000 1.582880 0.000000 
#    z 0.000000 0.000000 1.541870 
# 
# From -- ./inp_files/29680.got.cif
#   From: 2010.05.17/outbox.cif.g08.bks.cpg/sg47_15_cif.got.tgz:29680.got - 2010.06.03 20:15:42.
