data_PCOD9383538
_publ_section_title
;
Structure prediction by ZEFSAII (Michael W. Deem and Ramdas Pophale) SiO2 
 PCOD9383538
Probable space group: P M M M
;
_chemical_formula_sum "Si O2"
_cell_formula_units_Z 64
_cell_length_a 16.361866
_cell_length_b 9.980102
_cell_length_c 23.175496
_cell_angle_alpha 90.000000
_cell_angle_beta 90.000000
_cell_angle_gamma 90.000000
_cell_volume 3784.398391
_symmetry_space_group_name_H-M "P M M M"
_symmetry_group_IT_number 47
_symmetry_cell_setting 'orthorhombic'
loop_
_space_group_symop_operation_xyz
x,y,z
-x,-y,z
x,-y,-z
-x,y,-z
-x,-y,-z
x,y,-z
-x,y,z
x,-y,z
loop_
_atom_site_type_symbol
_atom_site_label
_atom_site_fract_x
_atom_site_fract_y
_atom_site_fract_z
Si Si1 0.908525 0.837668 0.567659
Si Si2 0.645092 0.152896 0.068263
Si Si3 0.704728 0.847103 0.758049
Si Si4 0.816398 0.854464 0.864685
Si Si5 0.405446 0.653867 0.831930
Si Si6 0.264132 0.159428 0.622984
Si Si7 0.406023 0.343307 0.569605
Si Si8 0.902500 0.651091 0.937370
O O1 0.899957 0.801607 0.500000
O O2 0.826215 0.796561 0.601229
O O3 0.000000 0.792326 0.586987
O O4 0.909936 0.000000 0.570684
O O5 0.737381 0.151349 0.093195
O O6 0.602685 0.263810 0.108144
O O7 0.613316 0.000000 0.077275
O O8 0.642044 0.180794 0.000000
O O9 0.782652 0.840855 0.800289
O O10 0.643665 0.737652 0.784064
O O11 0.727775 0.827092 0.691916
O O12 0.671548 0.000000 0.764819
O O13 0.873921 0.737887 0.884683
O O14 0.855382 0.000000 0.871818
O O15 0.500000 0.650256 0.815724
O O16 0.375911 0.500000 0.837849
O O17 0.336814 0.246607 0.595121
O O18 0.273486 0.000000 0.608822
O O19 0.402720 0.335437 0.500000
O O20 0.500000 0.308630 0.586853
O O21 0.392197 0.500000 0.585414
O O22 0.870693 0.500000 0.933235
O O23 0.000000 0.645640 0.938203
O O24 0.875915 0.707132 0.000000
#
# Coordination Sequence:
#
# PCOD9383538 Si02
#       8
#     8   8   8   8   8   8   8   8
#     4   8  14  26  47  77 109 135 160 197 249 304
#     4   9  18  32  50  72  96 122 152 189 241 301
#     4   9  20  36  50  68  96 127 161 202 248 294
#     4   9  17  31  48  65  89 120 154 192 232 280
#     4  10  21  35  50  69  93 123 162 205 243 285
#     4  10  19  32  53  79 103 131 173 220 256 291
#     4   9  19  35  52  73 106 144 174 203 250 309
#     4   9  18  31  46  67  94 120 148 187 237 290
#
# _framework density 16.911539999999999
#
# number of rings (size 3 to 8) (size 9 to 14) (size 15 to 20)
#    0.000    2.875    0.000    3.000    0.000    6.500 
#    0.000    5.625    0.000    2.625    0.000    1.750 
#    0.000    0.000    0.000    0.000    0.000    0.000 
#
# Total GULP energy -356280.497571 kJ/mol
# GULP energy per Si atom -5566.882775 kJ/mol
# Density = 1.687305 g / cm^3
# Si number density = 16.911540 Si / 1000 Ang^3
#
#
#
# Elastic Constant Matrix: (Units=GPa)
#
#
# Indices 1 2 3 4 5 6 
#
# 1 88.5476 54.7152 52.5642 0.0000 0.0000 0.0000
# 2 54.7152 86.4231 51.5633 0.0000 0.0000 0.0000
# 3 52.5642 51.5633 83.8756 0.0000 0.0000 0.0000
# 4 0.0000 0.0000 0.0000 16.1671 0.0000 0.0000
# 5 0.0000 0.0000 0.0000 0.0000 7.4552 0.0000
# 6 0.0000 0.0000 0.0000 0.0000 0.0000 26.5433
#
#
#
# Elastic Compliance Matrix: (Units=1/GPa)
#
#
# Indices 1 2 3 4 5 6 
#
# 1 0.021535 -0.008815 -0.008077 0.000000 0.000000 0.000000
# 2 -0.008815 0.021882 -0.007928 0.000000 0.000000 0.000000
# 3 -0.008077 -0.007928 0.021858 0.000000 0.000000 0.000000
# 4 0.000000 0.000000 0.000000 0.061854 0.000000 0.000000
# 5 0.000000 0.000000 0.000000 0.000000 0.134135 0.000000
# 6 0.000000 0.000000 0.000000 0.000000 0.000000 0.037674
#
#
# Mechanical properties :
#
#
# Convention : Reuss Voigt Hill
#
# Bulk Modulus (GPa) = 63.95694 64.05908 64.00801
# Shear Modulus (GPa) = 14.13277 16.70004 15.41641
#
# Velocity S-wave (km/s) = 2.89396 3.14585 3.02253
# Velocity P-wave (km/s) = 7.00481 7.15236 7.07897
#
# Compressibility (1/GPa) = 0.01563552
#
# Stress axis : x y z
#
# Youngs Moduli (GPa) = 46.43639 45.69991 45.75068
#
# Poissons Ratio (x) = 0.40285 0.36951
# Poissons Ratio (y) = 0.40934 0.36270
# Poissons Ratio (z) = 0.37505 0.36230
#
# Static dielectric constant tensor:
#      x y z
#    x 1.580320 0.000000 0.000000 
#    y 0.000000 1.584360 0.000000 
#    z 0.000000 0.000000 1.561100 
# 
# From -- ./inp_files/31326.got.cif
#   From: 2010.05.17/outbox.cif.g08.bks.cpg/sg47_16_cif.got.tgz:31326.got - 2010.06.03 20:15:42.
