data_PCOD9383576
_publ_section_title
;
Structure prediction by ZEFSAII (Michael W. Deem and Ramdas Pophale) SiO2 
 PCOD9383576
Probable space group: P M M M
;
_chemical_formula_sum "Si O2"
_cell_formula_units_Z 38
_cell_length_a 12.519153
_cell_length_b 8.604774
_cell_length_c 17.352945
_cell_angle_alpha 90.000000
_cell_angle_beta 90.000000
_cell_angle_gamma 90.000000
_cell_volume 1869.337015
_symmetry_space_group_name_H-M "P M M M"
_symmetry_group_IT_number 47
_symmetry_cell_setting 'orthorhombic'
loop_
_space_group_symop_operation_xyz
x,y,z
-x,-y,z
x,-y,-z
-x,y,-z
-x,-y,-z
x,y,-z
-x,y,z
x,-y,z
loop_
_atom_site_type_symbol
_atom_site_label
_atom_site_fract_x
_atom_site_fract_y
_atom_site_fract_z
Si Si1 0.376281 0.186151 0.413801
Si Si2 0.311713 0.000000 0.085364
Si Si3 0.500000 0.000000 0.789661
Si Si4 0.500000 0.666897 0.780962
Si Si5 0.000000 0.816219 0.587593
Si Si6 0.193049 0.680521 0.315797
Si Si7 0.265582 0.323851 0.855442
O O1 0.332382 0.218431 0.500000
O O2 0.500000 0.231528 0.415072
O O3 0.306642 0.272033 0.350982
O O4 0.369356 0.000000 0.402432
O O5 0.398050 0.000000 0.154163
O O6 0.252059 0.166388 0.095200
O O7 0.360738 0.000000 0.000000
O O8 0.500000 0.838884 0.743602
O O9 0.500000 0.500000 0.738329
O O10 0.608158 0.667183 0.832052
O O11 0.102977 0.769697 0.637297
O O12 0.000000 0.750076 0.500000
O O13 0.000000 0.000000 0.580314
O O14 0.173711 0.500000 0.328660
O O15 0.201290 0.703981 0.224165
O O16 0.239163 0.500000 0.884587
#
# Coordination Sequence:
#
# PCOD9383576 Si02
#       7
#     8   4   2   4   4   8   8
#     4   9  19  35  53  78 113 152 193 235 283 341
#     4  10  19  32  54  79 110 154 195 232 283 344
#     4   8  15  28  44  72 106 142 195 232 261 328
#     4   8  14  29  47  69 109 149 182 227 280 332
#     4  11  25  43  63  85 111 150 195 242 296 350
#     4  11  23  37  57  84 114 149 191 241 296 346
#     4   9  20  34  51  81 116 149 191 239 286 340
#
# _framework density 20.328064999999999
#
# number of rings (size 3 to 8) (size 9 to 14) (size 15 to 20)
#    0.000    2.421    0.000    2.368    4.421    4.632 
#    0.000    1.053    0.000    6.316    0.000    1.474 
#    0.000    3.368    0.000    0.000    0.000    0.000 
#
# Total GULP energy -211894.805697 kJ/mol
# GULP energy per Si atom -5576.179097 kJ/mol
# Density = 2.028180 g / cm^3
# Si number density = 20.328065 Si / 1000 Ang^3
#
#
#
# Elastic Constant Matrix: (Units=GPa)
#
#
# Indices 1 2 3 4 5 6 
#
# 1 47.5199 17.8073 17.7586 0.0000 0.0000 0.0000
# 2 17.8073 151.7231 47.3014 0.0000 0.0000 0.0000
# 3 17.7586 47.3014 66.2847 0.0000 0.0000 0.0000
# 4 0.0000 0.0000 0.0000 4.2542 0.0000 0.0000
# 5 0.0000 0.0000 0.0000 0.0000 0.5269 0.0000
# 6 0.0000 0.0000 0.0000 0.0000 0.0000 32.7706
#
#
#
# Elastic Compliance Matrix: (Units=1/GPa)
#
#
# Indices 1 2 3 4 5 6 
#
# 1 0.023508 -0.001023 -0.005568 0.000000 0.000000 0.000000
# 2 -0.001023 0.008521 -0.005807 0.000000 0.000000 0.000000
# 3 -0.005568 -0.005807 0.020722 0.000000 0.000000 0.000000
# 4 0.000000 0.000000 0.000000 0.235063 0.000000 0.000000
# 5 0.000000 0.000000 0.000000 0.000000 1.897811 0.000000
# 6 0.000000 0.000000 0.000000 0.000000 0.000000 0.030515
#
#
# Mechanical properties :
#
#
# Convention : Reuss Voigt Hill
#
# Bulk Modulus (GPa) = 35.77123 47.91802 41.84462
# Shear Modulus (GPa) = 2.22197 19.68770 10.95484
#
# Velocity S-wave (km/s) = 1.04663 3.11545 2.32394
# Velocity P-wave (km/s) = 4.36987 6.04689 5.27544
#
# Compressibility (1/GPa) = 0.02795543
#
# Stress axis : x y z
#
# Youngs Moduli (GPa) = 42.53866 117.35186 48.25794
#
# Poissons Ratio (x) = 0.12007 0.26870
# Poissons Ratio (y) = 0.04352 0.28022
# Poissons Ratio (z) = 0.23685 0.68144
#
# Static dielectric constant tensor:
#      x y z
#    x 1.724970 0.000000 0.000000 
#    y 0.000000 1.767310 0.000000 
#    z 0.000000 0.000000 1.716120 
# 
# From -- ./inp_files/27327.got.cif
#   From: 2010.05.17/outbox.cif.g08.bks.cpg/sg47_14_cif.got.tgz:27327.got - 2010.06.03 20:15:42.
