data_PCOD9383832
_publ_section_title
;
Structure prediction by ZEFSAII (Michael W. Deem and Ramdas Pophale) SiO2 
 PCOD9383832
Probable space group: P M M M
;
_chemical_formula_sum "Si O2"
_cell_formula_units_Z 56
_cell_length_a 9.242351
_cell_length_b 16.071360
_cell_length_c 23.505025
_cell_angle_alpha 90.000000
_cell_angle_beta 90.000000
_cell_angle_gamma 90.000000
_cell_volume 3491.369428
_symmetry_space_group_name_H-M "P M M M"
_symmetry_group_IT_number 47
_symmetry_cell_setting 'orthorhombic'
loop_
_space_group_symop_operation_xyz
x,y,z
-x,-y,z
x,-y,-z
-x,y,-z
-x,-y,-z
x,y,-z
-x,y,z
x,-y,z
loop_
_atom_site_type_symbol
_atom_site_label
_atom_site_fract_x
_atom_site_fract_y
_atom_site_fract_z
Si Si1 0.334994 0.399447 0.000000
Si Si2 0.825831 0.597474 0.883513
Si Si3 0.834148 0.000000 0.432484
Si Si4 0.826144 0.731858 0.787201
Si Si5 0.670228 0.135790 0.363326
Si Si6 0.671514 0.906069 0.769148
Si Si7 0.333967 0.400470 0.436675
Si Si8 0.172577 0.694068 0.342102
O O1 0.250180 0.377545 0.942525
O O2 0.340185 0.500000 0.000000
O O3 0.500000 0.368353 0.000000
O O4 0.788410 0.500000 0.870392
O O5 0.785646 0.664065 0.834965
O O6 0.000000 0.599811 0.890160
O O7 0.748327 0.922128 0.408119
O O8 0.835292 0.000000 0.500000
O O9 0.000000 0.000000 0.411657
O O10 0.752237 0.823157 0.791943
O O11 0.791417 0.692274 0.725214
O O12 0.000000 0.743745 0.789396
O O13 0.500000 0.143415 0.374452
O O14 0.686989 0.099303 0.299440
O O15 0.750888 0.222815 0.363706
O O16 0.500000 0.899113 0.781793
O O17 0.719401 0.000000 0.786897
O O18 0.285853 0.370968 0.500000
O O19 0.500000 0.371300 0.428158
O O20 0.337461 0.500000 0.438986
O O21 0.235962 0.375064 0.383763
O O22 0.000000 0.697996 0.346841
#
# Coordination Sequence:
#
# PCOD9383832 Si02
#       8
#     4   8   4   8   8   8   8   8
#     4   9  17  29  47  73 102 133 174 215 247 282
#     4   9  17  31  50  71 102 142 176 204 238 287
#     4  11  23  35  47  67  93 117 147 192 243 292
#     4   9  19  32  47  74 104 131 166 203 245 297
#     4  10  19  34  52  68  89 120 156 189 230 290
#     4   9  17  31  50  71  94 123 160 201 244 291
#     4   9  19  36  54  69  87 117 160 204 244 293
#     4  10  20  33  50  74 100 124 154 197 249 296
#
# _framework density 16.039550999999999
#
# number of rings (size 3 to 8) (size 9 to 14) (size 15 to 20)
#    0.000    2.571    0.714    1.714    0.000    5.143 
#    0.000    2.143    0.000    1.714    0.000    0.500 
#    0.000    4.000    0.000    0.000    0.000    0.000 
#
# Total GULP energy -311861.080998 kJ/mol
# GULP energy per Si atom -5568.947875 kJ/mol
# Density = 1.600304 g / cm^3
# Si number density = 16.039551 Si / 1000 Ang^3
#
#
#
# Elastic Constant Matrix: (Units=GPa)
#
#
# Indices 1 2 3 4 5 6 
#
# 1 59.3310 43.0155 56.2053 0.0000 0.0000 0.0000
# 2 43.0155 89.2319 63.6428 0.0000 0.0000 0.0000
# 3 56.2053 63.6428 99.4418 0.0000 0.0000 0.0000
# 4 0.0000 0.0000 0.0000 60.6773 0.0000 0.0000
# 5 0.0000 0.0000 0.0000 0.0000 21.3739 0.0000
# 6 0.0000 0.0000 0.0000 0.0000 0.0000 29.7290
#
#
#
# Elastic Compliance Matrix: (Units=1/GPa)
#
#
# Indices 1 2 3 4 5 6 
#
# 1 0.037679 -0.005472 -0.017794 0.000000 0.000000 0.000000
# 2 -0.005472 0.021413 -0.010611 0.000000 0.000000 0.000000
# 3 -0.017794 -0.010611 0.026905 0.000000 0.000000 0.000000
# 4 0.000000 0.000000 0.000000 0.016481 0.000000 0.000000
# 5 0.000000 0.000000 0.000000 0.000000 0.046786 0.000000
# 6 0.000000 0.000000 0.000000 0.000000 0.000000 0.033637
#
#
# Mechanical properties :
#
#
# Convention : Reuss Voigt Hill
#
# Bulk Modulus (GPa) = 54.82130 63.74797 59.28463
# Shear Modulus (GPa) = 19.47524 28.03211 23.75368
#
# Velocity S-wave (km/s) = 3.48832 4.18507 3.85248
# Velocity P-wave (km/s) = 7.10475 7.94881 7.53860
#
# Compressibility (1/GPa) = 0.01824109
#
# Stress axis : x y z
#
# Youngs Moduli (GPa) = 26.54024 46.70032 37.16814
#
# Poissons Ratio (x) = 0.25556 0.66137
# Poissons Ratio (y) = 0.14524 0.39441
# Poissons Ratio (z) = 0.47226 0.49556
#
# Static dielectric constant tensor:
#      x y z
#    x 1.536540 0.000000 0.000000 
#    y 0.000000 1.525210 0.000000 
#    z 0.000000 0.000000 1.530040 
# 
# From -- ./inp_files/29749.got.cif
#   From: 2010.05.17/outbox.cif.g08.bks.cpg/sg47_15_cif.got.tgz:29749.got - 2010.06.03 20:15:42.
