data_PCOD9383446
_publ_section_title
;
Structure prediction by ZEFSAII (Michael W. Deem and Ramdas Pophale) SiO2 
 PCOD9383446
Probable space group: P M M M
;
_chemical_formula_sum "Si O2"
_cell_formula_units_Z 64
_cell_length_a 9.290036
_cell_length_b 23.219231
_cell_length_c 18.078144
_cell_angle_alpha 90.000000
_cell_angle_beta 90.000000
_cell_angle_gamma 90.000000
_cell_volume 3899.591100
_symmetry_space_group_name_H-M "P M M M"
_symmetry_group_IT_number 47
_symmetry_cell_setting 'orthorhombic'
loop_
_space_group_symop_operation_xyz
x,y,z
-x,-y,z
x,-y,-z
-x,y,-z
-x,-y,-z
x,y,-z
-x,y,z
x,-y,z
loop_
_atom_site_type_symbol
_atom_site_label
_atom_site_fract_x
_atom_site_fract_y
_atom_site_fract_z
Si Si1 0.828294 0.170411 0.290382
Si Si2 0.828142 0.264071 0.414325
Si Si3 0.335339 0.745134 0.185384
Si Si4 0.834926 0.069824 0.082615
Si Si5 0.828793 0.660304 0.085849
Si Si6 0.329841 0.931797 0.768824
Si Si7 0.827830 0.566621 0.789647
Si Si8 0.664187 0.351374 0.315157
O O1 0.794254 0.208920 0.362696
O O2 0.760556 0.204980 0.221164
O O3 0.754832 0.108172 0.288550
O O4 0.000000 0.166174 0.283533
O O5 0.792762 0.254403 0.500000
O O6 0.746341 0.319116 0.381059
O O7 0.000000 0.273548 0.407786
O O8 0.500000 0.763156 0.171327
O O9 0.260422 0.714575 0.116001
O O10 0.338351 0.695789 0.248882
O O11 0.730370 0.084270 0.149688
O O12 0.000000 0.088417 0.097561
O O13 0.837211 0.000000 0.079861
O O14 0.793609 0.089930 0.000000
O O15 0.794636 0.605643 0.138261
O O16 0.000000 0.671770 0.094344
O O17 0.799593 0.648665 0.000000
O O18 0.500000 0.921650 0.764770
O O19 0.303241 0.000000 0.758004
O O20 0.789049 0.500000 0.800389
O O21 0.747826 0.594903 0.719946
O O22 0.000000 0.570322 0.778261
O O23 0.500000 0.365420 0.334517
#
# Coordination Sequence:
#
# PCOD9383446 Si02
#       8
#     8   8   8   8   8   8   8   8
#     4  10  19  32  52  74  96 122 153 191 233 281
#     4   9  18  33  54  79 102 122 148 187 236 287
#     4   9  17  30  47  66  90 120 155 195 239 286
#     4   8  14  26  44  64  86 114 150 191 231 269
#     4   9  17  29  45  66  94 127 164 208 252 289
#     4  10  20  32  47  69  98 131 164 197 234 279
#     4   9  17  29  46  68  95 131 172 207 241 283
#     4   9  17  29  47  71  97 125 156 191 233 280
#
# _framework density 16.411978000000001
#
# number of rings (size 3 to 8) (size 9 to 14) (size 15 to 20)
#    0.000    2.875    0.000    1.875    0.000    5.500 
#    0.000    3.125    0.000    4.500    0.000    8.750 
#    0.000    0.000    0.000    0.000    0.000    0.000 
#
# Total GULP energy -356538.724053 kJ/mol
# GULP energy per Si atom -5570.917563 kJ/mol
# Density = 1.637462 g / cm^3
# Si number density = 16.411978 Si / 1000 Ang^3
#
#
#
# Elastic Constant Matrix: (Units=GPa)
#
#
# Indices 1 2 3 4 5 6 
#
# 1 73.6388 52.6447 57.8072 0.0000 0.0000 0.0000
# 2 52.6447 75.6401 54.5193 0.0000 0.0000 0.0000
# 3 57.8072 54.5193 102.8238 0.0000 0.0000 0.0000
# 4 0.0000 0.0000 0.0000 16.6919 0.0000 0.0000
# 5 0.0000 0.0000 0.0000 0.0000 14.7365 0.0000
# 6 0.0000 0.0000 0.0000 0.0000 0.0000 21.8108
#
#
#
# Elastic Compliance Matrix: (Units=1/GPa)
#
#
# Indices 1 2 3 4 5 6 
#
# 1 0.032480 -0.015286 -0.010155 0.000000 0.000000 0.000000
# 2 -0.015286 0.028592 -0.006567 0.000000 0.000000 0.000000
# 3 -0.010155 -0.006567 0.018916 0.000000 0.000000 0.000000
# 4 0.000000 0.000000 0.000000 0.059909 0.000000 0.000000
# 5 0.000000 0.000000 0.000000 0.000000 0.067859 0.000000
# 6 0.000000 0.000000 0.000000 0.000000 0.000000 0.045849
#
#
# Mechanical properties :
#
#
# Convention : Reuss Voigt Hill
#
# Bulk Modulus (GPa) = 62.60514 64.67169 63.63841
# Shear Modulus (GPa) = 15.48252 16.45658 15.96955
#
# Velocity S-wave (km/s) = 3.07476 3.17001 3.12275
# Velocity P-wave (km/s) = 7.12982 7.27250 7.20152
#
# Compressibility (1/GPa) = 0.01597313
#
# Stress axis : x y z
#
# Youngs Moduli (GPa) = 30.78853 34.97439 52.86478
#
# Poissons Ratio (x) = 0.53462 0.53684
# Poissons Ratio (y) = 0.47063 0.34714
# Poissons Ratio (z) = 0.31266 0.22966
#
# Static dielectric constant tensor:
#      x y z
#    x 1.552390 0.000000 0.000000 
#    y 0.000000 1.557380 0.000000 
#    z 0.000000 0.000000 1.538600 
# 
# From -- ./inp_files/27064.got.cif
#   From: 2010.05.17/outbox.cif.g08.bks.cpg/sg47_14_cif.got.tgz:27064.got - 2010.06.03 20:15:42.
