data_PCOD9383690
_publ_section_title
;
Structure prediction by ZEFSAII (Michael W. Deem and Ramdas Pophale) SiO2 
 PCOD9383690
Probable space group: P M M M
;
_chemical_formula_sum "Si O2"
_cell_formula_units_Z 52
_cell_length_a 29.117503
_cell_length_b 9.090472
_cell_length_c 12.149338
_cell_angle_alpha 90.000000
_cell_angle_beta 90.000000
_cell_angle_gamma 90.000000
_cell_volume 3215.830700
_symmetry_space_group_name_H-M "P M M M"
_symmetry_group_IT_number 47
_symmetry_cell_setting 'orthorhombic'
loop_
_space_group_symop_operation_xyz
x,y,z
-x,-y,z
x,-y,-z
-x,y,-z
-x,-y,-z
x,y,-z
-x,y,z
x,-y,z
loop_
_atom_site_type_symbol
_atom_site_label
_atom_site_fract_x
_atom_site_fract_y
_atom_site_fract_z
Si Si1 0.947295 0.177102 0.778877
Si Si2 0.863837 0.178818 0.625320
Si Si3 0.800922 0.675668 0.000000
Si Si4 0.089648 0.324472 0.000000
Si Si5 0.592888 0.669076 0.633874
Si Si6 0.500000 0.169657 0.365757
Si Si7 0.223680 0.822128 0.227693
Si Si8 0.312483 0.176592 0.371642
O O1 0.910989 0.221569 0.685261
O O2 0.932833 0.253959 0.892036
O O3 0.000000 0.211279 0.750963
O O4 0.943682 0.000000 0.793139
O O5 0.860529 0.231806 0.500000
O O6 0.820527 0.222955 0.699629
O O7 0.862997 0.000000 0.621657
O O8 0.855751 0.707318 0.000000
O O9 0.779794 0.746508 0.109595
O O10 0.795014 0.500000 0.000000
O O11 0.083406 0.500000 0.000000
O O12 0.591984 0.671407 0.500000
O O13 0.592863 0.500000 0.669139
O O14 0.546575 0.750313 0.670796
O O15 0.640016 0.749345 0.664997
O O16 0.500000 0.173207 0.500000
O O17 0.500000 0.000000 0.332456
O O18 0.269568 0.783949 0.295206
O O19 0.222302 0.000000 0.215038
O O20 0.303561 0.216627 0.500000
O O21 0.317860 0.000000 0.368588
#
# Coordination Sequence:
#
# PCOD9383690 Si02
#       8
#     8   8   4   4   8   4   8   8
#     4  10  20  33  52  77 101 125 156 196 239 285
#     4   9  17  30  50  75 100 125 155 192 235 284
#     4  11  23  36  52  73  96 121 155 200 245 288
#     4  11  22  36  53  72  96 126 159 197 241 288
#     4   9  16  25  38  59  90 129 168 202 241 289
#     4   9  15  23  37  57  85 124 169 214 251 281
#     4  10  19  33  54  74  94 124 160 197 240 290
#     4   9  17  29  46  70  98 126 160 200 240 287
#
# _framework density 16.170006000000001
#
# number of rings (size 3 to 8) (size 9 to 14) (size 15 to 20)
#    0.000    2.385    1.538    1.846    0.000    7.385 
#    0.000    1.538    0.000    2.769    0.000    1.077 
#    0.000    0.615    0.000    6.462    0.000    4.923 
#
# Total GULP energy -289975.889575 kJ/mol
# GULP energy per Si atom -5576.459415 kJ/mol
# Density = 1.613320 g / cm^3
# Si number density = 16.170006 Si / 1000 Ang^3
#
#
#
# Elastic Constant Matrix: (Units=GPa)
#
#
# Indices 1 2 3 4 5 6 
#
# 1 175.7813 63.7919 75.6779 0.0000 0.0000 0.0000
# 2 63.7919 42.0601 35.6417 0.0000 0.0000 0.0000
# 3 75.6779 35.6417 110.0592 0.0000 0.0000 0.0000
# 4 0.0000 0.0000 0.0000 5.8992 0.0000 0.0000
# 5 0.0000 0.0000 0.0000 0.0000 3.3883 0.0000
# 6 0.0000 0.0000 0.0000 0.0000 0.0000 18.8238
#
#
#
# Elastic Compliance Matrix: (Units=1/GPa)
#
#
# Indices 1 2 3 4 5 6 
#
# 1 0.013666 -0.017591 -0.003700 0.000000 0.000000 0.000000
# 2 -0.017591 0.055412 -0.005849 0.000000 0.000000 0.000000
# 3 -0.003700 -0.005849 0.013524 0.000000 0.000000 0.000000
# 4 0.000000 0.000000 0.000000 0.169515 0.000000 0.000000
# 5 0.000000 0.000000 0.000000 0.000000 0.295131 0.000000
# 6 0.000000 0.000000 0.000000 0.000000 0.000000 0.053124
#
#
# Mechanical properties :
#
#
# Convention : Reuss Voigt Hill
#
# Bulk Modulus (GPa) = 35.30805 75.34709 55.32757
# Shear Modulus (GPa) = 7.52905 15.80819 11.66862
#
# Velocity S-wave (km/s) = 2.16016 3.13009 2.68922
# Velocity P-wave (km/s) = 5.30138 7.73054 6.62819
#
# Compressibility (1/GPa) = 0.02832215
#
# Stress axis : x y z
#
# Youngs Moduli (GPa) = 73.17532 18.04653 73.94150
#
# Poissons Ratio (x) = 0.31746 0.27358
# Poissons Ratio (y) = 1.28726 0.43247
# Poissons Ratio (z) = 0.27074 0.10555
#
# Static dielectric constant tensor:
#      x y z
#    x 1.537860 0.000000 0.000000 
#    y 0.000000 1.535670 0.000000 
#    z 0.000000 0.000000 1.511910 
# 
# From -- ./inp_files/19875.got.cif
#   From: 2010.05.17/outbox.cif.g08.bks.cpg/sg47_10_cif.got.tgz:19875.got - 2010.06.03 20:15:42.
