data_PCOD9383662
_publ_section_title
;
Structure prediction by ZEFSAII (Michael W. Deem and Ramdas Pophale) SiO2 
 PCOD9383662
Probable space group: P M M M
;
_chemical_formula_sum "Si O2"
_cell_formula_units_Z 45
_cell_length_a 7.741247
_cell_length_b 26.592038
_cell_length_c 11.834365
_cell_angle_alpha 90.000000
_cell_angle_beta 90.000000
_cell_angle_gamma 90.000000
_cell_volume 2436.169531
_symmetry_space_group_name_H-M "P M M M"
_symmetry_group_IT_number 47
_symmetry_cell_setting 'orthorhombic'
loop_
_space_group_symop_operation_xyz
x,y,z
-x,-y,z
x,-y,-z
-x,y,-z
-x,-y,-z
x,y,-z
-x,y,z
x,-y,z
loop_
_atom_site_type_symbol
_atom_site_label
_atom_site_fract_x
_atom_site_fract_y
_atom_site_fract_z
Si Si1 0.205908 0.694689 0.870248
Si Si2 0.207383 0.000000 0.128743
Si Si3 0.298048 0.584241 0.868682
Si Si4 0.294866 0.100030 0.735688
Si Si5 0.806131 0.500000 0.693896
Si Si6 0.712246 0.941421 0.500000
Si Si7 0.707624 0.803949 0.870387
Si Si8 0.500000 0.500000 0.500000
O O1 0.278995 0.641998 0.827773
O O2 0.251947 0.748926 0.820182
O O3 0.000000 0.690120 0.870667
O O4 0.270468 0.697885 0.000000
O O5 0.269467 0.949714 0.189881
O O6 0.000000 0.000000 0.130743
O O7 0.267865 0.000000 0.000000
O O8 0.500000 0.571275 0.872811
O O9 0.212272 0.547453 0.779077
O O10 0.232434 0.581012 0.000000
O O11 0.500000 0.108113 0.722967
O O12 0.226284 0.086569 0.612143
O O13 0.224409 0.149452 0.797471
O O14 0.654173 0.500000 0.600453
O O15 0.000000 0.500000 0.645014
O O16 0.500000 0.941832 0.500000
O O17 0.764500 0.000000 0.500000
O O18 0.500000 0.808118 0.876476
O O19 0.774256 0.806769 0.000000
#
# Coordination Sequence:
#
# PCOD9383662 Si02
#       8
#     8   4   8   8   4   4   8   1
#     4   9  17  29  48  77 112 147 181 217 270 341
#     4  11  23  34  45  68 100 127 154 197 258 321
#     4  10  19  34  58  91 127 157 190 242 303 358
#     4  10  19  33  53  72  94 127 169 212 256 314
#     4  12  24  40  64  89 121 164 208 256 303 355
#     4   9  16  30  52  75  94 118 162 215 259 298
#     4   9  17  29  46  71 100 133 171 211 258 318
#     4  12  26  48  58  82 120 164 222 262 296 352
#
# _framework density 18.471620000000001
#
# number of rings (size 3 to 8) (size 9 to 14) (size 15 to 20)
#    0.000    2.133    1.778    2.267    0.000    6.400 
#    0.000    2.667    0.000    1.067    2.311    1.244 
#    0.000    0.000    0.000    0.000    0.000    0.000 
#
# Total GULP energy -250668.091804 kJ/mol
# GULP energy per Si atom -5570.402040 kJ/mol
# Density = 1.842958 g / cm^3
# Si number density = 18.471620 Si / 1000 Ang^3
#
#
#
# Elastic Constant Matrix: (Units=GPa)
#
#
# Indices 1 2 3 4 5 6 
#
# 1 65.3813 11.3457 19.7367 0.0000 0.0000 0.0000
# 2 11.3457 154.4028 64.8024 0.0000 0.0000 0.0000
# 3 19.7367 64.8024 113.9731 0.0000 0.0000 0.0000
# 4 0.0000 0.0000 0.0000 -5.0955 0.0000 0.0000
# 5 0.0000 0.0000 0.0000 0.0000 11.1532 0.0000
# 6 0.0000 0.0000 0.0000 0.0000 0.0000 40.7881
#
#
#
# Elastic Compliance Matrix: (Units=1/GPa)
#
#
# Indices 1 2 3 4 5 6 
#
# 1 0.016139 -0.000017 -0.002785 0.000000 0.000000 0.000000
# 2 -0.000017 0.008506 -0.004834 0.000000 0.000000 0.000000
# 3 -0.002785 -0.004834 0.012005 0.000000 0.000000 0.000000
# 4 0.000000 0.000000 0.000000 -0.196250 0.000000 0.000000
# 5 0.000000 0.000000 0.000000 0.000000 0.089660 0.000000
# 6 0.000000 0.000000 0.000000 0.000000 0.000000 0.024517
#
#
# Mechanical properties :
#
#
# Convention : Reuss Voigt Hill
#
# Bulk Modulus (GPa) = 46.77654 58.39188 52.58421
# Shear Modulus (GPa) = -217.15117 25.22732 -95.96193
#
# Velocity S-wave (km/s) = -10.85424 3.69959 -7.21552
# Velocity P-wave (km/s) = 11.47640 7.06609 6.39445
#
# Compressibility (1/GPa) = 0.02137824
#
# Stress axis : x y z
#
# Youngs Moduli (GPa) = 61.96341 117.55743 83.30155
#
# Poissons Ratio (x) = 0.00200 0.23200
# Poissons Ratio (y) = 0.00105 0.40265
# Poissons Ratio (z) = 0.17257 0.56823
#
# Static dielectric constant tensor:
#      x y z
#    x 1.667420 0.000000 0.000000 
#    y 0.000000 1.653790 0.000000 
#    z 0.000000 0.000000 1.629100 
# 
# From -- ./inp_files/15366.got.cif
#   From: 2010.05.17/outbox.cif.g08.bks.cpg/sg47_8_cif.got.tgz:15366.got - 2010.06.03 20:15:42.
