data_PCOD9383962
_publ_section_title
;
Structure prediction by ZEFSAII (Michael W. Deem and Ramdas Pophale) SiO2 
 PCOD9383962
Probable space group: P M M M
;
_chemical_formula_sum "Si O2"
_cell_formula_units_Z 52
_cell_length_a 15.440435
_cell_length_b 20.445432
_cell_length_c 8.973012
_cell_angle_alpha 90.000000
_cell_angle_beta 90.000000
_cell_angle_gamma 90.000000
_cell_volume 2832.657531
_symmetry_space_group_name_H-M "P M M M"
_symmetry_group_IT_number 47
_symmetry_cell_setting 'orthorhombic'
loop_
_space_group_symop_operation_xyz
x,y,z
-x,-y,z
x,-y,-z
-x,y,-z
-x,-y,-z
x,y,-z
-x,y,z
x,-y,z
loop_
_atom_site_type_symbol
_atom_site_label
_atom_site_fract_x
_atom_site_fract_y
_atom_site_fract_z
Si Si1 0.653641 0.075620 0.680171
Si Si2 0.273062 0.319562 0.821340
Si Si3 0.595121 0.793778 0.821396
Si Si4 0.101810 0.279997 0.320024
Si Si5 0.000000 0.923932 0.162227
Si Si6 0.839212 0.866285 0.321845
Si Si7 0.399952 0.577521 0.677378
O O1 0.646258 0.077316 0.500000
O O2 0.598477 0.134337 0.749454
O O3 0.749977 0.099811 0.724384
O O4 0.637226 0.000000 0.725752
O O5 0.327203 0.254218 0.770936
O O6 0.176870 0.324193 0.751986
O O7 0.332716 0.379221 0.768088
O O8 0.266967 0.317216 0.000000
O O9 0.500000 0.764569 0.788087
O O10 0.602544 0.800376 0.000000
O O11 0.104267 0.285772 0.500000
O O12 0.137232 0.207816 0.277795
O O13 0.000000 0.287757 0.276088
O O14 0.916505 0.906552 0.254702
O O15 0.000000 0.000000 0.141907
O O16 0.000000 0.890512 0.000000
O O17 0.840155 0.867412 0.500000
O O18 0.389895 0.590074 0.500000
O O19 0.500000 0.592516 0.717154
O O20 0.386976 0.500000 0.701028
#
# Coordination Sequence:
#
# PCOD9383962 Si02
#       7
#     8   8   8   8   4   8   8
#     4  10  21  36  54  75  99 132 179 235 289 338
#     4  11  22  36  58  87 120 154 187 231 282 334
#     4  10  22  38  54  76 108 146 186 227 277 337
#     4  10  20  36  58  82 108 143 189 236 282 337
#     4  11  23  33  45  71 103 133 170 221 284 353
#     4  10  19  35  55  73  97 132 177 230 286 343
#     4   9  19  37  62  93 127 161 195 229 269 322
#
# _framework density 18.357319
#
# number of rings (size 3 to 8) (size 9 to 14) (size 15 to 20)
#    0.000    1.923    2.308    2.077    0.000    5.538 
#    0.000    2.308    0.000    0.462    0.000    3.231 
#    0.000    0.000    0.000    0.000    0.000    0.000 
#
# Total GULP energy -289847.501399 kJ/mol
# GULP energy per Si atom -5573.990412 kJ/mol
# Density = 1.831554 g / cm^3
# Si number density = 18.357319 Si / 1000 Ang^3
#
#
#
# Elastic Constant Matrix: (Units=GPa)
#
#
# Indices 1 2 3 4 5 6 
#
# 1 134.0404 42.7236 30.3724 0.0000 0.0000 0.0000
# 2 42.7236 65.8493 20.3036 0.0000 0.0000 0.0000
# 3 30.3724 20.3036 -19.2327 0.0000 0.0000 0.0000
# 4 0.0000 0.0000 0.0000 15.8154 0.0000 0.0000
# 5 0.0000 0.0000 0.0000 0.0000 7.5005 0.0000
# 6 0.0000 0.0000 0.0000 0.0000 0.0000 34.8122
#
#
#
# Elastic Compliance Matrix: (Units=1/GPa)
#
#
# Indices 1 2 3 4 5 6 
#
# 1 0.008480 -0.007266 0.005721 0.000000 0.000000 0.000000
# 2 -0.007266 0.017683 0.007193 0.000000 0.000000 0.000000
# 3 0.005721 0.007193 -0.035367 0.000000 0.000000 0.000000
# 4 0.000000 0.000000 0.000000 0.063229 0.000000 0.000000
# 5 0.000000 0.000000 0.000000 0.000000 0.133325 0.000000
# 6 0.000000 0.000000 0.000000 0.000000 0.000000 0.028726
#
#
# Mechanical properties :
#
#
# Convention : Reuss Voigt Hill
#
# Bulk Modulus (GPa) = 478.00216 40.82846 259.41531
# Shear Modulus (GPa) = 24.33362 17.44280 20.88821
#
# Velocity S-wave (km/s) = 3.64477 3.08585 3.37689
# Velocity P-wave (km/s) = 16.69328 5.91488 12.52301
#
# Compressibility (1/GPa) = 0.00209204
#
# Stress axis : x y z
#
# Youngs Moduli (GPa) = 117.92476 56.55280 -28.27528
#
# Poissons Ratio (x) = 0.41091 0.16177
# Poissons Ratio (y) = 0.85683 0.20338
# Poissons Ratio (z) = -0.67467 -0.40677
#
# Static dielectric constant tensor:
#      x y z
#    x 1.653470 0.000000 0.000000 
#    y 0.000000 1.637070 0.000000 
#    z 0.000000 0.000000 1.621500 
# 
# From -- ./inp_files/7069.got.cif
#   From: 2010.05.17/outbox.cif.g08.bks.cpg/sg47_4_cif.got.tgz:7069.got - 2010.06.03 20:15:42.
