data_PCOD9383428
_publ_section_title
;
Structure prediction by ZEFSAII (Michael W. Deem and Ramdas Pophale) SiO2 
 PCOD9383428
Probable space group: P M M M
;
_chemical_formula_sum "Si O2"
_cell_formula_units_Z 40
_cell_length_a 25.393562
_cell_length_b 7.557655
_cell_length_c 10.306867
_cell_angle_alpha 90.000000
_cell_angle_beta 90.000000
_cell_angle_gamma 90.000000
_cell_volume 1978.050428
_symmetry_space_group_name_H-M "P M M M"
_symmetry_group_IT_number 47
_symmetry_cell_setting 'orthorhombic'
loop_
_space_group_symop_operation_xyz
x,y,z
-x,-y,z
x,-y,-z
-x,y,-z
-x,-y,-z
x,y,-z
-x,y,z
x,-y,z
loop_
_atom_site_type_symbol
_atom_site_label
_atom_site_fract_x
_atom_site_fract_y
_atom_site_fract_z
Si Si1 0.061421 0.783308 0.000000
Si Si2 0.125297 0.786287 0.252666
Si Si3 0.443425 0.213068 0.151909
Si Si4 0.673182 0.708784 0.149186
Si Si5 0.241076 0.290015 0.649101
Si Si6 0.059807 0.783632 0.500000
O O1 0.095123 0.726009 0.875663
O O2 0.000000 0.727096 0.000000
O O3 0.059965 0.000000 0.000000
O O4 0.185125 0.733418 0.279889
O O5 0.090983 0.725453 0.374138
O O6 0.124872 0.000000 0.249839
O O7 0.500000 0.273052 0.208073
O O8 0.386670 0.272697 0.200577
O O9 0.443286 0.000000 0.156470
O O10 0.443720 0.266086 0.000000
O O11 0.684096 0.500000 0.137905
O O12 0.714108 0.783395 0.254170
O O13 0.676438 0.780975 0.000000
O O14 0.239694 0.219824 0.500000
O O15 0.250454 0.500000 0.637399
O O16 0.000000 0.724526 0.500000
O O17 0.059458 0.000000 0.500000
#
# Coordination Sequence:
#
# PCOD9383428 Si02
#       6
#     4   8   8   8   8   4
#     4   9  18  32  51  77 105 127 152 195 248 295
#     4  10  19  32  51  75  98 124 161 200 240 290
#     4   8  14  26  45  71 102 130 155 191 242 290
#     4   9  18  31  48  71  95 124 164 203 239 283
#     4  10  21  36  51  68  97 134 166 202 249 292
#     4   9  16  28  49  73  95 121 156 197 236 279
#
# _framework density 20.22193
#
# number of rings (size 3 to 8) (size 9 to 14) (size 15 to 20)
#    0.000    2.800    1.000    1.200    1.400    3.600 
#    0.000    2.000    0.000    4.200    0.000    4.200 
#    0.000    0.000    0.000    0.000    0.000    0.000 
#
# Total GULP energy -222923.917689 kJ/mol
# GULP energy per Si atom -5573.097942 kJ/mol
# Density = 2.017590 g / cm^3
# Si number density = 20.221930 Si / 1000 Ang^3
#
#
#
# Elastic Constant Matrix: (Units=GPa)
#
#
# Indices 1 2 3 4 5 6 
#
# 1 220.0594 -3.3241 106.0714 0.0000 0.0000 0.0000
# 2 -3.3241 44.8131 7.6691 0.0000 0.0000 0.0000
# 3 106.0714 7.6691 153.3801 0.0000 0.0000 0.0000
# 4 0.0000 0.0000 0.0000 1.5318 0.0000 0.0000
# 5 0.0000 0.0000 0.0000 0.0000 31.5833 0.0000
# 6 0.0000 0.0000 0.0000 0.0000 0.0000 24.4754
#
#
#
# Elastic Compliance Matrix: (Units=1/GPa)
#
#
# Indices 1 2 3 4 5 6 
#
# 1 0.006895 0.001339 -0.004835 0.000000 0.000000 0.000000
# 2 0.001339 0.022768 -0.002064 0.000000 0.000000 0.000000
# 3 -0.004835 -0.002064 0.009967 0.000000 0.000000 0.000000
# 4 0.000000 0.000000 0.000000 0.652822 0.000000 0.000000
# 5 0.000000 0.000000 0.000000 0.000000 0.031662 0.000000
# 6 0.000000 0.000000 0.000000 0.000000 0.000000 0.040857
#
#
# Mechanical properties :
#
#
# Convention : Reuss Voigt Hill
#
# Bulk Modulus (GPa) = 35.07778 71.00948 53.04363
# Shear Modulus (GPa) = 6.36460 32.04051 19.20256
#
# Velocity S-wave (km/s) = 1.77601 3.98483 3.08489
# Velocity P-wave (km/s) = 4.64647 7.50754 6.24311
#
# Compressibility (1/GPa) = 0.02850807
#
# Stress axis : x y z
#
# Youngs Moduli (GPa) = 145.02936 43.92221 100.33202
#
# Poissons Ratio (x) = -0.05881 0.48514
# Poissons Ratio (y) = -0.19419 0.20712
# Poissons Ratio (z) = 0.70127 0.09067
#
# Static dielectric constant tensor:
#      x y z
#    x 1.720680 0.000000 0.000000 
#    y 0.000000 1.760890 0.000000 
#    z 0.000000 0.000000 1.686360 
# 
# From -- ./inp_files/10653.got.cif
#   From: 2010.05.17/outbox.cif.g08.bks.cpg/sg47_6_cif.got.tgz:10653.got - 2010.06.03 20:15:42.
