data_PCOD9383813
_publ_section_title
;
Structure prediction by ZEFSAII (Michael W. Deem and Ramdas Pophale) SiO2 
 PCOD9383813
Probable space group: P M M M
;
_chemical_formula_sum "Si O2"
_cell_formula_units_Z 44
_cell_length_a 13.075163
_cell_length_b 21.659280
_cell_length_c 8.532287
_cell_angle_alpha 90.000000
_cell_angle_beta 90.000000
_cell_angle_gamma 90.000000
_cell_volume 2416.331874
_symmetry_space_group_name_H-M "P M M M"
_symmetry_group_IT_number 47
_symmetry_cell_setting 'orthorhombic'
loop_
_space_group_symop_operation_xyz
x,y,z
-x,-y,z
x,-y,-z
-x,y,-z
-x,-y,-z
x,y,-z
-x,y,z
x,-y,z
loop_
_atom_site_type_symbol
_atom_site_label
_atom_site_fract_x
_atom_site_fract_y
_atom_site_fract_z
Si Si1 0.383595 0.153672 0.689304
Si Si2 0.118874 0.500000 0.308725
Si Si3 0.196011 0.633057 0.689416
Si Si4 0.805637 0.071148 0.689907
Si Si5 0.000000 0.285516 0.689597
Si Si6 0.617179 0.290119 0.187545
Si Si7 0.000000 0.146253 0.186473
O O1 0.383032 0.155444 0.500000
O O2 0.500000 0.139785 0.740406
O O3 0.299866 0.103895 0.739672
O O4 0.356189 0.221803 0.749912
O O5 0.118537 0.500000 0.500000
O O6 0.172983 0.436830 0.258254
O O7 0.000000 0.500000 0.260325
O O8 0.198088 0.633301 0.500000
O O9 0.301170 0.661187 0.750579
O O10 0.101074 0.676653 0.737990
O O11 0.808860 0.071867 0.500000
O O12 0.900452 0.110535 0.751419
O O13 0.811469 0.000000 0.740989
O O14 0.000000 0.282728 0.500000
O O15 0.000000 0.216510 0.753829
O O16 0.500000 0.303152 0.237999
O O17 0.619733 0.288993 0.000000
O O18 0.000000 0.145902 0.000000
#
# Coordination Sequence:
#
# PCOD9383813 Si02
#       7
#     8   4   8   8   4   8   4
#     4   9  18  34  57  83 107 132 169 218 267 315
#     4   9  16  32  56  83 112 138 169 212 263 314
#     4  10  19  33  57  84 108 137 173 214 261 314
#     4  10  21  37  56  77 104 138 173 212 263 321
#     4  10  20  34  55  82 108 134 168 213 266 319
#     4  10  21  36  53  75 107 145 181 218 260 304
#     4  12  25  37  51  74 105 141 180 221 260 302
#
# _framework density 18.209419
#
# number of rings (size 3 to 8) (size 9 to 14) (size 15 to 20)
#    0.000    2.091    0.909    2.727    0.000    8.727 
#    0.000    2.727    0.000    3.273    0.000    3.818 
#    0.000    0.000    0.000    0.000    0.000    0.000 
#
# Total GULP energy -245687.369276 kJ/mol
# GULP energy per Si atom -5583.803847 kJ/mol
# Density = 1.816797 g / cm^3
# Si number density = 18.209419 Si / 1000 Ang^3
#
#
#
# Elastic Constant Matrix: (Units=GPa)
#
#
# Indices 1 2 3 4 5 6 
#
# 1 118.3278 110.1768 22.7417 0.0000 0.0000 0.0000
# 2 110.1768 196.5162 28.5170 0.0000 0.0000 0.0000
# 3 22.7417 28.5170 9.8548 0.0000 0.0000 0.0000
# 4 0.0000 0.0000 0.0000 -17.2089 0.0000 0.0000
# 5 0.0000 0.0000 0.0000 0.0000 7.9399 0.0000
# 6 0.0000 0.0000 0.0000 0.0000 0.0000 -27.6431
#
#
#
# Elastic Compliance Matrix: (Units=1/GPa)
#
#
# Indices 1 2 3 4 5 6 
#
# 1 0.020585 -0.008012 -0.024320 0.000000 0.000000 0.000000
# 2 -0.008012 0.011891 -0.015919 0.000000 0.000000 0.000000
# 3 -0.024320 -0.015919 0.203661 0.000000 0.000000 0.000000
# 4 0.000000 0.000000 0.000000 -0.058110 0.000000 0.000000
# 5 0.000000 0.000000 0.000000 0.000000 0.125947 0.000000
# 6 0.000000 0.000000 0.000000 0.000000 0.000000 -0.036175
#
#
# Mechanical properties :
#
#
# Convention : Reuss Voigt Hill
#
# Bulk Modulus (GPa) = 7.16150 71.95222 39.55686
# Shear Modulus (GPa) = 12.17003 3.50180 7.83591
#
# Velocity S-wave (km/s) = 2.58803 1.38825 2.07667
# Velocity P-wave (km/s) = 3.58774 6.49378 5.24600
#
# Compressibility (1/GPa) = 0.13963548
#
# Stress axis : x y z
#
# Youngs Moduli (GPa) = 48.57831 84.09971 4.91012
#
# Poissons Ratio (x) = 0.67381 0.11941
# Poissons Ratio (y) = 0.38921 0.07816
# Poissons Ratio (z) = 1.18141 1.33878
#
# Static dielectric constant tensor:
#      x y z
#    x 1.615380 0.000000 0.000000 
#    y 0.000000 1.597720 0.000000 
#    z 0.000000 0.000000 1.615760 
# 
# From -- ./inp_files/6299.got.cif
#   From: 2010.05.17/outbox.cif.g08.bks.cpg/sg47_4_cif.got.tgz:6299.got - 2010.06.03 20:15:42.
