data_PCOD9383327
_publ_section_title
;
Structure prediction by ZEFSAII (Michael W. Deem and Ramdas Pophale) SiO2 
 PCOD9383327
Probable space group: P M M M
;
_chemical_formula_sum "Si O2"
_cell_formula_units_Z 52
_cell_length_a 18.273141
_cell_length_b 18.622874
_cell_length_c 9.124372
_cell_angle_alpha 90.000000
_cell_angle_beta 90.000000
_cell_angle_gamma 90.000000
_cell_volume 3105.009215
_symmetry_space_group_name_H-M "P M M M"
_symmetry_group_IT_number 47
_symmetry_cell_setting 'orthorhombic'
loop_
_space_group_symop_operation_xyz
x,y,z
-x,-y,z
x,-y,-z
-x,y,-z
-x,-y,-z
x,y,-z
-x,y,z
x,-y,z
loop_
_atom_site_type_symbol
_atom_site_label
_atom_site_fract_x
_atom_site_fract_y
_atom_site_fract_z
Si Si1 0.701707 0.581635 0.324371
Si Si2 0.581545 0.137595 0.176918
Si Si3 0.858555 0.652913 0.675564
Si Si4 0.272616 0.083182 0.673399
Si Si5 0.362949 0.288108 0.833340
Si Si6 0.000000 0.585935 0.827973
Si Si7 0.202540 0.212983 0.831656
O O1 0.695761 0.582698 0.500000
O O2 0.690699 0.500000 0.272713
O O3 0.784375 0.608147 0.288932
O O4 0.646009 0.639869 0.258881
O O5 0.500000 0.110379 0.208544
O O6 0.647053 0.097274 0.257756
O O7 0.587069 0.222128 0.218569
O O8 0.593254 0.134098 0.000000
O O9 0.865815 0.654831 0.500000
O O10 0.928124 0.616573 0.749666
O O11 0.847452 0.732609 0.740390
O O12 0.274712 0.099233 0.500000
O O13 0.217333 0.137341 0.753758
O O14 0.253222 0.000000 0.693853
O O15 0.282381 0.251365 0.834324
O O16 0.383282 0.306062 0.000000
O O17 0.000000 0.500000 0.816125
O O18 0.000000 0.605201 0.000000
O O19 0.178479 0.205174 0.000000
#
# Coordination Sequence:
#
# PCOD9383327 Si02
#       7
#     8   8   8   8   8   4   8
#     4   9  17  28  43  64  88 114 147 189 235 280
#     4   9  18  32  48  65  88 121 158 193 233 286
#     4  10  19  32  50  70  95 128 164 200 240 286
#     4  10  20  32  47  71 101 127 154 192 235 279
#     4   8  15  27  43  63  84 109 146 191 233 274
#     4  11  23  35  47  69 104 141 174 207 241 279
#     4   9  17  31  50  70  93 122 158 197 236 280
#
# _framework density 16.747133000000002
#
# number of rings (size 3 to 8) (size 9 to 14) (size 15 to 20)
#    0.000    2.692    0.000    3.000    0.000    7.692 
#    0.000    1.538    0.000    0.462    0.000    3.769 
#    0.000    4.308    0.000    0.000    0.000    0.000 
#
# Total GULP energy -289800.347866 kJ/mol
# GULP energy per Si atom -5573.083613 kJ/mol
# Density = 1.670902 g / cm^3
# Si number density = 16.747133 Si / 1000 Ang^3
#
#
#
# Elastic Constant Matrix: (Units=GPa)
#
#
# Indices 1 2 3 4 5 6 
#
# 1 22.9763 6.4600 14.7929 0.0000 0.0000 0.0000
# 2 6.4600 94.5369 45.7342 0.0000 0.0000 0.0000
# 3 14.7929 45.7342 66.3806 0.0000 0.0000 0.0000
# 4 0.0000 0.0000 0.0000 28.9708 0.0000 0.0000
# 5 0.0000 0.0000 0.0000 0.0000 19.5097 0.0000
# 6 0.0000 0.0000 0.0000 0.0000 0.0000 16.6988
#
#
#
# Elastic Compliance Matrix: (Units=1/GPa)
#
#
# Indices 1 2 3 4 5 6 
#
# 1 0.051391 0.003043 -0.013549 0.000000 0.000000 0.000000
# 2 0.003043 0.016046 -0.011734 0.000000 0.000000 0.000000
# 3 -0.013549 -0.011734 0.026168 0.000000 0.000000 0.000000
# 4 0.000000 0.000000 0.000000 0.034518 0.000000 0.000000
# 5 0.000000 0.000000 0.000000 0.000000 0.051256 0.000000
# 6 0.000000 0.000000 0.000000 0.000000 0.000000 0.059885
#
#
# Mechanical properties :
#
#
# Convention : Reuss Voigt Hill
#
# Bulk Modulus (GPa) = 20.35580 35.31867 27.83723
# Shear Modulus (GPa) = 16.66012 20.82965 18.74489
#
# Velocity S-wave (km/s) = 3.15747 3.53054 3.34921
# Velocity P-wave (km/s) = 5.04718 6.14449 5.62267
#
# Compressibility (1/GPa) = 0.04912605
#
# Stress axis : x y z
#
# Youngs Moduli (GPa) = 19.45878 62.31969 38.21457
#
# Poissons Ratio (x) = -0.18963 0.51776
# Poissons Ratio (y) = -0.05921 0.44839
# Poissons Ratio (z) = 0.26364 0.73123
#
# Static dielectric constant tensor:
#      x y z
#    x 1.558030 0.000000 0.000000 
#    y 0.000000 1.571370 0.000000 
#    z 0.000000 0.000000 1.565960 
# 
# From -- ./inp_files/9503.got.cif
#   From: 2010.05.17/outbox.cif.g08.bks.cpg/sg47_5_cif.got.tgz:9503.got - 2010.06.03 20:15:42.
