data_PCOD9383810
_publ_section_title
;
Structure prediction by ZEFSAII (Michael W. Deem and Ramdas Pophale) SiO2 
 PCOD9383810
Probable space group: P M M M
;
_chemical_formula_sum "Si O2"
_cell_formula_units_Z 32
_cell_length_a 14.518824
_cell_length_b 9.420331
_cell_length_c 12.144584
_cell_angle_alpha 90.000000
_cell_angle_beta 90.000000
_cell_angle_gamma 90.000000
_cell_volume 1661.040595
_symmetry_space_group_name_H-M "P M M M"
_symmetry_group_IT_number 47
_symmetry_cell_setting 'orthorhombic'
loop_
_space_group_symop_operation_xyz
x,y,z
-x,-y,z
x,-y,-z
-x,y,-z
-x,-y,-z
x,y,-z
-x,y,z
x,-y,z
loop_
_atom_site_type_symbol
_atom_site_label
_atom_site_fract_x
_atom_site_fract_y
_atom_site_fract_z
Si Si1 0.637865 0.654966 0.241968
Si Si2 0.000000 0.170153 0.368051
Si Si3 0.854157 0.333671 0.778403
Si Si4 0.500000 0.831961 0.624679
Si Si5 0.817988 0.836210 0.000000
Si Si6 0.395537 0.757248 0.000000
O O1 0.608083 0.500000 0.280995
O O2 0.746946 0.665812 0.253930
O O3 0.587399 0.775012 0.309609
O O4 0.611689 0.670508 0.113411
O O5 0.086079 0.248236 0.310057
O O6 0.000000 0.190183 0.500000
O O7 0.000000 0.000000 0.346633
O O8 0.882408 0.500000 0.789587
O O9 0.854544 0.249186 0.893955
O O10 0.500000 0.778656 0.500000
O O11 0.500000 0.000000 0.623835
O O12 0.704499 0.836903 0.000000
O O13 0.847939 0.000000 0.000000
O O14 0.500000 0.823782 0.000000
#
# Coordination Sequence:
#
# PCOD9383810 Si02
#       6
#     8   4   8   4   4   4
#     4  10  21  38  61  88 118 156 198 245 298 355
#     4  11  25  44  67  94 121 155 201 253 310 369
#     4  10  22  41  64  92 124 158 200 250 304 363
#     4  11  25  40  53  76 114 159 204 249 298 351
#     4  10  21  37  59  91 130 166 201 245 302 365
#     4  10  19  33  56  93 124 157 196 245 301 355
#
# _framework density 19.265031
#
# number of rings (size 3 to 8) (size 9 to 14) (size 15 to 20)
#    0.000    1.750    1.250    2.250    0.000   12.250 
#    0.000    7.500    0.000    0.000    0.000    0.000 
#    0.000    0.000    0.000    0.000    0.000    0.000 
#
# Total GULP energy -178512.762814 kJ/mol
# GULP energy per Si atom -5578.523838 kJ/mol
# Density = 1.922118 g / cm^3
# Si number density = 19.265031 Si / 1000 Ang^3
#
#
#
# Elastic Constant Matrix: (Units=GPa)
#
#
# Indices 1 2 3 4 5 6 
#
# 1 107.1569 50.3146 64.4938 0.0000 0.0000 0.0000
# 2 50.3146 158.6513 79.9793 0.0000 0.0000 0.0000
# 3 64.4938 79.9793 129.5561 0.0000 0.0000 0.0000
# 4 0.0000 0.0000 0.0000 29.2377 0.0000 0.0000
# 5 0.0000 0.0000 0.0000 0.0000 38.1830 0.0000
# 6 0.0000 0.0000 0.0000 0.0000 0.0000 20.4613
#
#
#
# Elastic Compliance Matrix: (Units=1/GPa)
#
#
# Indices 1 2 3 4 5 6 
#
# 1 0.013506 -0.001298 -0.005922 0.000000 0.000000 0.000000
# 2 -0.001298 0.009276 -0.005080 0.000000 0.000000 0.000000
# 3 -0.005922 -0.005080 0.013803 0.000000 0.000000 0.000000
# 4 0.000000 0.000000 0.000000 0.034202 0.000000 0.000000
# 5 0.000000 0.000000 0.000000 0.000000 0.026190 0.000000
# 6 0.000000 0.000000 0.000000 0.000000 0.000000 0.048873
#
#
# Mechanical properties :
#
#
# Convention : Reuss Voigt Hill
#
# Bulk Modulus (GPa) = 83.44258 87.21552 85.32905
# Shear Modulus (GPa) = 28.66250 30.94818 29.80534
#
# Velocity S-wave (km/s) = 3.86138 4.01239 3.93761
# Velocity P-wave (km/s) = 7.95534 8.17529 8.06607
#
# Compressibility (1/GPa) = 0.01198429
#
# Stress axis : x y z
#
# Youngs Moduli (GPa) = 74.04248 107.80833 72.44870
#
# Poissons Ratio (x) = 0.13991 0.42905
# Poissons Ratio (y) = 0.09609 0.36805
# Poissons Ratio (z) = 0.43849 0.54768
#
# Static dielectric constant tensor:
#      x y z
#    x 1.693070 0.000000 0.000000 
#    y 0.000000 1.653120 0.000000 
#    z 0.000000 0.000000 1.624940 
# 
# From -- ./inp_files/17105.got.cif
#   From: 2010.05.17/outbox.cif.g08.bks.cpg/sg47_9_cif.got.tgz:17105.got - 2010.06.03 20:15:42.
