data_PCOD9383468
_publ_section_title
;
Structure prediction by ZEFSAII (Michael W. Deem and Ramdas Pophale) SiO2 
 PCOD9383468
Probable space group: P M M M
;
_chemical_formula_sum "Si O2"
_cell_formula_units_Z 64
_cell_length_a 9.143242
_cell_length_b 29.408134
_cell_length_c 14.184199
_cell_angle_alpha 90.000000
_cell_angle_beta 90.000000
_cell_angle_gamma 90.000000
_cell_volume 3813.928077
_symmetry_space_group_name_H-M "P M M M"
_symmetry_group_IT_number 47
_symmetry_cell_setting 'orthorhombic'
loop_
_space_group_symop_operation_xyz
x,y,z
-x,-y,z
x,-y,-z
-x,y,-z
-x,-y,-z
x,y,-z
-x,y,z
x,-y,z
loop_
_atom_site_type_symbol
_atom_site_label
_atom_site_fract_x
_atom_site_fract_y
_atom_site_fract_z
Si Si1 0.175625 0.050700 0.715880
Si Si2 0.825816 0.272879 0.112598
Si Si3 0.334185 0.634673 0.887223
Si Si4 0.173063 0.446751 0.792677
Si Si5 0.176414 0.142417 0.390543
Si Si6 0.666939 0.444950 0.394924
Si Si7 0.674424 0.810948 0.784023
Si Si8 0.674625 0.905229 0.108562
O O1 0.215167 0.091194 0.643986
O O2 0.245730 0.062434 0.816871
O O3 0.000000 0.051772 0.725127
O O4 0.218767 0.000000 0.685131
O O5 0.759802 0.321558 0.142457
O O6 0.748659 0.232935 0.170274
O O7 0.000000 0.272123 0.126306
O O8 0.797616 0.266921 0.000000
O O9 0.500000 0.637289 0.850474
O O10 0.259205 0.587727 0.858346
O O11 0.340013 0.636343 0.000000
O O12 0.212503 0.500000 0.807293
O O13 0.221033 0.433282 0.686822
O O14 0.000000 0.442516 0.805373
O O15 0.215374 0.149288 0.500000
O O16 0.255410 0.175516 0.316411
O O17 0.000000 0.147312 0.381882
O O18 0.704218 0.428623 0.500000
O O19 0.500000 0.430817 0.372362
O O20 0.665231 0.500000 0.398694
O O21 0.500000 0.805005 0.775555
O O22 0.701023 0.854026 0.853494
O O23 0.500000 0.913074 0.112779
O O24 0.721735 0.910304 0.000000
#
# Coordination Sequence:
#
# PCOD9383468 Si02
#       8
#     8   8   8   8   8   8   8   8
#     4   9  18  31  46  67  95 127 166 210 253 296
#     4  10  20  34  54  79 105 131 159 195 242 295
#     4  10  21  36  53  73  99 133 172 210 246 289
#     4  10  20  32  48  72 102 136 172 211 254 297
#     4   9  18  33  52  73  98 129 166 208 253 300
#     4   8  14  26  45  68  93 122 158 200 243 286
#     4  10  19  32  52  76 101 127 159 200 244 295
#     4   9  18  31  46  66  94 128 163 199 241 291
#
# _framework density 16.780598999999999
#
# number of rings (size 3 to 8) (size 9 to 14) (size 15 to 20)
#    0.000    2.625    0.000    2.250    0.000    5.000 
#    0.000    5.000    0.000    0.750    0.000    3.500 
#    0.000    0.000    0.000    0.000    0.000    0.000 
#
# Total GULP energy -356705.289897 kJ/mol
# GULP energy per Si atom -5573.520155 kJ/mol
# Density = 1.674241 g / cm^3
# Si number density = 16.780599 Si / 1000 Ang^3
#
#
#
# Elastic Constant Matrix: (Units=GPa)
#
#
# Indices 1 2 3 4 5 6 
#
# 1 63.7994 54.0843 38.2103 0.0000 0.0000 0.0000
# 2 54.0843 96.5120 34.3621 0.0000 0.0000 0.0000
# 3 38.2103 34.3621 68.8750 0.0000 0.0000 0.0000
# 4 0.0000 0.0000 0.0000 16.1491 0.0000 0.0000
# 5 0.0000 0.0000 0.0000 0.0000 26.0058 0.0000
# 6 0.0000 0.0000 0.0000 0.0000 0.0000 25.2771
#
#
#
# Elastic Compliance Matrix: (Units=1/GPa)
#
#
# Indices 1 2 3 4 5 6 
#
# 1 0.036835 -0.016253 -0.012326 0.000000 0.000000 0.000000
# 2 -0.016253 0.019771 -0.000847 0.000000 0.000000 0.000000
# 3 -0.012326 -0.000847 0.021780 0.000000 0.000000 0.000000
# 4 0.000000 0.000000 0.000000 0.061923 0.000000 0.000000
# 5 0.000000 0.000000 0.000000 0.000000 0.038453 0.000000
# 6 0.000000 0.000000 0.000000 0.000000 0.000000 0.039561
#
#
# Mechanical properties :
#
#
# Convention : Reuss Voigt Hill
#
# Bulk Modulus (GPa) = 51.19575 53.61109 52.40342
# Shear Modulus (GPa) = 17.62507 20.32172 18.97340
#
# Velocity S-wave (km/s) = 3.24439 3.48375 3.36620
# Velocity P-wave (km/s) = 6.67906 6.94260 6.81210
#
# Compressibility (1/GPa) = 0.01953287
#
# Stress axis : x y z
#
# Youngs Moduli (GPa) = 27.14834 50.57904 45.91368
#
# Poissons Ratio (x) = 0.82207 0.56595
# Poissons Ratio (y) = 0.44124 0.03889
# Poissons Ratio (z) = 0.33464 0.04284
#
# Static dielectric constant tensor:
#      x y z
#    x 1.562430 0.000000 0.000000 
#    y 0.000000 1.554070 0.000000 
#    z 0.000000 0.000000 1.560520 
# 
# From -- ./inp_files/15731.got.cif
#   From: 2010.05.17/outbox.cif.g08.bks.cpg/sg47_8_cif.got.tgz:15731.got - 2010.06.03 20:15:42.
