data_PCOD9383616
_publ_section_title
;
Structure prediction by ZEFSAII (Michael W. Deem and Ramdas Pophale) SiO2 
 PCOD9383616
Probable space group: P M M M
;
_chemical_formula_sum "Si O2"
_cell_formula_units_Z 48
_cell_length_a 9.472086
_cell_length_b 17.052748
_cell_length_c 17.103782
_cell_angle_alpha 90.000000
_cell_angle_beta 90.000000
_cell_angle_gamma 90.000000
_cell_volume 2762.690023
_symmetry_space_group_name_H-M "P M M M"
_symmetry_group_IT_number 47
_symmetry_cell_setting 'orthorhombic'
loop_
_space_group_symop_operation_xyz
x,y,z
-x,-y,z
x,-y,-z
-x,y,-z
-x,-y,-z
x,y,-z
-x,y,z
x,-y,z
loop_
_atom_site_type_symbol
_atom_site_label
_atom_site_fract_x
_atom_site_fract_y
_atom_site_fract_z
Si Si1 0.833157 0.282991 0.220349
Si Si2 0.343908 0.186322 0.500000
Si Si3 0.668820 0.819347 0.089865
Si Si4 0.338657 0.625746 0.500000
Si Si5 0.847427 0.157272 0.642077
Si Si6 0.667034 0.592315 0.677221
Si Si7 0.333843 0.000000 0.117265
Si Si8 0.152095 0.000000 0.739222
O O1 0.754752 0.237060 0.149084
O O2 0.828366 0.222569 0.292434
O O3 0.752174 0.357954 0.257734
O O4 0.000000 0.298077 0.202473
O O5 0.500000 0.156119 0.500000
O O6 0.341849 0.280544 0.500000
O O7 0.268606 0.159272 0.422675
O O8 0.500000 0.817728 0.109485
O O9 0.715000 0.912160 0.091416
O O10 0.684826 0.792904 0.000000
O O11 0.500000 0.594498 0.500000
O O12 0.280269 0.603086 0.413665
O O13 0.000000 0.170093 0.603960
O O14 0.846999 0.075758 0.686339
O O15 0.500000 0.616244 0.677928
O O16 0.674974 0.500000 0.694557
O O17 0.287490 0.000000 0.206682
O O18 0.500000 0.000000 0.100804
O O19 0.000000 0.000000 0.784214
#
# Coordination Sequence:
#
# PCOD9383616 Si02
#       8
#     8   4   8   4   8   8   4   4
#     4  11  22  36  57  82 112 148 184 226 272 327
#     4  11  21  33  54  77 104 141 186 239 281 319
#     4  10  21  37  58  85 116 148 183 224 275 333
#     4   9  17  31  53  82 110 140 179 224 272 322
#     4  10  21  36  53  73 104 147 191 230 273 323
#     4  10  20  36  59  85 114 147 183 225 276 333
#     4  10  19  32  55  85 115 144 178 229 280 321
#     4  10  20  36  54  73 104 148 193 230 269 324
#
# _framework density 17.374369999999999
#
# number of rings (size 3 to 8) (size 9 to 14) (size 15 to 20)
#    0.000    1.833    3.333    1.250    0.000    4.333 
#    0.000    2.083    0.000    3.000    0.000    3.500 
#    0.000    0.000    0.000    0.000    0.000    0.000 
#
# Total GULP energy -267218.229712 kJ/mol
# GULP energy per Si atom -5567.046452 kJ/mol
# Density = 1.733483 g / cm^3
# Si number density = 17.374370 Si / 1000 Ang^3
#
#
#
# Elastic Constant Matrix: (Units=GPa)
#
#
# Indices 1 2 3 4 5 6 
#
# 1 79.0914 22.2304 58.6430 0.0000 0.0000 0.0000
# 2 22.2304 64.0914 33.8900 0.0000 0.0000 0.0000
# 3 58.6430 33.8900 99.0226 0.0000 0.0000 0.0000
# 4 0.0000 0.0000 0.0000 62.3390 0.0000 0.0000
# 5 0.0000 0.0000 0.0000 0.0000 68.6243 0.0000
# 6 0.0000 0.0000 0.0000 0.0000 0.0000 25.8491
#
#
#
# Elastic Compliance Matrix: (Units=1/GPa)
#
#
# Indices 1 2 3 4 5 6 
#
# 1 0.022587 -0.000929 -0.013058 0.000000 0.000000 0.000000
# 2 -0.000929 0.019088 -0.005982 0.000000 0.000000 0.000000
# 3 -0.013058 -0.005982 0.019880 0.000000 0.000000 0.000000
# 4 0.000000 0.000000 0.000000 0.016041 0.000000 0.000000
# 5 0.000000 0.000000 0.000000 0.000000 0.014572 0.000000
# 6 0.000000 0.000000 0.000000 0.000000 0.000000 0.038686
#
#
# Mechanical properties :
#
#
# Convention : Reuss Voigt Hill
#
# Bulk Modulus (GPa) = 46.26528 52.41469 49.33999
# Shear Modulus (GPa) = 28.08985 39.85862 33.97423
#
# Velocity S-wave (km/s) = 4.02523 4.79488 4.42681
# Velocity P-wave (km/s) = 6.94907 7.80306 7.38842
#
# Compressibility (1/GPa) = 0.02161448
#
# Stress axis : x y z
#
# Youngs Moduli (GPa) = 44.27300 52.38759 50.30277
#
# Poissons Ratio (x) = 0.04869 0.65687
# Poissons Ratio (y) = 0.04115 0.30094
# Poissons Ratio (z) = 0.57814 0.31341
#
# Static dielectric constant tensor:
#      x y z
#    x 1.636870 0.000000 0.000000 
#    y 0.000000 1.583100 0.000000 
#    z 0.000000 0.000000 1.569650 
# 
# From -- ./inp_files/26591.got.cif
#   From: 2010.05.17/outbox.cif.g08.bks.cpg/sg47_14_cif.got.tgz:26591.got - 2010.06.03 20:15:42.
