data_PCOD9383165
_publ_section_title
;
Structure prediction by ZEFSAII (Michael W. Deem and Ramdas Pophale) SiO2 
 PCOD9383165
Probable space group: P M M M
;
_chemical_formula_sum "Si O2"
_cell_formula_units_Z 64
_cell_length_a 14.253666
_cell_length_b 9.113372
_cell_length_c 29.775249
_cell_angle_alpha 90.000000
_cell_angle_beta 90.000000
_cell_angle_gamma 90.000000
_cell_volume 3867.773897
_symmetry_space_group_name_H-M "P M M M"
_symmetry_group_IT_number 47
_symmetry_cell_setting 'orthorhombic'
loop_
_space_group_symop_operation_xyz
x,y,z
-x,-y,z
x,-y,-z
-x,y,-z
-x,-y,-z
x,y,-z
-x,y,z
x,-y,z
loop_
_atom_site_type_symbol
_atom_site_label
_atom_site_fract_x
_atom_site_fract_y
_atom_site_fract_z
Si Si1 0.207872 0.825831 0.552049
Si Si2 0.291190 0.322521 0.950236
Si Si3 0.892061 0.676509 0.897256
Si Si4 0.112344 0.666082 0.632553
Si Si5 0.604044 0.668063 0.445621
Si Si6 0.391100 0.677479 0.141326
Si Si7 0.214653 0.176444 0.184632
Si Si8 0.109990 0.824300 0.276246
O O1 0.192323 0.779306 0.500000
O O2 0.140941 0.749411 0.587549
O O3 0.312527 0.776387 0.565959
O O4 0.198313 0.000000 0.553847
O O5 0.296940 0.500000 0.951948
O O6 0.184547 0.286664 0.935440
O O7 0.358710 0.278249 0.909231
O O8 0.313527 0.266146 0.000000
O O9 0.886263 0.500000 0.890129
O O10 0.855689 0.757985 0.852803
O O11 0.000000 0.712564 0.907714
O O12 0.148537 0.500000 0.631400
O O13 0.142798 0.747678 0.677990
O O14 0.000000 0.662168 0.634482
O O15 0.600395 0.666910 0.500000
O O16 0.500000 0.709256 0.429545
O O17 0.623958 0.500000 0.431695
O O18 0.500000 0.714039 0.149117
O O19 0.381054 0.500000 0.144556
O O20 0.316161 0.753718 0.174089
O O21 0.172916 0.214436 0.233373
O O22 0.218580 0.000000 0.180706
O O23 0.000000 0.785728 0.267900
O O24 0.113514 0.000000 0.282212
#
# Coordination Sequence:
#
# PCOD9383165 Si02
#       8
#     8   8   8   8   8   8   8   8
#     4  10  20  32  48  71  99 133 169 203 240 281
#     4   8  14  25  42  66  94 123 160 205 247 285
#     4   9  17  28  43  66  96 127 158 195 239 286
#     4  10  21  35  51  72  97 127 163 201 240 282
#     4   8  14  26  45  68  93 121 154 194 238 279
#     4   9  18  32  49  70  96 125 159 201 247 291
#     4  10  19  31  50  74  97 122 154 192 236 288
#     4   9  18  33  52  73  97 123 150 185 233 287
#
# _framework density 16.546986
#
# number of rings (size 3 to 8) (size 9 to 14) (size 15 to 20)
#    0.000    2.875    0.000    2.625    0.000    4.500 
#    0.000    6.250    0.000    6.750    0.000   10.500 
#    0.000    0.000    0.000    0.000    0.000    0.000 
#
# Total GULP energy -356433.498878 kJ/mol
# GULP energy per Si atom -5569.273420 kJ/mol
# Density = 1.650932 g / cm^3
# Si number density = 16.546986 Si / 1000 Ang^3
#
#
#
# Elastic Constant Matrix: (Units=GPa)
#
#
# Indices 1 2 3 4 5 6 
#
# 1 73.9346 26.7514 37.2903 0.0000 0.0000 0.0000
# 2 26.7514 36.6925 40.8529 0.0000 0.0000 0.0000
# 3 37.2903 40.8529 104.6891 0.0000 0.0000 0.0000
# 4 0.0000 0.0000 0.0000 20.6329 0.0000 0.0000
# 5 0.0000 0.0000 0.0000 0.0000 15.9633 0.0000
# 6 0.0000 0.0000 0.0000 0.0000 0.0000 22.4017
#
#
#
# Elastic Compliance Matrix: (Units=1/GPa)
#
#
# Indices 1 2 3 4 5 6 
#
# 1 0.018699 -0.010993 -0.002371 0.000000 0.000000 0.000000
# 2 -0.010993 0.054655 -0.017412 0.000000 0.000000 0.000000
# 3 -0.002371 -0.017412 0.017191 0.000000 0.000000 0.000000
# 4 0.000000 0.000000 0.000000 0.048466 0.000000 0.000000
# 5 0.000000 0.000000 0.000000 0.000000 0.062644 0.000000
# 6 0.000000 0.000000 0.000000 0.000000 0.000000 0.044640
#
#
# Mechanical properties :
#
#
# Convention : Reuss Voigt Hill
#
# Bulk Modulus (GPa) = 34.49140 47.23394 40.86267
# Shear Modulus (GPa) = 15.74747 19.16100 17.45424
#
# Velocity S-wave (km/s) = 3.08828 3.40660 3.25134
# Velocity P-wave (km/s) = 5.79710 6.63931 6.23245
#
# Compressibility (1/GPa) = 0.02899274
#
# Stress axis : x y z
#
# Youngs Moduli (GPa) = 53.47939 18.29658 58.16908
#
# Poissons Ratio (x) = 0.20114 0.13789
# Poissons Ratio (y) = 0.58792 1.01285
# Poissons Ratio (z) = 0.12678 0.31858
#
# Static dielectric constant tensor:
#      x y z
#    x 1.565550 0.000000 0.000000 
#    y 0.000000 1.558630 0.000000 
#    z 0.000000 0.000000 1.543690 
# 
# From -- ./inp_files/34693.got.cif
#   From: 2010.05.17/outbox.cif.g08.bks.cpg/sg47_18_cif.got.tgz:34693.got - 2010.06.03 20:15:42.
