data_PCOD9383367
_publ_section_title
;
Structure prediction by ZEFSAII (Michael W. Deem and Ramdas Pophale) SiO2 
 PCOD9383367
Probable space group: P M M M
;
_chemical_formula_sum "Si O2"
_cell_formula_units_Z 64
_cell_length_a 7.858431
_cell_length_b 14.746696
_cell_length_c 32.631500
_cell_angle_alpha 90.000000
_cell_angle_beta 90.000000
_cell_angle_gamma 90.000000
_cell_volume 3781.530517
_symmetry_space_group_name_H-M "P M M M"
_symmetry_group_IT_number 47
_symmetry_cell_setting 'orthorhombic'
loop_
_space_group_symop_operation_xyz
x,y,z
-x,-y,z
x,-y,-z
-x,y,-z
-x,-y,-z
x,y,-z
-x,y,z
x,-y,z
loop_
_atom_site_type_symbol
_atom_site_label
_atom_site_fract_x
_atom_site_fract_y
_atom_site_fract_z
Si Si1 0.296185 0.896145 0.721555
Si Si2 0.799963 0.600770 0.932804
Si Si3 0.706486 0.399099 0.837699
Si Si4 0.698450 0.780146 0.796701
Si Si5 0.198960 0.896241 0.126728
Si Si6 0.205307 0.894156 0.632404
Si Si7 0.301360 0.797867 0.955482
Si Si8 0.794462 0.891161 0.544127
O O1 0.500000 0.902342 0.726565
O O2 0.226781 0.833852 0.758078
O O3 0.262437 0.857170 0.676195
O O4 0.228941 0.000000 0.724016
O O5 0.735410 0.500000 0.944394
O O6 0.777295 0.609130 0.883709
O O7 0.715010 0.689153 0.951639
O O8 0.000000 0.604189 0.942711
O O9 0.500000 0.392305 0.841255
O O10 0.747643 0.500000 0.822466
O O11 0.771044 0.317280 0.809692
O O12 0.500000 0.764169 0.787020
O O13 0.709058 0.842500 0.837074
O O14 0.218277 0.844901 0.083628
O O15 0.000000 0.897059 0.137530
O O16 0.259309 0.000000 0.123427
O O17 0.266111 0.855719 0.588455
O O18 0.000000 0.892548 0.631852
O O19 0.259598 0.000000 0.633086
O O20 0.500000 0.821550 0.954027
O O21 0.231354 0.825458 0.000000
O O22 0.729174 0.856697 0.500000
O O23 0.000000 0.880061 0.543653
O O24 0.764618 0.000000 0.544556
#
# Coordination Sequence:
#
# PCOD9383367 Si02
#       8
#     8   8   8   8   8   8   8   8
#     4   9  17  27  38  55  81 113 146 177 210 249
#     4  10  20  34  54  79 104 126 146 173 213 257
#     4   9  17  30  50  74  96 117 143 175 211 254
#     4  10  19  32  51  71  91 118 148 177 213 258
#     4  11  24  39  55  75  96 118 146 183 224 260
#     4   8  13  21  33  49  70  98 134 176 218 254
#     4  11  24  40  57  76  97 123 153 181 211 253
#     4   7   9  14  26  44  64  88 124 171 217 256
#
# _framework density 16.924364000000001
#
# number of rings (size 3 to 8) (size 9 to 14) (size 15 to 20)
#    0.000    2.625    1.250    2.625    0.000    4.250 
#    0.000    3.750    0.000    0.375    0.000    2.625 
#    0.000    0.000    0.000    0.000    0.000    0.625 
#
# Total GULP energy -356550.532940 kJ/mol
# GULP energy per Si atom -5571.102077 kJ/mol
# Density = 1.688584 g / cm^3
# Si number density = 16.924364 Si / 1000 Ang^3
#
#
#
# Elastic Constant Matrix: (Units=GPa)
#
#
# Indices 1 2 3 4 5 6 
#
# 1 18.5131 -1.8958 -5.6411 0.0000 0.0000 0.0000
# 2 -1.8958 67.0165 37.4389 0.0000 0.0000 0.0000
# 3 -5.6411 37.4389 129.5836 0.0000 0.0000 0.0000
# 4 0.0000 0.0000 0.0000 -26.1754 0.0000 0.0000
# 5 0.0000 0.0000 0.0000 0.0000 14.5182 0.0000
# 6 0.0000 0.0000 0.0000 0.0000 0.0000 12.3922
#
#
#
# Elastic Compliance Matrix: (Units=1/GPa)
#
#
# Indices 1 2 3 4 5 6 
#
# 1 0.054746 0.000259 0.002308 0.000000 0.000000 0.000000
# 2 0.000259 0.017795 -0.005130 0.000000 0.000000 0.000000
# 3 0.002308 -0.005130 0.009300 0.000000 0.000000 0.000000
# 4 0.000000 0.000000 0.000000 -0.038204 0.000000 0.000000
# 5 0.000000 0.000000 0.000000 0.000000 0.068879 0.000000
# 6 0.000000 0.000000 0.000000 0.000000 0.000000 0.080696
#
#
# Mechanical properties :
#
#
# Convention : Reuss Voigt Hill
#
# Bulk Modulus (GPa) = 13.03525 30.54637 21.79081
# Shear Modulus (GPa) = 22.33060 12.49442 17.41251
#
# Velocity S-wave (km/s) = 3.63634 2.72002 3.21104
# Velocity P-wave (km/s) = 5.03482 5.28703 5.16246
#
# Compressibility (1/GPa) = 0.07671509
#
# Stress axis : x y z
#
# Youngs Moduli (GPa) = 18.26631 56.19588 107.53098
#
# Poissons Ratio (x) = -0.01456 -0.24822
# Poissons Ratio (y) = -0.00473 0.55163
# Poissons Ratio (z) = -0.04217 0.28828
#
# Static dielectric constant tensor:
#      x y z
#    x 1.614620 0.000000 0.000000 
#    y 0.000000 1.570600 0.000000 
#    z 0.000000 0.000000 1.616440 
# 
# From -- ./inp_files/34454.got.cif
#   From: 2010.05.17/outbox.cif.g08.bks.cpg/sg47_18_cif.got.tgz:34454.got - 2010.06.03 20:15:42.
