data_PCOD9383229
_publ_section_title
;
Structure prediction by ZEFSAII (Michael W. Deem and Ramdas Pophale) SiO2 
 PCOD9383229
Probable space group: P M M M
;
_chemical_formula_sum "Si O2"
_cell_formula_units_Z 64
_cell_length_a 15.233324
_cell_length_b 8.136999
_cell_length_c 25.789029
_cell_angle_alpha 90.000000
_cell_angle_beta 90.000000
_cell_angle_gamma 90.000000
_cell_volume 3196.641493
_symmetry_space_group_name_H-M "P M M M"
_symmetry_group_IT_number 47
_symmetry_cell_setting 'orthorhombic'
loop_
_space_group_symop_operation_xyz
x,y,z
-x,-y,z
x,-y,-z
-x,y,-z
-x,-y,-z
x,y,-z
-x,y,z
x,-y,z
loop_
_atom_site_type_symbol
_atom_site_label
_atom_site_fract_x
_atom_site_fract_y
_atom_site_fract_z
Si Si1 0.404020 0.309494 0.575524
Si Si2 0.752076 0.199717 0.136922
Si Si3 0.595194 0.188020 0.311659
Si Si4 0.601365 0.799695 0.941258
Si Si5 0.791390 0.699025 0.443145
Si Si6 0.899001 0.196547 0.658871
Si Si7 0.763550 0.307480 0.254628
Si Si8 0.900414 0.799670 0.058045
O O1 0.500000 0.237594 0.560816
O O2 0.405306 0.500000 0.559345
O O3 0.400078 0.300227 0.637809
O O4 0.310000 0.239681 0.558645
O O5 0.664841 0.252919 0.105383
O O6 0.768376 0.265768 0.194191
O O7 0.832384 0.253593 0.100760
O O8 0.750255 0.000000 0.139877
O O9 0.500000 0.213650 0.285886
O O10 0.677363 0.217097 0.275802
O O11 0.597788 0.000000 0.330728
O O12 0.500000 0.750082 0.933814
O O13 0.603554 0.000000 0.941482
O O14 0.628832 0.749371 0.000000
O O15 0.828280 0.744178 0.500000
O O16 0.788271 0.500000 0.440241
O O17 0.846405 0.756582 0.393541
O O18 0.845542 0.257736 0.709194
O O19 0.000000 0.257123 0.657487
O O20 0.900859 0.000000 0.661564
O O21 0.749964 0.500000 0.261621
O O22 0.000000 0.747206 0.068157
O O23 0.899866 0.000000 0.058015
O O24 0.875259 0.747967 0.000000
#
# Coordination Sequence:
#
# PCOD9383229 Si02
#       8
#     8   8   8   8   8   8   8   8
#     4   9  17  31  54  85 121 159 193 224 265 322
#     4  10  19  31  51  79 109 142 184 233 281 331
#     4  10  20  35  58  85 112 145 187 234 280 328
#     4   8  14  26  47  77 111 146 187 236 286 331
#     4  10  21  37  60  92 127 161 194 231 280 342
#     4  11  25  45  67  87 109 144 194 249 303 354
#     4  12  25  40  58  82 115 154 193 235 290 353
#     4   8  14  26  47  76 106 134 169 219 277 331
#
# _framework density 20.021011999999999
#
# number of rings (size 3 to 8) (size 9 to 14) (size 15 to 20)
#    0.000    2.250    1.250    3.000    0.000    5.000 
#    0.000    5.000    0.000    1.500    0.000    4.375 
#    0.000    0.000    0.000    0.000    0.000    0.000 
#
# Total GULP energy -356972.793553 kJ/mol
# GULP energy per Si atom -5577.699899 kJ/mol
# Density = 1.997544 g / cm^3
# Si number density = 20.021012 Si / 1000 Ang^3
#
#
#
# Elastic Constant Matrix: (Units=GPa)
#
#
# Indices 1 2 3 4 5 6 
#
# 1 133.9813 10.4859 87.2257 0.0000 0.0000 0.0000
# 2 10.4859 31.5321 8.4755 0.0000 0.0000 0.0000
# 3 87.2257 8.4755 151.9983 0.0000 0.0000 0.0000
# 4 0.0000 0.0000 0.0000 11.0618 0.0000 0.0000
# 5 0.0000 0.0000 0.0000 0.0000 4.6506 0.0000
# 6 0.0000 0.0000 0.0000 0.0000 0.0000 12.2221
#
#
#
# Elastic Compliance Matrix: (Units=1/GPa)
#
#
# Indices 1 2 3 4 5 6 
#
# 1 0.012062 -0.002183 -0.006800 0.000000 0.000000 0.000000
# 2 -0.002183 0.032591 -0.000564 0.000000 0.000000 0.000000
# 3 -0.006800 -0.000564 0.010513 0.000000 0.000000 0.000000
# 4 0.000000 0.000000 0.000000 0.090401 0.000000 0.000000
# 5 0.000000 0.000000 0.000000 0.000000 0.215025 0.000000
# 6 0.000000 0.000000 0.000000 0.000000 0.000000 0.081819
#
#
# Mechanical properties :
#
#
# Convention : Reuss Voigt Hill
#
# Bulk Modulus (GPa) = 27.72350 58.87623 43.29986
# Shear Modulus (GPa) = 10.55901 19.67522 15.11712
#
# Velocity S-wave (km/s) = 2.29900 3.13825 2.75082
# Velocity P-wave (km/s) = 4.57433 6.52706 5.63591
#
# Compressibility (1/GPa) = 0.03607049
#
# Stress axis : x y z
#
# Youngs Moduli (GPa) = 82.90830 30.68288 95.12331
#
# Poissons Ratio (x) = 0.06699 0.64683
# Poissons Ratio (y) = 0.18101 0.05369
# Poissons Ratio (z) = 0.56377 0.01732
#
# Static dielectric constant tensor:
#      x y z
#    x 1.724470 0.000000 0.000000 
#    y 0.000000 1.723790 0.000000 
#    z 0.000000 0.000000 1.692980 
# 
# From -- ./inp_files/32799.got.cif
#   From: 2010.05.17/outbox.cif.g08.bks.cpg/sg47_17_cif.got.tgz:32799.got - 2010.06.03 20:15:42.
