data_PCOD9383380
_publ_section_title
;
Structure prediction by ZEFSAII (Michael W. Deem and Ramdas Pophale) SiO2 
 PCOD9383380
Probable space group: P M M M
;
_chemical_formula_sum "Si O2"
_cell_formula_units_Z 56
_cell_length_a 23.428497
_cell_length_b 14.694943
_cell_length_c 8.638320
_cell_angle_alpha 90.000000
_cell_angle_beta 90.000000
_cell_angle_gamma 90.000000
_cell_volume 2974.004507
_symmetry_space_group_name_H-M "P M M M"
_symmetry_group_IT_number 47
_symmetry_cell_setting 'orthorhombic'
loop_
_space_group_symop_operation_xyz
x,y,z
-x,-y,z
x,-y,-z
-x,y,-z
-x,-y,-z
x,y,-z
-x,y,z
x,-y,z
loop_
_atom_site_type_symbol
_atom_site_label
_atom_site_fract_x
_atom_site_fract_y
_atom_site_fract_z
Si Si1 0.219099 0.393913 0.184643
Si Si2 0.656023 0.601893 0.686116
Si Si3 0.500000 0.104971 0.310829
Si Si4 0.107425 0.283969 0.814440
Si Si5 0.613600 0.209689 0.312613
Si Si6 0.723596 0.891746 0.180694
Si Si7 0.151116 0.895574 0.684947
Si Si8 0.000000 0.605759 0.314303
O O1 0.204826 0.500000 0.213230
O O2 0.279188 0.375009 0.265597
O O3 0.166807 0.331603 0.235690
O O4 0.226811 0.382402 0.000000
O O5 0.653558 0.598562 0.500000
O O6 0.643067 0.500000 0.745529
O O7 0.616243 0.684843 0.737624
O O8 0.500000 0.105232 0.500000
O O9 0.557142 0.156881 0.260132
O O10 0.500000 0.000000 0.261014
O O11 0.110418 0.180096 0.758257
O O12 0.055345 0.341166 0.746614
O O13 0.104755 0.287072 0.000000
O O14 0.614356 0.207253 0.500000
O O15 0.670647 0.161038 0.253053
O O16 0.783926 0.874361 0.263165
O O17 0.712618 0.000000 0.192868
O O18 0.729636 0.867709 0.000000
O O19 0.147523 0.891245 0.500000
O O20 0.139203 0.000000 0.734101
O O21 0.000000 0.500000 0.262691
O O22 0.000000 0.606793 0.500000
#
# Coordination Sequence:
#
# PCOD9383380 Si02
#       8
#     8   8   4   8   8   8   8   4
#     4   9  18  32  51  77 107 138 171 208 257 316
#     4   9  18  31  47  71 102 132 165 209 258 307
#     4   9  18  32  50  72  96 125 169 221 266 315
#     4  11  22  37  59  84 112 146 184 229 277 323
#     4  10  19  32  51  72  97 134 176 216 262 317
#     4  10  20  33  51  78 110 140 172 215 267 320
#     4  10  21  37  57  82 113 147 182 222 269 324
#     4  11  25  43  62  85 114 149 189 230 270 319
#
# _framework density 18.829830999999999
#
# number of rings (size 3 to 8) (size 9 to 14) (size 15 to 20)
#    0.000    2.143    0.000    3.214    0.000    7.429 
#    0.000    2.500    0.000    5.571    0.000    0.000 
#    0.000    3.429    0.000    0.000    0.000    0.000 
#
# Total GULP energy -312692.766922 kJ/mol
# GULP energy per Si atom -5583.799409 kJ/mol
# Density = 1.878697 g / cm^3
# Si number density = 18.829831 Si / 1000 Ang^3
#
#
#
# Elastic Constant Matrix: (Units=GPa)
#
#
# Indices 1 2 3 4 5 6 
#
# 1 77.9723 99.2167 19.5132 0.0000 0.0000 0.0000
# 2 99.2167 160.8938 35.1810 0.0000 0.0000 0.0000
# 3 19.5132 35.1810 25.7677 0.0000 0.0000 0.0000
# 4 0.0000 0.0000 0.0000 21.7847 0.0000 0.0000
# 5 0.0000 0.0000 0.0000 0.0000 40.8907 0.0000
# 6 0.0000 0.0000 0.0000 0.0000 0.0000 32.1726
#
#
#
# Elastic Compliance Matrix: (Units=1/GPa)
#
#
# Indices 1 2 3 4 5 6 
#
# 1 0.060510 -0.038911 0.007303 0.000000 0.000000 0.000000
# 2 -0.038911 0.033882 -0.016794 0.000000 0.000000 0.000000
# 3 0.007303 -0.016794 0.056206 0.000000 0.000000 0.000000
# 4 0.000000 0.000000 0.000000 0.045904 0.000000 0.000000
# 5 0.000000 0.000000 0.000000 0.000000 0.024455 0.000000
# 6 0.000000 0.000000 0.000000 0.000000 0.000000 0.031082
#
#
# Mechanical properties :
#
#
# Convention : Reuss Voigt Hill
#
# Bulk Modulus (GPa) = 18.58886 63.60618 41.09752
# Shear Modulus (GPa) = 13.63230 26.35112 19.99171
#
# Velocity S-wave (km/s) = 2.69360 3.74496 3.26192
# Velocity P-wave (km/s) = 4.42351 7.24931 6.00499
#
# Compressibility (1/GPa) = 0.05379565
#
# Stress axis : x y z
#
# Youngs Moduli (GPa) = 16.52609 29.51390 17.79158
#
# Poissons Ratio (x) = 1.14842 -0.12993
# Poissons Ratio (y) = 0.64305 0.29879
# Poissons Ratio (z) = -0.12069 0.49565
#
# Static dielectric constant tensor:
#      x y z
#    x 1.610890 0.000000 0.000000 
#    y 0.000000 1.684820 0.000000 
#    z 0.000000 0.000000 1.632760 
# 
# From -- ./inp_files/11327.got.cif
#   From: 2010.05.17/outbox.cif.g08.bks.cpg/sg47_6_cif.got.tgz:11327.got - 2010.06.03 20:15:42.
