data_PCOD9383884
_publ_section_title
;
Structure prediction by ZEFSAII (Michael W. Deem and Ramdas Pophale) SiO2 
 PCOD9383884
Probable space group: P M M M
;
_chemical_formula_sum "Si O2"
_cell_formula_units_Z 48
_cell_length_a 10.300115
_cell_length_b 30.099323
_cell_length_c 7.735798
_cell_angle_alpha 90.000000
_cell_angle_beta 90.000000
_cell_angle_gamma 90.000000
_cell_volume 2398.302288
_symmetry_space_group_name_H-M "P M M M"
_symmetry_group_IT_number 47
_symmetry_cell_setting 'orthorhombic'
loop_
_space_group_symop_operation_xyz
x,y,z
-x,-y,z
x,-y,-z
-x,y,-z
-x,-y,-z
x,y,-z
-x,y,z
x,-y,z
loop_
_atom_site_type_symbol
_atom_site_label
_atom_site_fract_x
_atom_site_fract_y
_atom_site_fract_z
Si Si1 0.353107 0.725348 0.795368
Si Si2 0.150719 0.201230 0.212437
Si Si3 0.000000 0.948860 0.291925
Si Si4 0.354174 0.624933 0.705289
Si Si5 0.853159 0.550044 0.208014
Si Si6 0.500000 0.051589 0.787379
Si Si7 0.252205 0.106374 0.203048
O O1 0.500000 0.731661 0.723664
O O2 0.242324 0.758343 0.728670
O O3 0.317670 0.673693 0.773203
O O4 0.361510 0.734118 0.000000
O O5 0.215552 0.154994 0.272241
O O6 0.000000 0.204219 0.266991
O O7 0.148093 0.200888 0.000000
O O8 0.126125 0.923912 0.224091
O O9 0.000000 0.946963 0.500000
O O10 0.000000 0.000000 0.237602
O O11 0.361265 0.628945 0.500000
O O12 0.500000 0.614405 0.771398
O O13 0.251344 0.586872 0.745230
O O14 0.819927 0.500000 0.268693
O O15 0.000000 0.560474 0.268635
O O16 0.857574 0.548566 0.000000
O O17 0.625723 0.079007 0.727074
O O18 0.500000 0.000000 0.732330
O O19 0.500000 0.050522 0.000000
O O20 0.279466 0.113080 0.000000
#
# Coordination Sequence:
#
# PCOD9383884 Si02
#       7
#     8   8   4   8   8   4   8
#     4   9  18  32  52  75 101 136 176 217 265 317
#     4   9  17  30  50  78 103 127 166 216 265 314
#     4  11  23  37  53  75 105 141 179 217 258 309
#     4  10  21  36  53  77 111 146 182 223 266 315
#     4   9  19  36  57  81 109 142 182 227 273 320
#     4   9  18  30  49  81 111 133 167 215 262 311
#     4  10  19  34  56  80 107 137 172 216 265 317
#
# _framework density 20.014157000000001
#
# number of rings (size 3 to 8) (size 9 to 14) (size 15 to 20)
#    0.000    2.500    0.833    1.750    1.167    4.000 
#    0.000    5.417    0.000    1.500    0.000    0.000 
#    0.000    0.000    0.000    0.000    0.000    0.000 
#
# Total GULP energy -267820.316970 kJ/mol
# GULP energy per Si atom -5579.589937 kJ/mol
# Density = 1.996860 g / cm^3
# Si number density = 20.014157 Si / 1000 Ang^3
#
#
#
# Elastic Constant Matrix: (Units=GPa)
#
#
# Indices 1 2 3 4 5 6 
#
# 1 184.1975 137.0733 -1.7595 0.0000 0.0000 0.0000
# 2 137.0733 186.2249 -2.2080 0.0000 0.0000 0.0000
# 3 -1.7595 -2.2080 27.5671 0.0000 0.0000 0.0000
# 4 0.0000 0.0000 0.0000 -458.5670 0.0000 0.0000
# 5 0.0000 0.0000 0.0000 0.0000 22.1865 0.0000
# 6 0.0000 0.0000 0.0000 0.0000 0.0000 329.8903
#
#
#
# Elastic Compliance Matrix: (Units=1/GPa)
#
#
# Indices 1 2 3 4 5 6 
#
# 1 0.012004 -0.008835 0.000059 0.000000 0.000000 0.000000
# 2 -0.008835 0.011878 0.000387 0.000000 0.000000 0.000000
# 3 0.000059 0.000387 0.036310 0.000000 0.000000 0.000000
# 4 0.000000 0.000000 0.000000 -0.002181 0.000000 0.000000
# 5 0.000000 0.000000 0.000000 0.000000 0.045072 0.000000
# 6 0.000000 0.000000 0.000000 0.000000 0.000000 0.003031
#
#
# Mechanical properties :
#
#
# Convention : Reuss Voigt Hill
#
# Bulk Modulus (GPa) = 23.03434 73.80012 48.41723
# Shear Modulus (GPa) = 36.39931 -3.63912 16.38009
#
# Velocity S-wave (km/s) = 4.26922 -1.34990 2.86392
# Velocity P-wave (km/s) = 5.98629 5.87574 5.93128
#
# Compressibility (1/GPa) = 0.04341345
#
# Stress axis : x y z
#
# Youngs Moduli (GPa) = 83.30219 84.19043 27.54067
#
# Poissons Ratio (x) = 0.74385 -0.00161
# Poissons Ratio (y) = 0.73601 -0.01067
# Poissons Ratio (z) = -0.00487 -0.03262
#
# Static dielectric constant tensor:
#      x y z
#    x 1.713920 0.000000 0.000000 
#    y 0.000000 1.680940 0.000000 
#    z 0.000000 0.000000 1.731540 
# 
# From -- ./inp_files/2653.got.cif
#   From: 2010.05.17/outbox.cif.g08.bks.cpg/sg47_2_cif.got.tgz:2653.got - 2010.06.03 20:15:42.
