data_PCOD9383609
_publ_section_title
;
Structure prediction by ZEFSAII (Michael W. Deem and Ramdas Pophale) SiO2 
 PCOD9383609
Probable space group: P M M M
;
_chemical_formula_sum "Si O2"
_cell_formula_units_Z 52
_cell_length_a 22.757532
_cell_length_b 7.724398
_cell_length_c 14.244698
_cell_angle_alpha 90.000000
_cell_angle_beta 90.000000
_cell_angle_gamma 90.000000
_cell_volume 2504.050315
_symmetry_space_group_name_H-M "P M M M"
_symmetry_group_IT_number 47
_symmetry_cell_setting 'orthorhombic'
loop_
_space_group_symop_operation_xyz
x,y,z
-x,-y,z
x,-y,-z
-x,y,-z
-x,-y,-z
x,y,-z
-x,y,z
x,-y,z
loop_
_atom_site_type_symbol
_atom_site_label
_atom_site_fract_x
_atom_site_fract_y
_atom_site_fract_z
Si Si1 0.607588 0.789263 0.000000
Si Si2 0.744448 0.212270 0.000000
Si Si3 0.934352 0.290608 0.890372
Si Si4 0.188663 0.201971 0.189937
Si Si5 0.780115 0.197569 0.394708
Si Si6 0.344192 0.304450 0.655955
Si Si7 0.564438 0.208816 0.801217
Si Si8 0.566263 0.791678 0.500000
O O1 0.676039 0.735591 0.000000
O O2 0.572445 0.737056 0.908150
O O3 0.609062 0.000000 0.000000
O O4 0.776593 0.270834 0.097209
O O5 0.747696 0.000000 0.000000
O O6 0.931530 0.500000 0.885923
O O7 0.879985 0.216330 0.833862
O O8 0.000000 0.238081 0.859912
O O9 0.927783 0.241694 0.000000
O O10 0.199146 0.277582 0.294695
O O11 0.206545 0.000000 0.196652
O O12 0.791576 0.272526 0.500000
O O13 0.709823 0.193052 0.379848
O O14 0.802845 0.000000 0.397423
O O15 0.322870 0.500000 0.651800
O O16 0.374428 0.264755 0.754123
O O17 0.398901 0.276408 0.588310
O O18 0.500000 0.268732 0.765001
O O19 0.563510 0.000000 0.793194
O O20 0.500000 0.732887 0.500000
O O21 0.567411 0.000000 0.500000
#
# Coordination Sequence:
#
# PCOD9383609 Si02
#       8
#     4   4   8   8   8   8   8   4
#     4   9  17  32  54  77 103 138 182 225 262 317
#     4   9  16  27  46  77 112 137 166 219 280 325
#     4   9  18  33  53  80 117 157 189 220 268 328
#     4  10  19  32  54  84 114 145 184 229 274 321
#     4  10  21  38  59  80 108 147 188 228 274 331
#     4  12  24  37  55  80 108 136 173 224 281 338
#     4  10  20  35  56  79 103 137 181 225 273 332
#     4  11  23  39  59  79 101 133 174 223 280 339
#
# _framework density 20.766358
#
# number of rings (size 3 to 8) (size 9 to 14) (size 15 to 20)
#    0.000    1.923    1.538    3.692    0.000    7.077 
#    0.000    1.154    0.000    1.385    0.000    3.231 
#    0.000    0.000    0.000    0.000    0.000    0.000 
#
# Total GULP energy -290002.098445 kJ/mol
# GULP energy per Si atom -5576.963432 kJ/mol
# Density = 2.071909 g / cm^3
# Si number density = 20.766358 Si / 1000 Ang^3
#
#
#
# Elastic Constant Matrix: (Units=GPa)
#
#
# Indices 1 2 3 4 5 6 
#
# 1 96.6981 -4.5930 35.2043 0.0000 0.0000 0.0000
# 2 -4.5930 42.2938 3.6505 0.0000 0.0000 0.0000
# 3 35.2043 3.6505 127.7816 0.0000 0.0000 0.0000
# 4 0.0000 0.0000 0.0000 5.7924 0.0000 0.0000
# 5 0.0000 0.0000 0.0000 0.0000 34.1151 0.0000
# 6 0.0000 0.0000 0.0000 0.0000 0.0000 55.7915
#
#
#
# Elastic Compliance Matrix: (Units=1/GPa)
#
#
# Indices 1 2 3 4 5 6 
#
# 1 0.011593 0.001538 -0.003238 0.000000 0.000000 0.000000
# 2 0.001538 0.023907 -0.001107 0.000000 0.000000 0.000000
# 3 -0.003238 -0.001107 0.008750 0.000000 0.000000 0.000000
# 4 0.000000 0.000000 0.000000 0.172640 0.000000 0.000000
# 5 0.000000 0.000000 0.000000 0.000000 0.029313 0.000000
# 6 0.000000 0.000000 0.000000 0.000000 0.000000 0.017924
#
#
# Mechanical properties :
#
#
# Convention : Reuss Voigt Hill
#
# Bulk Modulus (GPa) = 25.88192 37.25523 31.56857
# Shear Modulus (GPa) = 17.69172 34.64059 26.16616
#
# Velocity S-wave (km/s) = 2.92197 4.08868 3.55354
# Velocity P-wave (km/s) = 4.88614 6.34578 5.66318
#
# Compressibility (1/GPa) = 0.03863701
#
# Stress axis : x y z
#
# Youngs Moduli (GPa) = 86.25616 41.82925 114.29163
#
# Poissons Ratio (x) = -0.06435 0.37007
# Poissons Ratio (y) = -0.13271 0.12650
# Poissons Ratio (z) = 0.27929 0.04630
#
# Static dielectric constant tensor:
#      x y z
#    x 1.714510 0.000000 0.000000 
#    y 0.000000 1.795660 0.000000 
#    z 0.000000 0.000000 1.701110 
# 
# From -- ./inp_files/25073.got.cif
#   From: 2010.05.17/outbox.cif.g08.bks.cpg/sg47_13_cif.got.tgz:25073.got - 2010.06.03 20:15:42.
