data_PCOD9383116
_publ_section_title
;
Structure prediction by ZEFSAII (Michael W. Deem and Ramdas Pophale) SiO2 
 PCOD9383116
Probable space group: P M M M
;
_chemical_formula_sum "Si O2"
_cell_formula_units_Z 52
_cell_length_a 24.847971
_cell_length_b 8.475102
_cell_length_c 14.124554
_cell_angle_alpha 90.000000
_cell_angle_beta 90.000000
_cell_angle_gamma 90.000000
_cell_volume 2974.476955
_symmetry_space_group_name_H-M "P M M M"
_symmetry_group_IT_number 47
_symmetry_cell_setting 'orthorhombic'
loop_
_space_group_symop_operation_xyz
x,y,z
-x,-y,z
x,-y,-z
-x,y,-z
-x,-y,-z
x,y,-z
-x,y,z
x,-y,z
loop_
_atom_site_type_symbol
_atom_site_label
_atom_site_fract_x
_atom_site_fract_y
_atom_site_fract_z
Si Si1 0.337316 0.312615 0.783727
Si Si2 0.167760 0.187574 0.286428
Si Si3 0.728086 0.809032 0.606772
Si Si4 0.934884 0.677748 0.000000
Si Si5 0.561271 0.190213 0.891771
Si Si6 0.230045 0.310391 0.892071
Si Si7 0.061216 0.190361 0.794963
O O1 0.340038 0.500000 0.775151
O O2 0.314590 0.245159 0.685227
O O3 0.394099 0.249275 0.819473
O O4 0.291579 0.275052 0.862322
O O5 0.212447 0.248731 0.359993
O O6 0.193794 0.222358 0.184215
O O7 0.106676 0.248650 0.278196
O O8 0.164242 0.000000 0.301806
O O9 0.716238 0.757095 0.500000
O O10 0.729048 0.000000 0.608145
O O11 0.921595 0.761238 0.901412
O O12 0.912869 0.500000 0.000000
O O13 0.000000 0.670665 0.000000
O O14 0.500000 0.240455 0.869616
O O15 0.561959 0.000000 0.891692
O O16 0.573467 0.242273 0.000000
O O17 0.222368 0.500000 0.882378
O O18 0.219039 0.265957 0.000000
O O19 0.000000 0.247423 0.778463
O O20 0.060020 0.000000 0.791686
#
# Coordination Sequence:
#
# PCOD9383116 Si02
#       7
#     8   8   8   4   8   8   8
#     4  10  19  31  49  73 100 128 161 200 243 289
#     4   9  18  30  45  66  87 113 153 192 230 282
#     4   9  18  34  54  72  91 118 155 201 250 297
#     4   9  17  27  39  57  81 113 153 187 214 255
#     4   9  18  32  50  74 106 143 177 203 227 263
#     4   9  18  30  42  61  92 125 152 185 231 276
#     4   9  17  29  43  59  85 119 151 186 229 277
#
# _framework density 17.482064999999999
#
# number of rings (size 3 to 8) (size 9 to 14) (size 15 to 20)
#    0.000    2.846    0.000    1.615    1.077    4.000 
#    0.000    0.769    0.000    0.923    0.000    6.462 
#    0.000    0.000    0.000   11.538    0.000   12.000 
#
# Total GULP energy -289729.401696 kJ/mol
# GULP energy per Si atom -5571.719263 kJ/mol
# Density = 1.744228 g / cm^3
# Si number density = 17.482065 Si / 1000 Ang^3
#
#
#
# Elastic Constant Matrix: (Units=GPa)
#
#
# Indices 1 2 3 4 5 6 
#
# 1 121.8120 15.9040 44.3579 0.0000 0.0000 0.0000
# 2 15.9040 7.2655 8.9202 0.0000 0.0000 0.0000
# 3 44.3579 8.9202 74.6771 0.0000 0.0000 0.0000
# 4 0.0000 0.0000 0.0000 10.4393 0.0000 0.0000
# 5 0.0000 0.0000 0.0000 0.0000 17.3869 0.0000
# 6 0.0000 0.0000 0.0000 0.0000 0.0000 9.4270
#
#
#
# Elastic Compliance Matrix: (Units=1/GPa)
#
#
# Indices 1 2 3 4 5 6 
#
# 1 0.012933 -0.022122 -0.005040 0.000000 0.000000 0.000000
# 2 -0.022122 0.199132 -0.010646 0.000000 0.000000 0.000000
# 3 -0.005040 -0.010646 0.017656 0.000000 0.000000 0.000000
# 4 0.000000 0.000000 0.000000 0.095792 0.000000 0.000000
# 5 0.000000 0.000000 0.000000 0.000000 0.057515 0.000000
# 6 0.000000 0.000000 0.000000 0.000000 0.000000 0.106078
#
#
# Mechanical properties :
#
#
# Convention : Reuss Voigt Hill
#
# Bulk Modulus (GPa) = 6.48906 38.01318 22.25112
# Shear Modulus (GPa) = 8.11571 16.42215 12.26893
#
# Velocity S-wave (km/s) = 2.15694 3.06824 2.65203
# Velocity P-wave (km/s) = 3.15009 5.86033 4.70460
#
# Compressibility (1/GPa) = 0.15410550
#
# Stress axis : x y z
#
# Youngs Moduli (GPa) = 77.32251 5.02180 56.63761
#
# Poissons Ratio (x) = 0.11109 0.28543
# Poissons Ratio (y) = 1.71055 0.60295
# Poissons Ratio (z) = 0.38967 0.05346
#
# Static dielectric constant tensor:
#      x y z
#    x 1.634300 0.000000 0.000000 
#    y 0.000000 1.598360 0.000000 
#    z 0.000000 0.000000 1.573400 
# 
# From -- ./inp_files/12509.got.cif
#   From: 2010.05.17/outbox.cif.g08.bks.cpg/sg47_7_cif.got.tgz:12509.got - 2010.06.03 20:15:42.
