data_PCOD9383391
_publ_section_title
;
Structure prediction by ZEFSAII (Michael W. Deem and Ramdas Pophale) SiO2 
 PCOD9383391
Probable space group: P M M M
;
_chemical_formula_sum "Si O2"
_cell_formula_units_Z 44
_cell_length_a 31.411820
_cell_length_b 8.068563
_cell_length_c 9.326698
_cell_angle_alpha 90.000000
_cell_angle_beta 90.000000
_cell_angle_gamma 90.000000
_cell_volume 2363.835273
_symmetry_space_group_name_H-M "P M M M"
_symmetry_group_IT_number 47
_symmetry_cell_setting 'orthorhombic'
loop_
_space_group_symop_operation_xyz
x,y,z
-x,-y,z
x,-y,-z
-x,y,-z
-x,-y,-z
x,y,-z
-x,y,z
x,-y,z
loop_
_atom_site_type_symbol
_atom_site_label
_atom_site_fract_x
_atom_site_fract_y
_atom_site_fract_z
Si Si1 0.545944 0.199385 0.168681
Si Si2 0.196152 0.802976 0.166062
Si Si3 0.896058 0.683989 0.825283
Si Si4 0.279939 0.299039 0.335436
Si Si5 0.637280 0.698899 0.164231
Si Si6 0.950867 0.000000 0.824805
O O1 0.500000 0.255855 0.228746
O O2 0.590924 0.259484 0.228388
O O3 0.546221 0.000000 0.173510
O O4 0.546180 0.248882 0.000000
O O5 0.152857 0.716220 0.217660
O O6 0.237498 0.760140 0.256756
O O7 0.188426 0.000000 0.168586
O O8 0.203610 0.753763 0.000000
O O9 0.909897 0.500000 0.780918
O O10 0.925933 0.834776 0.777719
O O11 0.896088 0.688266 0.000000
O O12 0.280362 0.245010 0.500000
O O13 0.280041 0.500000 0.332511
O O14 0.322429 0.240349 0.253885
O O15 0.640045 0.500000 0.157737
O O16 0.639374 0.762977 0.000000
O O17 0.000000 0.000000 0.780254
O O18 0.950247 0.000000 0.000000
#
# Coordination Sequence:
#
# PCOD9383391 Si02
#       6
#     8   8   8   8   8   4
#     4   8  14  25  42  65  91 116 145 187 237 285
#     4  10  19  32  51  73  97 127 168 214 254 299
#     4   9  16  27  44  66  95 132 171 211 255 301
#     4  10  21  35  49  68  97 130 163 202 250 303
#     4   9  17  29  46  68  93 121 156 197 240 290
#     4   9  16  26  40  64 101 137 171 211 252 303
#
# _framework density 18.613817000000001
#
# number of rings (size 3 to 8) (size 9 to 14) (size 15 to 20)
#    0.000    2.818    0.909    1.636    0.000    3.636 
#    0.000    5.455    0.000    0.545    0.000    3.818 
#    0.000    1.455    0.000    3.818    0.000    3.636 
#
# Total GULP energy -245203.566595 kJ/mol
# GULP energy per Si atom -5572.808332 kJ/mol
# Density = 1.857145 g / cm^3
# Si number density = 18.613817 Si / 1000 Ang^3
#
#
#
# Elastic Constant Matrix: (Units=GPa)
#
#
# Indices 1 2 3 4 5 6 
#
# 1 183.0686 60.0134 42.9775 0.0000 0.0000 0.0000
# 2 60.0134 67.0395 18.2880 0.0000 0.0000 0.0000
# 3 42.9775 18.2880 36.4491 0.0000 0.0000 0.0000
# 4 0.0000 0.0000 0.0000 9.3210 0.0000 0.0000
# 5 0.0000 0.0000 0.0000 0.0000 -5.0087 0.0000
# 6 0.0000 0.0000 0.0000 0.0000 0.0000 55.6208
#
#
#
# Elastic Compliance Matrix: (Units=1/GPa)
#
#
# Indices 1 2 3 4 5 6 
#
# 1 0.009359 -0.006219 -0.007915 0.000000 0.000000 0.000000
# 2 -0.006219 0.021415 -0.003411 0.000000 0.000000 0.000000
# 3 -0.007915 -0.003411 0.038480 0.000000 0.000000 0.000000
# 4 0.000000 0.000000 0.000000 0.107285 0.000000 0.000000
# 5 0.000000 0.000000 0.000000 0.000000 -0.199652 0.000000
# 6 0.000000 0.000000 0.000000 0.000000 0.000000 0.017979
#
#
# Mechanical properties :
#
#
# Convention : Reuss Voigt Hill
#
# Bulk Modulus (GPa) = 29.27207 58.79054 44.03131
# Shear Modulus (GPa) = 120.93201 23.00516 71.96858
#
# Velocity S-wave (km/s) = 8.06908 3.51938 6.22479
# Velocity P-wave (km/s) = 10.12785 6.94029 8.68162
#
# Compressibility (1/GPa) = 0.03416226
#
# Stress axis : x y z
#
# Youngs Moduli (GPa) = 106.84385 46.69700 25.98739
#
# Poissons Ratio (x) = 0.29042 0.20570
# Poissons Ratio (y) = 0.66449 0.08865
# Poissons Ratio (z) = 0.84571 0.15930
#
# Static dielectric constant tensor:
#      x y z
#    x 1.648440 0.000000 0.000000 
#    y 0.000000 1.662530 0.000000 
#    z 0.000000 0.000000 1.613660 
# 
# From -- ./inp_files/13587.got.cif
#   From: 2010.05.17/outbox.cif.g08.bks.cpg/sg47_7_cif.got.tgz:13587.got - 2010.06.03 20:15:42.
