data_PCOD9383335
_publ_section_title
;
Structure prediction by ZEFSAII (Michael W. Deem and Ramdas Pophale) SiO2 
 PCOD9383335
Probable space group: P M M M
;
_chemical_formula_sum "Si O2"
_cell_formula_units_Z 40
_cell_length_a 25.549337
_cell_length_b 7.366426
_cell_length_c 10.300658
_cell_angle_alpha 90.000000
_cell_angle_beta 90.000000
_cell_angle_gamma 90.000000
_cell_volume 1938.659034
_symmetry_space_group_name_H-M "P M M M"
_symmetry_group_IT_number 47
_symmetry_cell_setting 'orthorhombic'
loop_
_space_group_symop_operation_xyz
x,y,z
-x,-y,z
x,-y,-z
-x,y,-z
-x,-y,-z
x,y,-z
-x,y,z
x,-y,z
loop_
_atom_site_type_symbol
_atom_site_label
_atom_site_fract_x
_atom_site_fract_y
_atom_site_fract_z
Si Si1 0.943844 0.217946 0.155267
Si Si2 0.440482 0.721795 0.500000
Si Si3 0.828276 0.777753 0.151547
Si Si4 0.740025 0.214175 0.649160
Si Si5 0.561064 0.722098 0.000000
Si Si6 0.375769 0.281517 0.252634
O O1 0.886456 0.281281 0.196918
O O2 0.000000 0.286557 0.206822
O O3 0.944204 0.000000 0.173999
O O4 0.944258 0.249070 0.000000
O O5 0.440618 0.500000 0.500000
O O6 0.500000 0.781051 0.500000
O O7 0.409493 0.782021 0.625713
O O8 0.784604 0.714683 0.253262
O O9 0.827962 0.000000 0.149694
O O10 0.819674 0.723682 0.000000
O O11 0.738390 0.286281 0.500000
O O12 0.684177 0.233964 0.719859
O O13 0.750104 0.000000 0.637184
O O14 0.594584 0.781268 0.124194
O O15 0.559652 0.500000 0.000000
O O16 0.500000 0.779120 0.000000
O O17 0.377507 0.500000 0.249534
#
# Coordination Sequence:
#
# PCOD9383335 Si02
#       6
#     8   4   8   8   4   8
#     4   7   9  15  30  53  79 105 138 181 220 254
#     4   9  16  28  49  71  87 109 144 179 210 254
#     4   8  14  24  39  59  82 114 152 182 216 265
#     4  10  20  32  45  63  91 124 154 185 220 258
#     4   9  18  32  51  75  97 113 136 179 230 270
#     4  10  19  32  50  71  92 115 145 181 220 264
#
# _framework density 20.632818
#
# number of rings (size 3 to 8) (size 9 to 14) (size 15 to 20)
#    0.000    3.200    1.000    2.400    1.400    2.400 
#    0.000    0.000    0.000    4.200    0.000    4.200 
#    0.000    0.800    0.000    6.800    0.000    6.000 
#
# Total GULP energy -222923.944459 kJ/mol
# GULP energy per Si atom -5573.098611 kJ/mol
# Density = 2.058586 g / cm^3
# Si number density = 20.632818 Si / 1000 Ang^3
#
#
#
# Elastic Constant Matrix: (Units=GPa)
#
#
# Indices 1 2 3 4 5 6 
#
# 1 260.9493 1.5479 119.7685 0.0000 0.0000 0.0000
# 2 1.5479 70.9111 7.2630 0.0000 0.0000 0.0000
# 3 119.7685 7.2630 160.2528 0.0000 0.0000 0.0000
# 4 0.0000 0.0000 0.0000 -8.2544 0.0000 0.0000
# 5 0.0000 0.0000 0.0000 0.0000 32.6864 0.0000
# 6 0.0000 0.0000 0.0000 0.0000 0.0000 17.3022
#
#
#
# Elastic Compliance Matrix: (Units=1/GPa)
#
#
# Indices 1 2 3 4 5 6 
#
# 1 0.005840 0.000321 -0.004379 0.000000 0.000000 0.000000
# 2 0.000321 0.014186 -0.000883 0.000000 0.000000 0.000000
# 3 -0.004379 -0.000883 0.009553 0.000000 0.000000 0.000000
# 4 0.000000 0.000000 0.000000 -0.121148 0.000000 0.000000
# 5 0.000000 0.000000 0.000000 0.000000 0.030594 0.000000
# 6 0.000000 0.000000 0.000000 0.000000 0.000000 0.057796
#
#
# Mechanical properties :
#
#
# Convention : Reuss Voigt Hill
#
# Bulk Modulus (GPa) = 50.77013 83.25245 67.01129
# Shear Modulus (GPa) = 376.80757 32.58243 204.69500
#
# Velocity S-wave (km/s) = 13.52856 3.97817 9.97115
# Velocity P-wave (km/s) = 16.39174 7.84463 12.84965
#
# Compressibility (1/GPa) = 0.01969662
#
# Stress axis : x y z
#
# Youngs Moduli (GPa) = 171.22433 70.49413 104.67680
#
# Poissons Ratio (x) = -0.02263 0.45842
# Poissons Ratio (y) = -0.05497 0.09242
# Poissons Ratio (z) = 0.74986 0.06224
#
# Static dielectric constant tensor:
#      x y z
#    x 1.725600 0.000000 0.000000 
#    y 0.000000 1.841740 0.000000 
#    z 0.000000 0.000000 1.674950 
# 
# From -- ./inp_files/13071.got.cif
#   From: 2010.05.17/outbox.cif.g08.bks.cpg/sg47_7_cif.got.tgz:13071.got - 2010.06.03 20:15:42.
