data_PCOD9383683
_publ_section_title
;
Structure prediction by ZEFSAII (Michael W. Deem and Ramdas Pophale) SiO2 
 PCOD9383683
Probable space group: P M M M
;
_chemical_formula_sum "Si O2"
_cell_formula_units_Z 56
_cell_length_a 7.594423
_cell_length_b 14.427579
_cell_length_c 22.486822
_cell_angle_alpha 90.000000
_cell_angle_beta 90.000000
_cell_angle_gamma 90.000000
_cell_volume 2463.861698
_symmetry_space_group_name_H-M "P M M M"
_symmetry_group_IT_number 47
_symmetry_cell_setting 'orthorhombic'
loop_
_space_group_symop_operation_xyz
x,y,z
-x,-y,z
x,-y,-z
-x,y,-z
-x,-y,-z
x,y,-z
-x,y,z
x,-y,z
loop_
_atom_site_type_symbol
_atom_site_label
_atom_site_fract_x
_atom_site_fract_y
_atom_site_fract_z
Si Si1 0.299389 0.631437 0.263971
Si Si2 0.286177 0.599556 0.397767
Si Si3 0.208400 0.826301 0.306157
Si Si4 0.292234 0.000000 0.226882
Si Si5 0.199654 0.000000 0.093593
Si Si6 0.204759 0.802172 0.436156
Si Si7 0.209293 0.791490 0.069623
Si Si8 0.203889 0.602511 0.869375
O O1 0.500000 0.599645 0.258951
O O2 0.229056 0.599779 0.328352
O O3 0.296056 0.741187 0.272855
O O4 0.208305 0.606665 0.202498
O O5 0.500000 0.607331 0.397945
O O6 0.238630 0.500000 0.424047
O O7 0.214822 0.690641 0.429160
O O8 0.278897 0.837684 0.373458
O O9 0.000000 0.805695 0.310750
O O10 0.238989 0.913595 0.266169
O O11 0.500000 0.000000 0.215273
O O12 0.196559 0.000000 0.164454
O O13 0.278606 0.897813 0.078015
O O14 0.000000 0.000000 0.068574
O O15 0.284033 0.828368 0.500000
O O16 0.000000 0.830278 0.437595
O O17 0.278717 0.700972 0.105870
O O18 0.000000 0.798616 0.085068
O O19 0.226748 0.769518 0.000000
O O20 0.278736 0.500000 0.886313
O O21 0.000000 0.601708 0.889039
#
# Coordination Sequence:
#
# PCOD9383683 Si02
#       8
#     8   8   8   4   4   8   8   8
#     4  10  19  33  53  76 105 140 178 223 273 324
#     4   9  18  31  47  70 100 135 174 215 262 315
#     4  10  20  36  57  79 106 139 174 216 267 322
#     4  12  24  37  56  84 114 139 169 212 263 320
#     4  10  19  34  60  87 109 138 179 227 277 328
#     4   9  19  35  53  73  98 131 172 216 262 313
#     4   9  18  33  54  80 108 140 182 230 275 320
#     4  10  20  32  49  76 109 146 188 231 275 328
#
# _framework density 22.728546999999999
#
# number of rings (size 3 to 8) (size 9 to 14) (size 15 to 20)
#    0.000    2.286    0.000    3.000    0.000    5.143 
#    0.000    3.214    0.000    4.286    0.000    1.000 
#    0.000    0.000    0.000    0.000    0.000    0.000 
#
# Total GULP energy -312322.108972 kJ/mol
# GULP energy per Si atom -5577.180517 kJ/mol
# Density = 2.267682 g / cm^3
# Si number density = 22.728547 Si / 1000 Ang^3
#
#
#
# Elastic Constant Matrix: (Units=GPa)
#
#
# Indices 1 2 3 4 5 6 
#
# 1 62.8591 3.9631 2.7707 0.0000 0.0000 0.0000
# 2 3.9631 132.1155 54.3513 0.0000 0.0000 0.0000
# 3 2.7707 54.3513 106.7499 0.0000 0.0000 0.0000
# 4 0.0000 0.0000 0.0000 -99.2018 0.0000 0.0000
# 5 0.0000 0.0000 0.0000 0.0000 -35.7998 0.0000
# 6 0.0000 0.0000 0.0000 0.0000 0.0000 10.9709
#
#
#
# Elastic Compliance Matrix: (Units=1/GPa)
#
#
# Indices 1 2 3 4 5 6 
#
# 1 0.015943 -0.000390 -0.000215 0.000000 0.000000 0.000000
# 2 -0.000390 0.009584 -0.004870 0.000000 0.000000 0.000000
# 3 -0.000215 -0.004870 0.011853 0.000000 0.000000 0.000000
# 4 0.000000 0.000000 0.000000 -0.010080 0.000000 0.000000
# 5 0.000000 0.000000 0.000000 0.000000 -0.027933 0.000000
# 6 0.000000 0.000000 0.000000 0.000000 0.000000 0.091150
#
#
# Mechanical properties :
#
#
# Convention : Reuss Voigt Hill
#
# Bulk Modulus (GPa) = 37.83561 47.09941 42.46751
# Shear Modulus (GPa) = 45.34092 -8.76351 18.28870
#
# Velocity S-wave (km/s) = 4.47126 -1.96573 2.83973
# Velocity P-wave (km/s) = 6.58325 3.95164 5.42930
#
# Compressibility (1/GPa) = 0.02643013
#
# Stress axis : x y z
#
# Youngs Moduli (GPa) = 62.72477 104.33900 84.36950
#
# Poissons Ratio (x) = 0.04065 0.01818
# Poissons Ratio (y) = 0.02444 0.41085
# Poissons Ratio (z) = 0.01351 0.50809
#
# Static dielectric constant tensor:
#      x y z
#    x 1.882930 0.000000 0.000000 
#    y 0.000000 1.585870 0.000000 
#    z 0.000000 0.000000 1.822690 
# 
# From -- ./inp_files/29735.got.cif
#   From: 2010.05.17/outbox.cif.g08.bks.cpg/sg47_15_cif.got.tgz:29735.got - 2010.06.03 20:15:42.
