data_PCOD9383835
_publ_section_title
;
Structure prediction by ZEFSAII (Michael W. Deem and Ramdas Pophale) SiO2 
 PCOD9383835
Probable space group: P M M M
;
_chemical_formula_sum "Si O2"
_cell_formula_units_Z 52
_cell_length_a 22.989008
_cell_length_b 9.473130
_cell_length_c 15.176300
_cell_angle_alpha 90.000000
_cell_angle_beta 90.000000
_cell_angle_gamma 90.000000
_cell_volume 3305.062157
_symmetry_space_group_name_H-M "P M M M"
_symmetry_group_IT_number 47
_symmetry_cell_setting 'orthorhombic'
loop_
_space_group_symop_operation_xyz
x,y,z
-x,-y,z
x,-y,-z
-x,y,-z
-x,-y,-z
x,y,-z
-x,y,z
x,-y,z
loop_
_atom_site_type_symbol
_atom_site_label
_atom_site_fract_x
_atom_site_fract_y
_atom_site_fract_z
Si Si1 0.225569 0.668344 0.277076
Si Si2 0.620459 0.162614 0.152662
Si Si3 0.642534 0.669736 0.672806
Si Si4 0.000000 0.162428 0.607099
Si Si5 0.114882 0.668113 0.604193
Si Si6 0.243801 0.836510 0.100709
Si Si7 0.432122 0.329084 0.500000
Si Si8 0.568143 0.343988 0.000000
O O1 0.224522 0.500000 0.262109
O O2 0.287720 0.698763 0.324663
O O3 0.171897 0.705648 0.340101
O O4 0.220888 0.745764 0.182882
O O5 0.618824 0.240378 0.245893
O O6 0.686608 0.164214 0.116087
O O7 0.585019 0.254672 0.084551
O O8 0.601751 0.000000 0.157839
O O9 0.635873 0.500000 0.686237
O O10 0.606286 0.709156 0.585722
O O11 0.941683 0.244952 0.633526
O O12 0.000000 0.163153 0.500000
O O13 0.000000 0.000000 0.636299
O O14 0.124742 0.694465 0.500000
O O15 0.104088 0.500000 0.613811
O O16 0.224668 0.000000 0.107916
O O17 0.231639 0.788161 0.000000
O O18 0.435046 0.500000 0.500000
O O19 0.500000 0.279511 0.500000
O O20 0.596344 0.500000 0.000000
O O21 0.500000 0.360754 0.000000
#
# Coordination Sequence:
#
# PCOD9383835 Si02
#       8
#     8   8   8   4   8   8   4   4
#     4   9  18  29  45  73  99 125 161 203 244 284
#     4  10  19  34  52  70  94 123 154 191 241 296
#     4   9  18  32  50  72  97 126 164 207 248 289
#     4   9  17  29  45  67  96 131 170 203 235 280
#     4   9  17  29  46  68  99 134 167 201 240 283
#     4   9  17  31  49  68  93 125 155 190 237 290
#     4   9  18  32  51  71  93 126 165 204 246 291
#     4  11  23  35  49  71  95 119 151 192 239 296
#
# _framework density 15.73344
#
# number of rings (size 3 to 8) (size 9 to 14) (size 15 to 20)
#    0.000    2.692    0.769    0.923    1.077    3.692 
#    0.000    1.923    0.000    0.462    0.000    0.538 
#    0.000    4.308    0.000    0.000    0.000    0.000 
#
# Total GULP energy -289570.515228 kJ/mol
# GULP energy per Si atom -5568.663754 kJ/mol
# Density = 1.569763 g / cm^3
# Si number density = 15.733440 Si / 1000 Ang^3
#
#
#
# Elastic Constant Matrix: (Units=GPa)
#
#
# Indices 1 2 3 4 5 6 
#
# 1 97.5448 58.3547 80.1700 0.0000 0.0000 0.0000
# 2 58.3547 73.6630 63.8936 0.0000 0.0000 0.0000
# 3 80.1700 63.8936 132.8026 0.0000 0.0000 0.0000
# 4 0.0000 0.0000 0.0000 -4.7383 0.0000 0.0000
# 5 0.0000 0.0000 0.0000 0.0000 36.8492 0.0000
# 6 0.0000 0.0000 0.0000 0.0000 0.0000 14.7899
#
#
#
# Elastic Compliance Matrix: (Units=1/GPa)
#
#
# Indices 1 2 3 4 5 6 
#
# 1 0.024982 -0.011514 -0.009541 0.000000 0.000000 0.000000
# 2 -0.011514 0.028605 -0.006811 0.000000 0.000000 0.000000
# 3 -0.009541 -0.006811 0.016567 0.000000 0.000000 0.000000
# 4 0.000000 0.000000 0.000000 -0.211047 0.000000 0.000000
# 5 0.000000 0.000000 0.000000 0.000000 0.027138 0.000000
# 6 0.000000 0.000000 0.000000 0.000000 0.000000 0.067614
#
#
# Mechanical properties :
#
#
# Convention : Reuss Voigt Hill
#
# Bulk Modulus (GPa) = 69.34963 78.76077 74.05520
# Shear Modulus (GPa) = 347.27129 16.15297 181.71213
#
# Velocity S-wave (km/s) = 14.87283 3.20764 10.75848
# Velocity P-wave (km/s) = 18.41489 7.99292 14.19498
#
# Compressibility (1/GPa) = 0.01441969
#
# Stress axis : x y z
#
# Youngs Moduli (GPa) = 40.02943 34.95919 60.36172
#
# Poissons Ratio (x) = 0.40253 0.57592
# Poissons Ratio (y) = 0.46091 0.41114
# Poissons Ratio (z) = 0.38193 0.23812
#
# Static dielectric constant tensor:
#      x y z
#    x 1.517960 0.000000 0.000000 
#    y 0.000000 1.533330 0.000000 
#    z 0.000000 0.000000 1.519130 
# 
# From -- ./inp_files/25067.got.cif
#   From: 2010.05.17/outbox.cif.g08.bks.cpg/sg47_13_cif.got.tgz:25067.got - 2010.06.03 20:15:42.
