data_PCOD9383712
_publ_section_title
;
Structure prediction by ZEFSAII (Michael W. Deem and Ramdas Pophale) SiO2 
 PCOD9383712
Probable space group: P M M M
;
_chemical_formula_sum "Si O2"
_cell_formula_units_Z 40
_cell_length_a 25.798701
_cell_length_b 7.398529
_cell_length_c 10.178681
_cell_angle_alpha 90.000000
_cell_angle_beta 90.000000
_cell_angle_gamma 90.000000
_cell_volume 1942.829653
_symmetry_space_group_name_H-M "P M M M"
_symmetry_group_IT_number 47
_symmetry_cell_setting 'orthorhombic'
loop_
_space_group_symop_operation_xyz
x,y,z
-x,-y,z
x,-y,-z
-x,y,-z
-x,-y,-z
x,y,-z
-x,y,z
x,-y,z
loop_
_atom_site_type_symbol
_atom_site_label
_atom_site_fract_x
_atom_site_fract_y
_atom_site_fract_z
Si Si1 0.055649 0.283294 0.842452
Si Si2 0.374138 0.714120 0.258279
Si Si3 0.558787 0.721737 0.500000
Si Si4 0.169790 0.279036 0.846703
Si Si5 0.559457 0.213813 0.000000
Si Si6 0.738142 0.279118 0.346161
O O1 0.055267 0.500000 0.821479
O O2 0.112381 0.218506 0.800495
O O3 0.000000 0.213818 0.791432
O O4 0.055389 0.255260 0.000000
O O5 0.369434 0.500000 0.278570
O O6 0.410479 0.784922 0.373362
O O7 0.315662 0.781757 0.278160
O O8 0.405461 0.738205 0.124778
O O9 0.558169 0.500000 0.500000
O O10 0.500000 0.781424 0.500000
O O11 0.169467 0.500000 0.848177
O O12 0.214075 0.221344 0.745516
O O13 0.178277 0.225304 0.000000
O O14 0.500000 0.288369 0.000000
O O15 0.554044 0.000000 0.000000
O O16 0.740233 0.224267 0.500000
O O17 0.739122 0.500000 0.347049
#
# Coordination Sequence:
#
# PCOD9383712 Si02
#       6
#     8   8   4   8   4   8
#     4   7   9  14  24  39  62  96 141 187 222 255
#     4  10  19  33  54  77  97 122 156 192 231 277
#     4   9  16  28  49  75  97 115 146 192 230 265
#     4   8  13  19  30  50  75 105 142 185 230 270
#     4  11  25  41  53  71 101 129 152 185 232 282
#     4   9  16  26  40  62  90 114 141 185 236 275
#
# _framework density 20.588528
#
# number of rings (size 3 to 8) (size 9 to 14) (size 15 to 20)
#    0.000    3.200    1.000    2.700    1.400    1.600 
#    0.000    0.500    0.000    2.400    0.000    4.200 
#    0.000    0.000    0.000    0.000    0.000    2.000 
#
# Total GULP energy -222873.372532 kJ/mol
# GULP energy per Si atom -5571.834313 kJ/mol
# Density = 2.054167 g / cm^3
# Si number density = 20.588528 Si / 1000 Ang^3
#
#
#
# Elastic Constant Matrix: (Units=GPa)
#
#
# Indices 1 2 3 4 5 6 
#
# 1 286.0535 9.7421 119.4151 0.0000 0.0000 0.0000
# 2 9.7421 63.8432 -5.6271 0.0000 0.0000 0.0000
# 3 119.4151 -5.6271 139.7594 0.0000 0.0000 0.0000
# 4 0.0000 0.0000 0.0000 -24.1956 0.0000 0.0000
# 5 0.0000 0.0000 0.0000 0.0000 32.9316 0.0000
# 6 0.0000 0.0000 0.0000 0.0000 0.0000 -112.6986
#
#
#
# Elastic Compliance Matrix: (Units=1/GPa)
#
#
# Indices 1 2 3 4 5 6 
#
# 1 0.005534 -0.001266 -0.004780 0.000000 0.000000 0.000000
# 2 -0.001266 0.016009 0.001726 0.000000 0.000000 0.000000
# 3 -0.004780 0.001726 0.011308 0.000000 0.000000 0.000000
# 4 0.000000 0.000000 0.000000 -0.041330 0.000000 0.000000
# 5 0.000000 0.000000 0.000000 0.000000 0.030366 0.000000
# 6 0.000000 0.000000 0.000000 0.000000 0.000000 -0.008873
#
#
# Mechanical properties :
#
#
# Convention : Reuss Voigt Hill
#
# Bulk Modulus (GPa) = 41.30047 81.85737 61.57892
# Shear Modulus (GPa) = 168.21497 3.61587 85.91542
#
# Velocity S-wave (km/s) = 9.04879 1.32668 6.46687
# Velocity P-wave (km/s) = 11.37003 6.49552 9.25931
#
# Compressibility (1/GPa) = 0.02421280
#
# Stress axis : x y z
#
# Youngs Moduli (GPa) = 180.69351 62.46617 88.42910
#
# Poissons Ratio (x) = 0.07907 0.42266
# Poissons Ratio (y) = 0.22872 -0.15263
# Poissons Ratio (z) = 0.86364 -0.10782
#
# Static dielectric constant tensor:
#      x y z
#    x 1.748580 0.000000 0.000000 
#    y 0.000000 1.781880 0.000000 
#    z 0.000000 0.000000 1.538210 
# 
# From -- ./inp_files/13069.got.cif
#   From: 2010.05.17/outbox.cif.g08.bks.cpg/sg47_7_cif.got.tgz:13069.got - 2010.06.03 20:15:42.
