data_PCOD9383632
_publ_section_title
;
Structure prediction by ZEFSAII (Michael W. Deem and Ramdas Pophale) SiO2 
 PCOD9383632
Probable space group: P M M M
;
_chemical_formula_sum "Si O2"
_cell_formula_units_Z 36
_cell_length_a 7.598866
_cell_length_b 21.789214
_cell_length_c 12.117840
_cell_angle_alpha 90.000000
_cell_angle_beta 90.000000
_cell_angle_gamma 90.000000
_cell_volume 2006.390969
_symmetry_space_group_name_H-M "P M M M"
_symmetry_group_IT_number 47
_symmetry_cell_setting 'orthorhombic'
loop_
_space_group_symop_operation_xyz
x,y,z
-x,-y,z
x,-y,-z
-x,y,-z
-x,-y,-z
x,y,-z
-x,y,z
x,-y,z
loop_
_atom_site_type_symbol
_atom_site_label
_atom_site_fract_x
_atom_site_fract_y
_atom_site_fract_z
Si Si1 0.789050 0.500000 0.133400
Si Si2 0.283969 0.928491 0.500000
Si Si3 0.211232 0.000000 0.873617
Si Si4 0.290280 0.766468 0.873685
Si Si5 0.212163 0.368070 0.872151
Si Si6 0.708077 0.120375 0.733068
O O1 0.723363 0.433631 0.174637
O O2 0.000000 0.500000 0.150945
O O3 0.763697 0.500000 0.000000
O O4 0.500000 0.928547 0.500000
O O5 0.222036 0.895813 0.611808
O O6 0.231446 0.000000 0.500000
O O7 0.271077 0.939462 0.809293
O O8 0.000000 0.000000 0.874595
O O9 0.274331 0.000000 0.000000
O O10 0.500000 0.775375 0.882177
O O11 0.262104 0.698155 0.825861
O O12 0.218112 0.820521 0.796859
O O13 0.219557 0.769294 0.000000
O O14 0.000000 0.370494 0.872962
O O15 0.272779 0.366164 0.000000
O O16 0.500000 0.131397 0.718239
#
# Coordination Sequence:
#
# PCOD9383632 Si02
#       6
#     4   4   4   8   8   8
#     4   7  10  18  33  53  75 104 143 174 196 233
#     4   9  16  30  52  72  82  99 142 189 219 252
#     4  11  23  34  45  66  92 113 138 175 214 255
#     4   9  17  27  39  59  86 113 139 167 205 254
#     4   8  13  22  37  55  78 110 143 172 201 238
#     4  10  19  33  51  66  84 112 145 179 216 260
#
# _framework density 17.942665000000002
#
# number of rings (size 3 to 8) (size 9 to 14) (size 15 to 20)
#    0.000    3.000    1.111    2.333    0.000    2.667 
#    0.000    3.889    0.000    3.333    0.000    0.000 
#    0.000    0.889    0.000   11.111    0.000    4.000 
#
# Total GULP energy -200452.028690 kJ/mol
# GULP energy per Si atom -5568.111908 kJ/mol
# Density = 1.790183 g / cm^3
# Si number density = 17.942665 Si / 1000 Ang^3
#
#
#
# Elastic Constant Matrix: (Units=GPa)
#
#
# Indices 1 2 3 4 5 6 
#
# 1 35.9588 -2.4825 2.5299 0.0000 0.0000 0.0000
# 2 -2.4825 206.2986 73.6233 0.0000 0.0000 0.0000
# 3 2.5299 73.6233 100.6263 0.0000 0.0000 0.0000
# 4 0.0000 0.0000 0.0000 1.4649 0.0000 0.0000
# 5 0.0000 0.0000 0.0000 0.0000 5.5961 0.0000
# 6 0.0000 0.0000 0.0000 0.0000 0.0000 17.6514
#
#
#
# Elastic Compliance Matrix: (Units=1/GPa)
#
#
# Indices 1 2 3 4 5 6 
#
# 1 0.027955 0.000795 -0.001284 0.000000 0.000000 0.000000
# 2 0.000795 0.006583 -0.004836 0.000000 0.000000 0.000000
# 3 -0.001284 -0.004836 0.013509 0.000000 0.000000 0.000000
# 4 0.000000 0.000000 0.000000 0.682636 0.000000 0.000000
# 5 0.000000 0.000000 0.000000 0.000000 0.178697 0.000000
# 6 0.000000 0.000000 0.000000 0.000000 0.000000 0.056653
#
#
# Mechanical properties :
#
#
# Convention : Reuss Voigt Hill
#
# Bulk Modulus (GPa) = 26.74190 54.46943 40.60566
# Shear Modulus (GPa) = 5.05485 22.89002 13.97244
#
# Velocity S-wave (km/s) = 1.68028 3.57561 2.79360
# Velocity P-wave (km/s) = 4.32445 6.88985 5.75200
#
# Compressibility (1/GPa) = 0.03739450
#
# Stress axis : x y z
#
# Youngs Moduli (GPa) = 35.77197 151.90896 74.02709
#
# Poissons Ratio (x) = -0.12073 0.09507
# Poissons Ratio (y) = -0.02843 0.35802
# Poissons Ratio (z) = 0.04594 0.73469
#
# Static dielectric constant tensor:
#      x y z
#    x 1.667900 0.000000 0.000000 
#    y 0.000000 1.665650 0.000000 
#    z 0.000000 0.000000 1.589660 
# 
# From -- ./inp_files/15012.got.cif
#   From: 2010.05.17/outbox.cif.g08.bks.cpg/sg47_8_cif.got.tgz:15012.got - 2010.06.03 20:15:42.
