data_PCOD9383433
_publ_section_title
;
Structure prediction by ZEFSAII (Michael W. Deem and Ramdas Pophale) SiO2 
 PCOD9383433
Probable space group: P M M M
;
_chemical_formula_sum "Si O2"
_cell_formula_units_Z 52
_cell_length_a 9.961573
_cell_length_b 13.822978
_cell_length_c 22.309310
_cell_angle_alpha 90.000000
_cell_angle_beta 90.000000
_cell_angle_gamma 90.000000
_cell_volume 3071.960853
_symmetry_space_group_name_H-M "P M M M"
_symmetry_group_IT_number 47
_symmetry_cell_setting 'orthorhombic'
loop_
_space_group_symop_operation_xyz
x,y,z
-x,-y,z
x,-y,-z
-x,y,-z
-x,-y,-z
x,y,-z
-x,y,z
x,-y,z
loop_
_atom_site_type_symbol
_atom_site_label
_atom_site_fract_x
_atom_site_fract_y
_atom_site_fract_z
Si Si1 0.657530 0.616116 0.823312
Si Si2 0.500000 0.117388 0.430473
Si Si3 0.247013 0.116615 0.349987
Si Si4 0.846098 0.114700 0.109375
Si Si5 0.840706 0.231728 0.233479
Si Si6 0.849641 0.616991 0.068294
Si Si7 0.345021 0.118056 0.000000
Si Si8 0.000000 0.883122 0.433069
O O1 0.500000 0.643621 0.822188
O O2 0.665161 0.500000 0.815213
O O3 0.749726 0.673375 0.776157
O O4 0.730162 0.640159 0.886599
O O5 0.500000 0.151645 0.500000
O O6 0.375048 0.144708 0.389197
O O7 0.500000 0.000000 0.434563
O O8 0.220926 0.169468 0.287578
O O9 0.126774 0.142845 0.394143
O O10 0.248947 0.000000 0.340249
O O11 0.830914 0.170407 0.171837
O O12 0.000000 0.127527 0.087548
O O13 0.828144 0.000000 0.120126
O O14 0.739738 0.145600 0.059003
O O15 0.000000 0.250873 0.243554
O O16 0.853947 0.500000 0.066503
O O17 0.000000 0.648196 0.089049
O O18 0.830250 0.650070 0.000000
O O19 0.500000 0.151605 0.000000
O O20 0.347733 0.000000 0.000000
O O21 0.000000 0.843670 0.500000
O O22 0.000000 0.000000 0.437652
#
# Coordination Sequence:
#
# PCOD9383433 Si02
#       8
#     8   4   8   8   8   8   4   4
#     4  10  22  38  54  73 100 134 172 219 272 324
#     4   9  18  32  50  76 113 156 190 211 243 296
#     4  10  19  32  51  79 115 150 182 215 251 300
#     4   9  18  33  53  73  98 133 172 213 257 309
#     4  11  22  35  53  78 105 138 177 218 266 315
#     4   8  14  28  52  77  97 120 154 200 259 324
#     4   9  17  31  49  71  96 127 172 221 263 300
#     4   9  16  28  50  78 111 150 182 209 243 290
#
# _framework density 16.927298
#
# number of rings (size 3 to 8) (size 9 to 14) (size 15 to 20)
#    0.000    2.538    0.769    2.077    1.077    5.231 
#    1.385    1.538    0.000    0.000    0.000    0.000 
#    0.000    3.692    0.000    0.000    0.000    0.000 
#
# Total GULP energy -289912.253367 kJ/mol
# GULP energy per Si atom -5575.235642 kJ/mol
# Density = 1.688877 g / cm^3
# Si number density = 16.927298 Si / 1000 Ang^3
#
#
#
# Elastic Constant Matrix: (Units=GPa)
#
#
# Indices 1 2 3 4 5 6 
#
# 1 170.9262 37.2540 86.8632 0.0000 0.0000 0.0000
# 2 37.2540 62.1353 30.9645 0.0000 0.0000 0.0000
# 3 86.8632 30.9645 124.2265 0.0000 0.0000 0.0000
# 4 0.0000 0.0000 0.0000 13.3080 0.0000 0.0000
# 5 0.0000 0.0000 0.0000 0.0000 29.5605 0.0000
# 6 0.0000 0.0000 0.0000 0.0000 0.0000 18.8210
#
#
#
# Elastic Compliance Matrix: (Units=1/GPa)
#
#
# Indices 1 2 3 4 5 6 
#
# 1 0.009459 -0.002712 -0.005938 0.000000 0.000000 0.000000
# 2 -0.002712 0.019154 -0.002878 0.000000 0.000000 0.000000
# 3 -0.005938 -0.002878 0.012919 0.000000 0.000000 0.000000
# 4 0.000000 0.000000 0.000000 0.075143 0.000000 0.000000
# 5 0.000000 0.000000 0.000000 0.000000 0.033829 0.000000
# 6 0.000000 0.000000 0.000000 0.000000 0.000000 0.053132
#
#
# Mechanical properties :
#
#
# Convention : Reuss Voigt Hill
#
# Bulk Modulus (GPa) = 54.12350 74.16127 64.14239
# Shear Modulus (GPa) = 21.47282 25.81830 23.64556
#
# Velocity S-wave (km/s) = 3.56551 3.90968 3.74155
# Velocity P-wave (km/s) = 6.99957 8.01795 7.52601
#
# Compressibility (1/GPa) = 0.01847626
#
# Stress axis : x y z
#
# Youngs Moduli (GPa) = 105.71496 52.20778 77.40308
#
# Poissons Ratio (x) = 0.14160 0.45964
# Poissons Ratio (y) = 0.28672 0.22276
# Poissons Ratio (z) = 0.62776 0.15025
#
# Static dielectric constant tensor:
#      x y z
#    x 1.546290 0.000000 0.000000 
#    y 0.000000 1.591390 0.000000 
#    z 0.000000 0.000000 1.559950 
# 
# From -- ./inp_files/29681.got.cif
#   From: 2010.05.17/outbox.cif.g08.bks.cpg/sg47_15_cif.got.tgz:29681.got - 2010.06.03 20:15:42.
