data_PCOD9383682
_publ_section_title
;
Structure prediction by ZEFSAII (Michael W. Deem and Ramdas Pophale) SiO2 
 PCOD9383682
Probable space group: P M M M
;
_chemical_formula_sum "Si O2"
_cell_formula_units_Z 60
_cell_length_a 20.167134
_cell_length_b 8.252071
_cell_length_c 20.206309
_cell_angle_alpha 90.000000
_cell_angle_beta 90.000000
_cell_angle_gamma 90.000000
_cell_volume 3362.746505
_symmetry_space_group_name_H-M "P M M M"
_symmetry_group_IT_number 47
_symmetry_cell_setting 'orthorhombic'
loop_
_space_group_symop_operation_xyz
x,y,z
-x,-y,z
x,-y,-z
-x,y,-z
-x,-y,-z
x,y,-z
-x,y,z
x,-y,z
loop_
_atom_site_type_symbol
_atom_site_label
_atom_site_fract_x
_atom_site_fract_y
_atom_site_fract_z
Si Si1 0.374161 0.811047 0.144501
Si Si2 0.075555 0.304209 0.313499
Si Si3 0.184575 0.804573 0.787369
Si Si4 0.176523 0.304861 0.575010
Si Si5 0.500000 0.316621 0.922693
Si Si6 0.286663 0.192774 0.326009
Si Si7 0.424084 0.309307 0.284915
Si Si8 0.237750 0.197775 0.075588
O O1 0.436230 0.783633 0.097784
O O2 0.396580 0.722757 0.211172
O O3 0.309680 0.754347 0.104591
O O4 0.363477 0.000000 0.161619
O O5 0.074358 0.500000 0.315368
O O6 0.119371 0.252912 0.250702
O O7 0.116165 0.247025 0.378275
O O8 0.000000 0.245738 0.311607
O O9 0.247724 0.751562 0.741526
O O10 0.190108 0.750979 0.863783
O O11 0.185633 0.000000 0.787593
O O12 0.174096 0.243166 0.500000
O O13 0.172485 0.500000 0.572666
O O14 0.243673 0.259994 0.613412
O O15 0.500000 0.500000 0.892436
O O16 0.500000 0.335898 0.000000
O O17 0.363781 0.239351 0.328167
O O18 0.281975 0.000000 0.326359
O O19 0.500000 0.244179 0.291129
O O20 0.427412 0.500000 0.296811
O O21 0.236550 0.000000 0.072884
O O22 0.226643 0.254543 0.000000
#
# Coordination Sequence:
#
# PCOD9383682 Si02
#       8
#     8   8   8   8   4   8   8   8
#     4  11  20  32  49  68  91 123 167 213 263 320
#     4   9  18  32  51  78 109 140 172 204 242 292
#     4   9  17  31  50  73  99 130 171 214 257 302
#     4   9  18  33  54  81 111 142 171 200 243 298
#     4  11  23  35  43  59  93 131 166 207 262 325
#     4  10  19  33  53  76 102 134 174 216 255 300
#     4  11  22  34  50  72 100 133 169 214 268 314
#     4   9  17  30  48  70  95 123 163 217 267 307
#
# _framework density 17.842558
#
# number of rings (size 3 to 8) (size 9 to 14) (size 15 to 20)
#    0.000    2.200    2.000    1.800    0.000    3.200 
#    0.000    1.333    0.000    2.800    0.000    9.333 
#    0.000    0.000    0.000    0.000    0.000    0.000 
#
# Total GULP energy -334348.386189 kJ/mol
# GULP energy per Si atom -5572.473103 kJ/mol
# Density = 1.780195 g / cm^3
# Si number density = 17.842558 Si / 1000 Ang^3
#
#
#
# Elastic Constant Matrix: (Units=GPa)
#
#
# Indices 1 2 3 4 5 6 
#
# 1 141.0205 6.9202 85.2244 0.0000 0.0000 0.0000
# 2 6.9202 8.1893 6.6183 0.0000 0.0000 0.0000
# 3 85.2244 6.6183 134.5033 0.0000 0.0000 0.0000
# 4 0.0000 0.0000 0.0000 19.3126 0.0000 0.0000
# 5 0.0000 0.0000 0.0000 0.0000 12.8085 0.0000
# 6 0.0000 0.0000 0.0000 0.0000 0.0000 19.2402
#
#
#
# Elastic Compliance Matrix: (Units=1/GPa)
#
#
# Indices 1 2 3 4 5 6 
#
# 1 0.011618 -0.004028 -0.007163 0.000000 0.000000 0.000000
# 2 -0.004028 0.128565 -0.003774 0.000000 0.000000 0.000000
# 3 -0.007163 -0.003774 0.012159 0.000000 0.000000 0.000000
# 4 0.000000 0.000000 0.000000 0.051780 0.000000 0.000000
# 5 0.000000 0.000000 0.000000 0.000000 0.078073 0.000000
# 6 0.000000 0.000000 0.000000 0.000000 0.000000 0.051974
#
#
# Mechanical properties :
#
#
# Convention : Reuss Voigt Hill
#
# Bulk Modulus (GPa) = 8.16918 53.47098 30.82008
# Shear Modulus (GPa) = 12.34864 22.60228 17.47546
#
# Velocity S-wave (km/s) = 2.63361 3.56302 3.13297
# Velocity P-wave (km/s) = 3.71972 6.85274 5.51346
#
# Compressibility (1/GPa) = 0.12241136
#
# Stress axis : x y z
#
# Youngs Moduli (GPa) = 86.07488 7.77819 82.24268
#
# Poissons Ratio (x) = 0.03133 0.58911
# Poissons Ratio (y) = 0.34675 0.31035
# Poissons Ratio (z) = 0.61656 0.02935
#
# Static dielectric constant tensor:
#      x y z
#    x 1.615280 0.000000 0.000000 
#    y 0.000000 1.741450 0.000000 
#    z 0.000000 0.000000 1.624750 
# 
# From -- ./inp_files/28790.got.cif
#   From: 2010.05.17/outbox.cif.g08.bks.cpg/sg47_15_cif.got.tgz:28790.got - 2010.06.03 20:15:42.
