data_PCOD9383779
_publ_section_title
;
Structure prediction by ZEFSAII (Michael W. Deem and Ramdas Pophale) SiO2 
 PCOD9383779
Probable space group: P M M M
;
_chemical_formula_sum "Si O2"
_cell_formula_units_Z 45
_cell_length_a 20.969177
_cell_length_b 7.677077
_cell_length_c 14.259074
_cell_angle_alpha 90.000000
_cell_angle_beta 90.000000
_cell_angle_gamma 90.000000
_cell_volume 2295.454058
_symmetry_space_group_name_H-M "P M M M"
_symmetry_group_IT_number 47
_symmetry_cell_setting 'orthorhombic'
loop_
_space_group_symop_operation_xyz
x,y,z
-x,-y,z
x,-y,-z
-x,y,-z
-x,-y,-z
x,y,-z
-x,y,z
x,-y,z
loop_
_atom_site_type_symbol
_atom_site_label
_atom_site_fract_x
_atom_site_fract_y
_atom_site_fract_z
Si Si1 0.090285 0.799596 0.000000
Si Si2 0.109017 0.307626 0.500000
Si Si3 0.000000 0.000000 0.500000
Si Si4 0.301616 0.206771 0.803430
Si Si5 0.812415 0.799846 0.677993
Si Si6 0.427500 0.787157 0.108206
Si Si7 0.931489 0.298080 0.791997
Si Si8 0.236003 0.291448 0.000000
O O1 0.068299 0.713049 0.904054
O O2 0.166227 0.788210 0.000000
O O3 0.070433 0.000000 0.000000
O O4 0.079337 0.500000 0.500000
O O5 0.155327 0.290882 0.589771
O O6 0.056627 0.154256 0.500000
O O7 0.251560 0.275893 0.726188
O O8 0.373470 0.274527 0.819446
O O9 0.270691 0.233087 0.905647
O O10 0.305824 0.000000 0.785672
O O11 0.869022 0.796494 0.755116
O O12 0.799893 0.000000 0.651546
O O13 0.500000 0.734521 0.129896
O O14 0.425966 0.000000 0.107981
O O15 0.413522 0.733759 0.000000
O O16 0.926824 0.500000 0.764035
O O17 0.000000 0.228250 0.756394
O O18 0.230754 0.500000 0.000000
#
# Coordination Sequence:
#
# PCOD9383779 Si02
#       8
#     4   4   1   8   8   8   8   4
#     4  12  23  37  52  72 101 143 186 234 281 336
#     4  12  27  47  71  96 122 152 191 246 311 373
#     4  12  26  52  76  98 124 146 188 244 316 386
#     4  10  19  33  56  80 112 155 197 238 289 341
#     4  11  23  40  60  86 115 147 190 244 293 358
#     4   8  13  23  45  80 118 155 198 243 283 332
#     4  11  24  38  54  77 107 142 184 230 281 341
#     4  12  22  31  48  75 108 145 190 237 278 336
#
# _framework density 19.603963
#
# number of rings (size 3 to 8) (size 9 to 14) (size 15 to 20)
#    0.000    1.422    3.556    3.600    1.244    3.200 
#    0.000    0.000    0.000    1.067    0.000    0.622 
#    0.000    4.978    0.000    0.000    0.000    0.000 
#
# Total GULP energy -251001.142350 kJ/mol
# GULP energy per Si atom -5577.803163 kJ/mol
# Density = 1.955934 g / cm^3
# Si number density = 19.603963 Si / 1000 Ang^3
#
#
#
# Elastic Constant Matrix: (Units=GPa)
#
#
# Indices 1 2 3 4 5 6 
#
# 1 171.9857 20.4848 47.2341 0.0000 0.0000 0.0000
# 2 20.4848 70.9368 6.0969 0.0000 0.0000 0.0000
# 3 47.2341 6.0969 85.5094 0.0000 0.0000 0.0000
# 4 0.0000 0.0000 0.0000 21.2598 0.0000 0.0000
# 5 0.0000 0.0000 0.0000 0.0000 11.5689 0.0000
# 6 0.0000 0.0000 0.0000 0.0000 0.0000 13.7809
#
#
#
# Elastic Compliance Matrix: (Units=1/GPa)
#
#
# Indices 1 2 3 4 5 6 
#
# 1 0.007055 -0.001713 -0.003775 0.000000 0.000000 0.000000
# 2 -0.001713 0.014600 -0.000095 0.000000 0.000000 0.000000
# 3 -0.003775 -0.000095 0.013787 0.000000 0.000000 0.000000
# 4 0.000000 0.000000 0.000000 0.047037 0.000000 0.000000
# 5 0.000000 0.000000 0.000000 0.000000 0.086438 0.000000
# 6 0.000000 0.000000 0.000000 0.000000 0.000000 0.072564
#
#
# Mechanical properties :
#
#
# Convention : Reuss Voigt Hill
#
# Bulk Modulus (GPa) = 41.19262 52.89595 47.04428
# Shear Modulus (GPa) = 19.17627 26.29635 22.73631
#
# Velocity S-wave (km/s) = 3.13099 3.66646 3.40925
# Velocity P-wave (km/s) = 5.84198 6.70557 6.28862
#
# Compressibility (1/GPa) = 0.02427619
#
# Stress axis : x y z
#
# Youngs Moduli (GPa) = 141.73853 68.49387 72.53385
#
# Poissons Ratio (x) = 0.11732 0.27382
# Poissons Ratio (y) = 0.24279 0.00688
# Poissons Ratio (z) = 0.53507 0.00649
#
# Static dielectric constant tensor:
#      x y z
#    x 1.722120 0.000000 0.000000 
#    y 0.000000 1.717450 0.000000 
#    z 0.000000 0.000000 1.703800 
# 
# From -- ./inp_files/24953.got.cif
#   From: 2010.05.17/outbox.cif.g08.bks.cpg/sg47_13_cif.got.tgz:24953.got - 2010.06.03 20:15:42.
