data_PCOD9383766
_publ_section_title
;
Structure prediction by ZEFSAII (Michael W. Deem and Ramdas Pophale) SiO2 
 PCOD9383766
Probable space group: P M M M
;
_chemical_formula_sum "Si O2"
_cell_formula_units_Z 60
_cell_length_a 20.213253
_cell_length_b 7.671393
_cell_length_c 19.985643
_cell_angle_alpha 90.000000
_cell_angle_beta 90.000000
_cell_angle_gamma 90.000000
_cell_volume 3099.049900
_symmetry_space_group_name_H-M "P M M M"
_symmetry_group_IT_number 47
_symmetry_cell_setting 'orthorhombic'
loop_
_space_group_symop_operation_xyz
x,y,z
-x,-y,z
x,-y,-z
-x,y,-z
-x,-y,-z
x,y,-z
-x,y,z
x,-y,z
loop_
_atom_site_type_symbol
_atom_site_label
_atom_site_fract_x
_atom_site_fract_y
_atom_site_fract_z
Si Si1 0.667159 0.204206 0.697211
Si Si2 0.576773 0.289352 0.426237
Si Si3 0.810371 0.703171 0.177099
Si Si4 0.187475 0.201290 0.675367
Si Si5 0.660464 0.298748 0.154345
Si Si6 0.074824 0.213017 0.422887
Si Si7 0.073712 0.210716 0.922852
Si Si8 0.578963 0.000000 0.080242
O O1 0.617741 0.221549 0.635932
O O2 0.738575 0.277965 0.674559
O O3 0.644150 0.290390 0.766306
O O4 0.676140 0.000000 0.713788
O O5 0.601121 0.233432 0.500000
O O6 0.500000 0.238091 0.420781
O O7 0.579224 0.500000 0.424610
O O8 0.802134 0.500000 0.193215
O O9 0.830878 0.793043 0.246357
O O10 0.737767 0.761518 0.152017
O O11 0.866988 0.725446 0.122680
O O12 0.130887 0.277303 0.627955
O O13 0.194450 0.000000 0.654010
O O14 0.655822 0.500000 0.131626
O O15 0.614171 0.168482 0.113251
O O16 0.088549 0.261283 0.500000
O O17 0.000000 0.269761 0.405930
O O18 0.073965 0.000000 0.420411
O O19 0.000000 0.266466 0.900666
O O20 0.074659 0.000000 0.921576
O O21 0.082125 0.265112 0.000000
O O22 0.500000 0.000000 0.093671
O O23 0.588387 0.000000 0.000000
#
# Coordination Sequence:
#
# PCOD9383766 Si02
#       8
#     8   8   8   8   8   8   8   4
#     4  10  19  33  55  82 113 149 191 240 290 344
#     4   9  19  35  52  73 106 147 188 231 282 340
#     4  10  21  35  55  82 112 148 188 230 282 341
#     4   9  18  31  50  75 104 137 176 226 280 331
#     4  10  22  42  65  90 123 159 197 243 297 357
#     4   8  14  26  45  70 100 135 181 236 287 335
#     4   9  19  35  54  78 109 146 186 227 274 329
#     4  11  26  46  68  96 124 152 192 239 292 356
#
# _framework density 19.360772999999998
#
# number of rings (size 3 to 8) (size 9 to 14) (size 15 to 20)
#    0.000    2.600    0.667    2.000    1.867    4.267 
#    0.000    6.000    0.000    0.400    0.000    0.933 
#    0.000    0.000    0.000    0.000    0.000    0.000 
#
# Total GULP energy -334660.532284 kJ/mol
# GULP energy per Si atom -5577.675538 kJ/mol
# Density = 1.931671 g / cm^3
# Si number density = 19.360773 Si / 1000 Ang^3
#
#
#
# Elastic Constant Matrix: (Units=GPa)
#
#
# Indices 1 2 3 4 5 6 
#
# 1 118.4108 30.5805 94.3385 0.0000 0.0000 0.0000
# 2 30.5805 61.4490 22.4242 0.0000 0.0000 0.0000
# 3 94.3385 22.4242 109.0133 0.0000 0.0000 0.0000
# 4 0.0000 0.0000 0.0000 -4.5409 0.0000 0.0000
# 5 0.0000 0.0000 0.0000 0.0000 44.9077 0.0000
# 6 0.0000 0.0000 0.0000 0.0000 0.0000 11.8409
#
#
#
# Elastic Compliance Matrix: (Units=1/GPa)
#
#
# Indices 1 2 3 4 5 6 
#
# 1 0.028923 -0.005687 -0.023860 0.000000 0.000000 0.000000
# 2 -0.005687 0.018713 0.001072 0.000000 0.000000 0.000000
# 3 -0.023860 0.001072 0.029601 0.000000 0.000000 0.000000
# 4 0.000000 0.000000 0.000000 -0.220221 0.000000 0.000000
# 5 0.000000 0.000000 0.000000 0.000000 0.022268 0.000000
# 6 0.000000 0.000000 0.000000 0.000000 0.000000 0.084453
#
#
# Mechanical properties :
#
#
# Convention : Reuss Voigt Hill
#
# Bulk Modulus (GPa) = 49.29238 64.83995 57.06616
# Shear Modulus (GPa) = 182.16573 19.87687 101.02130
#
# Velocity S-wave (km/s) = 9.71053 3.20762 7.23129
# Velocity P-wave (km/s) = 12.29801 6.87616 9.96300
#
# Compressibility (1/GPa) = 0.02028711
#
# Stress axis : x y z
#
# Youngs Moduli (GPa) = 34.57456 53.44019 33.78318
#
# Poissons Ratio (x) = 0.30390 0.80606
# Poissons Ratio (y) = 0.19662 -0.03622
# Poissons Ratio (z) = 0.82494 -0.05729
#
# Static dielectric constant tensor:
#      x y z
#    x 1.675260 0.000000 0.000000 
#    y 0.000000 1.737010 0.000000 
#    z 0.000000 0.000000 1.646900 
# 
# From -- ./inp_files/31335.got.cif
#   From: 2010.05.17/outbox.cif.g08.bks.cpg/sg47_16_cif.got.tgz:31335.got - 2010.06.03 20:15:42.
