data_PCOD9383898
_publ_section_title
;
Structure prediction by ZEFSAII (Michael W. Deem and Ramdas Pophale) SiO2 
 PCOD9383898
Probable space group: P M M M
;
_chemical_formula_sum "Si O2"
_cell_formula_units_Z 56
_cell_length_a 15.741649
_cell_length_b 22.033392
_cell_length_c 7.978065
_cell_angle_alpha 90.000000
_cell_angle_beta 90.000000
_cell_angle_gamma 90.000000
_cell_volume 2767.127408
_symmetry_space_group_name_H-M "P M M M"
_symmetry_group_IT_number 47
_symmetry_cell_setting 'orthorhombic'
loop_
_space_group_symop_operation_xyz
x,y,z
-x,-y,z
x,-y,-z
-x,y,-z
-x,-y,-z
x,y,-z
-x,y,z
x,-y,z
loop_
_atom_site_type_symbol
_atom_site_label
_atom_site_fract_x
_atom_site_fract_y
_atom_site_fract_z
Si Si1 0.101903 0.500000 0.184398
Si Si2 0.596813 0.500000 0.795476
Si Si3 0.408557 0.262154 0.297577
Si Si4 0.094594 0.230793 0.294571
Si Si5 0.321917 0.624181 0.803685
Si Si6 0.732181 0.169069 0.298277
Si Si7 0.595435 0.070422 0.798124
Si Si8 0.859960 0.363662 0.311546
O O1 0.125160 0.566954 0.252673
O O2 0.000000 0.500000 0.181528
O O3 0.140558 0.500000 0.000000
O O4 0.500000 0.500000 0.736530
O O5 0.647179 0.440785 0.743321
O O6 0.594364 0.500000 0.000000
O O7 0.404961 0.265566 0.500000
O O8 0.500000 0.236405 0.249835
O O9 0.396760 0.328434 0.222872
O O10 0.330820 0.221962 0.236822
O O11 0.099022 0.233033 0.500000
O O12 0.172884 0.187554 0.239351
O O13 0.104310 0.301111 0.232862
O O14 0.000000 0.209253 0.249125
O O15 0.240885 0.645414 0.700395
O O16 0.298507 0.621199 0.000000
O O17 0.735656 0.170903 0.500000
O O18 0.677767 0.109080 0.255144
O O19 0.500000 0.090488 0.738360
O O20 0.604706 0.000000 0.747289
O O21 0.592965 0.072576 0.000000
O O22 0.892384 0.363618 0.500000
#
# Coordination Sequence:
#
# PCOD9383898 Si02
#       8
#     4   4   8   8   8   8   8   8
#     4  11  24  39  54  78 110 137 172 232 299 354
#     4   9  19  34  48  64  90 127 172 220 267 321
#     4  10  20  34  51  75 109 143 178 225 277 328
#     4   9  18  34  57  82 109 143 186 236 285 334
#     4  11  21  34  53  74 100 134 177 228 283 336
#     4  10  19  34  56  83 114 145 185 233 278 322
#     4   9  19  36  57  84 120 157 190 225 267 320
#     4  11  21  37  58  78 104 140 186 233 286 349
#
# _framework density 20.237596
#
# number of rings (size 3 to 8) (size 9 to 14) (size 15 to 20)
#    0.000    2.000    1.429    3.214    0.000    4.286 
#    0.000    1.786    0.000    5.143    0.000    3.000 
#    0.000    0.000    0.000    0.000    0.000    0.000 
#
# Total GULP energy -312116.558206 kJ/mol
# GULP energy per Si atom -5573.509968 kJ/mol
# Density = 2.019153 g / cm^3
# Si number density = 20.237596 Si / 1000 Ang^3
#
#
#
# Elastic Constant Matrix: (Units=GPa)
#
#
# Indices 1 2 3 4 5 6 
#
# 1 166.9021 65.4986 10.3012 0.0000 0.0000 0.0000
# 2 65.4986 121.7161 6.1442 0.0000 0.0000 0.0000
# 3 10.3012 6.1442 17.0359 0.0000 0.0000 0.0000
# 4 0.0000 0.0000 0.0000 28.0667 0.0000 0.0000
# 5 0.0000 0.0000 0.0000 0.0000 14.5866 0.0000
# 6 0.0000 0.0000 0.0000 0.0000 0.0000 1.1744
#
#
#
# Elastic Compliance Matrix: (Units=1/GPa)
#
#
# Indices 1 2 3 4 5 6 
#
# 1 0.007768 -0.004016 -0.003249 0.000000 0.000000 0.000000
# 2 -0.004016 0.010445 -0.001338 0.000000 0.000000 0.000000
# 3 -0.003249 -0.001338 0.061147 0.000000 0.000000 0.000000
# 4 0.000000 0.000000 0.000000 0.035629 0.000000 0.000000
# 5 0.000000 0.000000 0.000000 0.000000 0.068556 0.000000
# 6 0.000000 0.000000 0.000000 0.000000 0.000000 0.851509
#
#
# Mechanical properties :
#
#
# Convention : Reuss Voigt Hill
#
# Bulk Modulus (GPa) = 16.08942 52.17134 34.13038
# Shear Modulus (GPa) = 4.65992 23.67954 14.16973
#
# Velocity S-wave (km/s) = 1.51908 3.42435 2.64894
# Velocity P-wave (km/s) = 3.32330 6.43974 5.12419
#
# Compressibility (1/GPa) = 0.06215265
#
# Stress axis : x y z
#
# Youngs Moduli (GPa) = 128.73028 95.74275 16.35412
#
# Poissons Ratio (x) = 0.38453 0.05313
# Poissons Ratio (y) = 0.51701 0.02189
# Poissons Ratio (z) = 0.41821 0.12815
#
# Static dielectric constant tensor:
#      x y z
#    x 1.735620 0.000000 0.000000 
#    y 0.000000 1.744210 0.000000 
#    z 0.000000 0.000000 1.751180 
# 
# From -- ./inp_files/7418.got.cif
#   From: 2010.05.17/outbox.cif.g08.bks.cpg/sg47_4_cif.got.tgz:7418.got - 2010.06.03 20:15:42.
