data_PCOD9383047
_publ_section_title
;
Structure prediction by ZEFSAII (Michael W. Deem and Ramdas Pophale) SiO2 
 PCOD9383047
Probable space group: P M M M
;
_chemical_formula_sum "Si O2"
_cell_formula_units_Z 52
_cell_length_a 16.933390
_cell_length_b 12.523126
_cell_length_c 13.883444
_cell_angle_alpha 90.000000
_cell_angle_beta 90.000000
_cell_angle_gamma 90.000000
_cell_volume 2944.108926
_symmetry_space_group_name_H-M "P M M M"
_symmetry_group_IT_number 47
_symmetry_cell_setting 'orthorhombic'
loop_
_space_group_symop_operation_xyz
x,y,z
-x,-y,z
x,-y,-z
-x,y,-z
-x,-y,-z
x,y,-z
-x,y,z
x,-y,z
loop_
_atom_site_type_symbol
_atom_site_label
_atom_site_fract_x
_atom_site_fract_y
_atom_site_fract_z
Si Si1 0.586957 0.769592 0.730801
Si Si2 0.247950 0.000000 0.386301
Si Si3 0.339375 0.625774 0.889710
Si Si4 0.910332 0.802590 0.113729
Si Si5 0.750036 0.236841 0.615411
Si Si6 0.825077 0.625179 0.776370
Si Si7 0.633470 0.000000 0.764722
Si Si8 0.794762 0.000000 0.885986
O O1 0.500000 0.751972 0.688606
O O2 0.604266 0.688700 0.817720
O O3 0.660111 0.758827 0.656392
O O4 0.590613 0.888410 0.776170
O O5 0.216821 0.117557 0.358157
O O6 0.247191 0.000000 0.500000
O O7 0.336634 0.000000 0.345886
O O8 0.357786 0.500000 0.888290
O O9 0.251092 0.638028 0.846830
O O10 0.342611 0.663852 0.000000
O O11 0.891713 0.698979 0.176850
O O12 0.847432 0.895686 0.134977
O O13 0.000000 0.840565 0.129491
O O14 0.902674 0.776789 0.000000
O O15 0.751782 0.249643 0.500000
O O16 0.798539 0.324998 0.674298
O O17 0.843955 0.500000 0.769951
O O18 0.714125 0.000000 0.826361
O O19 0.777182 0.000000 0.000000
#
# Coordination Sequence:
#
# PCOD9383047 Si02
#       8
#     8   4   8   8   8   8   4   4
#     4  10  20  32  47  71 102 131 165 211 260 309
#     4   8  14  27  48  72  92 112 150 202 247 289
#     4   9  18  33  51  68  89 124 171 216 253 292
#     4  10  20  33  52  80 111 139 167 205 255 305
#     4   9  18  33  53  75  98 129 170 212 256 305
#     4  10  20  33  51  75 102 134 173 212 249 299
#     4  10  19  31  48  70 100 137 168 198 245 302
#     4  10  19  33  53  75 103 139 178 214 248 295
#
# _framework density 17.662389999999998
#
# number of rings (size 3 to 8) (size 9 to 14) (size 15 to 20)
#    0.000    2.462    0.000    3.692    0.000    5.231 
#    0.000    1.538    0.000    6.462    0.000    5.385 
#    0.000    9.846    0.000    0.000    0.000    0.000 
#
# Total GULP energy -289703.922225 kJ/mol
# GULP energy per Si atom -5571.229274 kJ/mol
# Density = 1.762219 g / cm^3
# Si number density = 17.662390 Si / 1000 Ang^3
#
#
#
# Elastic Constant Matrix: (Units=GPa)
#
#
# Indices 1 2 3 4 5 6 
#
# 1 36.1765 0.9403 9.0477 0.0000 0.0000 0.0000
# 2 0.9403 62.9746 23.3628 0.0000 0.0000 0.0000
# 3 9.0477 23.3628 81.8113 0.0000 0.0000 0.0000
# 4 0.0000 0.0000 0.0000 28.2509 0.0000 0.0000
# 5 0.0000 0.0000 0.0000 0.0000 11.7015 0.0000
# 6 0.0000 0.0000 0.0000 0.0000 0.0000 41.3686
#
#
#
# Elastic Compliance Matrix: (Units=1/GPa)
#
#
# Indices 1 2 3 4 5 6 
#
# 1 0.028467 0.000831 -0.003386 0.000000 0.000000 0.000000
# 2 0.000831 0.017785 -0.005171 0.000000 0.000000 0.000000
# 3 -0.003386 -0.005171 0.014074 0.000000 0.000000 0.000000
# 4 0.000000 0.000000 0.000000 0.035397 0.000000 0.000000
# 5 0.000000 0.000000 0.000000 0.000000 0.085459 0.000000
# 6 0.000000 0.000000 0.000000 0.000000 0.000000 0.024173
#
#
# Mechanical properties :
#
#
# Convention : Reuss Voigt Hill
#
# Bulk Modulus (GPa) = 22.28357 27.51821 24.90089
# Shear Modulus (GPa) = 21.20745 26.10496 23.65620
#
# Velocity S-wave (km/s) = 3.46889 3.84864 3.66369
# Velocity P-wave (km/s) = 5.35612 5.94671 5.65912
#
# Compressibility (1/GPa) = 0.04487612
#
# Stress axis : x y z
#
# Youngs Moduli (GPa) = 35.12789 56.22617 71.05151
#
# Poissons Ratio (x) = -0.04672 0.24055
# Poissons Ratio (y) = -0.02919 0.36740
# Poissons Ratio (z) = 0.11893 0.29074
#
# Static dielectric constant tensor:
#      x y z
#    x 1.594670 0.000000 0.000000 
#    y 0.000000 1.628550 0.000000 
#    z 0.000000 0.000000 1.595970 
# 
# From -- ./inp_files/24655.got.cif
#   From: 2010.05.17/outbox.cif.g08.bks.cpg/sg47_13_cif.got.tgz:24655.got - 2010.06.03 20:15:42.
