data_PCOD9383418
_publ_section_title
;
Structure prediction by ZEFSAII (Michael W. Deem and Ramdas Pophale) SiO2 
 PCOD9383418
Probable space group: P M M M
;
_chemical_formula_sum "Si O2"
_cell_formula_units_Z 36
_cell_length_a 7.367480
_cell_length_b 9.951964
_cell_length_c 22.369699
_cell_angle_alpha 90.000000
_cell_angle_beta 90.000000
_cell_angle_gamma 90.000000
_cell_volume 1640.166368
_symmetry_space_group_name_H-M "P M M M"
_symmetry_group_IT_number 47
_symmetry_cell_setting 'orthorhombic'
loop_
_space_group_symop_operation_xyz
x,y,z
-x,-y,z
x,-y,-z
-x,y,-z
-x,-y,-z
x,y,-z
-x,y,z
x,-y,z
loop_
_atom_site_type_symbol
_atom_site_label
_atom_site_fract_x
_atom_site_fract_y
_atom_site_fract_z
Si Si1 0.778460 0.500000 0.067542
Si Si2 0.221972 0.000000 0.930412
Si Si3 0.279343 0.657610 0.500000
Si Si4 0.278352 0.157100 0.612674
Si Si5 0.712528 0.345703 0.280252
Si Si6 0.218898 0.253043 0.853234
O O1 0.720274 0.373982 0.105354
O O2 0.000000 0.500000 0.065862
O O3 0.715475 0.500000 0.000000
O O4 0.279877 0.875655 0.889897
O O5 0.000000 0.000000 0.933054
O O6 0.280865 0.000000 0.000000
O O7 0.219750 0.500000 0.500000
O O8 0.500000 0.652182 0.500000
O O9 0.225404 0.746895 0.442668
O O10 0.500000 0.151709 0.612710
O O11 0.216018 0.238416 0.671598
O O12 0.219680 0.000000 0.609320
O O13 0.500000 0.359092 0.294582
O O14 0.786461 0.500000 0.281207
O O15 0.726185 0.281946 0.214471
O O16 0.000000 0.249667 0.852003
#
# Coordination Sequence:
#
# PCOD9383418 Si02
#       6
#     4   4   4   8   8   8
#     4   9  16  28  49  73  93 118 157 202 244 287
#     4   9  18  32  51  75  99 122 155 204 254 295
#     4   9  15  25  43  67  96 127 162 205 246 282
#     4   9  17  28  44  67  95 129 166 202 241 288
#     4  10  20  33  48  69 100 134 165 199 244 293
#     4  10  19  32  51  74  98 125 161 203 246 293
#
# _framework density 21.948990999999999
#
# number of rings (size 3 to 8) (size 9 to 14) (size 15 to 20)
#    0.000    2.556    1.111    1.667    1.556    6.667 
#    0.000    0.000    0.000    4.000    0.000    0.778 
#    0.000    4.444    0.000    0.000    0.000    0.000 
#
# Total GULP energy -200866.857871 kJ/mol
# GULP energy per Si atom -5579.634941 kJ/mol
# Density = 2.189903 g / cm^3
# Si number density = 21.948991 Si / 1000 Ang^3
#
#
#
# Elastic Constant Matrix: (Units=GPa)
#
#
# Indices 1 2 3 4 5 6 
#
# 1 76.8776 6.8549 -5.2568 0.0000 0.0000 0.0000
# 2 6.8549 278.0134 149.9483 0.0000 0.0000 0.0000
# 3 -5.2568 149.9483 240.9539 0.0000 0.0000 0.0000
# 4 0.0000 0.0000 0.0000 38.2987 0.0000 0.0000
# 5 0.0000 0.0000 0.0000 0.0000 19.8073 0.0000
# 6 0.0000 0.0000 0.0000 0.0000 0.0000 637.3793
#
#
#
# Elastic Compliance Matrix: (Units=1/GPa)
#
#
# Indices 1 2 3 4 5 6 
#
# 1 0.013122 -0.000719 0.000734 0.000000 0.000000 0.000000
# 2 -0.000719 0.005454 -0.003410 0.000000 0.000000 0.000000
# 3 0.000734 -0.003410 0.006288 0.000000 0.000000 0.000000
# 4 0.000000 0.000000 0.000000 0.026111 0.000000 0.000000
# 5 0.000000 0.000000 0.000000 0.000000 0.050486 0.000000
# 6 0.000000 0.000000 0.000000 0.000000 0.000000 0.001569
#
#
# Mechanical properties :
#
#
# Convention : Reuss Voigt Hill
#
# Bulk Modulus (GPa) = 55.32910 99.88197 77.60554
# Shear Modulus (GPa) = 43.16142 168.71695 105.93919
#
# Velocity S-wave (km/s) = 4.43927 8.77694 6.95492
# Velocity P-wave (km/s) = 7.17906 12.17859 9.99642
#
# Compressibility (1/GPa) = 0.01807367
#
# Stress axis : x y z
#
# Youngs Moduli (GPa) = 76.20770 183.36303 159.03314
#
# Poissons Ratio (x) = 0.13192 -0.11673
# Poissons Ratio (y) = 0.05483 0.54223
# Poissons Ratio (z) = -0.05594 0.62519
#
# Static dielectric constant tensor:
#      x y z
#    x 1.891560 0.000000 0.000000 
#    y 0.000000 1.789250 0.000000 
#    z 0.000000 0.000000 1.762270 
# 
# From -- ./inp_files/30280.got.cif
#   From: 2010.05.17/outbox.cif.g08.bks.cpg/sg47_16_cif.got.tgz:30280.got - 2010.06.03 20:15:42.
