data_PCOD9383021
_publ_section_title
;
Structure prediction by ZEFSAII (Michael W. Deem and Ramdas Pophale) SiO2 
 PCOD9383021
Probable space group: P M M M
;
_chemical_formula_sum "Si O2"
_cell_formula_units_Z 64
_cell_length_a 8.598971
_cell_length_b 20.540396
_cell_length_c 21.044804
_cell_angle_alpha 90.000000
_cell_angle_beta 90.000000
_cell_angle_gamma 90.000000
_cell_volume 3717.065224
_symmetry_space_group_name_H-M "P M M M"
_symmetry_group_IT_number 47
_symmetry_cell_setting 'orthorhombic'
loop_
_space_group_symop_operation_xyz
x,y,z
-x,-y,z
x,-y,-z
-x,y,-z
-x,-y,-z
x,y,-z
-x,y,z
x,-y,z
loop_
_atom_site_type_symbol
_atom_site_label
_atom_site_fract_x
_atom_site_fract_y
_atom_site_fract_z
Si Si1 0.687426 0.154311 0.430873
Si Si2 0.309920 0.925133 0.692016
Si Si3 0.185805 0.288852 0.760035
Si Si4 0.813616 0.570279 0.254225
Si Si5 0.814757 0.291320 0.390889
Si Si6 0.314614 0.841985 0.186152
Si Si7 0.187475 0.926115 0.073153
Si Si8 0.684711 0.571210 0.396742
O O1 0.738021 0.129409 0.500000
O O2 0.500000 0.153053 0.429065
O O3 0.743733 0.111785 0.371476
O O4 0.740688 0.228596 0.423110
O O5 0.500000 0.924645 0.691675
O O6 0.258698 0.885589 0.754072
O O7 0.260087 0.000000 0.693770
O O8 0.226909 0.362682 0.780558
O O9 0.226183 0.285976 0.684639
O O10 0.264875 0.231581 0.798847
O O11 0.000000 0.280647 0.764898
O O12 0.784547 0.500000 0.222965
O O13 0.725961 0.569936 0.321585
O O14 0.000000 0.574124 0.268121
O O15 0.758743 0.360752 0.418157
O O16 0.000000 0.288664 0.395823
O O17 0.500000 0.845485 0.184365
O O18 0.249576 0.873425 0.122155
O O19 0.000000 0.925339 0.074657
O O20 0.237833 0.000000 0.090792
O O21 0.235328 0.914509 0.000000
O O22 0.500000 0.574595 0.406078
O O23 0.738575 0.500000 0.421670
#
# Coordination Sequence:
#
# PCOD9383021 Si02
#       8
#     8   8   8   8   8   8   8   8
#     4  10  20  34  52  71  92 122 160 203 250 300
#     4   9  18  32  49  72  99 124 155 198 247 293
#     4   9  17  28  44  67  95 129 166 201 242 291
#     4   8  14  25  40  61  92 128 164 201 242 286
#     4  10  19  31  48  67  92 125 160 200 243 292
#     4  11  20  30  49  75 105 135 163 204 246 284
#     4   9  19  36  55  74 100 135 170 203 242 291
#     4   9  16  25  41  66  93 120 152 192 238 289
#
# _framework density 17.217883
#
# number of rings (size 3 to 8) (size 9 to 14) (size 15 to 20)
#    0.000    2.625    1.250    2.625    0.000    4.250 
#    0.000    1.875    0.000    1.500    0.000    3.500 
#    0.000    0.500    0.000    5.750    0.000    1.750 
#
# Total GULP energy -356678.273516 kJ/mol
# GULP energy per Si atom -5573.098024 kJ/mol
# Density = 1.717869 g / cm^3
# Si number density = 17.217883 Si / 1000 Ang^3
#
#
#
# Elastic Constant Matrix: (Units=GPa)
#
#
# Indices 1 2 3 4 5 6 
#
# 1 9.7978 15.8774 18.7254 0.0000 0.0000 0.0000
# 2 15.8774 135.6625 55.2141 0.0000 0.0000 0.0000
# 3 18.7254 55.2141 75.0986 0.0000 0.0000 0.0000
# 4 0.0000 0.0000 0.0000 -201.4340 0.0000 0.0000
# 5 0.0000 0.0000 0.0000 0.0000 10.2665 0.0000
# 6 0.0000 0.0000 0.0000 0.0000 0.0000 19.9180
#
#
#
# Elastic Compliance Matrix: (Units=1/GPa)
#
#
# Indices 1 2 3 4 5 6 
#
# 1 0.196776 -0.004368 -0.045854 0.000000 0.000000 0.000000
# 2 -0.004368 0.010616 -0.006716 0.000000 0.000000 0.000000
# 3 -0.045854 -0.006716 0.029687 0.000000 0.000000 0.000000
# 4 0.000000 0.000000 0.000000 -0.004964 0.000000 0.000000
# 5 0.000000 0.000000 0.000000 0.000000 0.097404 0.000000
# 6 0.000000 0.000000 0.000000 0.000000 0.000000 0.050206
#
#
# Mechanical properties :
#
#
# Convention : Reuss Voigt Hill
#
# Bulk Modulus (GPa) = 8.11662 44.46586 26.29124
# Shear Modulus (GPa) = 9.35162 -25.53377 -8.09107
#
# Velocity S-wave (km/s) = 2.33305 -3.85513 -2.17012
# Velocity P-wave (km/s) = 3.46147 2.46282 3.00394
#
# Compressibility (1/GPa) = 0.12320400
#
# Stress axis : x y z
#
# Youngs Moduli (GPa) = 5.08193 94.19973 33.68495
#
# Poissons Ratio (x) = 0.41142 1.54458
# Poissons Ratio (y) = 0.02220 0.22622
# Poissons Ratio (z) = 0.23303 0.63264
#
# Static dielectric constant tensor:
#      x y z
#    x 1.579860 0.000000 0.000000 
#    y 0.000000 1.611880 0.000000 
#    z 0.000000 0.000000 1.576890 
# 
# From -- ./inp_files/30018.got.cif
#   From: 2010.05.17/outbox.cif.g08.bks.cpg/sg47_16_cif.got.tgz:30018.got - 2010.06.03 20:15:42.
