data_PCOD9383114
_publ_section_title
;
Structure prediction by ZEFSAII (Michael W. Deem and Ramdas Pophale) SiO2 
 PCOD9383114
Probable space group: P M M M
;
_chemical_formula_sum "Si O2"
_cell_formula_units_Z 56
_cell_length_a 8.695221
_cell_length_b 19.008413
_cell_length_c 19.499332
_cell_angle_alpha 90.000000
_cell_angle_beta 90.000000
_cell_angle_gamma 90.000000
_cell_volume 3222.895453
_symmetry_space_group_name_H-M "P M M M"
_symmetry_group_IT_number 47
_symmetry_cell_setting 'orthorhombic'
loop_
_space_group_symop_operation_xyz
x,y,z
-x,-y,z
x,-y,-z
-x,y,-z
-x,-y,-z
x,y,-z
-x,y,z
x,-y,z
loop_
_atom_site_type_symbol
_atom_site_label
_atom_site_fract_x
_atom_site_fract_y
_atom_site_fract_z
Si Si1 0.817563 0.340591 0.577976
Si Si2 0.683743 0.183622 0.577613
Si Si3 0.315815 0.714304 0.791275
Si Si4 0.685377 0.579579 0.294021
Si Si5 0.817129 0.148910 0.282450
Si Si6 0.316049 0.079753 0.848670
Si Si7 0.184008 0.784468 0.920987
O O1 0.790841 0.365600 0.500000
O O2 0.735352 0.265037 0.584936
O O3 0.755028 0.393512 0.634590
O O4 0.000000 0.329882 0.587118
O O5 0.726771 0.161667 0.500000
O O6 0.500000 0.179775 0.584269
O O7 0.761352 0.141775 0.639601
O O8 0.500000 0.722994 0.786299
O O9 0.272974 0.637767 0.762843
O O10 0.237400 0.774205 0.744361
O O11 0.261561 0.730470 0.868137
O O12 0.500000 0.580554 0.299823
O O13 0.734032 0.500000 0.278334
O O14 0.740203 0.095727 0.228599
O O15 0.000000 0.144107 0.277860
O O16 0.500000 0.088555 0.851573
O O17 0.238451 0.138438 0.896280
O O18 0.277254 0.000000 0.868232
O O19 0.000000 0.780314 0.913961
O O20 0.225910 0.772755 0.000000
#
# Coordination Sequence:
#
# PCOD9383114 Si02
#       7
#     8   8   8   8   8   8   8
#     4  10  20  32  47  70 100 134 173 218 268 317
#     4  10  19  31  49  72  99 133 174 220 266 310
#     4  10  19  33  54  76 101 133 173 217 255 304
#     4  10  21  35  51  72 100 137 177 218 267 318
#     4  11  20  31  52  77 104 136 172 216 261 307
#     4  10  21  36  55  80 110 143 176 207 243 296
#     4  10  21  36  56  82 110 139 169 205 252 305
#
# _framework density 17.375679999999999
#
# number of rings (size 3 to 8) (size 9 to 14) (size 15 to 20)
#    0.000    1.857    1.429    5.143    0.000    5.429 
#    0.000    2.857    0.000    0.857    0.000    6.000 
#    0.000    0.000    0.000    0.000    0.000    0.000 
#
# Total GULP energy -312622.079311 kJ/mol
# GULP energy per Si atom -5582.537131 kJ/mol
# Density = 1.733613 g / cm^3
# Si number density = 17.375680 Si / 1000 Ang^3
#
#
#
# Elastic Constant Matrix: (Units=GPa)
#
#
# Indices 1 2 3 4 5 6 
#
# 1 34.8131 7.3094 16.9469 0.0000 0.0000 0.0000
# 2 7.3094 38.5128 19.0334 0.0000 0.0000 0.0000
# 3 16.9469 19.0334 103.2059 0.0000 0.0000 0.0000
# 4 0.0000 0.0000 0.0000 14.4577 0.0000 0.0000
# 5 0.0000 0.0000 0.0000 0.0000 30.7102 0.0000
# 6 0.0000 0.0000 0.0000 0.0000 0.0000 -73.6859
#
#
#
# Elastic Compliance Matrix: (Units=1/GPa)
#
#
# Indices 1 2 3 4 5 6 
#
# 1 0.031716 -0.003791 -0.004509 0.000000 0.000000 0.000000
# 2 -0.003791 0.029023 -0.004730 0.000000 0.000000 0.000000
# 3 -0.004509 -0.004730 0.011302 0.000000 0.000000 0.000000
# 4 0.000000 0.000000 0.000000 0.069167 0.000000 0.000000
# 5 0.000000 0.000000 0.000000 0.000000 0.032562 0.000000
# 6 0.000000 0.000000 0.000000 0.000000 0.000000 -0.013571
#
#
# Mechanical properties :
#
#
# Convention : Reuss Voigt Hill
#
# Bulk Modulus (GPa) = 21.74823 29.23457 25.49140
# Shear Modulus (GPa) = 24.80340 3.17919 13.99130
#
# Velocity S-wave (km/s) = 3.78230 1.35412 2.84072
# Velocity P-wave (km/s) = 5.62299 4.39390 5.04601
#
# Compressibility (1/GPa) = 0.04598076
#
# Stress axis : x y z
#
# Youngs Moduli (GPa) = 31.53018 34.45602 88.47989
#
# Poissons Ratio (x) = 0.13063 0.39893
# Poissons Ratio (y) = 0.11954 0.41850
# Poissons Ratio (z) = 0.14216 0.16297
#
# Static dielectric constant tensor:
#      x y z
#    x 1.583070 0.000000 0.000000 
#    y 0.000000 1.576060 0.000000 
#    z 0.000000 0.000000 1.598870 
# 
# From -- ./inp_files/26935.got.cif
#   From: 2010.05.17/outbox.cif.g08.bks.cpg/sg47_14_cif.got.tgz:26935.got - 2010.06.03 20:15:42.
