data_PCOD9383279
_publ_section_title
;
Structure prediction by ZEFSAII (Michael W. Deem and Ramdas Pophale) SiO2 
 PCOD9383279
Probable space group: P M M M
;
_chemical_formula_sum "Si O2"
_cell_formula_units_Z 64
_cell_length_a 18.859345
_cell_length_b 14.415843
_cell_length_c 15.042876
_cell_angle_alpha 90.000000
_cell_angle_beta 90.000000
_cell_angle_gamma 90.000000
_cell_volume 4089.757191
_symmetry_space_group_name_H-M "P M M M"
_symmetry_group_IT_number 47
_symmetry_cell_setting 'orthorhombic'
loop_
_space_group_symop_operation_xyz
x,y,z
-x,-y,z
x,-y,-z
-x,y,-z
-x,-y,-z
x,y,-z
-x,y,z
x,-y,z
loop_
_atom_site_type_symbol
_atom_site_label
_atom_site_fract_x
_atom_site_fract_y
_atom_site_fract_z
Si Si1 0.641203 0.387494 0.900452
Si Si2 0.141571 0.389259 0.397188
Si Si3 0.580302 0.611808 0.285603
Si Si4 0.770436 0.103035 0.605874
Si Si5 0.921298 0.105739 0.689728
Si Si6 0.195877 0.391263 0.894462
Si Si7 0.920421 0.296207 0.773728
Si Si8 0.706546 0.704307 0.393788
O O1 0.641057 0.500000 0.904388
O O2 0.592564 0.361653 0.817740
O O3 0.722706 0.360841 0.879875
O O4 0.621937 0.354923 0.000000
O O5 0.124692 0.364843 0.500000
O O6 0.135627 0.500000 0.387602
O O7 0.093915 0.338261 0.324405
O O8 0.222656 0.357319 0.380289
O O9 0.500000 0.634213 0.312802
O O10 0.589261 0.500000 0.292266
O O11 0.640032 0.661203 0.343690
O O12 0.761989 0.101853 0.500000
O O13 0.853647 0.117878 0.626517
O O14 0.726514 0.191785 0.638443
O O15 0.750856 0.000000 0.640156
O O16 0.915559 0.185395 0.763177
O O17 0.000000 0.116956 0.647919
O O18 0.917817 0.000000 0.723641
O O19 0.191038 0.500000 0.869597
O O20 0.139339 0.335369 0.838028
O O21 0.182630 0.384148 0.000000
O O22 0.000000 0.321447 0.802457
O O23 0.693467 0.706407 0.500000
#
# Coordination Sequence:
#
# PCOD9383279 Si02
#       8
#     8   8   8   8   8   8   8   8
#     4   8  15  29  48  68  91 120 152 189 233 276
#     4  10  20  32  45  63  89 125 165 196 227 275
#     4  10  20  31  46  71 100 129 159 189 225 277
#     4   9  17  30  49  71  91 116 157 204 247 286
#     4   9  18  31  46  67  94 121 152 196 250 299
#     4   9  18  32  49  69  93 123 161 200 234 274
#     4  11  21  31  46  66  91 125 160 198 245 285
#     4  10  19  32  48  66  92 126 160 196 235 273
#
# _framework density 15.648851000000001
#
# number of rings (size 3 to 8) (size 9 to 14) (size 15 to 20)
#    0.000    2.500    1.250    2.250    0.000    4.000 
#    0.000    5.625    0.000    0.750    0.000    3.500 
#    0.000    0.500    0.000    1.125    0.000    0.125 
#
# Total GULP energy -356536.772067 kJ/mol
# GULP energy per Si atom -5570.887064 kJ/mol
# Density = 1.561323 g / cm^3
# Si number density = 15.648851 Si / 1000 Ang^3
#
#
#
# Elastic Constant Matrix: (Units=GPa)
#
#
# Indices 1 2 3 4 5 6 
#
# 1 59.9893 27.9652 21.5188 0.0000 0.0000 0.0000
# 2 27.9652 62.1206 13.6749 0.0000 0.0000 0.0000
# 3 21.5188 13.6749 20.9411 0.0000 0.0000 0.0000
# 4 0.0000 0.0000 0.0000 11.0799 0.0000 0.0000
# 5 0.0000 0.0000 0.0000 0.0000 2.1752 0.0000
# 6 0.0000 0.0000 0.0000 0.0000 0.0000 20.1647
#
#
#
# Elastic Compliance Matrix: (Units=1/GPa)
#
#
# Indices 1 2 3 4 5 6 
#
# 1 0.029208 -0.007640 -0.025024 0.000000 0.000000 0.000000
# 2 -0.007640 0.020799 -0.005731 0.000000 0.000000 0.000000
# 3 -0.025024 -0.005731 0.077210 0.000000 0.000000 0.000000
# 4 0.000000 0.000000 0.000000 0.090253 0.000000 0.000000
# 5 0.000000 0.000000 0.000000 0.000000 0.459736 0.000000
# 6 0.000000 0.000000 0.000000 0.000000 0.000000 0.049592
#
#
# Mechanical properties :
#
#
# Convention : Reuss Voigt Hill
#
# Bulk Modulus (GPa) = 19.83117 29.92985 24.88051
# Shear Modulus (GPa) = 6.09461 12.01011 9.05236
#
# Velocity S-wave (km/s) = 1.97562 2.77334 2.40775
# Velocity P-wave (km/s) = 4.23134 5.42426 4.86451
#
# Compressibility (1/GPa) = 0.05042567
#
# Stress axis : x y z
#
# Youngs Moduli (GPa) = 34.23761 48.08009 12.95161
#
# Poissons Ratio (x) = 0.36732 0.32411
# Poissons Ratio (y) = 0.26157 0.07423
# Poissons Ratio (z) = 0.85678 0.27556
#
# Static dielectric constant tensor:
#      x y z
#    x 1.516630 0.000000 0.000000 
#    y 0.000000 1.535750 0.000000 
#    z 0.000000 0.000000 1.525300 
# 
# From -- ./inp_files/24105.got.cif
#   From: 2010.05.17/outbox.cif.g08.bks.cpg/sg47_13_cif.got.tgz:24105.got - 2010.06.03 20:15:42.
