data_PCOD9383411
_publ_section_title
;
Structure prediction by ZEFSAII (Michael W. Deem and Ramdas Pophale) SiO2 
 PCOD9383411
Probable space group: P M M M
;
_chemical_formula_sum "Si O2"
_cell_formula_units_Z 56
_cell_length_a 15.756390
_cell_length_b 12.958449
_cell_length_c 13.188986
_cell_angle_alpha 90.000000
_cell_angle_beta 90.000000
_cell_angle_gamma 90.000000
_cell_volume 2692.905746
_symmetry_space_group_name_H-M "P M M M"
_symmetry_group_IT_number 47
_symmetry_cell_setting 'orthorhombic'
loop_
_space_group_symop_operation_xyz
x,y,z
-x,-y,z
x,-y,-z
-x,y,-z
-x,-y,-z
x,y,-z
-x,y,z
x,-y,z
loop_
_atom_site_type_symbol
_atom_site_label
_atom_site_fract_x
_atom_site_fract_y
_atom_site_fract_z
Si Si1 0.649748 0.613455 0.173170
Si Si2 0.908615 0.649427 0.618869
Si Si3 0.849448 0.615750 0.119381
Si Si4 0.403239 0.834866 0.115114
Si Si5 0.269781 0.888275 0.287281
Si Si6 0.908161 0.816864 0.761592
Si Si7 0.718309 0.664395 0.381108
O O1 0.619524 0.500000 0.143418
O O2 0.747953 0.624668 0.136772
O O3 0.601272 0.710695 0.128566
O O4 0.654800 0.621939 0.295942
O O5 0.910479 0.631606 0.500000
O O6 0.910548 0.770364 0.647771
O O7 0.812263 0.619279 0.646956
O O8 0.000000 0.609964 0.658698
O O9 0.875500 0.500000 0.152604
O O10 0.894223 0.711009 0.174777
O O11 0.866124 0.623174 0.000000
O O12 0.500000 0.868826 0.130860
O O13 0.339933 0.877684 0.199445
O O14 0.377737 0.860894 0.000000
O O15 0.177476 0.880651 0.233561
O O16 0.278612 0.787724 0.358650
O O17 0.277564 0.000000 0.337808
O O18 0.000000 0.862830 0.786287
O O19 0.701659 0.644556 0.500000
#
# Coordination Sequence:
#
# PCOD9383411 Si02
#       7
#     8   8   8   8   8   8   8
#     4  10  19  33  54  83 114 144 176 214 268 328
#     4   8  13  24  44  67  94 131 173 220 271 313
#     4  10  19  32  51  74 103 140 181 223 266 317
#     4  10  21  38  61  87 111 139 179 225 278 335
#     4  10  21  37  55  80 112 145 183 232 285 330
#     4  10  19  33  52  76 107 146 187 227 272 325
#     4   9  17  32  53  79 109 143 184 226 269 325
#
# _framework density 20.795382
#
# number of rings (size 3 to 8) (size 9 to 14) (size 15 to 20)
#    0.000    2.429    4.286    0.429    0.000    3.143 
#    0.000    2.143    0.000    7.714    0.000   24.000 
#    0.000    0.000    0.000    0.000    0.000    0.000 
#
# Total GULP energy -311933.592816 kJ/mol
# GULP energy per Si atom -5570.242729 kJ/mol
# Density = 2.074805 g / cm^3
# Si number density = 20.795382 Si / 1000 Ang^3
#
#
#
# Elastic Constant Matrix: (Units=GPa)
#
#
# Indices 1 2 3 4 5 6 
#
# 1 58.1711 -0.5362 6.4078 0.0000 0.0000 0.0000
# 2 -0.5362 97.7900 -4.4717 0.0000 0.0000 0.0000
# 3 6.4078 -4.4717 63.4705 0.0000 0.0000 0.0000
# 4 0.0000 0.0000 0.0000 0.3580 0.0000 0.0000
# 5 0.0000 0.0000 0.0000 0.0000 20.9515 0.0000
# 6 0.0000 0.0000 0.0000 0.0000 0.0000 -6.4746
#
#
#
# Elastic Compliance Matrix: (Units=1/GPa)
#
#
# Indices 1 2 3 4 5 6 
#
# 1 0.017384 0.000015 -0.001754 0.000000 0.000000 0.000000
# 2 0.000015 0.010259 0.000721 0.000000 0.000000 0.000000
# 3 -0.001754 0.000721 0.015983 0.000000 0.000000 0.000000
# 4 0.000000 0.000000 0.000000 2.793337 0.000000 0.000000
# 5 0.000000 0.000000 0.000000 0.000000 0.047729 0.000000
# 6 0.000000 0.000000 0.000000 0.000000 0.000000 -0.154451
#
#
# Mechanical properties :
#
#
# Convention : Reuss Voigt Hill
#
# Bulk Modulus (GPa) = 24.04360 24.69238 24.36799
# Shear Modulus (GPa) = 1.82074 17.50243 9.66159
#
# Velocity S-wave (km/s) = 0.93672 2.90427 2.15780
# Velocity P-wave (km/s) = 3.57170 4.81104 4.23693
#
# Compressibility (1/GPa) = 0.04159110
#
# Stress axis : x y z
#
# Youngs Moduli (GPa) = 57.52407 97.47481 62.56553
#
# Poissons Ratio (x) = -0.00147 0.10974
# Poissons Ratio (y) = -0.00087 -0.04513
# Poissons Ratio (z) = 0.10090 -0.07030
#
# Static dielectric constant tensor:
#      x y z
#    x 1.770290 0.000000 0.000000 
#    y 0.000000 1.782030 0.000000 
#    z 0.000000 0.000000 1.773140 
# 
# From -- ./inp_files/23838.got.cif
#   From: 2010.05.17/outbox.cif.g08.bks.cpg/sg47_12_cif.got.tgz:23838.got - 2010.06.03 20:15:42.
