data_PCOD9383429
_publ_section_title
;
Structure prediction by ZEFSAII (Michael W. Deem and Ramdas Pophale) SiO2 
 PCOD9383429
Probable space group: P M M M
;
_chemical_formula_sum "Si O2"
_cell_formula_units_Z 48
_cell_length_a 29.911924
_cell_length_b 7.819962
_cell_length_c 10.364648
_cell_angle_alpha 90.000000
_cell_angle_beta 90.000000
_cell_angle_gamma 90.000000
_cell_volume 2424.395944
_symmetry_space_group_name_H-M "P M M M"
_symmetry_group_IT_number 47
_symmetry_cell_setting 'orthorhombic'
loop_
_space_group_symop_operation_xyz
x,y,z
-x,-y,z
x,-y,-z
-x,y,-z
-x,-y,-z
x,y,-z
-x,y,z
x,-y,z
loop_
_atom_site_type_symbol
_atom_site_label
_atom_site_fract_x
_atom_site_fract_y
_atom_site_fract_z
Si Si1 0.550776 0.790905 0.000000
Si Si2 0.703220 0.704487 0.851689
Si Si3 0.774252 0.702969 0.354046
Si Si4 0.050534 0.294003 0.854012
Si Si5 0.447871 0.209433 0.500000
Si Si6 0.606113 0.206904 0.247523
Si Si7 0.124461 0.203319 0.355140
O O1 0.577054 0.735178 0.125902
O O2 0.500000 0.732982 0.000000
O O3 0.550404 0.000000 0.000000
O O4 0.709074 0.500000 0.862252
O O5 0.742559 0.773152 0.758906
O O6 0.656559 0.736577 0.778763
O O7 0.702199 0.771596 0.000000
O O8 0.766649 0.772941 0.500000
O O9 0.765467 0.500000 0.361153
O O10 0.826475 0.726174 0.322592
O O11 0.049389 0.500000 0.857436
O O12 0.086967 0.244602 0.749144
O O13 0.000000 0.234733 0.822595
O O14 0.061348 0.234993 0.000000
O O15 0.500000 0.264101 0.500000
O O16 0.419551 0.264480 0.624469
O O17 0.449044 0.000000 0.500000
O O18 0.606442 0.000000 0.249942
O O19 0.112686 0.265907 0.500000
O O20 0.128899 0.000000 0.360573
#
# Coordination Sequence:
#
# PCOD9383429 Si02
#       7
#     4   8   8   8   4   8   8
#     4   9  16  28  49  73  97 129 167 203 242 295
#     4  10  21  36  53  75 104 135 168 211 262 312
#     4   9  19  36  56  75  98 136 181 219 260 314
#     4   9  19  36  57  81 110 147 191 233 270 314
#     4   9  18  32  51  77 105 131 165 209 252 297
#     4  10  19  32  51  76 102 130 166 208 253 302
#     4  10  21  36  54  81 115 146 178 222 276 327
#
# _framework density 19.798746000000001
#
# number of rings (size 3 to 8) (size 9 to 14) (size 15 to 20)
#    0.000    2.500    0.833    1.500    1.167    5.333 
#    0.000    4.167    0.000    3.000    0.000    0.000 
#    0.000    0.000    0.000    0.000    0.000    0.000 
#
# Total GULP energy -267784.479448 kJ/mol
# GULP energy per Si atom -5578.843322 kJ/mol
# Density = 1.975368 g / cm^3
# Si number density = 19.798746 Si / 1000 Ang^3
#
#
#
# Elastic Constant Matrix: (Units=GPa)
#
#
# Indices 1 2 3 4 5 6 
#
# 1 163.4046 -2.0826 129.9204 0.0000 0.0000 0.0000
# 2 -2.0826 22.4531 6.6822 0.0000 0.0000 0.0000
# 3 129.9204 6.6822 192.3861 0.0000 0.0000 0.0000
# 4 0.0000 0.0000 0.0000 10.8280 0.0000 0.0000
# 5 0.0000 0.0000 0.0000 0.0000 34.5096 0.0000
# 6 0.0000 0.0000 0.0000 0.0000 0.0000 22.2823
#
#
#
# Elastic Compliance Matrix: (Units=1/GPa)
#
#
# Indices 1 2 3 4 5 6 
#
# 1 0.013567 0.004027 -0.009302 0.000000 0.000000 0.000000
# 2 0.004027 0.046197 -0.004324 0.000000 0.000000 0.000000
# 3 -0.009302 -0.004324 0.011629 0.000000 0.000000 0.000000
# 4 0.000000 0.000000 0.000000 0.092353 0.000000 0.000000
# 5 0.000000 0.000000 0.000000 0.000000 0.028977 0.000000
# 6 0.000000 0.000000 0.000000 0.000000 0.000000 0.044879
#
#
# Mechanical properties :
#
#
# Convention : Reuss Voigt Hill
#
# Bulk Modulus (GPa) = 19.15853 71.92042 45.53947
# Shear Modulus (GPa) = 18.23493 29.77223 24.00358
#
# Velocity S-wave (km/s) = 3.03811 3.88202 3.48570
# Velocity P-wave (km/s) = 4.69090 7.51652 6.26508
#
# Compressibility (1/GPa) = 0.05219607
#
# Stress axis : x y z
#
# Youngs Moduli (GPa) = 73.71045 21.64620 85.98836
#
# Poissons Ratio (x) = -0.08716 0.79982
# Poissons Ratio (y) = -0.29680 0.37179
# Poissons Ratio (z) = 0.68562 0.09359
#
# Static dielectric constant tensor:
#      x y z
#    x 1.662260 0.000000 0.000000 
#    y 0.000000 1.731410 0.000000 
#    z 0.000000 0.000000 1.709500 
# 
# From -- ./inp_files/13867.got.cif
#   From: 2010.05.17/outbox.cif.g08.bks.cpg/sg47_7_cif.got.tgz:13867.got - 2010.06.03 20:15:42.
