data_PCOD9383259
_publ_section_title
;
Structure prediction by ZEFSAII (Michael W. Deem and Ramdas Pophale) SiO2 
 PCOD9383259
Probable space group: P M M M
;
_chemical_formula_sum "Si O2"
_cell_formula_units_Z 64
_cell_length_a 16.190000
_cell_length_b 24.447897
_cell_length_c 7.511741
_cell_angle_alpha 90.000000
_cell_angle_beta 90.000000
_cell_angle_gamma 90.000000
_cell_volume 2973.233115
_symmetry_space_group_name_H-M "P M M M"
_symmetry_group_IT_number 47
_symmetry_cell_setting 'orthorhombic'
loop_
_space_group_symop_operation_xyz
x,y,z
-x,-y,z
x,-y,-z
-x,y,-z
-x,-y,-z
x,y,-z
-x,y,z
x,-y,z
loop_
_atom_site_type_symbol
_atom_site_label
_atom_site_fract_x
_atom_site_fract_y
_atom_site_fract_z
Si Si1 0.846341 0.939660 0.714949
Si Si2 0.907178 0.562655 0.285584
Si Si3 0.089054 0.177455 0.208688
Si Si4 0.750574 0.240902 0.780735
Si Si5 0.589314 0.822112 0.791195
Si Si6 0.592904 0.563270 0.217296
Si Si7 0.346161 0.060421 0.714957
Si Si8 0.253153 0.634405 0.789016
O O1 0.848282 0.939148 0.500000
O O2 0.896040 0.887417 0.777989
O O3 0.750096 0.933591 0.768875
O O4 0.874916 0.000000 0.773107
O O5 0.909086 0.561602 0.500000
O O6 0.892069 0.500000 0.225033
O O7 0.832333 0.601876 0.234744
O O8 0.000000 0.578843 0.225509
O O9 0.168360 0.208691 0.282484
O O10 0.000000 0.191566 0.287677
O O11 0.086218 0.191384 0.000000
O O12 0.668483 0.209608 0.718336
O O13 0.751725 0.303690 0.721884
O O14 0.750892 0.239236 0.000000
O O15 0.500000 0.808360 0.712674
O O16 0.604622 0.887010 0.777557
O O17 0.586422 0.808275 0.000000
O O18 0.500000 0.580403 0.271019
O O19 0.604965 0.500000 0.270594
O O20 0.668318 0.600469 0.281802
O O21 0.593868 0.563803 0.000000
O O22 0.348219 0.060846 0.500000
O O23 0.374773 0.000000 0.773106
O O24 0.266911 0.639047 0.000000
#
# Coordination Sequence:
#
# PCOD9383259 Si02
#       8
#     8   8   8   8   8   8   8   8
#     4   9  18  33  53  76 100 125 156 201 256 306
#     4   9  19  36  55  76 107 143 172 205 258 315
#     4  10  20  34  52  71  95 131 169 202 245 305
#     4   9  19  35  50  71 104 135 165 209 258 291
#     4  10  20  34  53  75 100 134 174 210 249 304
#     4   8  14  25  43  72 108 136 159 198 252 300
#     4   9  18  33  53  76 101 129 162 205 260 314
#     4  10  19  31  53  80 103 134 178 220 253 293
#
# _framework density 21.525389000000001
#
# number of rings (size 3 to 8) (size 9 to 14) (size 15 to 20)
#    0.000    2.750    1.250    1.875    0.000    3.500 
#    0.000    9.375    0.000    0.375    0.000    1.750 
#    0.000    0.000    0.000    0.000    0.000    0.000 
#
# Total GULP energy -357252.581398 kJ/mol
# GULP energy per Si atom -5582.071584 kJ/mol
# Density = 2.147640 g / cm^3
# Si number density = 21.525389 Si / 1000 Ang^3
#
#
#
# Elastic Constant Matrix: (Units=GPa)
#
#
# Indices 1 2 3 4 5 6 
#
# 1 209.4629 121.1995 4.9260 0.0000 0.0000 0.0000
# 2 121.1995 144.3343 -3.3216 0.0000 0.0000 0.0000
# 3 4.9260 -3.3216 53.9224 0.0000 0.0000 0.0000
# 4 0.0000 0.0000 0.0000 -0.3955 0.0000 0.0000
# 5 0.0000 0.0000 0.0000 0.0000 16.9213 0.0000
# 6 0.0000 0.0000 0.0000 0.0000 0.0000 -12.6616
#
#
#
# Elastic Compliance Matrix: (Units=1/GPa)
#
#
# Indices 1 2 3 4 5 6 
#
# 1 0.009382 -0.007909 -0.001344 0.000000 0.000000 0.000000
# 2 -0.007909 0.013606 0.001561 0.000000 0.000000 0.000000
# 3 -0.001344 0.001561 0.018764 0.000000 0.000000 0.000000
# 4 0.000000 0.000000 0.000000 -2.528442 0.000000 0.000000
# 5 0.000000 0.000000 0.000000 0.000000 0.059097 0.000000
# 6 0.000000 0.000000 0.000000 0.000000 0.000000 -0.078979
#
#
# Mechanical properties :
#
#
# Convention : Reuss Voigt Hill
#
# Bulk Modulus (GPa) = 37.92727 72.59192 55.25960
# Shear Modulus (GPa) = -2.01418 19.76722 8.87652
#
# Velocity S-wave (km/s) = -0.96838 3.03367 2.03290
# Velocity P-wave (km/s) = 4.05064 6.78734 5.58908
#
# Compressibility (1/GPa) = 0.02636625
#
# Stress axis : x y z
#
# Youngs Moduli (GPa) = 106.58456 73.49784 53.29320
#
# Poissons Ratio (x) = 0.58132 0.07164
# Poissons Ratio (y) = 0.84301 -0.08317
# Poissons Ratio (z) = 0.14328 -0.11471
#
# Static dielectric constant tensor:
#      x y z
#    x 1.783880 0.000000 0.000000 
#    y 0.000000 1.740920 0.000000 
#    z 0.000000 0.000000 1.817170 
# 
# From -- ./inp_files/7870.got.cif
#   From: 2010.05.17/outbox.cif.g08.bks.cpg/sg47_4_cif.got.tgz:7870.got - 2010.06.03 20:15:42.
