data_PCOD9383732
_publ_section_title
;
Structure prediction by ZEFSAII (Michael W. Deem and Ramdas Pophale) SiO2 
 PCOD9383732
Probable space group: P M M M
;
_chemical_formula_sum "Si O2"
_cell_formula_units_Z 41
_cell_length_a 7.324940
_cell_length_b 30.100691
_cell_length_c 8.579596
_cell_angle_alpha 90.000000
_cell_angle_beta 90.000000
_cell_angle_gamma 90.000000
_cell_volume 1891.678706
_symmetry_space_group_name_H-M "P M M M"
_symmetry_group_IT_number 47
_symmetry_cell_setting 'orthorhombic'
loop_
_space_group_symop_operation_xyz
x,y,z
-x,-y,z
x,-y,-z
-x,y,-z
-x,-y,-z
x,y,-z
-x,y,z
x,-y,z
loop_
_atom_site_type_symbol
_atom_site_label
_atom_site_fract_x
_atom_site_fract_y
_atom_site_fract_z
Si Si1 0.777374 0.093418 0.321125
Si Si2 0.222420 0.000000 0.820318
Si Si3 0.000000 0.500000 0.500000
Si Si4 0.721214 0.634559 0.174294
Si Si5 0.218713 0.184979 0.172943
Si Si6 0.722197 0.416568 0.500000
Si Si7 0.283390 0.722183 0.672576
O O1 0.725476 0.097960 0.500000
O O2 0.716346 0.045871 0.256995
O O3 0.714447 0.137130 0.230481
O O4 0.000000 0.092986 0.313380
O O5 0.000000 0.000000 0.811859
O O6 0.273951 0.000000 0.000000
O O7 0.160422 0.538882 0.500000
O O8 0.500000 0.632786 0.168059
O O9 0.767794 0.608804 0.335757
O O10 0.781942 0.685474 0.204913
O O11 0.783069 0.619609 0.000000
O O12 0.256848 0.226945 0.280702
O O13 0.000000 0.181263 0.166948
O O14 0.287196 0.194670 0.000000
O O15 0.500000 0.422575 0.500000
O O16 0.208544 0.713924 0.500000
O O17 0.500000 0.715107 0.664459
#
# Coordination Sequence:
#
# PCOD9383732 Si02
#       7
#     8   4   1   8   8   4   8
#     4   9  16  26  40  58  85 121 164 212 268 329
#     4   9  15  23  37  57  80 113 158 211 266 325
#     4  12  26  44  70 102 132 174 218 252 322 364
#     4   9  17  34  62  89 116 156 200 243 296 350
#     4  10  20  32  45  68 103 140 175 217 275 339
#     4  10  21  43  67  94 131 167 210 262 306 361
#     4  10  19  33  54  81 110 143 189 236 276 333
#
# _framework density 21.673874000000001
#
# number of rings (size 3 to 8) (size 9 to 14) (size 15 to 20)
#    0.000    2.439    0.976    2.195    0.000    5.854 
#    1.756    1.463    0.000    2.341    0.000    0.683 
#    0.000    5.463    0.000    0.000    0.000    0.000 
#
# Total GULP energy -228525.673495 kJ/mol
# GULP energy per Si atom -5573.796915 kJ/mol
# Density = 2.162454 g / cm^3
# Si number density = 21.673874 Si / 1000 Ang^3
#
#
#
# Elastic Constant Matrix: (Units=GPa)
#
#
# Indices 1 2 3 4 5 6 
#
# 1 90.7671 12.5118 10.5086 0.0000 0.0000 0.0000
# 2 12.5118 142.3785 61.6507 0.0000 0.0000 0.0000
# 3 10.5086 61.6507 154.8348 0.0000 0.0000 0.0000
# 4 0.0000 0.0000 0.0000 -5.7392 0.0000 0.0000
# 5 0.0000 0.0000 0.0000 0.0000 -2.4756 0.0000
# 6 0.0000 0.0000 0.0000 0.0000 0.0000 293.1013
#
#
#
# Elastic Compliance Matrix: (Units=1/GPa)
#
#
# Indices 1 2 3 4 5 6 
#
# 1 0.011178 -0.000790 -0.000444 0.000000 0.000000 0.000000
# 2 -0.000790 0.008543 -0.003348 0.000000 0.000000 0.000000
# 3 -0.000444 -0.003348 0.007822 0.000000 0.000000 0.000000
# 4 0.000000 0.000000 0.000000 -0.174241 0.000000 0.000000
# 5 0.000000 0.000000 0.000000 0.000000 -0.403948 0.000000
# 6 0.000000 0.000000 0.000000 0.000000 0.000000 0.003412
#
#
# Mechanical properties :
#
#
# Convention : Reuss Voigt Hill
#
# Bulk Modulus (GPa) = 54.41270 61.92474 58.16872
# Shear Modulus (GPa) = -9.39945 77.19793 33.89924
#
# Velocity S-wave (km/s) = -2.08475 5.97455 3.95911
# Velocity P-wave (km/s) = 4.40055 8.73080 6.91345
#
# Compressibility (1/GPa) = 0.01837806
#
# Stress axis : x y z
#
# Youngs Moduli (GPa) = 89.46529 117.06093 127.85064
#
# Poissons Ratio (x) = 0.09247 0.05678
# Poissons Ratio (y) = 0.07067 0.42802
# Poissons Ratio (z) = 0.03973 0.39189
#
# Static dielectric constant tensor:
#      x y z
#    x 1.939220 0.000000 0.000000 
#    y 0.000000 1.785970 0.000000 
#    z 0.000000 0.000000 1.801540 
# 
# From -- ./inp_files/1908.got.cif
#   From: 2010.05.17/outbox.cif.g08.bks.cpg/sg47_1_cif.got.tgz:1908.got - 2010.06.03 20:15:42.
