data_PCOD9383955
_publ_section_title
;
Structure prediction by ZEFSAII (Michael W. Deem and Ramdas Pophale) SiO2 
 PCOD9383955
Probable space group: P M M M
;
_chemical_formula_sum "Si O2"
_cell_formula_units_Z 41
_cell_length_a 16.606057
_cell_length_b 8.315749
_cell_length_c 13.960924
_cell_angle_alpha 90.000000
_cell_angle_beta 90.000000
_cell_angle_gamma 90.000000
_cell_volume 1927.889151
_symmetry_space_group_name_H-M "P M M M"
_symmetry_group_IT_number 47
_symmetry_cell_setting 'orthorhombic'
loop_
_space_group_symop_operation_xyz
x,y,z
-x,-y,z
x,-y,-z
-x,y,-z
-x,-y,-z
x,y,-z
-x,y,z
x,-y,z
loop_
_atom_site_type_symbol
_atom_site_label
_atom_site_fract_x
_atom_site_fract_y
_atom_site_fract_z
Si Si1 0.235650 0.309979 0.390923
Si Si2 0.837187 0.809502 0.795732
Si Si3 0.500000 0.500000 0.000000
Si Si4 0.673896 0.808219 0.890207
Si Si5 0.500000 0.804030 0.146614
Si Si6 0.411495 0.810313 0.383589
Si Si7 0.000000 0.691125 0.891731
O O1 0.225850 0.250621 0.500000
O O2 0.222024 0.500000 0.389546
O O3 0.177302 0.227752 0.315406
O O4 0.328229 0.276508 0.361266
O O5 0.757254 0.741315 0.849075
O O6 0.919287 0.742005 0.837486
O O7 0.838948 0.000000 0.809467
O O8 0.500000 0.355424 0.919182
O O9 0.594600 0.789946 0.823966
O O10 0.685088 0.000000 0.896912
O O11 0.659461 0.749989 0.000000
O O12 0.500000 0.000000 0.115167
O O13 0.416384 0.799110 0.500000
O O14 0.500000 0.754466 0.346521
O O15 0.405095 0.000000 0.360547
O O16 0.000000 0.500000 0.897634
O O17 0.000000 0.758706 0.000000
#
# Coordination Sequence:
#
# PCOD9383955 Si02
#       7
#     8   8   1   8   4   8   4
#     4  10  21  38  58  84 123 168 209 260 323 378
#     4  11  23  40  66  96 122 160 212 259 309 372
#     4  12  18  28  52  90 108 170 224 240 316 378
#     4   9  17  34  59  84 117 160 196 245 313 366
#     4  10  19  35  53  80 126 164 207 262 308 375
#     4   8  14  27  50  78 109 151 206 262 310 361
#     4  11  25  47  70  99 134 167 193 244 312 375
#
# _framework density 21.266783
#
# number of rings (size 3 to 8) (size 9 to 14) (size 15 to 20)
#    0.000    2.244    0.976    2.780    0.000    3.122 
#    5.268    2.439    0.000    2.927    0.000    0.000 
#    0.000    0.000    0.000    0.000    0.000    0.000 
#
# Total GULP energy -228243.087299 kJ/mol
# GULP energy per Si atom -5566.904568 kJ/mol
# Density = 2.121838 g / cm^3
# Si number density = 21.266783 Si / 1000 Ang^3
#
#
#
# Elastic Constant Matrix: (Units=GPa)
#
#
# Indices 1 2 3 4 5 6 
#
# 1 196.8582 26.6290 86.6062 0.0000 0.0000 0.0000
# 2 26.6290 49.4763 7.7799 0.0000 0.0000 0.0000
# 3 86.6062 7.7799 96.8845 0.0000 0.0000 0.0000
# 4 0.0000 0.0000 0.0000 21.7753 0.0000 0.0000
# 5 0.0000 0.0000 0.0000 0.0000 21.0321 0.0000
# 6 0.0000 0.0000 0.0000 0.0000 0.0000 47.8906
#
#
#
# Elastic Compliance Matrix: (Units=1/GPa)
#
#
# Indices 1 2 3 4 5 6 
#
# 1 0.008967 -0.003611 -0.007726 0.000000 0.000000 0.000000
# 2 -0.003611 0.021925 0.001468 0.000000 0.000000 0.000000
# 3 -0.007726 0.001468 0.017110 0.000000 0.000000 0.000000
# 4 0.000000 0.000000 0.000000 0.045924 0.000000 0.000000
# 5 0.000000 0.000000 0.000000 0.000000 0.047546 0.000000
# 6 0.000000 0.000000 0.000000 0.000000 0.000000 0.020881
#
#
# Mechanical properties :
#
#
# Convention : Reuss Voigt Hill
#
# Bulk Modulus (GPa) = 35.38238 65.02767 50.20503
# Shear Modulus (GPa) = 26.10789 32.95320 29.53055
#
# Velocity S-wave (km/s) = 3.50757 3.94066 3.73040
# Velocity P-wave (km/s) = 5.75131 7.16579 6.49716
#
# Compressibility (1/GPa) = 0.02826266
#
# Stress axis : x y z
#
# Youngs Moduli (GPa) = 111.51621 45.61073 58.44520
#
# Poissons Ratio (x) = 0.16472 0.45155
# Poissons Ratio (y) = 0.40274 -0.08578
# Poissons Ratio (z) = 0.86157 -0.06695
#
# Static dielectric constant tensor:
#      x y z
#    x 1.765740 0.000000 0.000000 
#    y 0.000000 1.734750 0.000000 
#    z 0.000000 0.000000 2.314050 
# 
# From -- ./inp_files/23409.got.cif
#   From: 2010.05.17/outbox.cif.g08.bks.cpg/sg47_12_cif.got.tgz:23409.got - 2010.06.03 20:15:42.
