data_PCOD9383194
_publ_section_title
;
Structure prediction by ZEFSAII (Michael W. Deem and Ramdas Pophale) SiO2 
 PCOD9383194
Probable space group: P M M M
;
_chemical_formula_sum "Si O2"
_cell_formula_units_Z 44
_cell_length_a 17.806621
_cell_length_b 14.896840
_cell_length_c 9.241059
_cell_angle_alpha 90.000000
_cell_angle_beta 90.000000
_cell_angle_gamma 90.000000
_cell_volume 2451.305341
_symmetry_space_group_name_H-M "P M M M"
_symmetry_group_IT_number 47
_symmetry_cell_setting 'orthorhombic'
loop_
_space_group_symop_operation_xyz
x,y,z
-x,-y,z
x,-y,-z
-x,y,-z
-x,-y,-z
x,y,-z
-x,y,z
x,-y,z
loop_
_atom_site_type_symbol
_atom_site_label
_atom_site_fract_x
_atom_site_fract_y
_atom_site_fract_z
Si Si1 0.000000 0.392579 0.669058
Si Si2 0.322482 0.136854 0.667669
Si Si3 0.296158 0.344099 0.329933
Si Si4 0.587888 0.000000 0.159479
Si Si5 0.412120 0.500000 0.324181
Si Si6 0.860136 0.697349 0.826469
Si Si7 0.167571 0.098846 0.827499
O O1 0.927038 0.354733 0.749551
O O2 0.000000 0.500000 0.675924
O O3 0.000000 0.365848 0.500000
O O4 0.322605 0.111976 0.500000
O O5 0.328372 0.243656 0.678411
O O6 0.245014 0.105533 0.740498
O O7 0.386519 0.086542 0.753275
O O8 0.277753 0.362735 0.500000
O O9 0.360151 0.414514 0.282820
O O10 0.219132 0.338495 0.238230
O O11 0.500000 0.000000 0.146515
O O12 0.623531 0.000000 0.000000
O O13 0.500000 0.500000 0.274367
O O14 0.415942 0.500000 0.500000
O O15 0.870501 0.804772 0.795550
O O16 0.860865 0.685810 0.000000
O O17 0.132500 0.000000 0.795775
O O18 0.182009 0.100398 0.000000
#
# Coordination Sequence:
#
# PCOD9383194 Si02
#       7
#     4   8   8   4   4   8   8
#     4  11  25  43  62  83 114 154 193 237 288 337
#     4  10  19  31  50  77 105 136 179 232 278 322
#     4   9  19  35  57  84 114 147 187 232 280 338
#     4  11  23  35  47  67 101 144 185 228 283 345
#     4   9  18  34  57  82 109 146 189 231 280 341
#     4  10  21  37  59  88 118 149 188 233 279 335
#     4   9  17  32  56  82 111 147 181 215 264 328
#
# _framework density 17.949619999999999
#
# number of rings (size 3 to 8) (size 9 to 14) (size 15 to 20)
#    0.000    2.273    0.909    1.636    1.273    3.636 
#    0.000    2.273    0.000    3.818    0.000    0.000 
#    0.000    0.000    0.000    0.000    0.000    0.000 
#
# Total GULP energy -245174.990362 kJ/mol
# GULP energy per Si atom -5572.158872 kJ/mol
# Density = 1.790877 g / cm^3
# Si number density = 17.949620 Si / 1000 Ang^3
#
#
#
# Elastic Constant Matrix: (Units=GPa)
#
#
# Indices 1 2 3 4 5 6 
#
# 1 103.1748 64.1143 53.0183 0.0000 0.0000 0.0000
# 2 64.1143 119.0467 50.6853 0.0000 0.0000 0.0000
# 3 53.0183 50.6853 67.6841 0.0000 0.0000 0.0000
# 4 0.0000 0.0000 0.0000 24.1598 0.0000 0.0000
# 5 0.0000 0.0000 0.0000 0.0000 24.6014 0.0000
# 6 0.0000 0.0000 0.0000 0.0000 0.0000 19.4773
#
#
#
# Elastic Compliance Matrix: (Units=1/GPa)
#
#
# Indices 1 2 3 4 5 6 
#
# 1 0.018418 -0.005544 -0.010275 0.000000 0.000000 0.000000
# 2 -0.005544 0.014001 -0.006142 0.000000 0.000000 0.000000
# 3 -0.010275 -0.006142 0.027422 0.000000 0.000000 0.000000
# 4 0.000000 0.000000 0.000000 0.041391 0.000000 0.000000
# 5 0.000000 0.000000 0.000000 0.000000 0.040648 0.000000
# 6 0.000000 0.000000 0.000000 0.000000 0.000000 0.051342
#
#
# Mechanical properties :
#
#
# Convention : Reuss Voigt Hill
#
# Bulk Modulus (GPa) = 62.81838 69.50460 66.16149
# Shear Modulus (GPa) = 20.62281 21.78687 21.20484
#
# Velocity S-wave (km/s) = 3.39326 3.48771 3.44081
# Velocity P-wave (km/s) = 7.10108 7.41788 7.26121
#
# Compressibility (1/GPa) = 0.01591891
#
# Stress axis : x y z
#
# Youngs Moduli (GPa) = 54.29569 71.42385 36.46678
#
# Poissons Ratio (x) = 0.39600 0.37470
# Poissons Ratio (y) = 0.30104 0.22396
# Poissons Ratio (z) = 0.55789 0.43865
#
# Static dielectric constant tensor:
#      x y z
#    x 1.589120 0.000000 0.000000 
#    y 0.000000 1.623350 0.000000 
#    z 0.000000 0.000000 1.613650 
# 
# From -- ./inp_files/9079.got.cif
#   From: 2010.05.17/outbox.cif.g08.bks.cpg/sg47_5_cif.got.tgz:9079.got - 2010.06.03 20:15:42.
