data_PCOD9383265
_publ_section_title
;
Structure prediction by ZEFSAII (Michael W. Deem and Ramdas Pophale) SiO2 
 PCOD9383265
Probable space group: P M M M
;
_chemical_formula_sum "Si O2"
_cell_formula_units_Z 36
_cell_length_a 8.059382
_cell_length_b 18.969865
_cell_length_c 13.317441
_cell_angle_alpha 90.000000
_cell_angle_beta 90.000000
_cell_angle_gamma 90.000000
_cell_volume 2036.042141
_symmetry_space_group_name_H-M "P M M M"
_symmetry_group_IT_number 47
_symmetry_cell_setting 'orthorhombic'
loop_
_space_group_symop_operation_xyz
x,y,z
-x,-y,z
x,-y,-z
-x,y,-z
-x,-y,-z
x,y,-z
-x,y,z
x,-y,z
loop_
_atom_site_type_symbol
_atom_site_label
_atom_site_fract_x
_atom_site_fract_y
_atom_site_fract_z
Si Si1 0.189046 0.691985 0.880761
Si Si2 0.500000 0.788266 0.118868
Si Si3 0.500000 0.915537 0.253567
Si Si4 0.198775 0.582280 0.500000
Si Si5 0.183007 0.085616 0.615157
Si Si6 0.697869 0.582469 0.719248
O O1 0.332996 0.746870 0.850107
O O2 0.214520 0.625738 0.807361
O O3 0.000000 0.718629 0.869994
O O4 0.212267 0.674775 0.000000
O O5 0.500000 0.867804 0.156315
O O6 0.500000 0.787662 0.000000
O O7 0.337010 0.895159 0.316680
O O8 0.500000 0.000000 0.237342
O O9 0.253558 0.500000 0.500000
O O10 0.261459 0.610947 0.392983
O O11 0.000000 0.585058 0.500000
O O12 0.206127 0.108755 0.500000
O O13 0.000000 0.108791 0.649774
O O14 0.181319 0.000000 0.613327
O O15 0.500000 0.586171 0.734129
O O16 0.748401 0.500000 0.722227
#
# Coordination Sequence:
#
# PCOD9383265 Si02
#       6
#     8   4   4   4   8   8
#     4  10  21  38  59  79 103 142 186 225 271 323
#     4  10  22  40  56  74 103 137 178 222 269 326
#     4  10  19  31  54  82 104 133 173 219 267 317
#     4   9  17  29  47  75 111 149 185 217 259 316
#     4   8  14  26  47  77 110 138 163 197 247 309
#     4  10  19  32  54  83 113 144 180 223 268 315
#
# _framework density 17.681362
#
# number of rings (size 3 to 8) (size 9 to 14) (size 15 to 20)
#    0.000    2.556    1.111    2.000    0.000    5.556 
#    0.000    2.222    4.889    0.000    0.000    6.222 
#    0.000    0.000    0.000    0.000    0.000    0.000 
#
# Total GULP energy -200515.658384 kJ/mol
# GULP energy per Si atom -5569.879400 kJ/mol
# Density = 1.764112 g / cm^3
# Si number density = 17.681362 Si / 1000 Ang^3
#
#
#
# Elastic Constant Matrix: (Units=GPa)
#
#
# Indices 1 2 3 4 5 6 
#
# 1 109.3652 35.2751 35.7565 0.0000 0.0000 0.0000
# 2 35.2751 41.8681 31.3604 0.0000 0.0000 0.0000
# 3 35.7565 31.3604 53.8031 0.0000 0.0000 0.0000
# 4 0.0000 0.0000 0.0000 -12.9045 0.0000 0.0000
# 5 0.0000 0.0000 0.0000 0.0000 39.5518 0.0000
# 6 0.0000 0.0000 0.0000 0.0000 0.0000 6.5223
#
#
#
# Elastic Compliance Matrix: (Units=1/GPa)
#
#
# Indices 1 2 3 4 5 6 
#
# 1 0.013026 -0.007970 -0.004011 0.000000 0.000000 0.000000
# 2 -0.007970 0.047269 -0.022255 0.000000 0.000000 0.000000
# 3 -0.004011 -0.022255 0.034224 0.000000 0.000000 0.000000
# 4 0.000000 0.000000 0.000000 -0.077493 0.000000 0.000000
# 5 0.000000 0.000000 0.000000 0.000000 0.025283 0.000000
# 6 0.000000 0.000000 0.000000 0.000000 0.000000 0.153320
#
#
# Mechanical properties :
#
#
# Convention : Reuss Voigt Hill
#
# Bulk Modulus (GPa) = 38.39339 45.53560 41.96449
# Shear Modulus (GPa) = 18.32947 13.47690 15.90318
#
# Velocity S-wave (km/s) = 3.22321 2.76381 3.00231
# Velocity P-wave (km/s) = 5.96768 5.99952 5.98362
#
# Compressibility (1/GPa) = 0.02604615
#
# Stress axis : x y z
#
# Youngs Moduli (GPa) = 76.77051 21.15531 29.21929
#
# Poissons Ratio (x) = 0.16861 0.11720
# Poissons Ratio (y) = 0.61188 0.65028
# Poissons Ratio (z) = 0.30793 0.47082
#
# Static dielectric constant tensor:
#      x y z
#    x 1.632870 0.000000 0.000000 
#    y 0.000000 1.576560 0.000000 
#    z 0.000000 0.000000 1.599780 
# 
# From -- ./inp_files/15044.got.cif
#   From: 2010.05.17/outbox.cif.g08.bks.cpg/sg47_8_cif.got.tgz:15044.got - 2010.06.03 20:15:42.
