data_PCOD9383815
_publ_section_title
;
Structure prediction by ZEFSAII (Michael W. Deem and Ramdas Pophale) SiO2 
 PCOD9383815
Probable space group: P M M M
;
_chemical_formula_sum "Si O2"
_cell_formula_units_Z 56
_cell_length_a 17.461728
_cell_length_b 8.798545
_cell_length_c 21.049338
_cell_angle_alpha 90.000000
_cell_angle_beta 90.000000
_cell_angle_gamma 90.000000
_cell_volume 3233.973973
_symmetry_space_group_name_H-M "P M M M"
_symmetry_group_IT_number 47
_symmetry_cell_setting 'orthorhombic'
loop_
_space_group_symop_operation_xyz
x,y,z
-x,-y,z
x,-y,-z
-x,y,-z
-x,-y,-z
x,y,-z
-x,y,z
x,-y,z
loop_
_atom_site_type_symbol
_atom_site_label
_atom_site_fract_x
_atom_site_fract_y
_atom_site_fract_z
Si Si1 0.586062 0.318272 0.257301
Si Si2 0.158941 0.683328 0.809133
Si Si3 0.743475 0.317683 0.682112
Si Si4 0.259020 0.317058 0.929996
Si Si5 0.000000 0.681351 0.372436
Si Si6 0.414235 0.818374 0.116841
Si Si7 0.000000 0.818857 0.769336
Si Si8 0.155076 0.819027 0.426944
O O1 0.500000 0.289595 0.281736
O O2 0.593166 0.500000 0.245016
O O3 0.655574 0.276014 0.303279
O O4 0.593990 0.234299 0.190053
O O5 0.149976 0.500000 0.811200
O O6 0.207753 0.718611 0.745666
O O7 0.205937 0.732927 0.871404
O O8 0.076558 0.759809 0.803307
O O9 0.748086 0.500000 0.672990
O O10 0.780939 0.236408 0.622272
O O11 0.262524 0.500000 0.926774
O O12 0.344357 0.254359 0.920653
O O13 0.230011 0.273522 0.000000
O O14 0.924199 0.738576 0.407859
O O15 0.000000 0.500000 0.368180
O O16 0.000000 0.749652 0.301616
O O17 0.500000 0.771473 0.095905
O O18 0.409711 0.000000 0.112987
O O19 0.000000 0.000000 0.765384
O O20 0.174355 0.783753 0.500000
O O21 0.144603 0.000000 0.420999
#
# Coordination Sequence:
#
# PCOD9383815 Si02
#       8
#     8   8   8   8   4   8   4   8
#     4   9  17  32  55  82 111 142 181 230 275 316
#     4  10  20  37  58  83 110 138 178 229 275 318
#     4  10  19  33  57  84 110 144 183 225 271 319
#     4  10  21  38  59  80 105 142 186 228 274 327
#     4  12  23  37  58  84 113 147 180 218 269 322
#     4  10  20  32  49  77 113 149 181 219 272 329
#     4  12  24  37  58  85 110 143 182 221 268 322
#     4  11  24  39  55  80 115 150 183 221 264 319
#
# _framework density 17.316155999999999
#
# number of rings (size 3 to 8) (size 9 to 14) (size 15 to 20)
#    0.000    1.714    2.857    2.357    0.000    4.571 
#    0.000    1.786    0.000    2.571    0.000    3.000 
#    0.000    0.000    0.000    0.000    0.000    0.000 
#
# Total GULP energy -312708.732692 kJ/mol
# GULP energy per Si atom -5584.084512 kJ/mol
# Density = 1.727674 g / cm^3
# Si number density = 17.316156 Si / 1000 Ang^3
#
#
#
# Elastic Constant Matrix: (Units=GPa)
#
#
# Indices 1 2 3 4 5 6 
#
# 1 125.7845 42.0471 70.9544 0.0000 0.0000 0.0000
# 2 42.0471 35.2899 44.8735 0.0000 0.0000 0.0000
# 3 70.9544 44.8735 129.0480 0.0000 0.0000 0.0000
# 4 0.0000 0.0000 0.0000 -24.2262 0.0000 0.0000
# 5 0.0000 0.0000 0.0000 0.0000 51.0213 0.0000
# 6 0.0000 0.0000 0.0000 0.0000 0.0000 12.1791
#
#
#
# Elastic Compliance Matrix: (Units=1/GPa)
#
#
# Indices 1 2 3 4 5 6 
#
# 1 0.013998 -0.012354 -0.003401 0.000000 0.000000 0.000000
# 2 -0.012354 0.061701 -0.014662 0.000000 0.000000 0.000000
# 3 -0.003401 -0.014662 0.014717 0.000000 0.000000 0.000000
# 4 0.000000 0.000000 0.000000 -0.041278 0.000000 0.000000
# 5 0.000000 0.000000 0.000000 0.000000 0.019600 0.000000
# 6 0.000000 0.000000 0.000000 0.000000 0.000000 0.082108
#
#
# Mechanical properties :
#
#
# Convention : Reuss Voigt Hill
#
# Bulk Modulus (GPa) = 33.80471 67.31915 50.56193
# Shear Modulus (GPa) = 22.56919 16.61133 19.59026
#
# Velocity S-wave (km/s) = 3.61412 3.10061 3.36717
# Velocity P-wave (km/s) = 6.08114 7.19578 6.66182
#
# Compressibility (1/GPa) = 0.02958168
#
# Stress axis : x y z
#
# Youngs Moduli (GPa) = 71.43759 16.20728 67.94732
#
# Poissons Ratio (x) = 0.20023 0.23107
# Poissons Ratio (y) = 0.88257 0.99626
# Poissons Ratio (z) = 0.24294 0.23763
#
# Static dielectric constant tensor:
#      x y z
#    x 1.583210 0.000000 0.000000 
#    y 0.000000 1.580030 0.000000 
#    z 0.000000 0.000000 1.575640 
# 
# From -- ./inp_files/31049.got.cif
#   From: 2010.05.17/outbox.cif.g08.bks.cpg/sg47_16_cif.got.tgz:31049.got - 2010.06.03 20:15:42.
