data_PCOD9383055
_publ_section_title
;
Structure prediction by ZEFSAII (Michael W. Deem and Ramdas Pophale) SiO2 
 PCOD9383055
Probable space group: P M M M
;
_chemical_formula_sum "Si O2"
_cell_formula_units_Z 60
_cell_length_a 14.270393
_cell_length_b 19.917916
_cell_length_c 13.195392
_cell_angle_alpha 90.000000
_cell_angle_beta 90.000000
_cell_angle_gamma 90.000000
_cell_volume 3750.611894
_symmetry_space_group_name_H-M "P M M M"
_symmetry_group_IT_number 47
_symmetry_cell_setting 'orthorhombic'
loop_
_space_group_symop_operation_xyz
x,y,z
-x,-y,z
x,-y,-z
-x,y,-z
-x,-y,-z
x,y,-z
-x,y,z
x,-y,z
loop_
_atom_site_type_symbol
_atom_site_label
_atom_site_fract_x
_atom_site_fract_y
_atom_site_fract_z
Si Si1 0.606947 0.081498 0.500000
Si Si2 0.108506 0.847333 0.619529
Si Si3 0.109999 0.291261 0.267850
Si Si4 0.608527 0.575528 0.123300
Si Si5 0.283605 0.080457 0.704293
Si Si6 0.113710 0.426183 0.616693
Si Si7 0.611436 0.842521 0.118644
Si Si8 0.722005 0.705665 0.880113
O O1 0.500000 0.105039 0.500000
O O2 0.658832 0.101618 0.396785
O O3 0.606358 0.000000 0.500000
O O4 0.128378 0.855657 0.500000
O O5 0.118192 0.769612 0.652324
O O6 0.180137 0.890426 0.685794
O O7 0.000000 0.866346 0.636565
O O8 0.138793 0.361768 0.318224
O O9 0.181822 0.278878 0.177225
O O10 0.000000 0.294768 0.237780
O O11 0.500000 0.586432 0.153515
O O12 0.636593 0.500000 0.154774
O O13 0.674634 0.636245 0.156441
O O14 0.609267 0.576340 0.000000
O O15 0.333339 0.110587 0.803101
O O16 0.282190 0.000000 0.709198
O O17 0.144419 0.418769 0.500000
O O18 0.144065 0.500000 0.654001
O O19 0.000000 0.426746 0.615067
O O20 0.500000 0.845971 0.136392
O O21 0.649770 0.766995 0.134158
O O22 0.628327 0.859867 0.000000
O O23 0.739596 0.699488 0.000000
#
# Coordination Sequence:
#
# PCOD9383055 Si02
#       8
#     4   8   8   8   8   8   8   8
#     4   9  18  32  51  77 107 135 159 194 256 326
#     4  10  20  35  55  78 104 135 171 211 257 308
#     4  10  19  31  48  70  98 133 170 207 249 298
#     4   8  14  26  45  68  93 122 158 202 249 292
#     4  11  21  35  55  79 106 134 166 209 263 320
#     4   8  14  26  45  68  93 122 158 201 245 286
#     4  10  21  37  56  77 102 136 176 215 257 307
#     4  10  19  31  48  70  98 132 169 209 251 296
#
# _framework density 15.997389999999999
#
# number of rings (size 3 to 8) (size 9 to 14) (size 15 to 20)
#    0.000    2.467    2.000    2.000    0.000    5.333 
#    0.000    1.333    0.000    0.400    0.000    4.667 
#    0.000    0.000    0.000    6.400    0.000    1.067 
#
# Total GULP energy -334232.858115 kJ/mol
# GULP energy per Si atom -5570.547635 kJ/mol
# Density = 1.596098 g / cm^3
# Si number density = 15.997390 Si / 1000 Ang^3
#
#
#
# Elastic Constant Matrix: (Units=GPa)
#
#
# Indices 1 2 3 4 5 6 
#
# 1 95.9320 48.9830 55.3010 0.0000 0.0000 0.0000
# 2 48.9830 82.4933 48.0188 0.0000 0.0000 0.0000
# 3 55.3010 48.0188 70.8603 0.0000 0.0000 0.0000
# 4 0.0000 0.0000 0.0000 23.7973 0.0000 0.0000
# 5 0.0000 0.0000 0.0000 0.0000 23.3120 0.0000
# 6 0.0000 0.0000 0.0000 0.0000 0.0000 25.0957
#
#
#
# Elastic Compliance Matrix: (Units=1/GPa)
#
#
# Indices 1 2 3 4 5 6 
#
# 1 0.019951 -0.004596 -0.012456 0.000000 0.000000 0.000000
# 2 -0.004596 0.021078 -0.010696 0.000000 0.000000 0.000000
# 3 -0.012456 -0.010696 0.031081 0.000000 0.000000 0.000000
# 4 0.000000 0.000000 0.000000 0.042022 0.000000 0.000000
# 5 0.000000 0.000000 0.000000 0.000000 0.042896 0.000000
# 6 0.000000 0.000000 0.000000 0.000000 0.000000 0.039847
#
#
# Mechanical properties :
#
#
# Convention : Reuss Voigt Hill
#
# Bulk Modulus (GPa) = 60.19144 61.54347 60.86745
# Shear Modulus (GPa) = 19.38663 20.90652 20.14657
#
# Velocity S-wave (km/s) = 3.48496 3.61899 3.55261
# Velocity P-wave (km/s) = 7.34171 7.48447 7.41343
#
# Compressibility (1/GPa) = 0.01661366
#
# Stress axis : x y z
#
# Youngs Moduli (GPa) = 50.12267 47.44367 32.17368
#
# Poissons Ratio (x) = 0.21806 0.40074
# Poissons Ratio (y) = 0.23038 0.34414
# Poissons Ratio (z) = 0.62431 0.50747
#
# Static dielectric constant tensor:
#      x y z
#    x 1.526360 0.000000 0.000000 
#    y 0.000000 1.541830 0.000000 
#    z 0.000000 0.000000 1.517580 
# 
# From -- ./inp_files/16605.got.cif
#   From: 2010.05.17/outbox.cif.g08.bks.cpg/sg47_9_cif.got.tgz:16605.got - 2010.06.03 20:15:42.
