data_PCOD9383899
_publ_section_title
;
Structure prediction by ZEFSAII (Michael W. Deem and Ramdas Pophale) SiO2 
 PCOD9383899
Probable space group: P M M M
;
_chemical_formula_sum "Si O2"
_cell_formula_units_Z 32
_cell_length_a 16.476143
_cell_length_b 11.227242
_cell_length_c 10.080041
_cell_angle_alpha 90.000000
_cell_angle_beta 90.000000
_cell_angle_gamma 90.000000
_cell_volume 1864.622563
_symmetry_space_group_name_H-M "P M M M"
_symmetry_group_IT_number 47
_symmetry_cell_setting 'orthorhombic'
loop_
_space_group_symop_operation_xyz
x,y,z
-x,-y,z
x,-y,-z
-x,y,-z
-x,-y,-z
x,y,-z
-x,y,z
x,-y,z
loop_
_atom_site_type_symbol
_atom_site_label
_atom_site_fract_x
_atom_site_fract_y
_atom_site_fract_z
Si Si1 0.097111 0.000000 0.339239
Si Si2 0.344823 0.643427 0.659810
Si Si3 0.087278 0.639473 0.500000
Si Si4 0.822770 0.752320 0.740840
Si Si5 0.096846 0.356767 0.000000
Si Si6 0.500000 0.356806 0.155027
O O1 0.144231 0.114729 0.282638
O O2 0.103196 0.000000 0.500000
O O3 0.000000 0.000000 0.306556
O O4 0.357044 0.663009 0.500000
O O5 0.327258 0.500000 0.673803
O O6 0.271544 0.724361 0.715198
O O7 0.421940 0.671950 0.753302
O O8 0.078401 0.500000 0.500000
O O9 0.134730 0.676241 0.372477
O O10 0.000000 0.701375 0.500000
O O11 0.857801 0.700199 0.875704
O O12 0.104928 0.500000 0.000000
O O13 0.000000 0.330212 0.000000
O O14 0.500000 0.500000 0.144144
O O15 0.500000 0.312385 0.000000
#
# Coordination Sequence:
#
# PCOD9383899 Si02
#       6
#     4   8   4   8   4   4
#     4  11  22  39  61  84 115 158 212 260 290 337
#     4  10  19  34  56  85 118 150 192 244 299 359
#     4  11  20  33  55  82 112 148 194 245 298 352
#     4  12  23  37  58  84 116 159 203 247 295 349
#     4  11  24  39  55  82 120 156 194 247 310 366
#     4   9  19  33  55  86 119 152 180 226 301 375
#
# _framework density 17.161650000000002
#
# number of rings (size 3 to 8) (size 9 to 14) (size 15 to 20)
#    0.000    1.250    2.500    4.875    1.750    4.000 
#    0.000    1.250    0.000    0.750    0.000    3.500 
#    0.000    0.000    0.000    0.000    0.000    0.000 
#
# Total GULP energy -178406.998175 kJ/mol
# GULP energy per Si atom -5575.218693 kJ/mol
# Density = 1.712259 g / cm^3
# Si number density = 17.161650 Si / 1000 Ang^3
#
#
#
# Elastic Constant Matrix: (Units=GPa)
#
#
# Indices 1 2 3 4 5 6 
#
# 1 182.6633 62.8464 90.3417 0.0000 0.0000 0.0000
# 2 62.8464 103.3093 54.8264 0.0000 0.0000 0.0000
# 3 90.3417 54.8264 178.5175 0.0000 0.0000 0.0000
# 4 0.0000 0.0000 0.0000 23.9288 0.0000 0.0000
# 5 0.0000 0.0000 0.0000 0.0000 41.9304 0.0000
# 6 0.0000 0.0000 0.0000 0.0000 0.0000 24.3643
#
#
#
# Elastic Compliance Matrix: (Units=1/GPa)
#
#
# Indices 1 2 3 4 5 6 
#
# 1 0.008150 -0.003308 -0.003108 0.000000 0.000000 0.000000
# 2 -0.003308 0.012908 -0.002290 0.000000 0.000000 0.000000
# 3 -0.003108 -0.002290 0.007878 0.000000 0.000000 0.000000
# 4 0.000000 0.000000 0.000000 0.041791 0.000000 0.000000
# 5 0.000000 0.000000 0.000000 0.000000 0.023849 0.000000
# 6 0.000000 0.000000 0.000000 0.000000 0.000000 0.041044
#
#
# Mechanical properties :
#
#
# Convention : Reuss Voigt Hill
#
# Bulk Modulus (GPa) = 86.78837 97.83545 92.31191
# Shear Modulus (GPa) = 31.87285 35.14309 33.50797
#
# Velocity S-wave (km/s) = 4.31422 4.53014 4.42349
# Velocity P-wave (km/s) = 8.68893 9.19211 8.94406
#
# Compressibility (1/GPa) = 0.01152228
#
# Stress axis : x y z
#
# Youngs Moduli (GPa) = 122.69621 77.47427 126.93475
#
# Poissons Ratio (x) = 0.25631 0.39457
# Poissons Ratio (y) = 0.40592 0.29067
# Poissons Ratio (z) = 0.38140 0.17741
#
# Static dielectric constant tensor:
#      x y z
#    x 1.648920 0.000000 0.000000 
#    y 0.000000 1.561330 0.000000 
#    z 0.000000 0.000000 1.573500 
# 
# From -- ./inp_files/8610.got.cif
#   From: 2010.05.17/outbox.cif.g08.bks.cpg/sg47_5_cif.got.tgz:8610.got - 2010.06.03 20:15:42.
