data_PCOD9383937
_publ_section_title
;
Structure prediction by ZEFSAII (Michael W. Deem and Ramdas Pophale) SiO2 
 PCOD9383937
Probable space group: P M M M
;
_chemical_formula_sum "Si O2"
_cell_formula_units_Z 52
_cell_length_a 26.199600
_cell_length_b 8.672585
_cell_length_c 12.110612
_cell_angle_alpha 90.000000
_cell_angle_beta 90.000000
_cell_angle_gamma 90.000000
_cell_volume 2751.752162
_symmetry_space_group_name_H-M "P M M M"
_symmetry_group_IT_number 47
_symmetry_cell_setting 'orthorhombic'
loop_
_space_group_symop_operation_xyz
x,y,z
-x,-y,z
x,-y,-z
-x,y,-z
-x,-y,-z
x,y,-z
-x,y,z
x,-y,z
loop_
_atom_site_type_symbol
_atom_site_label
_atom_site_fract_x
_atom_site_fract_y
_atom_site_fract_z
Si Si1 0.346404 0.311966 0.873627
Si Si2 0.804345 0.819637 0.000000
Si Si3 0.558426 0.685907 0.265721
Si Si4 0.087621 0.319112 0.000000
Si Si5 0.944233 0.683681 0.247469
Si Si6 0.154087 0.815565 0.627275
Si Si7 0.438076 0.176464 0.500000
Si Si8 0.758449 0.315701 0.223332
O O1 0.345970 0.500000 0.876330
O O2 0.400912 0.262564 0.825500
O O3 0.300478 0.265919 0.791813
O O4 0.337872 0.259918 0.000000
O O5 0.864657 0.794172 0.000000
O O6 0.783389 0.736102 0.108099
O O7 0.791205 0.000000 0.000000
O O8 0.500000 0.739566 0.247096
O O9 0.557447 0.500000 0.265356
O O10 0.576412 0.740440 0.386542
O O11 0.058784 0.295488 0.115012
O O12 0.104874 0.500000 0.000000
O O13 0.941593 0.500000 0.267540
O O14 0.895099 0.757864 0.304552
O O15 0.000000 0.739930 0.286578
O O16 0.150043 0.765195 0.500000
O O17 0.206329 0.755119 0.681941
O O18 0.154722 0.000000 0.631438
O O19 0.500000 0.177715 0.500000
O O20 0.420723 0.000000 0.500000
O O21 0.760069 0.500000 0.233434
#
# Coordination Sequence:
#
# PCOD9383937 Si02
#       8
#     8   4   8   4   8   8   4   8
#     4   9  18  33  55  84 115 143 179 225 277 336
#     4  12  22  33  57  89 116 146 186 230 284 342
#     4   9  17  31  54  82 111 145 186 232 278 328
#     4  10  19  34  58  88 119 150 183 223 276 334
#     4  10  21  37  60  89 119 151 189 232 277 333
#     4  11  25  43  60  81 114 152 189 236 290 340
#     4   9  17  31  51  73 103 145 187 227 270 319
#     4  11  21  38  62  84 110 147 190 235 281 336
#
# _framework density 18.89705
#
# number of rings (size 3 to 8) (size 9 to 14) (size 15 to 20)
#    0.000    1.923    2.308    2.077    0.000    4.000 
#    1.385    4.615    0.000    1.385    0.000    2.154 
#    0.000    0.000    0.000    0.000    0.000    0.000 
#
# Total GULP energy -290082.391296 kJ/mol
# GULP energy per Si atom -5578.507525 kJ/mol
# Density = 1.885404 g / cm^3
# Si number density = 18.897050 Si / 1000 Ang^3
#
#
#
# Elastic Constant Matrix: (Units=GPa)
#
#
# Indices 1 2 3 4 5 6 
#
# 1 131.6075 26.3773 61.4348 0.0000 0.0000 0.0000
# 2 26.3773 20.9085 23.3566 0.0000 0.0000 0.0000
# 3 61.4348 23.3566 112.9409 0.0000 0.0000 0.0000
# 4 0.0000 0.0000 0.0000 18.3562 0.0000 0.0000
# 5 0.0000 0.0000 0.0000 0.0000 6.3788 0.0000
# 6 0.0000 0.0000 0.0000 0.0000 0.0000 -1.8353
#
#
#
# Elastic Compliance Matrix: (Units=1/GPa)
#
#
# Indices 1 2 3 4 5 6 
#
# 1 0.011552 -0.009824 -0.004252 0.000000 0.000000 0.000000
# 2 -0.009824 0.070549 -0.009246 0.000000 0.000000 0.000000
# 3 -0.004252 -0.009246 0.013079 0.000000 0.000000 0.000000
# 4 0.000000 0.000000 0.000000 0.054478 0.000000 0.000000
# 5 0.000000 0.000000 0.000000 0.000000 0.156769 0.000000
# 6 0.000000 0.000000 0.000000 0.000000 0.000000 -0.544883
#
#
# Mechanical properties :
#
#
# Convention : Reuss Voigt Hill
#
# Bulk Modulus (GPa) = 20.60305 54.19936 37.40120
# Shear Modulus (GPa) = -28.46854 14.86584 -6.80135
#
# Velocity S-wave (km/s) = -3.88559 2.80782 -1.89920
# Velocity P-wave (km/s) = 3.03380 6.26541 3.87631
#
# Compressibility (1/GPa) = 0.04853651
#
# Stress axis : x y z
#
# Youngs Moduli (GPa) = 86.56340 14.17451 76.45585
#
# Poissons Ratio (x) = 0.13924 0.32512
# Poissons Ratio (y) = 0.85036 0.70693
# Poissons Ratio (z) = 0.36810 0.13106
#
# Static dielectric constant tensor:
#      x y z
#    x 1.676800 0.000000 0.000000 
#    y 0.000000 1.636980 0.000000 
#    z 0.000000 0.000000 1.640470 
# 
# From -- ./inp_files/19884.got.cif
#   From: 2010.05.17/outbox.cif.g08.bks.cpg/sg47_10_cif.got.tgz:19884.got - 2010.06.03 20:15:42.
