data_PCOD9383222
_publ_section_title
;
Structure prediction by ZEFSAII (Michael W. Deem and Ramdas Pophale) SiO2 
 PCOD9383222
Probable space group: P M M M
;
_chemical_formula_sum "Si O2"
_cell_formula_units_Z 44
_cell_length_a 31.109449
_cell_length_b 8.118114
_cell_length_c 9.572193
_cell_angle_alpha 90.000000
_cell_angle_beta 90.000000
_cell_angle_gamma 90.000000
_cell_volume 2417.457854
_symmetry_space_group_name_H-M "P M M M"
_symmetry_group_IT_number 47
_symmetry_cell_setting 'orthorhombic'
loop_
_space_group_symop_operation_xyz
x,y,z
-x,-y,z
x,-y,-z
-x,y,-z
-x,-y,-z
x,y,-z
-x,y,z
x,-y,z
loop_
_atom_site_type_symbol
_atom_site_label
_atom_site_fract_x
_atom_site_fract_y
_atom_site_fract_z
Si Si1 0.549242 0.500000 0.830053
Si Si2 0.685160 0.693175 0.336467
Si Si3 0.221760 0.808715 0.330255
Si Si4 0.128679 0.801609 0.340728
Si Si5 0.394300 0.184801 0.167414
Si Si6 0.952493 0.301314 0.161407
O O1 0.500000 0.500000 0.781521
O O2 0.574417 0.333933 0.788035
O O3 0.548533 0.500000 0.000000
O O4 0.682491 0.743402 0.500000
O O5 0.674883 0.500000 0.327455
O O6 0.734445 0.719271 0.289718
O O7 0.650949 0.790352 0.244722
O O8 0.219493 0.803627 0.500000
O O9 0.175155 0.742537 0.283740
O O10 0.226031 0.000000 0.289037
O O11 0.123090 0.741519 0.500000
O O12 0.087521 0.757439 0.250784
O O13 0.132298 0.000000 0.345936
O O14 0.411004 0.000000 0.195919
O O15 0.388278 0.198901 0.000000
O O16 0.952494 0.500000 0.163278
O O17 0.000000 0.246528 0.211404
O O18 0.948029 0.248817 0.000000
#
# Coordination Sequence:
#
# PCOD9383222 Si02
#       6
#     4   8   8   8   8   8
#     4   9  18  34  55  79 109 141 175 221 268 311
#     4  10  19  31  51  78 105 136 175 214 254 305
#     4   8  15  29  47  68  97 131 164 200 244 295
#     4   9  18  32  50  73  99 124 155 200 249 295
#     4  10  20  34  54  79 107 140 176 217 266 313
#     4   9  19  35  51  67  91 124 161 200 243 295
#
# _framework density 18.200937
#
# number of rings (size 3 to 8) (size 9 to 14) (size 15 to 20)
#    0.000    2.818    0.909    2.182    0.000    3.636 
#    0.000    7.273    0.000    2.182    0.000    1.273 
#    0.000    0.000    0.000    0.000    0.000    0.000 
#
# Total GULP energy -245139.504598 kJ/mol
# GULP energy per Si atom -5571.352377 kJ/mol
# Density = 1.815951 g / cm^3
# Si number density = 18.200937 Si / 1000 Ang^3
#
#
#
# Elastic Constant Matrix: (Units=GPa)
#
#
# Indices 1 2 3 4 5 6 
#
# 1 158.3277 54.5949 41.8517 0.0000 0.0000 0.0000
# 2 54.5949 70.4502 24.1596 0.0000 0.0000 0.0000
# 3 41.8517 24.1596 24.2230 0.0000 0.0000 0.0000
# 4 0.0000 0.0000 0.0000 20.5958 0.0000 0.0000
# 5 0.0000 0.0000 0.0000 0.0000 26.9206 0.0000
# 6 0.0000 0.0000 0.0000 0.0000 0.0000 9.0013
#
#
#
# Elastic Compliance Matrix: (Units=1/GPa)
#
#
# Indices 1 2 3 4 5 6 
#
# 1 0.012128 -0.003363 -0.017600 0.000000 0.000000 0.000000
# 2 -0.003363 0.022506 -0.016637 0.000000 0.000000 0.000000
# 3 -0.017600 -0.016637 0.088285 0.000000 0.000000 0.000000
# 4 0.000000 0.000000 0.000000 0.048554 0.000000 0.000000
# 5 0.000000 0.000000 0.000000 0.000000 0.037146 0.000000
# 6 0.000000 0.000000 0.000000 0.000000 0.000000 0.111095
#
#
# Mechanical properties :
#
#
# Convention : Reuss Voigt Hill
#
# Bulk Modulus (GPa) = 20.95573 54.91259 37.93416
# Shear Modulus (GPa) = 12.17078 20.12986 16.15032
#
# Velocity S-wave (km/s) = 2.58871 3.32923 2.98205
# Velocity P-wave (km/s) = 4.52479 6.70925 5.72223
#
# Compressibility (1/GPa) = 0.04771964
#
# Stress axis : x y z
#
# Youngs Moduli (GPa) = 82.45389 44.43342 11.32689
#
# Poissons Ratio (x) = 0.14942 0.19936
# Poissons Ratio (y) = 0.27728 0.18844
# Poissons Ratio (z) = 1.45122 0.73922
#
# Static dielectric constant tensor:
#      x y z
#    x 1.637200 0.000000 0.000000 
#    y 0.000000 1.652230 0.000000 
#    z 0.000000 0.000000 1.605390 
# 
# From -- ./inp_files/13644.got.cif
#   From: 2010.05.17/outbox.cif.g08.bks.cpg/sg47_7_cif.got.tgz:13644.got - 2010.06.03 20:15:42.
