data_PCOD9383120
_publ_section_title
;
Structure prediction by ZEFSAII (Michael W. Deem and Ramdas Pophale) SiO2 
 PCOD9383120
Probable space group: P M M M
;
_chemical_formula_sum "Si O2"
_cell_formula_units_Z 40
_cell_length_a 7.629738
_cell_length_b 13.376288
_cell_length_c 18.715561
_cell_angle_alpha 90.000000
_cell_angle_beta 90.000000
_cell_angle_gamma 90.000000
_cell_volume 1910.064730
_symmetry_space_group_name_H-M "P M M M"
_symmetry_group_IT_number 47
_symmetry_cell_setting 'orthorhombic'
loop_
_space_group_symop_operation_xyz
x,y,z
-x,-y,z
x,-y,-z
-x,y,-z
-x,-y,-z
x,y,-z
-x,y,z
x,-y,z
loop_
_atom_site_type_symbol
_atom_site_label
_atom_site_fract_x
_atom_site_fract_y
_atom_site_fract_z
Si Si1 0.705619 0.303583 0.836175
Si Si2 0.793957 0.691477 0.328233
Si Si3 0.713870 0.888619 0.917184
Si Si4 0.715173 0.500000 0.082980
Si Si5 0.214803 0.500000 0.582185
Si Si6 0.711620 0.112544 0.417864
O O1 0.500000 0.302063 0.854593
O O2 0.719173 0.309412 0.751228
O O3 0.779180 0.200175 0.867223
O O4 0.777695 0.401365 0.875554
O O5 0.726242 0.599819 0.376576
O O6 0.767093 0.797268 0.367339
O O7 0.000000 0.675049 0.320098
O O8 0.500000 0.890892 0.914328
O O9 0.773779 0.000000 0.897078
O O10 0.760198 0.869958 0.000000
O O11 0.500000 0.500000 0.084801
O O12 0.765789 0.500000 0.000000
O O13 0.272011 0.500000 0.500000
O O14 0.000000 0.500000 0.581319
O O15 0.769235 0.130158 0.500000
O O16 0.500000 0.111588 0.418031
O O17 0.769240 0.000000 0.396943
#
# Coordination Sequence:
#
# PCOD9383120 Si02
#       6
#     8   8   8   4   4   8
#     4  10  19  31  49  73 102 133 165 208 263 313
#     4  11  22  35  53  77 107 141 176 214 257 310
#     4   8  14  26  46  71  95 122 162 207 246 290
#     4   9  17  30  51  77 100 127 172 227 272 310
#     4   9  19  36  55  73  96 131 174 216 256 297
#     4   9  19  37  59  81 106 136 171 214 263 312
#
# _framework density 20.941699
#
# number of rings (size 3 to 8) (size 9 to 14) (size 15 to 20)
#    0.000    2.600    0.000    3.600    0.000    4.800 
#    0.000    4.500    0.000    6.600    0.000    1.400 
#    0.000    0.000    0.000    0.000    0.000    0.000 
#
# Total GULP energy -223327.794316 kJ/mol
# GULP energy per Si atom -5583.194858 kJ/mol
# Density = 2.089403 g / cm^3
# Si number density = 20.941699 Si / 1000 Ang^3
#
#
#
# Elastic Constant Matrix: (Units=GPa)
#
#
# Indices 1 2 3 4 5 6 
#
# 1 36.2381 -1.0403 -12.5110 0.0000 0.0000 0.0000
# 2 -1.0403 210.8590 129.4192 0.0000 0.0000 0.0000
# 3 -12.5110 129.4192 143.7939 0.0000 0.0000 0.0000
# 4 0.0000 0.0000 0.0000 -6.3741 0.0000 0.0000
# 5 0.0000 0.0000 0.0000 0.0000 18.5184 0.0000
# 6 0.0000 0.0000 0.0000 0.0000 0.0000 8.8050
#
#
#
# Elastic Compliance Matrix: (Units=1/GPa)
#
#
# Indices 1 2 3 4 5 6 
#
# 1 0.029375 -0.003181 0.005419 0.000000 0.000000 0.000000
# 2 -0.003181 0.010940 -0.010123 0.000000 0.000000 0.000000
# 3 0.005419 -0.010123 0.016537 0.000000 0.000000 0.000000
# 4 0.000000 0.000000 0.000000 -0.156884 0.000000 0.000000
# 5 0.000000 0.000000 0.000000 0.000000 0.054000 0.000000
# 6 0.000000 0.000000 0.000000 0.000000 0.000000 0.113572
#
#
# Mechanical properties :
#
#
# Convention : Reuss Voigt Hill
#
# Bulk Modulus (GPa) = 24.34207 69.18076 46.76141
# Shear Modulus (GPa) = 51.54380 22.52472 37.03426
#
# Velocity S-wave (km/s) = 4.96653 3.28318 4.20985
# Velocity P-wave (km/s) = 6.67365 6.89050 6.78294
#
# Compressibility (1/GPa) = 0.04108114
#
# Stress axis : x y z
#
# Youngs Moduli (GPa) = 34.04281 91.40595 60.46984
#
# Poissons Ratio (x) = 0.29076 -0.32767
# Poissons Ratio (y) = 0.10829 0.61215
# Poissons Ratio (z) = -0.18447 0.92533
#
# Static dielectric constant tensor:
#      x y z
#    x 1.798520 0.000000 0.000000 
#    y 0.000000 1.762190 0.000000 
#    z 0.000000 0.000000 1.686520 
# 
# From -- ./inp_files/20671.got.cif
#   From: 2010.05.17/outbox.cif.g08.bks.cpg/sg47_11_cif.got.tgz:20671.got - 2010.06.03 20:15:42.
