data_PCOD9383459
_publ_section_title
;
Structure prediction by ZEFSAII (Michael W. Deem and Ramdas Pophale) SiO2 
 PCOD9383459
Probable space group: P M M M
;
_chemical_formula_sum "Si O2"
_cell_formula_units_Z 52
_cell_length_a 14.802078
_cell_length_b 7.944238
_cell_length_c 23.853026
_cell_angle_alpha 90.000000
_cell_angle_beta 90.000000
_cell_angle_gamma 90.000000
_cell_volume 2804.906679
_symmetry_space_group_name_H-M "P M M M"
_symmetry_group_IT_number 47
_symmetry_cell_setting 'orthorhombic'
loop_
_space_group_symop_operation_xyz
x,y,z
-x,-y,z
x,-y,-z
-x,y,-z
-x,-y,-z
x,y,-z
-x,y,z
x,-y,z
loop_
_atom_site_type_symbol
_atom_site_label
_atom_site_fract_x
_atom_site_fract_y
_atom_site_fract_z
Si Si1 0.104717 0.793575 0.500000
Si Si2 0.102397 0.202601 0.063215
Si Si3 0.399207 0.294427 0.220987
Si Si4 0.600623 0.702787 0.649074
Si Si5 0.791651 0.798260 0.389062
Si Si6 0.215109 0.700269 0.170059
Si Si7 0.896956 0.797199 0.720715
O O1 0.156786 0.736356 0.555778
O O2 0.000000 0.742310 0.500000
O O3 0.105418 0.000000 0.500000
O O4 0.172435 0.250650 0.110957
O O5 0.000000 0.261294 0.076910
O O6 0.099360 0.000000 0.061743
O O7 0.124411 0.261262 0.000000
O O8 0.500000 0.240239 0.203911
O O9 0.399312 0.500000 0.220499
O O10 0.385008 0.243640 0.285991
O O11 0.315788 0.233853 0.183703
O O12 0.500000 0.760213 0.631860
O O13 0.599839 0.500000 0.648983
O O14 0.685545 0.759748 0.613045
O O15 0.838719 0.732996 0.332058
O O16 0.801396 0.000000 0.388657
O O17 0.220066 0.500000 0.171696
O O18 0.150472 0.755153 0.220867
O O19 0.000000 0.735013 0.718674
O O20 0.899962 0.000000 0.716662
#
# Coordination Sequence:
#
# PCOD9383459 Si02
#       7
#     4   8   8   8   8   8   8
#     4   9  18  34  54  73  96 132 175 211 250 303
#     4   9  19  36  54  70  96 138 176 201 236 291
#     4   8  15  29  48  70  98 131 162 193 239 298
#     4   9  17  32  53  73  98 133 165 197 247 307
#     4  10  19  32  52  75  97 126 168 215 251 288
#     4  11  20  30  50  78 102 125 161 208 251 287
#     4  10  20  32  46  68 100 133 161 195 246 304
#
# _framework density 18.538941999999999
#
# number of rings (size 3 to 8) (size 9 to 14) (size 15 to 20)
#    0.000    2.538    1.538    2.769    0.000    4.923 
#    0.000    1.538    0.000    6.462    0.000    3.231 
#    0.000    0.000    0.000    0.000    0.000    0.000 
#
# Total GULP energy -290052.394845 kJ/mol
# GULP energy per Si atom -5577.930670 kJ/mol
# Density = 1.849675 g / cm^3
# Si number density = 18.538942 Si / 1000 Ang^3
#
#
#
# Elastic Constant Matrix: (Units=GPa)
#
#
# Indices 1 2 3 4 5 6 
#
# 1 189.0265 8.1872 98.9975 0.0000 0.0000 0.0000
# 2 8.1872 15.2002 6.8355 0.0000 0.0000 0.0000
# 3 98.9975 6.8355 118.7618 0.0000 0.0000 0.0000
# 4 0.0000 0.0000 0.0000 1.5665 0.0000 0.0000
# 5 0.0000 0.0000 0.0000 0.0000 31.9022 0.0000
# 6 0.0000 0.0000 0.0000 0.0000 0.0000 22.5118
#
#
#
# Elastic Compliance Matrix: (Units=1/GPa)
#
#
# Indices 1 2 3 4 5 6 
#
# 1 0.009426 -0.001585 -0.007766 0.000000 0.000000 0.000000
# 2 -0.001585 0.067803 -0.002582 0.000000 0.000000 0.000000
# 3 -0.007766 -0.002582 0.015043 0.000000 0.000000 0.000000
# 4 0.000000 0.000000 0.000000 0.638371 0.000000 0.000000
# 5 0.000000 0.000000 0.000000 0.000000 0.031346 0.000000
# 6 0.000000 0.000000 0.000000 0.000000 0.000000 0.044421
#
#
# Mechanical properties :
#
#
# Convention : Reuss Voigt Hill
#
# Bulk Modulus (GPa) = 14.61843 61.22546 37.92194
# Shear Modulus (GPa) = 5.86113 25.12731 15.49422
#
# Velocity S-wave (km/s) = 1.78000 3.68554 2.89410
# Velocity P-wave (km/s) = 3.48237 7.15598 5.62738
#
# Compressibility (1/GPa) = 0.06840681
#
# Stress axis : x y z
#
# Youngs Moduli (GPa) = 106.08562 14.74860 66.47733
#
# Poissons Ratio (x) = 0.02337 0.51629
# Poissons Ratio (y) = 0.16811 0.17161
# Poissons Ratio (z) = 0.82390 0.03807
#
# Static dielectric constant tensor:
#      x y z
#    x 1.655550 0.000000 0.000000 
#    y 0.000000 1.678320 0.000000 
#    z 0.000000 0.000000 1.628540 
# 
# From -- ./inp_files/11054.got.cif
#   From: 2010.05.17/outbox.cif.g08.bks.cpg/sg47_6_cif.got.tgz:11054.got - 2010.06.03 20:15:42.
