data_PCOD9383240
_publ_section_title
;
Structure prediction by ZEFSAII (Michael W. Deem and Ramdas Pophale) SiO2 
 PCOD9383240
Probable space group: P M M M
;
_chemical_formula_sum "Si O2"
_cell_formula_units_Z 44
_cell_length_a 17.326504
_cell_length_b 16.303079
_cell_length_c 8.639976
_cell_angle_alpha 90.000000
_cell_angle_beta 90.000000
_cell_angle_gamma 90.000000
_cell_volume 2440.580361
_symmetry_space_group_name_H-M "P M M M"
_symmetry_group_IT_number 47
_symmetry_cell_setting 'orthorhombic'
loop_
_space_group_symop_operation_xyz
x,y,z
-x,-y,z
x,-y,-z
-x,y,-z
-x,-y,-z
x,y,-z
-x,y,z
x,-y,z
loop_
_atom_site_type_symbol
_atom_site_label
_atom_site_fract_x
_atom_site_fract_y
_atom_site_fract_z
Si Si1 0.000000 0.096926 0.825430
Si Si2 0.916320 0.379113 0.317499
Si Si3 0.743525 0.410182 0.687205
Si Si4 0.297605 0.236594 0.183652
Si Si5 0.589869 0.907869 0.188544
Si Si6 0.135168 0.193940 0.679401
O O1 0.076179 0.126970 0.738984
O O2 0.000000 0.000000 0.832774
O O3 0.000000 0.131411 0.000000
O O4 0.917496 0.401524 0.500000
O O5 0.833287 0.408324 0.256390
O O6 0.908835 0.280930 0.308849
O O7 0.000000 0.403943 0.251581
O O8 0.746017 0.404330 0.500000
O O9 0.710998 0.500000 0.728499
O O10 0.701322 0.328559 0.746618
O O11 0.359136 0.169136 0.242173
O O12 0.213130 0.201350 0.223715
O O13 0.306744 0.244187 0.000000
O O14 0.500000 0.898385 0.231664
O O15 0.615419 0.000000 0.237692
O O16 0.593209 0.907737 0.000000
O O17 0.155538 0.182019 0.500000
#
# Coordination Sequence:
#
# PCOD9383240 Si02
#       6
#     4   8   8   8   8   8
#     4  11  23  35  47  67  96 129 170 223 273 307
#     4   8  13  24  44  66  85 112 157 210 251 286
#     4   9  18  31  47  69  99 137 178 216 256 307
#     4  10  19  31  52  80 105 133 167 210 264 313
#     4   8  15  30  53  80 107 132 161 203 257 317
#     4  10  19  33  50  68  94 132 174 209 250 309
#
# _framework density 18.028499
#
# number of rings (size 3 to 8) (size 9 to 14) (size 15 to 20)
#    0.000    2.818    0.909    3.000    0.000    2.182 
#    0.000    3.636    0.000    4.364    0.000   11.455 
#    0.000    0.000    0.000    0.000    0.000    0.000 
#
# Total GULP energy -245018.982086 kJ/mol
# GULP energy per Si atom -5568.613229 kJ/mol
# Density = 1.798747 g / cm^3
# Si number density = 18.028499 Si / 1000 Ang^3
#
#
#
# Elastic Constant Matrix: (Units=GPa)
#
#
# Indices 1 2 3 4 5 6 
#
# 1 70.9212 67.6564 6.2094 0.0000 0.0000 0.0000
# 2 67.6564 156.2908 27.0278 0.0000 0.0000 0.0000
# 3 6.2094 27.0278 17.3592 0.0000 0.0000 0.0000
# 4 0.0000 0.0000 0.0000 12.5605 0.0000 0.0000
# 5 0.0000 0.0000 0.0000 0.0000 7.4091 0.0000
# 6 0.0000 0.0000 0.0000 0.0000 0.0000 -41.8821
#
#
#
# Elastic Compliance Matrix: (Units=1/GPa)
#
#
# Indices 1 2 3 4 5 6 
#
# 1 0.025473 -0.012934 0.011026 0.000000 0.000000 0.000000
# 2 -0.012934 0.015323 -0.019231 0.000000 0.000000 0.000000
# 3 0.011026 -0.019231 0.083605 0.000000 0.000000 0.000000
# 4 0.000000 0.000000 0.000000 0.079615 0.000000 0.000000
# 5 0.000000 0.000000 0.000000 0.000000 0.134969 0.000000
# 6 0.000000 0.000000 0.000000 0.000000 0.000000 -0.023877
#
#
# Mechanical properties :
#
#
# Convention : Reuss Voigt Hill
#
# Bulk Modulus (GPa) = 12.17688 49.59537 30.88613
# Shear Modulus (GPa) = 12.99512 5.19600 9.09556
#
# Velocity S-wave (km/s) = 2.68770 1.69952 2.24857
# Velocity P-wave (km/s) = 4.04976 5.60538 4.88983
#
# Compressibility (1/GPa) = 0.08212285
#
# Stress axis : x y z
#
# Youngs Moduli (GPa) = 39.25696 65.26198 11.96106
#
# Poissons Ratio (x) = 0.84408 -0.13188
# Poissons Ratio (y) = 0.50774 0.23002
# Poissons Ratio (z) = -0.43284 1.25505
#
# Static dielectric constant tensor:
#      x y z
#    x 1.609550 0.000000 0.000000 
#    y 0.000000 1.645220 0.000000 
#    z 0.000000 0.000000 1.625360 
# 
# From -- ./inp_files/9021.got.cif
#   From: 2010.05.17/outbox.cif.g08.bks.cpg/sg47_5_cif.got.tgz:9021.got - 2010.06.03 20:15:42.
