data_PCOD9383365
_publ_section_title
;
Structure prediction by ZEFSAII (Michael W. Deem and Ramdas Pophale) SiO2 
 PCOD9383365
Probable space group: P M M M
;
_chemical_formula_sum "Si O2"
_cell_formula_units_Z 52
_cell_length_a 15.496265
_cell_length_b 7.512284
_cell_length_c 21.035924
_cell_angle_alpha 90.000000
_cell_angle_beta 90.000000
_cell_angle_gamma 90.000000
_cell_volume 2448.841213
_symmetry_space_group_name_H-M "P M M M"
_symmetry_group_IT_number 47
_symmetry_cell_setting 'orthorhombic'
loop_
_space_group_symop_operation_xyz
x,y,z
-x,-y,z
x,-y,-z
-x,y,-z
-x,-y,-z
x,y,-z
-x,y,z
x,-y,z
loop_
_atom_site_type_symbol
_atom_site_label
_atom_site_fract_x
_atom_site_fract_y
_atom_site_fract_z
Si Si1 0.902109 0.716999 0.427278
Si Si2 0.401961 0.706901 0.272155
Si Si3 0.327804 0.200745 0.136042
Si Si4 0.775353 0.281527 0.683884
Si Si5 0.905108 0.717357 0.794144
Si Si6 0.500000 0.700228 0.925474
Si Si7 0.153571 0.294708 0.928581
O O1 0.884980 0.771459 0.500000
O O2 0.901930 0.500000 0.426351
O O3 0.831212 0.775290 0.376680
O O4 0.000000 0.771586 0.410375
O O5 0.500000 0.782608 0.272036
O O6 0.410820 0.500000 0.289050
O O7 0.359050 0.715857 0.202180
O O8 0.323780 0.781967 0.314757
O O9 0.414287 0.203152 0.095449
O O10 0.252672 0.292224 0.095686
O O11 0.299178 0.000000 0.148415
O O12 0.773616 0.500000 0.684554
O O13 0.828917 0.226694 0.746933
O O14 0.900872 0.500000 0.796060
O O15 0.894379 0.781988 0.866731
O O16 0.000000 0.765482 0.769680
O O17 0.500000 0.500000 0.896797
O O18 0.500000 0.684315 0.000000
O O19 0.125447 0.500000 0.933442
O O20 0.145549 0.217709 0.000000
#
# Coordination Sequence:
#
# PCOD9383365 Si02
#       7
#     8   8   8   8   8   4   8
#     4   8  13  21  36  64 103 139 164 193 243 300
#     4  10  19  32  51  70  93 127 166 204 245 295
#     4  12  23  34  50  71  95 123 160 207 255 301
#     4   9  15  25  43  66  94 128 165 203 242 289
#     4   9  16  26  44  70  93 116 157 210 253 290
#     4  11  23  37  53  71  93 123 158 201 258 317
#     4  10  20  34  50  67  92 126 161 200 250 303
#
# _framework density 21.234532999999999
#
# number of rings (size 3 to 8) (size 9 to 14) (size 15 to 20)
#    0.000    2.231    2.308    3.000    0.000    4.923 
#    0.000    1.538    0.000    0.923    0.000    4.308 
#    0.000    0.615    0.000    3.077    0.000    3.077 
#
# Total GULP energy -290067.877008 kJ/mol
# GULP energy per Si atom -5578.228404 kJ/mol
# Density = 2.118620 g / cm^3
# Si number density = 21.234533 Si / 1000 Ang^3
#
#
#
# Elastic Constant Matrix: (Units=GPa)
#
#
# Indices 1 2 3 4 5 6 
#
# 1 139.2066 3.8252 69.2389 0.0000 0.0000 0.0000
# 2 3.8252 63.8819 2.5856 0.0000 0.0000 0.0000
# 3 69.2389 2.5856 118.5105 0.0000 0.0000 0.0000
# 4 0.0000 0.0000 0.0000 -22.2914 0.0000 0.0000
# 5 0.0000 0.0000 0.0000 0.0000 36.6590 0.0000
# 6 0.0000 0.0000 0.0000 0.0000 0.0000 -14.5736
#
#
#
# Elastic Compliance Matrix: (Units=1/GPa)
#
#
# Indices 1 2 3 4 5 6 
#
# 1 0.010135 -0.000368 -0.005913 0.000000 0.000000 0.000000
# 2 -0.000368 0.015681 -0.000127 0.000000 0.000000 0.000000
# 3 -0.005913 -0.000127 0.011896 0.000000 0.000000 0.000000
# 4 0.000000 0.000000 0.000000 -0.044860 0.000000 0.000000
# 5 0.000000 0.000000 0.000000 0.000000 0.027278 0.000000
# 6 0.000000 0.000000 0.000000 0.000000 0.000000 -0.068617
#
#
# Mechanical properties :
#
#
# Convention : Reuss Voigt Hill
#
# Bulk Modulus (GPa) = 40.16832 52.54427 46.35629
# Shear Modulus (GPa) = -182.66175 16.35540 -83.15318
#
# Velocity S-wave (km/s) = -9.28482 2.77831 -6.26454
# Velocity P-wave (km/s) = 9.79725 5.92372 5.51796
#
# Compressibility (1/GPa) = 0.02489524
#
# Stress axis : x y z
#
# Youngs Moduli (GPa) = 98.67039 63.77120 84.06499
#
# Poissons Ratio (x) = 0.02344 0.49709
# Poissons Ratio (y) = 0.03626 0.01071
# Poissons Ratio (z) = 0.58345 0.00812
#
# Static dielectric constant tensor:
#      x y z
#    x 1.781190 0.000000 0.000000 
#    y 0.000000 1.833210 0.000000 
#    z 0.000000 0.000000 1.756530 
# 
# From -- ./inp_files/11058.got.cif
#   From: 2010.05.17/outbox.cif.g08.bks.cpg/sg47_6_cif.got.tgz:11058.got - 2010.06.03 20:15:42.
