data_PCOD9383463
_publ_section_title
;
Structure prediction by ZEFSAII (Michael W. Deem and Ramdas Pophale) SiO2 
 PCOD9383463
Probable space group: P M M M
;
_chemical_formula_sum "Si O2"
_cell_formula_units_Z 64
_cell_length_a 20.735237
_cell_length_b 20.460173
_cell_length_c 7.974661
_cell_angle_alpha 90.000000
_cell_angle_beta 90.000000
_cell_angle_gamma 90.000000
_cell_volume 3383.222307
_symmetry_space_group_name_H-M "P M M M"
_symmetry_group_IT_number 47
_symmetry_cell_setting 'orthorhombic'
loop_
_space_group_symop_operation_xyz
x,y,z
-x,-y,z
x,-y,-z
-x,y,-z
-x,-y,-z
x,y,-z
-x,y,z
x,-y,z
loop_
_atom_site_type_symbol
_atom_site_label
_atom_site_fract_x
_atom_site_fract_y
_atom_site_fract_z
Si Si1 0.289600 0.745307 0.802470
Si Si2 0.072109 0.924030 0.202492
Si Si3 0.930138 0.711539 0.301484
Si Si4 0.430364 0.714681 0.795233
Si Si5 0.396566 0.570248 0.801470
Si Si6 0.112507 0.428689 0.196433
Si Si7 0.745688 0.603287 0.304686
Si Si8 0.171567 0.185080 0.698674
O O1 0.364111 0.750485 0.745721
O O2 0.259530 0.681851 0.712158
O O3 0.242597 0.806160 0.773993
O O4 0.290401 0.729450 0.000000
O O5 0.129757 0.879199 0.266797
O O6 0.000000 0.902297 0.258794
O O7 0.079555 0.000000 0.251207
O O8 0.072549 0.921346 0.000000
O O9 0.931706 0.725302 0.500000
O O10 0.917619 0.634908 0.279971
O O11 0.872737 0.755566 0.230897
O O12 0.000000 0.728611 0.228694
O O13 0.500000 0.740728 0.740141
O O14 0.424025 0.638955 0.737041
O O15 0.430668 0.714132 0.000000
O O16 0.418224 0.500000 0.731416
O O17 0.319656 0.575950 0.775443
O O18 0.410537 0.569568 0.000000
O O19 0.092785 0.500000 0.262708
O O20 0.189510 0.421408 0.218693
O O21 0.096598 0.426135 0.000000
O O22 0.747954 0.585599 0.500000
O O23 0.179350 0.192417 0.500000
#
# Coordination Sequence:
#
# PCOD9383463 Si02
#       8
#     8   8   8   8   8   8   8   8
#     4  10  19  32  52  75  99 129 167 211 256 302
#     4   9  19  36  57  83 117 155 189 217 249 293
#     4  10  22  38  53  71  96 127 164 207 256 308
#     4   8  15  28  46  69  96 125 160 207 260 310
#     4   9  17  28  43  64  89 118 155 199 250 312
#     4  11  23  36  50  67  88 118 160 210 264 319
#     4  11  20  31  47  67  90 119 156 202 258 313
#     4  11  21  34  55  82 109 140 176 215 255 299
#
# _framework density 18.916878000000001
#
# number of rings (size 3 to 8) (size 9 to 14) (size 15 to 20)
#    0.000    2.125    1.250    4.125    0.000    5.000 
#    0.000    3.125    0.000    9.375    0.000    3.500 
#    0.000    0.500    0.000    5.750    0.000    1.625 
#
# Total GULP energy -357159.539191 kJ/mol
# GULP energy per Si atom -5580.617800 kJ/mol
# Density = 1.887382 g / cm^3
# Si number density = 18.916878 Si / 1000 Ang^3
#
#
#
# Elastic Constant Matrix: (Units=GPa)
#
#
# Indices 1 2 3 4 5 6 
#
# 1 132.3957 43.0647 3.1587 0.0000 0.0000 0.0000
# 2 43.0647 60.9343 -0.7400 0.0000 0.0000 0.0000
# 3 3.1587 -0.7400 26.6720 0.0000 0.0000 0.0000
# 4 0.0000 0.0000 0.0000 21.4704 0.0000 0.0000
# 5 0.0000 0.0000 0.0000 0.0000 -17.2831 0.0000
# 6 0.0000 0.0000 0.0000 0.0000 0.0000 40.6054
#
#
#
# Elastic Compliance Matrix: (Units=1/GPa)
#
#
# Indices 1 2 3 4 5 6 
#
# 1 0.009857 -0.006983 -0.001361 0.000000 0.000000 0.000000
# 2 -0.006983 0.021363 0.001420 0.000000 0.000000 0.000000
# 3 -0.001361 0.001420 0.037693 0.000000 0.000000 0.000000
# 4 0.000000 0.000000 0.000000 0.046576 0.000000 0.000000
# 5 0.000000 0.000000 0.000000 0.000000 -0.057860 0.000000
# 6 0.000000 0.000000 0.000000 0.000000 0.000000 0.024627
#
#
# Mechanical properties :
#
#
# Convention : Reuss Voigt Hill
#
# Bulk Modulus (GPa) = 18.16034 34.55208 26.35621
# Shear Modulus (GPa) = 43.68349 20.59311 32.13830
#
# Velocity S-wave (km/s) = 4.81066 3.30299 4.12627
# Velocity P-wave (km/s) = 6.36220 5.73160 6.05511
#
# Compressibility (1/GPa) = 0.05506505
#
# Stress axis : x y z
#
# Youngs Moduli (GPa) = 101.45182 46.80909 26.53006
#
# Poissons Ratio (x) = 0.32686 0.03611
# Poissons Ratio (y) = 0.70842 -0.03767
# Poissons Ratio (z) = 0.13808 -0.06646
#
# Static dielectric constant tensor:
#      x y z
#    x 1.699440 0.000000 0.000000 
#    y 0.000000 1.655380 0.000000 
#    z 0.000000 0.000000 1.675460 
# 
# From -- ./inp_files/10021.got.cif
#   From: 2010.05.17/outbox.cif.g08.bks.cpg/sg47_6_cif.got.tgz:10021.got - 2010.06.03 20:15:42.
