data_PCOD9383679
_publ_section_title
;
Structure prediction by ZEFSAII (Michael W. Deem and Ramdas Pophale) SiO2 
 PCOD9383679
Probable space group: P M M M
;
_chemical_formula_sum "Si O2"
_cell_formula_units_Z 56
_cell_length_a 8.681705
_cell_length_b 19.760490
_cell_length_c 19.053128
_cell_angle_alpha 90.000000
_cell_angle_beta 90.000000
_cell_angle_gamma 90.000000
_cell_volume 3268.654512
_symmetry_space_group_name_H-M "P M M M"
_symmetry_group_IT_number 47
_symmetry_cell_setting 'orthorhombic'
loop_
_space_group_symop_operation_xyz
x,y,z
-x,-y,z
x,-y,-z
-x,y,-z
-x,-y,-z
x,y,-z
-x,y,z
x,-y,z
loop_
_atom_site_type_symbol
_atom_site_label
_atom_site_fract_x
_atom_site_fract_y
_atom_site_fract_z
Si Si1 0.686304 0.422765 0.218534
Si Si2 0.816429 0.703616 0.294443
Si Si3 0.314459 0.652469 0.077694
Si Si4 0.187355 0.074596 0.188237
Si Si5 0.684130 0.210479 0.579654
Si Si6 0.814508 0.076373 0.353392
Si Si7 0.814635 0.219318 0.850223
O O1 0.500000 0.420621 0.220088
O O2 0.735255 0.500000 0.229490
O O3 0.749695 0.369568 0.274750
O O4 0.737193 0.395472 0.141707
O O5 0.750481 0.736691 0.364390
O O6 0.778574 0.751912 0.227727
O O7 0.000000 0.700290 0.299090
O O8 0.500000 0.651164 0.077901
O O9 0.259701 0.728100 0.096228
O O10 0.261007 0.632338 0.000000
O O11 0.226577 0.082357 0.270757
O O12 0.238570 0.141485 0.147240
O O13 0.000000 0.074408 0.185564
O O14 0.240093 0.000000 0.164706
O O15 0.735731 0.223911 0.500000
O O16 0.500000 0.213313 0.581982
O O17 0.738176 0.135932 0.603195
O O18 0.000000 0.083228 0.357731
O O19 0.774038 0.000000 0.376178
O O20 0.000000 0.221392 0.858396
#
# Coordination Sequence:
#
# PCOD9383679 Si02
#       7
#     8   8   8   8   8   8   8
#     4   9  18  33  54  79 105 133 161 192 237 290
#     4  10  19  33  53  75  98 126 165 208 247 291
#     4   9  18  31  47  71 103 136 166 195 230 278
#     4   8  13  24  44  68  92 118 155 206 254 290
#     4  11  23  35  48  69 100 136 170 208 254 300
#     4   9  17  31  50  70  95 129 169 211 255 302
#     4   9  16  28  48  71  93 122 162 205 249 291
#
# _framework density 17.132431
#
# number of rings (size 3 to 8) (size 9 to 14) (size 15 to 20)
#    0.000    2.714    1.429    1.714    0.000    3.143 
#    0.000    2.857    0.000    1.286    0.000   10.000 
#    0.000    0.000    0.000    0.000    0.000    0.000 
#
# Total GULP energy -312127.566457 kJ/mol
# GULP energy per Si atom -5573.706544 kJ/mol
# Density = 1.709344 g / cm^3
# Si number density = 17.132431 Si / 1000 Ang^3
#
#
#
# Elastic Constant Matrix: (Units=GPa)
#
#
# Indices 1 2 3 4 5 6 
#
# 1 8.7877 23.0019 15.2535 0.0000 0.0000 0.0000
# 2 23.0019 141.1437 43.9337 0.0000 0.0000 0.0000
# 3 15.2535 43.9337 61.5747 0.0000 0.0000 0.0000
# 4 0.0000 0.0000 0.0000 13.4441 0.0000 0.0000
# 5 0.0000 0.0000 0.0000 0.0000 17.1487 0.0000
# 6 0.0000 0.0000 0.0000 0.0000 0.0000 25.2617
#
#
#
# Elastic Compliance Matrix: (Units=1/GPa)
#
#
# Indices 1 2 3 4 5 6 
#
# 1 0.272370 -0.030062 -0.046023 0.000000 0.000000 0.000000
# 2 -0.030062 0.012426 -0.001419 0.000000 0.000000 0.000000
# 3 -0.046023 -0.001419 0.028654 0.000000 0.000000 0.000000
# 4 0.000000 0.000000 0.000000 0.074382 0.000000 0.000000
# 5 0.000000 0.000000 0.000000 0.000000 0.058314 0.000000
# 6 0.000000 0.000000 0.000000 0.000000 0.000000 0.039586
#
#
# Mechanical properties :
#
#
# Convention : Reuss Voigt Hill
#
# Bulk Modulus (GPa) = 6.31147 41.76493 24.03820
# Shear Modulus (GPa) = 7.20927 19.79203 13.50065
#
# Velocity S-wave (km/s) = 2.05356 3.40257 2.81021
# Velocity P-wave (km/s) = 3.05200 6.31405 4.95893
#
# Compressibility (1/GPa) = 0.15844159
#
# Stress axis : x y z
#
# Youngs Moduli (GPa) = 3.67148 80.47805 34.89953
#
# Poissons Ratio (x) = 2.41934 1.60618
# Poissons Ratio (y) = 0.11037 0.04951
# Poissons Ratio (z) = 0.16897 0.11418
#
# Static dielectric constant tensor:
#      x y z
#    x 1.579160 0.000000 0.000000 
#    y 0.000000 1.586340 0.000000 
#    z 0.000000 0.000000 1.571420 
# 
# From -- ./inp_files/26937.got.cif
#   From: 2010.05.17/outbox.cif.g08.bks.cpg/sg47_14_cif.got.tgz:26937.got - 2010.06.03 20:15:42.
