data_PCOD9383705
_publ_section_title
;
Structure prediction by ZEFSAII (Michael W. Deem and Ramdas Pophale) SiO2 
 PCOD9383705
Probable space group: P M M M
;
_chemical_formula_sum "Si O2"
_cell_formula_units_Z 56
_cell_length_a 7.838862
_cell_length_b 15.615406
_cell_length_c 23.482789
_cell_angle_alpha 90.000000
_cell_angle_beta 90.000000
_cell_angle_gamma 90.000000
_cell_volume 2874.458052
_symmetry_space_group_name_H-M "P M M M"
_symmetry_group_IT_number 47
_symmetry_cell_setting 'orthorhombic'
loop_
_space_group_symop_operation_xyz
x,y,z
-x,-y,z
x,-y,-z
-x,y,-z
-x,-y,-z
x,y,-z
-x,y,z
x,-y,z
loop_
_atom_site_type_symbol
_atom_site_label
_atom_site_fract_x
_atom_site_fract_y
_atom_site_fract_z
Si Si1 0.297018 0.598247 0.249711
Si Si2 0.708168 0.332600 0.371028
Si Si3 0.705911 0.161310 0.434587
Si Si4 0.198650 0.774522 0.223565
Si Si5 0.708071 0.500000 0.437247
Si Si6 0.298003 0.901375 0.124369
Si Si7 0.205112 0.092759 0.315967
Si Si8 0.795934 0.098469 0.000000
O O1 0.500000 0.588768 0.256039
O O2 0.232227 0.500000 0.240096
O O3 0.230734 0.642233 0.308075
O O4 0.269469 0.679928 0.208725
O O5 0.500000 0.326102 0.368583
O O6 0.767679 0.250516 0.406354
O O7 0.758953 0.414969 0.406272
O O8 0.766441 0.147221 0.500000
O O9 0.500000 0.163497 0.437974
O O10 0.752535 0.098229 0.382978
O O11 0.219917 0.840254 0.171700
O O12 0.273533 0.826893 0.278754
O O13 0.000000 0.761689 0.234545
O O14 0.500000 0.500000 0.437943
O O15 0.774051 0.500000 0.500000
O O16 0.500000 0.903958 0.133709
O O17 0.232078 0.000000 0.127709
O O18 0.264391 0.866576 0.060586
O O19 0.000000 0.094750 0.310555
O O20 0.265517 0.000000 0.293698
O O21 0.000000 0.098504 0.000000
O O22 0.731834 0.000000 0.000000
#
# Coordination Sequence:
#
# PCOD9383705 Si02
#       8
#     8   8   8   8   4   8   8   4
#     4  10  19  33  54  77 102 134 173 219 272 329
#     4   9  15  26  43  66  94 121 152 198 257 319
#     4  10  20  33  50  71  94 122 162 214 268 322
#     4  11  22  36  55  78 107 143 183 227 272 323
#     4   9  14  20  36  64  93 119 149 188 245 318
#     4  10  20  34  55  85 120 156 192 229 269 312
#     4  10  22  38  53  70  95 131 174 218 266 322
#     4   9  17  31  53  83 122 163 196 225 259 305
#
# _framework density 19.481933000000001
#
# number of rings (size 3 to 8) (size 9 to 14) (size 15 to 20)
#    0.000    2.143    2.143    1.929    0.000    5.714 
#    0.000    1.429    0.000    0.000    0.000    0.500 
#    0.000    8.571    0.000    0.000    0.000    0.000 
#
# Total GULP energy -311913.694330 kJ/mol
# GULP energy per Si atom -5569.887399 kJ/mol
# Density = 1.943759 g / cm^3
# Si number density = 19.481933 Si / 1000 Ang^3
#
#
#
# Elastic Constant Matrix: (Units=GPa)
#
#
# Indices 1 2 3 4 5 6 
#
# 1 33.3899 10.3774 0.8821 0.0000 0.0000 0.0000
# 2 10.3774 145.7657 38.2519 0.0000 0.0000 0.0000
# 3 0.8821 38.2519 85.4880 0.0000 0.0000 0.0000
# 4 0.0000 0.0000 0.0000 24.5200 0.0000 0.0000
# 5 0.0000 0.0000 0.0000 0.0000 19.6733 0.0000
# 6 0.0000 0.0000 0.0000 0.0000 0.0000 14.7889
#
#
#
# Elastic Compliance Matrix: (Units=1/GPa)
#
#
# Indices 1 2 3 4 5 6 
#
# 1 0.030669 -0.002380 0.000748 0.000000 0.000000 0.000000
# 2 -0.002380 0.007958 -0.003536 0.000000 0.000000 0.000000
# 3 0.000748 -0.003536 0.013272 0.000000 0.000000 0.000000
# 4 0.000000 0.000000 0.000000 0.040783 0.000000 0.000000
# 5 0.000000 0.000000 0.000000 0.000000 0.050830 0.000000
# 6 0.000000 0.000000 0.000000 0.000000 0.000000 0.067618
#
#
# Mechanical properties :
#
#
# Convention : Reuss Voigt Hill
#
# Bulk Modulus (GPa) = 24.05942 40.40736 32.23339
# Shear Modulus (GPa) = 21.24765 26.13860 23.69312
#
# Velocity S-wave (km/s) = 3.30606 3.66687 3.49113
# Velocity P-wave (km/s) = 5.19132 6.22205 5.72991
#
# Compressibility (1/GPa) = 0.04156376
#
# Stress axis : x y z
#
# Youngs Moduli (GPa) = 32.60618 125.66444 75.34614
#
# Poissons Ratio (x) = 0.29906 -0.05639
# Poissons Ratio (y) = 0.07760 0.26643
# Poissons Ratio (z) = -0.02440 0.44437
#
# Static dielectric constant tensor:
#      x y z
#    x 1.712570 0.000000 0.000000 
#    y 0.000000 1.748590 0.000000 
#    z 0.000000 0.000000 1.714020 
# 
# From -- ./inp_files/29766.got.cif
#   From: 2010.05.17/outbox.cif.g08.bks.cpg/sg47_15_cif.got.tgz:29766.got - 2010.06.03 20:15:42.
