data_PCOD9383347
_publ_section_title
;
Structure prediction by ZEFSAII (Michael W. Deem and Ramdas Pophale) SiO2 
 PCOD9383347
Probable space group: P M M M
;
_chemical_formula_sum "Si O2"
_cell_formula_units_Z 44
_cell_length_a 7.777010
_cell_length_b 29.640727
_cell_length_c 10.286078
_cell_angle_alpha 90.000000
_cell_angle_beta 90.000000
_cell_angle_gamma 90.000000
_cell_volume 2371.107925
_symmetry_space_group_name_H-M "P M M M"
_symmetry_group_IT_number 47
_symmetry_cell_setting 'orthorhombic'
loop_
_space_group_symop_operation_xyz
x,y,z
-x,-y,z
x,-y,-z
-x,y,-z
-x,-y,-z
x,y,-z
-x,y,z
x,-y,z
loop_
_atom_site_type_symbol
_atom_site_label
_atom_site_fract_x
_atom_site_fract_y
_atom_site_fract_z
Si Si1 0.691293 0.615553 0.342275
Si Si2 0.289636 0.948770 0.000000
Si Si3 0.710682 0.052584 0.500000
Si Si4 0.000000 0.551930 0.340995
Si Si5 0.794541 0.206224 0.850245
Si Si6 0.292164 0.107664 0.247470
Si Si7 0.791706 0.717887 0.350138
O O1 0.691786 0.613572 0.500000
O O2 0.500000 0.604758 0.296329
O O3 0.737507 0.667318 0.312157
O O4 0.833658 0.580136 0.297716
O O5 0.233186 0.921868 0.125843
O O6 0.500000 0.949243 0.000000
O O7 0.231456 0.000000 0.000000
O O8 0.500000 0.051297 0.500000
O O9 0.766411 0.081513 0.624411
O O10 0.765711 0.000000 0.500000
O O11 0.000000 0.500000 0.299524
O O12 0.000000 0.551928 0.500000
O O13 0.762187 0.158753 0.778871
O O14 0.729098 0.245933 0.755690
O O15 0.000000 0.212049 0.859596
O O16 0.727651 0.205725 0.000000
O O17 0.500000 0.107648 0.250031
O O18 0.734196 0.726774 0.500000
O O19 0.000000 0.719151 0.352495
#
# Coordination Sequence:
#
# PCOD9383347 Si02
#       7
#     8   4   4   4   8   8   8
#     4   9  16  27  44  68  99 135 177 224 266 311
#     4   9  16  28  49  71  89 119 161 195 237 300
#     4   9  18  32  51  75  99 123 157 205 253 296
#     4   9  16  26  42  66 103 147 183 221 264 313
#     4  10  21  35  50  71 101 133 162 201 252 307
#     4  10  19  32  50  72  97 123 155 203 251 297
#     4   9  17  31  50  68  91 131 174 209 254 311
#
# _framework density 18.556726999999999
#
# number of rings (size 3 to 8) (size 9 to 14) (size 15 to 20)
#    0.000    2.636    1.818    0.545    1.273    3.273 
#    0.000    1.818    0.000    3.273    0.000    0.000 
#    0.000    1.455    0.000    1.636    0.000    1.818 
#
# Total GULP energy -245338.168556 kJ/mol
# GULP energy per Si atom -5575.867467 kJ/mol
# Density = 1.851449 g / cm^3
# Si number density = 18.556727 Si / 1000 Ang^3
#
#
#
# Elastic Constant Matrix: (Units=GPa)
#
#
# Indices 1 2 3 4 5 6 
#
# 1 53.8217 48.2758 26.1358 0.0000 0.0000 0.0000
# 2 48.2758 195.3606 81.6378 0.0000 0.0000 0.0000
# 3 26.1358 81.6378 117.2090 0.0000 0.0000 0.0000
# 4 0.0000 0.0000 0.0000 19.7084 0.0000 0.0000
# 5 0.0000 0.0000 0.0000 0.0000 2.0821 0.0000
# 6 0.0000 0.0000 0.0000 0.0000 0.0000 23.9873
#
#
#
# Elastic Compliance Matrix: (Units=1/GPa)
#
#
# Indices 1 2 3 4 5 6 
#
# 1 0.024117 -0.005236 -0.001730 0.000000 0.000000 0.000000
# 2 -0.005236 0.008357 -0.004653 0.000000 0.000000 0.000000
# 3 -0.001730 -0.004653 0.012159 0.000000 0.000000 0.000000
# 4 0.000000 0.000000 0.000000 0.050740 0.000000 0.000000
# 5 0.000000 0.000000 0.000000 0.000000 0.480284 0.000000
# 6 0.000000 0.000000 0.000000 0.000000 0.000000 0.041689
#
#
# Mechanical properties :
#
#
# Convention : Reuss Voigt Hill
#
# Bulk Modulus (GPa) = 46.74514 75.38779 61.06646
# Shear Modulus (GPa) = 7.71942 23.17836 15.44889
#
# Velocity S-wave (km/s) = 2.04180 3.53803 2.88848
# Velocity P-wave (km/s) = 5.55011 7.57654 6.64107
#
# Compressibility (1/GPa) = 0.02139260
#
# Stress axis : x y z
#
# Youngs Moduli (GPa) = 41.46444 119.65635 82.24543
#
# Poissons Ratio (x) = 0.62658 0.14232
# Poissons Ratio (y) = 0.21713 0.38271
# Poissons Ratio (z) = 0.07175 0.55680
#
# Static dielectric constant tensor:
#      x y z
#    x 1.688710 0.000000 0.000000 
#    y 0.000000 1.611130 0.000000 
#    z 0.000000 0.000000 1.604880 
# 
# From -- ./inp_files/2394.got.cif
#   From: 2010.05.17/outbox.cif.g08.bks.cpg/sg47_2_cif.got.tgz:2394.got - 2010.06.03 20:15:42.
