data_PCOD9383281
_publ_section_title
;
Structure prediction by ZEFSAII (Michael W. Deem and Ramdas Pophale) SiO2 
 PCOD9383281
Probable space group: P M M M
;
_chemical_formula_sum "Si O2"
_cell_formula_units_Z 36
_cell_length_a 16.975024
_cell_length_b 7.905337
_cell_length_c 17.219931
_cell_angle_alpha 90.000000
_cell_angle_beta 90.000000
_cell_angle_gamma 90.000000
_cell_volume 2310.799114
_symmetry_space_group_name_H-M "P M M M"
_symmetry_group_IT_number 47
_symmetry_cell_setting 'orthorhombic'
loop_
_space_group_symop_operation_xyz
x,y,z
-x,-y,z
x,-y,-z
-x,y,-z
-x,-y,-z
x,y,-z
-x,y,z
x,-y,z
loop_
_atom_site_type_symbol
_atom_site_label
_atom_site_fract_x
_atom_site_fract_y
_atom_site_fract_z
Si Si1 0.326399 0.800933 0.590579
Si Si2 0.904377 0.694834 0.000000
Si Si3 0.825027 0.305357 0.673481
Si Si4 0.500000 0.694910 0.406173
Si Si5 0.909234 0.705708 0.169126
Si Si6 0.911073 0.000000 0.592231
O O1 0.318249 0.741608 0.500000
O O2 0.265779 0.710056 0.647889
O O3 0.416954 0.776777 0.615957
O O4 0.308034 0.000000 0.590771
O O5 0.883874 0.770839 0.916091
O O6 0.875795 0.500000 0.000000
O O7 0.000000 0.689626 0.000000
O O8 0.850673 0.500000 0.661729
O O9 0.849699 0.256043 0.761205
O O10 0.869052 0.169577 0.620564
O O11 0.500000 0.500000 0.381907
O O12 0.500000 0.701728 0.500000
O O13 0.912108 0.500000 0.163229
O O14 0.000000 0.759895 0.185704
O O15 0.911215 0.000000 0.500000
O O16 0.000000 0.000000 0.622292
#
# Coordination Sequence:
#
# PCOD9383281 Si02
#       6
#     8   4   8   4   8   4
#     4  10  19  32  48  67  93 124 157 193 236 284
#     4   7  10  20  40  65  91 116 146 188 237 290
#     4  11  21  33  50  70  93 123 161 203 241 280
#     4   9  17  29  47  71  93 116 149 189 237 289
#     4   8  14  25  43  67  92 120 155 194 239 286
#     4  11  24  38  48  62  88 124 166 207 244 280
#
# _framework density 15.579025
#
# number of rings (size 3 to 8) (size 9 to 14) (size 15 to 20)
#    0.000    2.556    1.111    3.667    0.000    5.333 
#    0.000    1.111    0.000    0.667    0.000    3.111 
#    0.000    0.889    0.000   10.444    0.000    2.000 
#
# Total GULP energy -200461.617780 kJ/mol
# GULP energy per Si atom -5568.378272 kJ/mol
# Density = 1.554357 g / cm^3
# Si number density = 15.579025 Si / 1000 Ang^3
#
#
#
# Elastic Constant Matrix: (Units=GPa)
#
#
# Indices 1 2 3 4 5 6 
#
# 1 89.2578 20.0639 51.4557 0.0000 0.0000 0.0000
# 2 20.0639 54.0907 19.6360 0.0000 0.0000 0.0000
# 3 51.4557 19.6360 98.9102 0.0000 0.0000 0.0000
# 4 0.0000 0.0000 0.0000 -30.4823 0.0000 0.0000
# 5 0.0000 0.0000 0.0000 0.0000 15.4396 0.0000
# 6 0.0000 0.0000 0.0000 0.0000 0.0000 17.9763
#
#
#
# Elastic Compliance Matrix: (Units=1/GPa)
#
#
# Indices 1 2 3 4 5 6 
#
# 1 0.016513 -0.003240 -0.007947 0.000000 0.000000 0.000000
# 2 -0.003240 0.020559 -0.002396 0.000000 0.000000 0.000000
# 3 -0.007947 -0.002396 0.014720 0.000000 0.000000 0.000000
# 4 0.000000 0.000000 0.000000 -0.032806 0.000000 0.000000
# 5 0.000000 0.000000 0.000000 0.000000 0.064769 0.000000
# 6 0.000000 0.000000 0.000000 0.000000 0.000000 0.055629
#
#
# Mechanical properties :
#
#
# Convention : Reuss Voigt Hill
#
# Bulk Modulus (GPa) = 40.60781 47.17442 43.89111
# Shear Modulus (GPa) = 28.61063 10.66024 19.63543
#
# Velocity S-wave (km/s) = 4.29007 2.61869 3.55403
# Velocity P-wave (km/s) = 7.11772 6.28409 6.71386
#
# Compressibility (1/GPa) = 0.02462581
#
# Stress axis : x y z
#
# Youngs Moduli (GPa) = 60.55667 48.64024 67.93341
#
# Poissons Ratio (x) = 0.15761 0.53990
# Poissons Ratio (y) = 0.19622 0.16276
# Poissons Ratio (z) = 0.48127 0.11653
#
# Static dielectric constant tensor:
#      x y z
#    x 1.527090 0.000000 0.000000 
#    y 0.000000 1.554670 0.000000 
#    z 0.000000 0.000000 1.540760 
# 
# From -- ./inp_files/23288.got.cif
#   From: 2010.05.17/outbox.cif.g08.bks.cpg/sg47_12_cif.got.tgz:23288.got - 2010.06.03 20:15:42.
