data_PCOD9383999
_publ_section_title
;
Structure prediction by ZEFSAII (Michael W. Deem and Ramdas Pophale) SiO2 
 PCOD9383999
Probable space group: P M M M
;
_chemical_formula_sum "Si O2"
_cell_formula_units_Z 44
_cell_length_a 28.069246
_cell_length_b 10.454324
_cell_length_c 7.623681
_cell_angle_alpha 90.000000
_cell_angle_beta 90.000000
_cell_angle_gamma 90.000000
_cell_volume 2237.131011
_symmetry_space_group_name_H-M "P M M M"
_symmetry_group_IT_number 47
_symmetry_cell_setting 'orthorhombic'
loop_
_space_group_symop_operation_xyz
x,y,z
-x,-y,z
x,-y,-z
-x,y,-z
-x,-y,-z
x,y,-z
-x,y,z
x,-y,z
loop_
_atom_site_type_symbol
_atom_site_label
_atom_site_fract_x
_atom_site_fract_y
_atom_site_fract_z
Si Si1 0.819207 0.145206 0.707928
Si Si2 0.387349 0.753404 0.790173
Si Si3 0.554660 0.000000 0.784878
Si Si4 0.895365 0.647917 0.284299
Si Si5 0.000000 0.344861 0.701365
Si Si6 0.445993 0.500000 0.292223
Si Si7 0.288735 0.147889 0.211615
O O1 0.828018 0.136916 0.500000
O O2 0.855626 0.251810 0.775939
O O3 0.764191 0.184805 0.731223
O O4 0.824452 0.000000 0.780002
O O5 0.415694 0.624466 0.755793
O O6 0.332970 0.766572 0.725572
O O7 0.417798 0.873903 0.725016
O O8 0.384548 0.766952 0.000000
O O9 0.500000 0.000000 0.729023
O O10 0.554820 0.000000 0.000000
O O11 0.896358 0.647229 0.500000
O O12 0.886473 0.500000 0.232438
O O13 0.948402 0.688851 0.223020
O O14 0.000000 0.500000 0.696680
O O15 0.000000 0.298291 0.500000
O O16 0.500000 0.500000 0.217264
O O17 0.450595 0.500000 0.500000
O O18 0.297108 0.000000 0.266475
O O19 0.288278 0.148933 0.000000
#
# Coordination Sequence:
#
# PCOD9383999 Si02
#       7
#     8   8   4   8   4   4   8
#     4   9  17  28  43  65  94 125 155 188 232 285
#     4  10  19  35  58  80 100 128 167 207 246 290
#     4   9  16  28  53  85 103 115 153 210 251 282
#     4   8  13  23  39  60  87 119 155 193 232 279
#     4   7  10  18  35  57  82 115 152 190 234 277
#     4  11  25  41  53  73 109 143 165 192 239 298
#     4   9  17  32  53  75  98 124 158 201 245 287
#
# _framework density 19.668047999999999
#
# number of rings (size 3 to 8) (size 9 to 14) (size 15 to 20)
#    0.000    3.000    0.909    1.909    0.000    2.182 
#    1.636    0.909    0.000    4.364    0.000    0.636 
#    0.000    5.091    0.000    0.000    0.000    0.000 
#
# Total GULP energy -245237.718879 kJ/mol
# GULP energy per Si atom -5573.584520 kJ/mol
# Density = 1.962328 g / cm^3
# Si number density = 19.668048 Si / 1000 Ang^3
#
#
#
# Elastic Constant Matrix: (Units=GPa)
#
#
# Indices 1 2 3 4 5 6 
#
# 1 218.5044 118.5505 3.9544 0.0000 0.0000 0.0000
# 2 118.5505 135.1870 1.2413 0.0000 0.0000 0.0000
# 3 3.9544 1.2413 35.9853 0.0000 0.0000 0.0000
# 4 0.0000 0.0000 0.0000 -50.5698 0.0000 0.0000
# 5 0.0000 0.0000 0.0000 0.0000 25.6036 0.0000
# 6 0.0000 0.0000 0.0000 0.0000 0.0000 39.0484
#
#
#
# Elastic Compliance Matrix: (Units=1/GPa)
#
#
# Indices 1 2 3 4 5 6 
#
# 1 0.008748 -0.007665 -0.000697 0.000000 0.000000 0.000000
# 2 -0.007665 0.014115 0.000355 0.000000 0.000000 0.000000
# 3 -0.000697 0.000355 0.027853 0.000000 0.000000 0.000000
# 4 0.000000 0.000000 0.000000 -0.019775 0.000000 0.000000
# 5 0.000000 0.000000 0.000000 0.000000 0.039057 0.000000
# 6 0.000000 0.000000 0.000000 0.000000 0.000000 0.025609
#
#
# Mechanical properties :
#
#
# Convention : Reuss Voigt Hill
#
# Bulk Modulus (GPa) = 28.81511 70.79655 49.80583
# Shear Modulus (GPa) = 40.58801 20.54513 30.56657
#
# Velocity S-wave (km/s) = 4.54767 3.23552 3.94651
# Velocity P-wave (km/s) = 6.50059 7.07333 6.79300
#
# Compressibility (1/GPa) = 0.03470402
#
# Stress axis : x y z
#
# Youngs Moduli (GPa) = 114.31481 70.84416 35.90216
#
# Poissons Ratio (x) = 0.54301 0.02502
# Poissons Ratio (y) = 0.87621 -0.01276
# Poissons Ratio (z) = 0.07967 -0.02518
#
# Static dielectric constant tensor:
#      x y z
#    x 1.709700 0.000000 0.000000 
#    y 0.000000 1.647180 0.000000 
#    z 0.000000 0.000000 1.757670 
# 
# From -- ./inp_files/13711.got.cif
#   From: 2010.05.17/outbox.cif.g08.bks.cpg/sg47_7_cif.got.tgz:13711.got - 2010.06.03 20:15:42.
