data_PCOD9383554
_publ_section_title
;
Structure prediction by ZEFSAII (Michael W. Deem and Ramdas Pophale) SiO2 
 PCOD9383554
Probable space group: P M M M
;
_chemical_formula_sum "Si O2"
_cell_formula_units_Z 48
_cell_length_a 33.662216
_cell_length_b 8.339376
_cell_length_c 8.408739
_cell_angle_alpha 90.000000
_cell_angle_beta 90.000000
_cell_angle_gamma 90.000000
_cell_volume 2360.516989
_symmetry_space_group_name_H-M "P M M M"
_symmetry_group_IT_number 47
_symmetry_cell_setting 'orthorhombic'
loop_
_space_group_symop_operation_xyz
x,y,z
-x,-y,z
x,-y,-z
-x,y,-z
-x,-y,-z
x,y,-z
-x,y,z
x,-y,z
loop_
_atom_site_type_symbol
_atom_site_label
_atom_site_fract_x
_atom_site_fract_y
_atom_site_fract_z
Si Si1 0.417260 0.189894 0.818368
Si Si2 0.500000 0.690234 0.816228
Si Si3 0.168744 0.694124 0.681154
Si Si4 0.664605 0.314696 0.688411
Si Si5 0.910606 0.192529 0.176204
Si Si6 0.046323 0.804372 0.500000
Si Si7 0.747808 0.693727 0.185190
O O1 0.458179 0.255025 0.744187
O O2 0.376600 0.232688 0.732139
O O3 0.421037 0.000000 0.825102
O O4 0.414304 0.254129 0.000000
O O5 0.500000 0.500000 0.821841
O O6 0.500000 0.754220 0.000000
O O7 0.158743 0.738490 0.500000
O O8 0.167998 0.500000 0.694053
O O9 0.135429 0.764205 0.795945
O O10 0.213385 0.749538 0.720749
O O11 0.670256 0.313195 0.500000
O O12 0.660989 0.500000 0.742198
O O13 0.704673 0.243315 0.763994
O O14 0.933431 0.252418 0.334826
O O15 0.915021 0.000000 0.175196
O O16 0.923376 0.250984 0.000000
O O17 0.000000 0.762345 0.500000
O O18 0.049288 0.000000 0.500000
O O19 0.745945 0.500000 0.210037
O O20 0.754319 0.723597 0.000000
#
# Coordination Sequence:
#
# PCOD9383554 Si02
#       7
#     8   4   8   8   8   4   8
#     4  10  20  34  53  77 105 135 167 207 256 310
#     4   9  17  31  54  81 104 129 166 210 256 307
#     4  10  19  32  53  80 110 145 182 221 269 324
#     4  10  20  34  52  74 101 134 172 213 256 304
#     4  10  20  34  54  80 109 142 181 226 277 331
#     4   9  18  34  55  79 109 143 181 229 281 332
#     4   9  17  30  50  76 104 135 174 219 262 308
#
# _framework density 20.334527000000001
#
# number of rings (size 3 to 8) (size 9 to 14) (size 15 to 20)
#    0.000    2.333    0.833    2.250    0.000    6.333 
#    0.000    2.917    0.000    8.500    0.000    1.167 
#    0.000    0.000    0.000    0.000    0.000    0.000 
#
# Total GULP energy -267750.191405 kJ/mol
# GULP energy per Si atom -5578.128988 kJ/mol
# Density = 2.028825 g / cm^3
# Si number density = 20.334527 Si / 1000 Ang^3
#
#
#
# Elastic Constant Matrix: (Units=GPa)
#
#
# Indices 1 2 3 4 5 6 
#
# 1 123.8664 6.9076 63.2351 0.0000 0.0000 0.0000
# 2 6.9076 10.0769 12.4669 0.0000 0.0000 0.0000
# 3 63.2351 12.4669 79.9983 0.0000 0.0000 0.0000
# 4 0.0000 0.0000 0.0000 14.2781 0.0000 0.0000
# 5 0.0000 0.0000 0.0000 0.0000 23.5643 0.0000
# 6 0.0000 0.0000 0.0000 0.0000 0.0000 23.1701
#
#
#
# Elastic Compliance Matrix: (Units=1/GPa)
#
#
# Indices 1 2 3 4 5 6 
#
# 1 0.013734 0.004976 -0.011631 0.000000 0.000000 0.000000
# 2 0.004976 0.124743 -0.023373 0.000000 0.000000 0.000000
# 3 -0.011631 -0.023373 0.025337 0.000000 0.000000 0.000000
# 4 0.000000 0.000000 0.000000 0.070037 0.000000 0.000000
# 5 0.000000 0.000000 0.000000 0.000000 0.042437 0.000000
# 6 0.000000 0.000000 0.000000 0.000000 0.000000 0.043159
#
#
# Mechanical properties :
#
#
# Convention : Reuss Voigt Hill
#
# Bulk Modulus (GPa) = 9.63796 42.12898 25.88347
# Shear Modulus (GPa) = 12.07467 20.95795 16.51631
#
# Velocity S-wave (km/s) = 2.43945 3.21387 2.85306
# Velocity P-wave (km/s) = 3.56154 5.87664 4.85898
#
# Compressibility (1/GPa) = 0.10375636
#
# Stress axis : x y z
#
# Youngs Moduli (GPa) = 72.81420 8.01646 39.46845
#
# Poissons Ratio (x) = -0.03989 0.45907
# Poissons Ratio (y) = -0.36230 0.92250
# Poissons Ratio (z) = 0.84692 0.18737
#
# Static dielectric constant tensor:
#      x y z
#    x 1.731350 0.000000 0.000000 
#    y 0.000000 1.717660 0.000000 
#    z 0.000000 0.000000 1.735600 
# 
# From -- ./inp_files/13829.got.cif
#   From: 2010.05.17/outbox.cif.g08.bks.cpg/sg47_7_cif.got.tgz:13829.got - 2010.06.03 20:15:42.
