data_PCOD9383795
_publ_section_title
;
Structure prediction by ZEFSAII (Michael W. Deem and Ramdas Pophale) SiO2 
 PCOD9383795
Probable space group: P M M M
;
_chemical_formula_sum "Si O2"
_cell_formula_units_Z 56
_cell_length_a 20.950166
_cell_length_b 16.007839
_cell_length_c 7.825975
_cell_angle_alpha 90.000000
_cell_angle_beta 90.000000
_cell_angle_gamma 90.000000
_cell_volume 2624.572853
_symmetry_space_group_name_H-M "P M M M"
_symmetry_group_IT_number 47
_symmetry_cell_setting 'orthorhombic'
loop_
_space_group_symop_operation_xyz
x,y,z
-x,-y,z
x,-y,-z
-x,y,-z
-x,-y,-z
x,y,-z
-x,y,z
x,-y,z
loop_
_atom_site_type_symbol
_atom_site_label
_atom_site_fract_x
_atom_site_fract_y
_atom_site_fract_z
Si Si1 0.328216 0.407151 0.793567
Si Si2 0.791649 0.311101 0.703047
Si Si3 0.931098 0.274412 0.708849
Si Si4 0.100147 0.910591 0.700505
Si Si5 0.429416 0.728072 0.202545
Si Si6 0.383379 0.090658 0.699286
Si Si7 0.241710 0.127749 0.197907
O O1 0.347042 0.500000 0.737066
O O2 0.256152 0.385791 0.740193
O O3 0.375439 0.334478 0.727774
O O4 0.329638 0.405640 0.000000
O O5 0.792266 0.294831 0.500000
O O6 0.865323 0.319140 0.760263
O O7 0.762596 0.228173 0.788952
O O8 0.931051 0.273641 0.500000
O O9 0.925185 0.177623 0.768515
O O10 0.000000 0.308088 0.763882
O O11 0.083458 0.911423 0.500000
O O12 0.176786 0.904651 0.717745
O O13 0.079498 0.000000 0.774825
O O14 0.500000 0.713012 0.274987
O O15 0.411504 0.825143 0.222654
O O16 0.432094 0.711820 0.000000
O O17 0.400146 0.091926 0.500000
O O18 0.306815 0.097629 0.718099
O O19 0.403331 0.000000 0.771016
O O20 0.242161 0.103200 0.000000
#
# Coordination Sequence:
#
# PCOD9383795 Si02
#       7
#     8   8   8   8   8   8   8
#     4  10  21  38  62  91 119 148 183 225 278 340
#     4  10  19  33  56  83 111 144 183 229 280 331
#     4   8  15  28  47  73 104 140 183 230 280 331
#     4   9  17  28  43  67 100 137 181 233 285 335
#     4  10  22  40  61  86 117 153 190 229 276 332
#     4  11  23  37  55  80 112 152 196 239 283 329
#     4  11  20  31  50  75 105 143 187 234 285 333
#
# _framework density 21.336805999999999
#
# number of rings (size 3 to 8) (size 9 to 14) (size 15 to 20)
#    0.000    2.143    1.429    3.429    0.000    4.571 
#    0.000    4.286    0.000   11.143    0.000    9.000 
#    0.000    0.000    0.000    0.000    0.000    0.000 
#
# Total GULP energy -312573.412710 kJ/mol
# GULP energy per Si atom -5581.668084 kJ/mol
# Density = 2.128824 g / cm^3
# Si number density = 21.336806 Si / 1000 Ang^3
#
#
#
# Elastic Constant Matrix: (Units=GPa)
#
#
# Indices 1 2 3 4 5 6 
#
# 1 134.7733 54.5497 0.1100 0.0000 0.0000 0.0000
# 2 54.5497 96.6721 4.3349 0.0000 0.0000 0.0000
# 3 0.1100 4.3349 37.4601 0.0000 0.0000 0.0000
# 4 0.0000 0.0000 0.0000 17.6699 0.0000 0.0000
# 5 0.0000 0.0000 0.0000 0.0000 11.5267 0.0000
# 6 0.0000 0.0000 0.0000 0.0000 0.0000 1.4604
#
#
#
# Elastic Compliance Matrix: (Units=1/GPa)
#
#
# Indices 1 2 3 4 5 6 
#
# 1 0.009630 -0.005461 0.000604 0.000000 0.000000 0.000000
# 2 -0.005461 0.013495 -0.001546 0.000000 0.000000 0.000000
# 3 0.000604 -0.001546 0.026872 0.000000 0.000000 0.000000
# 4 0.000000 0.000000 0.000000 0.056594 0.000000 0.000000
# 5 0.000000 0.000000 0.000000 0.000000 0.086755 0.000000
# 6 0.000000 0.000000 0.000000 0.000000 0.000000 0.684736
#
#
# Mechanical properties :
#
#
# Convention : Reuss Voigt Hill
#
# Bulk Modulus (GPa) = 26.88810 42.98829 34.93820
# Shear Modulus (GPa) = 5.53536 20.12545 12.83041
#
# Velocity S-wave (km/s) = 1.61242 3.07453 2.45486
# Velocity P-wave (km/s) = 4.01194 5.72668 4.94422
#
# Compressibility (1/GPa) = 0.03719117
#
# Stress axis : x y z
#
# Youngs Moduli (GPa) = 103.84581 74.10167 37.21327
#
# Poissons Ratio (x) = 0.40466 -0.02246
# Poissons Ratio (y) = 0.56709 0.05752
# Poissons Ratio (z) = -0.06269 0.11453
#
# Static dielectric constant tensor:
#      x y z
#    x 1.785560 0.000000 0.000000 
#    y 0.000000 1.779800 0.000000 
#    z 0.000000 0.000000 1.786780 
# 
# From -- ./inp_files/11215.got.cif
#   From: 2010.05.17/outbox.cif.g08.bks.cpg/sg47_6_cif.got.tgz:11215.got - 2010.06.03 20:15:42.
