data_PCOD9383590
_publ_section_title
;
Structure prediction by ZEFSAII (Michael W. Deem and Ramdas Pophale) SiO2 
 PCOD9383590
Probable space group: P M M M
;
_chemical_formula_sum "Si O2"
_cell_formula_units_Z 56
_cell_length_a 14.746161
_cell_length_b 7.821056
_cell_length_c 22.072807
_cell_angle_alpha 90.000000
_cell_angle_beta 90.000000
_cell_angle_gamma 90.000000
_cell_volume 2545.668993
_symmetry_space_group_name_H-M "P M M M"
_symmetry_group_IT_number 47
_symmetry_cell_setting 'orthorhombic'
loop_
_space_group_symop_operation_xyz
x,y,z
-x,-y,z
x,-y,-z
-x,y,-z
-x,-y,-z
x,y,-z
-x,y,z
x,-y,z
loop_
_atom_site_type_symbol
_atom_site_label
_atom_site_fract_x
_atom_site_fract_y
_atom_site_fract_z
Si Si1 0.291813 0.800975 0.565848
Si Si2 0.297531 0.289990 0.932251
Si Si3 0.601858 0.296716 0.314862
Si Si4 0.101503 0.702576 0.612519
Si Si5 0.294101 0.705239 0.802583
Si Si6 0.904853 0.695673 0.927414
Si Si7 0.898623 0.795096 0.246870
O O1 0.314919 0.725411 0.500000
O O2 0.342753 0.725562 0.623447
O O3 0.184289 0.783869 0.576910
O O4 0.315326 0.000000 0.564962
O O5 0.296237 0.500000 0.934445
O O6 0.337851 0.239330 0.867037
O O7 0.194170 0.226367 0.922116
O O8 0.328735 0.236299 0.000000
O O9 0.500000 0.227353 0.319890
O O10 0.595381 0.500000 0.305051
O O11 0.655189 0.224684 0.256681
O O12 0.103625 0.500000 0.601165
O O13 0.116566 0.732073 0.684320
O O14 0.000000 0.766711 0.598191
O O15 0.301277 0.500000 0.802318
O O16 0.186758 0.741449 0.793460
O O17 0.901757 0.500000 0.903758
O O18 0.000000 0.777553 0.906589
O O19 0.911593 0.681827 0.000000
O O20 0.000000 0.733517 0.229264
O O21 0.900250 0.000000 0.247751
#
# Coordination Sequence:
#
# PCOD9383590 Si02
#       7
#     8   8   8   8   8   8   8
#     4  11  24  40  60  88 120 152 187 231 282 334
#     4   8  14  24  40  67 102 136 173 222 278 331
#     4  10  22  40  60  82 110 146 189 238 292 347
#     4  10  20  35  57  85 118 156 196 233 269 317
#     4  10  19  32  54  81 107 141 187 236 283 335
#     4   7   9  14  25  44  76 118 158 196 242 295
#     4  10  20  33  51  77 111 150 189 232 282 331
#
# _framework density 21.998145999999998
#
# number of rings (size 3 to 8) (size 9 to 14) (size 15 to 20)
#    0.000    2.571    1.429    2.571    0.000    4.286 
#    0.000    4.286    0.000    0.857    0.000    4.000 
#    0.000    0.000    0.000    2.571    0.000    2.857 
#
# Total GULP energy -312072.047500 kJ/mol
# GULP energy per Si atom -5572.715134 kJ/mol
# Density = 2.194808 g / cm^3
# Si number density = 21.998146 Si / 1000 Ang^3
#
#
#
# Elastic Constant Matrix: (Units=GPa)
#
#
# Indices 1 2 3 4 5 6 
#
# 1 71.9600 1.4645 54.9555 0.0000 0.0000 0.0000
# 2 1.4645 32.7506 1.2152 0.0000 0.0000 0.0000
# 3 54.9555 1.2152 166.2306 0.0000 0.0000 0.0000
# 4 0.0000 0.0000 0.0000 42.7569 0.0000 0.0000
# 5 0.0000 0.0000 0.0000 0.0000 -1.7783 0.0000
# 6 0.0000 0.0000 0.0000 0.0000 0.0000 -39.5101
#
#
#
# Elastic Compliance Matrix: (Units=1/GPa)
#
#
# Indices 1 2 3 4 5 6 
#
# 1 0.018602 -0.000604 -0.006145 0.000000 0.000000 0.000000
# 2 -0.000604 0.030562 -0.000024 0.000000 0.000000 0.000000
# 3 -0.006145 -0.000024 0.008048 0.000000 0.000000 0.000000
# 4 0.000000 0.000000 0.000000 0.023388 0.000000 0.000000
# 5 0.000000 0.000000 0.000000 0.000000 -0.562339 0.000000
# 6 0.000000 0.000000 0.000000 0.000000 0.000000 -0.025310
#
#
# Mechanical properties :
#
#
# Convention : Reuss Voigt Hill
#
# Bulk Modulus (GPa) = 22.90147 42.91240 32.90694
# Shear Modulus (GPa) = -10.43954 14.51411 2.03729
#
# Velocity S-wave (km/s) = -2.18081 2.57142 0.96339
# Velocity P-wave (km/s) = 2.02286 5.32596 4.02852
#
# Compressibility (1/GPa) = 0.04366531
#
# Stress axis : x y z
#
# Youngs Moduli (GPa) = 53.75737 32.72076 124.26113
#
# Poissons Ratio (x) = 0.01976 0.76363
# Poissons Ratio (y) = 0.03246 0.00296
# Poissons Ratio (z) = 0.33036 0.00078
#
# Static dielectric constant tensor:
#      x y z
#    x 3.448970 0.000000 0.000000 
#    y 0.000000 1.800700 0.000000 
#    z 0.000000 0.000000 1.866340 
# 
# From -- ./inp_files/25119.got.cif
#   From: 2010.05.17/outbox.cif.g08.bks.cpg/sg47_13_cif.got.tgz:25119.got - 2010.06.03 20:15:42.
