data_PCOD9383965
_publ_section_title
;
Structure prediction by ZEFSAII (Michael W. Deem and Ramdas Pophale) SiO2 
 PCOD9383965
Probable space group: P M M M
;
_chemical_formula_sum "Si O2"
_cell_formula_units_Z 52
_cell_length_a 18.232390
_cell_length_b 9.750178
_cell_length_c 15.982451
_cell_angle_alpha 90.000000
_cell_angle_beta 90.000000
_cell_angle_gamma 90.000000
_cell_volume 2841.185097
_symmetry_space_group_name_H-M "P M M M"
_symmetry_group_IT_number 47
_symmetry_cell_setting 'orthorhombic'
loop_
_space_group_symop_operation_xyz
x,y,z
-x,-y,z
x,-y,-z
-x,y,-z
-x,-y,-z
x,y,-z
-x,y,z
x,-y,z
loop_
_atom_site_type_symbol
_atom_site_label
_atom_site_fract_x
_atom_site_fract_y
_atom_site_fract_z
Si Si1 0.000000 0.653816 0.901094
Si Si2 0.698877 0.833212 0.904735
Si Si3 0.334480 0.836318 0.402035
Si Si4 0.086510 0.150196 0.666572
Si Si5 0.582583 0.833468 0.764463
Si Si6 0.136510 0.156927 0.146209
Si Si7 0.196348 0.651809 0.401026
O O1 0.072150 0.740688 0.879215
O O2 0.000000 0.500000 0.863175
O O3 0.000000 0.639767 0.000000
O O4 0.641786 0.785834 0.833569
O O5 0.782993 0.797217 0.882647
O O6 0.696947 0.000000 0.903527
O O7 0.681259 0.789850 0.000000
O O8 0.353252 0.806199 0.500000
O O9 0.393871 0.801209 0.330969
O O10 0.261835 0.753522 0.376176
O O11 0.320689 0.000000 0.397591
O O12 0.130126 0.150037 0.753713
O O13 0.119604 0.274708 0.615867
O O14 0.000000 0.164171 0.683482
O O15 0.097719 0.000000 0.625991
O O16 0.500000 0.785454 0.782007
O O17 0.582240 0.000000 0.769172
O O18 0.123653 0.000000 0.114961
O O19 0.204562 0.639069 0.500000
O O20 0.201147 0.500000 0.362887
#
# Coordination Sequence:
#
# PCOD9383965 Si02
#       7
#     4   8   8   8   8   8   8
#     4  11  23  35  49  75 108 135 164 211 267 316
#     4   9  17  28  46  73 102 136 176 214 256 311
#     4   9  17  31  52  76 102 135 174 215 260 310
#     4  10  20  34  52  74  99 131 174 220 267 315
#     4   9  17  29  47  74 107 138 169 213 265 314
#     4  10  19  35  55  74  99 135 179 219 258 311
#     4  10  21  35  51  73 102 137 175 214 260 315
#
# _framework density 18.302220999999999
#
# number of rings (size 3 to 8) (size 9 to 14) (size 15 to 20)
#    0.000    2.385    0.769    2.077    0.000    6.462 
#    0.000    4.615    0.000    0.462    0.000    2.154 
#    0.000    0.000    0.000    6.615    0.000    6.769 
#
# Total GULP energy -289675.198540 kJ/mol
# GULP energy per Si atom -5570.676895 kJ/mol
# Density = 1.826056 g / cm^3
# Si number density = 18.302221 Si / 1000 Ang^3
#
#
#
# Elastic Constant Matrix: (Units=GPa)
#
#
# Indices 1 2 3 4 5 6 
#
# 1 122.2141 41.4595 67.2596 0.0000 0.0000 0.0000
# 2 41.4595 55.3505 28.2913 0.0000 0.0000 0.0000
# 3 67.2596 28.2913 57.3648 0.0000 0.0000 0.0000
# 4 0.0000 0.0000 0.0000 11.1894 0.0000 0.0000
# 5 0.0000 0.0000 0.0000 0.0000 11.4848 0.0000
# 6 0.0000 0.0000 0.0000 0.0000 0.0000 13.1593
#
#
#
# Elastic Compliance Matrix: (Units=1/GPa)
#
#
# Indices 1 2 3 4 5 6 
#
# 1 0.023985 -0.004802 -0.025753 0.000000 0.000000 0.000000
# 2 -0.004802 0.025117 -0.006757 0.000000 0.000000 0.000000
# 3 -0.025753 -0.006757 0.050960 0.000000 0.000000 0.000000
# 4 0.000000 0.000000 0.000000 0.089370 0.000000 0.000000
# 5 0.000000 0.000000 0.000000 0.000000 0.087071 0.000000
# 6 0.000000 0.000000 0.000000 0.000000 0.000000 0.075992
#
#
# Mechanical properties :
#
#
# Convention : Reuss Voigt Hill
#
# Bulk Modulus (GPa) = 39.31245 56.55003 47.93124
# Shear Modulus (GPa) = 11.47842 13.69464 12.58653
#
# Velocity S-wave (km/s) = 2.50703 2.73838 2.62526
# Velocity P-wave (km/s) = 5.46869 6.40026 5.95272
#
# Compressibility (1/GPa) = 0.02543723
#
# Stress axis : x y z
#
# Youngs Moduli (GPa) = 41.69342 39.81321 19.62305
#
# Poissons Ratio (x) = 0.19118 0.50536
# Poissons Ratio (y) = 0.20021 0.13260
# Poissons Ratio (z) = 1.07375 0.26902
#
# Static dielectric constant tensor:
#      x y z
#    x 1.639990 0.000000 0.000000 
#    y 0.000000 1.659550 0.000000 
#    z 0.000000 0.000000 1.664190 
# 
# From -- ./inp_files/28528.got.cif
#   From: 2010.05.17/outbox.cif.g08.bks.cpg/sg47_15_cif.got.tgz:28528.got - 2010.06.03 20:15:42.
