data_PCOD9383862
_publ_section_title
;
Structure prediction by ZEFSAII (Michael W. Deem and Ramdas Pophale) SiO2 
 PCOD9383862
Probable space group: P M M M
;
_chemical_formula_sum "Si O2"
_cell_formula_units_Z 52
_cell_length_a 8.832684
_cell_length_b 28.705455
_cell_length_c 11.917267
_cell_angle_alpha 90.000000
_cell_angle_beta 90.000000
_cell_angle_gamma 90.000000
_cell_volume 3021.577918
_symmetry_space_group_name_H-M "P M M M"
_symmetry_group_IT_number 47
_symmetry_cell_setting 'orthorhombic'
loop_
_space_group_symop_operation_xyz
x,y,z
-x,-y,z
x,-y,-z
-x,y,-z
-x,-y,-z
x,y,-z
-x,y,z
x,-y,z
loop_
_atom_site_type_symbol
_atom_site_label
_atom_site_fract_x
_atom_site_fract_y
_atom_site_fract_z
Si Si1 0.818164 0.182025 0.629333
Si Si2 0.816734 0.000000 0.868944
Si Si3 0.322965 0.551577 0.363818
Si Si4 0.678885 0.843641 0.000000
Si Si5 0.174564 0.647460 0.635270
Si Si6 0.817698 0.898662 0.206328
Si Si7 0.179432 0.742086 0.000000
Si Si8 0.678818 0.731268 0.763341
O O1 0.768636 0.186026 0.500000
O O2 0.787203 0.130971 0.681467
O O3 0.745355 0.221920 0.706537
O O4 0.000000 0.188785 0.632566
O O5 0.774072 0.952828 0.803906
O O6 0.000000 0.000000 0.874688
O O7 0.764011 0.000000 0.000000
O O8 0.316300 0.551172 0.500000
O O9 0.500000 0.557232 0.333969
O O10 0.272064 0.500000 0.326148
O O11 0.228165 0.596203 0.326759
O O12 0.729077 0.872614 0.108011
O O13 0.772603 0.796166 0.000000
O O14 0.500000 0.834034 0.000000
O O15 0.184760 0.648900 0.500000
O O16 0.277595 0.687733 0.685846
O O17 0.000000 0.655845 0.666338
O O18 0.000000 0.895588 0.185730
O O19 0.248719 0.722794 0.885156
O O20 0.000000 0.737123 0.000000
O O21 0.500000 0.736539 0.774503
#
# Coordination Sequence:
#
# PCOD9383862 Si02
#       8
#     8   4   8   4   8   8   4   8
#     4  10  21  36  54  76 104 142 183 217 257 314
#     4   9  16  28  51  81 103 132 179 220 262 316
#     4   8  14  26  45  70 102 140 181 226 275 321
#     4  12  22  33  53  82 109 131 167 214 259 316
#     4  10  20  33  50  75 109 148 187 224 265 316
#     4  10  19  34  55  76 105 141 175 216 264 313
#     4  12  24  40  59  79 105 137 169 212 267 318
#     4  12  24  37  55  80 107 137 176 220 265 316
#
# _framework density 17.209551000000001
#
# number of rings (size 3 to 8) (size 9 to 14) (size 15 to 20)
#    0.000    1.769    2.308    4.154    0.000    3.385 
#    0.000    2.692    0.000    2.308    0.000    0.538 
#    0.000    6.769    0.000    0.000    0.000    0.000 
#
# Total GULP energy -290106.592478 kJ/mol
# GULP energy per Si atom -5578.972932 kJ/mol
# Density = 1.717038 g / cm^3
# Si number density = 17.209551 Si / 1000 Ang^3
#
#
#
# Elastic Constant Matrix: (Units=GPa)
#
#
# Indices 1 2 3 4 5 6 
#
# 1 60.2090 21.7067 32.2020 0.0000 0.0000 0.0000
# 2 21.7067 88.0829 19.3772 0.0000 0.0000 0.0000
# 3 32.2020 19.3772 70.7270 0.0000 0.0000 0.0000
# 4 0.0000 0.0000 0.0000 9.4306 0.0000 0.0000
# 5 0.0000 0.0000 0.0000 0.0000 13.2502 0.0000
# 6 0.0000 0.0000 0.0000 0.0000 0.0000 58.9012
#
#
#
# Elastic Compliance Matrix: (Units=1/GPa)
#
#
# Indices 1 2 3 4 5 6 
#
# 1 0.022966 -0.003575 -0.009477 0.000000 0.000000 0.000000
# 2 -0.003575 0.012638 -0.001835 0.000000 0.000000 0.000000
# 3 -0.009477 -0.001835 0.018956 0.000000 0.000000 0.000000
# 4 0.000000 0.000000 0.000000 0.106038 0.000000 0.000000
# 5 0.000000 0.000000 0.000000 0.000000 0.075470 0.000000
# 6 0.000000 0.000000 0.000000 0.000000 0.000000 0.016978
#
#
# Mechanical properties :
#
#
# Convention : Reuss Voigt Hill
#
# Bulk Modulus (GPa) = 40.34386 40.62120 40.48253
# Shear Modulus (GPa) = 17.17728 26.03192 21.60460
#
# Velocity S-wave (km/s) = 3.16274 3.89349 3.54698
# Velocity P-wave (km/s) = 6.06884 6.62325 6.35210
#
# Compressibility (1/GPa) = 0.02478692
#
# Stress axis : x y z
#
# Youngs Moduli (GPa) = 43.54188 79.12942 52.75235
#
# Poissons Ratio (x) = 0.28288 0.49994
# Poissons Ratio (y) = 0.15566 0.09678
# Poissons Ratio (z) = 0.41266 0.14518
#
# Static dielectric constant tensor:
#      x y z
#    x 1.579910 0.000000 0.000000 
#    y 0.000000 1.593560 0.000000 
#    z 0.000000 0.000000 1.580450 
# 
# From -- ./inp_files/15517.got.cif
#   From: 2010.05.17/outbox.cif.g08.bks.cpg/sg47_8_cif.got.tgz:15517.got - 2010.06.03 20:15:42.
