data_PCOD9383128
_publ_section_title
;
Structure prediction by ZEFSAII (Michael W. Deem and Ramdas Pophale) SiO2 
 PCOD9383128
Probable space group: P M M M
;
_chemical_formula_sum "Si O2"
_cell_formula_units_Z 52
_cell_length_a 7.930875
_cell_length_b 12.001871
_cell_length_c 29.589771
_cell_angle_alpha 90.000000
_cell_angle_beta 90.000000
_cell_angle_gamma 90.000000
_cell_volume 2816.512374
_symmetry_space_group_name_H-M "P M M M"
_symmetry_group_IT_number 47
_symmetry_cell_setting 'orthorhombic'
loop_
_space_group_symop_operation_xyz
x,y,z
-x,-y,z
x,-y,-z
-x,y,-z
-x,-y,-z
x,y,-z
-x,y,z
x,-y,z
loop_
_atom_site_type_symbol
_atom_site_label
_atom_site_fract_x
_atom_site_fract_y
_atom_site_fract_z
Si Si1 0.293247 0.630086 0.647493
Si Si2 0.295793 0.627194 0.822706
Si Si3 0.800566 0.236879 0.911497
Si Si4 0.792674 0.000000 0.876826
Si Si5 0.699117 0.373584 0.000000
Si Si6 0.702687 0.761690 0.735273
Si Si7 0.299216 0.365396 0.548572
Si Si8 0.200860 0.000000 0.228343
O O1 0.500000 0.630950 0.646519
O O2 0.245780 0.500000 0.654569
O O3 0.235884 0.707969 0.688462
O O4 0.233781 0.669574 0.597772
O O5 0.500000 0.626798 0.821765
O O6 0.237683 0.500000 0.823424
O O7 0.241035 0.691490 0.867280
O O8 0.234535 0.690384 0.778031
O O9 0.742773 0.302762 0.955632
O O10 0.000000 0.225972 0.915552
O O11 0.734040 0.112097 0.901969
O O12 0.737200 0.000000 0.824051
O O13 0.000000 0.000000 0.876299
O O14 0.773377 0.500000 0.000000
O O15 0.500000 0.386360 0.000000
O O16 0.500000 0.751350 0.734462
O O17 0.744118 0.889289 0.745513
O O18 0.228888 0.326031 0.500000
O O19 0.500000 0.341201 0.548030
O O20 0.283988 0.500000 0.548893
O O21 0.000000 0.000000 0.225709
#
# Coordination Sequence:
#
# PCOD9383128 Si02
#       8
#     8   8   8   4   4   8   8   4
#     4   8  13  22  38  63  97 132 163 200 247 299
#     4  10  20  33  50  75 106 135 162 197 244 294
#     4  11  22  39  61  82 104 135 173 206 241 288
#     4   9  20  38  58  79 104 131 162 207 251 282
#     4  11  25  44  61  82 114 141 162 199 250 295
#     4  10  19  31  49  73  98 129 167 204 245 297
#     4   7   9  14  27  51  86 127 164 195 236 294
#     4  11  21  37  54  70  98 133 167 207 254 293
#
# _framework density 18.462551000000001
#
# number of rings (size 3 to 8) (size 9 to 14) (size 15 to 20)
#    0.000    2.538    1.538    3.231    0.000    4.923 
#    0.000    3.077    0.000    1.385    0.000    0.538 
#    0.000    4.923    0.000    3.846    0.000    3.077 
#
# Total GULP energy -289885.708216 kJ/mol
# GULP energy per Si atom -5574.725158 kJ/mol
# Density = 1.842053 g / cm^3
# Si number density = 18.462551 Si / 1000 Ang^3
#
#
#
# Elastic Constant Matrix: (Units=GPa)
#
#
# Indices 1 2 3 4 5 6 
#
# 1 17.3094 7.9560 14.1664 0.0000 0.0000 0.0000
# 2 7.9560 151.9118 105.2996 0.0000 0.0000 0.0000
# 3 14.1664 105.2996 219.5820 0.0000 0.0000 0.0000
# 4 0.0000 0.0000 0.0000 -0.3938 0.0000 0.0000
# 5 0.0000 0.0000 0.0000 0.0000 -20.9431 0.0000
# 6 0.0000 0.0000 0.0000 0.0000 0.0000 34.2895
#
#
#
# Elastic Compliance Matrix: (Units=1/GPa)
#
#
# Indices 1 2 3 4 5 6 
#
# 1 0.061042 -0.000700 -0.003603 0.000000 0.000000 0.000000
# 2 -0.000700 0.009868 -0.004687 0.000000 0.000000 0.000000
# 3 -0.003603 -0.004687 0.007034 0.000000 0.000000 0.000000
# 4 0.000000 0.000000 0.000000 -2.539198 0.000000 0.000000
# 5 0.000000 0.000000 0.000000 0.000000 -0.047748 0.000000
# 6 0.000000 0.000000 0.000000 0.000000 0.000000 0.029163
#
#
# Mechanical properties :
#
#
# Convention : Reuss Voigt Hill
#
# Bulk Modulus (GPa) = 16.67616 71.51635 44.09626
# Shear Modulus (GPa) = -2.04761 20.01592 8.98416
#
# Velocity S-wave (km/s) = -1.05426 3.29619 2.20833
# Velocity P-wave (km/s) = 2.75138 7.30113 5.51709
#
# Compressibility (1/GPa) = 0.05996583
#
# Stress axis : x y z
#
# Youngs Moduli (GPa) = 16.38210 101.33337 142.16130
#
# Poissons Ratio (x) = 0.07091 0.51215
# Poissons Ratio (y) = 0.01146 0.66634
# Poissons Ratio (z) = 0.05902 0.47497
#
# Static dielectric constant tensor:
#      x y z
#    x 1.668740 0.000000 0.000000 
#    y 0.000000 1.634110 0.000000 
#    z 0.000000 0.000000 1.644530 
# 
# From -- ./inp_files/33329.got.cif
#   From: 2010.05.17/outbox.cif.g08.bks.cpg/sg47_17_cif.got.tgz:33329.got - 2010.06.03 20:15:42.
