data_PCOD9383556
_publ_section_title
;
Structure prediction by ZEFSAII (Michael W. Deem and Ramdas Pophale) SiO2 
 PCOD9383556
Probable space group: P M M M
;
_chemical_formula_sum "Si O2"
_cell_formula_units_Z 56
_cell_length_a 15.581266
_cell_length_b 8.934259
_cell_length_c 20.784232
_cell_angle_alpha 90.000000
_cell_angle_beta 90.000000
_cell_angle_gamma 90.000000
_cell_volume 2893.311956
_symmetry_space_group_name_H-M "P M M M"
_symmetry_group_IT_number 47
_symmetry_cell_setting 'orthorhombic'
loop_
_space_group_symop_operation_xyz
x,y,z
-x,-y,z
x,-y,-z
-x,y,-z
-x,-y,-z
x,y,-z
-x,y,z
x,-y,z
loop_
_atom_site_type_symbol
_atom_site_label
_atom_site_fract_x
_atom_site_fract_y
_atom_site_fract_z
Si Si1 0.595736 0.179055 0.121529
Si Si2 0.832975 0.326177 0.707542
Si Si3 0.902819 0.822105 0.830364
Si Si4 0.631715 0.674543 0.741271
Si Si5 0.766684 0.676590 0.073332
Si Si6 0.226889 0.680308 0.570411
Si Si7 0.594025 0.179071 0.393292
O O1 0.500000 0.212844 0.096348
O O2 0.604247 0.249662 0.192606
O O3 0.674179 0.246966 0.081915
O O4 0.604790 0.000000 0.125440
O O5 0.860776 0.500000 0.708261
O O6 0.887837 0.231480 0.757286
O O7 0.734976 0.321026 0.733704
O O8 0.826159 0.271899 0.633587
O O9 0.833600 0.744373 0.876258
O O10 0.000000 0.784249 0.850037
O O11 0.891312 0.000000 0.834012
O O12 0.606270 0.500000 0.739002
O O13 0.596460 0.764211 0.680294
O O14 0.757338 0.500000 0.085960
O O15 0.796602 0.698101 0.000000
O O16 0.190648 0.717522 0.500000
O O17 0.234204 0.500000 0.575520
O O18 0.322711 0.746544 0.575241
O O19 0.500000 0.219413 0.420271
O O20 0.602561 0.000000 0.396048
#
# Coordination Sequence:
#
# PCOD9383556 Si02
#       7
#     8   8   8   8   8   8   8
#     4  11  23  37  57  86 120 160 204 249 298 351
#     4   9  18  34  58  86 115 149 191 241 294 350
#     4  11  24  41  65  96 125 155 193 240 299 366
#     4  10  19  32  53  80 110 148 196 247 297 348
#     4  11  25  44  65  90 122 161 203 247 297 353
#     4   9  19  35  54  77 107 147 194 242 296 357
#     4  10  20  31  44  68 105 147 193 245 298 352
#
# _framework density 19.354982
#
# number of rings (size 3 to 8) (size 9 to 14) (size 15 to 20)
#    0.000    1.857    1.429    3.429    0.000    9.714 
#    0.000    4.286    0.000    0.429    0.000    3.000 
#    0.000    0.000    0.000    0.000    0.000    0.000 
#
# Total GULP energy -312748.294805 kJ/mol
# GULP energy per Si atom -5584.790979 kJ/mol
# Density = 1.931093 g / cm^3
# Si number density = 19.354982 Si / 1000 Ang^3
#
#
#
# Elastic Constant Matrix: (Units=GPa)
#
#
# Indices 1 2 3 4 5 6 
#
# 1 69.2034 34.5536 43.7772 0.0000 0.0000 0.0000
# 2 34.5536 47.2422 38.7337 0.0000 0.0000 0.0000
# 3 43.7772 38.7337 104.3451 0.0000 0.0000 0.0000
# 4 0.0000 0.0000 0.0000 -12.9846 0.0000 0.0000
# 5 0.0000 0.0000 0.0000 0.0000 -16.5903 0.0000
# 6 0.0000 0.0000 0.0000 0.0000 0.0000 94.7695
#
#
#
# Elastic Compliance Matrix: (Units=1/GPa)
#
#
# Indices 1 2 3 4 5 6 
#
# 1 0.024604 -0.013703 -0.005236 0.000000 0.000000 0.000000
# 2 -0.013703 0.038060 -0.008379 0.000000 0.000000 0.000000
# 3 -0.005236 -0.008379 0.014891 0.000000 0.000000 0.000000
# 4 0.000000 0.000000 0.000000 -0.077014 0.000000 0.000000
# 5 0.000000 0.000000 0.000000 0.000000 -0.060276 0.000000
# 6 0.000000 0.000000 0.000000 0.000000 0.000000 0.010552
#
#
# Mechanical properties :
#
#
# Convention : Reuss Voigt Hill
#
# Bulk Modulus (GPa) = 43.63211 50.54662 47.08937
# Shear Modulus (GPa) = 381.89871 19.95401 200.92636
#
# Velocity S-wave (km/s) = 14.06205 3.21432 10.19983
# Velocity P-wave (km/s) = 16.91884 6.32045 12.77096
#
# Compressibility (1/GPa) = 0.02291890
#
# Stress axis : x y z
#
# Youngs Moduli (GPa) = 40.64324 26.27414 67.15606
#
# Poissons Ratio (x) = 0.36004 0.35162
# Poissons Ratio (y) = 0.55694 0.56271
# Poissons Ratio (z) = 0.21280 0.22016
#
# Static dielectric constant tensor:
#      x y z
#    x 1.675170 0.000000 0.000000 
#    y 0.000000 1.642950 0.000000 
#    z 0.000000 0.000000 1.689060 
# 
# From -- ./inp_files/11185.got.cif
#   From: 2010.05.17/outbox.cif.g08.bks.cpg/sg47_6_cif.got.tgz:11185.got - 2010.06.03 20:15:42.
