data_PCOD9383046
_publ_section_title
;
Structure prediction by ZEFSAII (Michael W. Deem and Ramdas Pophale) SiO2 
 PCOD9383046
Probable space group: P M M M
;
_chemical_formula_sum "Si O2"
_cell_formula_units_Z 40
_cell_length_a 10.413546
_cell_length_b 25.528882
_cell_length_c 8.827927
_cell_angle_alpha 90.000000
_cell_angle_beta 90.000000
_cell_angle_gamma 90.000000
_cell_volume 2346.870732
_symmetry_space_group_name_H-M "P M M M"
_symmetry_group_IT_number 47
_symmetry_cell_setting 'orthorhombic'
loop_
_space_group_symop_operation_xyz
x,y,z
-x,-y,z
x,-y,-z
-x,y,-z
-x,-y,-z
x,y,-z
-x,y,z
x,-y,z
loop_
_atom_site_type_symbol
_atom_site_label
_atom_site_fract_x
_atom_site_fract_y
_atom_site_fract_z
Si Si1 0.843735 0.329855 0.176473
Si Si2 0.249437 0.115902 0.819561
Si Si3 0.847199 0.779579 0.679586
Si Si4 0.500000 0.938310 0.681853
Si Si5 0.000000 0.062723 0.676656
Si Si6 0.151558 0.443539 0.815831
O O1 0.807192 0.278691 0.270061
O O2 0.796698 0.386846 0.233897
O O3 0.000000 0.332344 0.179719
O O4 0.807247 0.323263 0.000000
O O5 0.230073 0.175659 0.766192
O O6 0.374764 0.089705 0.748044
O O7 0.125566 0.085234 0.756785
O O8 0.254445 0.112963 0.000000
O O9 0.832658 0.786079 0.500000
O O10 0.000000 0.785524 0.715569
O O11 0.500000 0.934342 0.500000
O O12 0.500000 0.000000 0.721728
O O13 0.000000 0.079117 0.500000
O O14 0.000000 0.000000 0.682737
O O15 0.206656 0.500000 0.766047
O O16 0.000000 0.444487 0.776633
O O17 0.157497 0.442445 0.000000
#
# Coordination Sequence:
#
# PCOD9383046 Si02
#       6
#     8   8   8   4   4   8
#     4   8  13  21  35  56  83 115 157 207 253 298
#     4  12  24  38  59  84 109 137 174 219 259 302
#     4  10  19  31  48  69  98 133 170 211 259 313
#     4  11  25  45  65  83 109 143 172 203 254 319
#     4  11  23  39  59  83 111 141 172 207 254 309
#     4   7   9  14  26  46  73 108 151 198 246 295
#
# _framework density 17.043973000000001
#
# number of rings (size 3 to 8) (size 9 to 14) (size 15 to 20)
#    0.000    2.400    1.000    5.400    0.000    4.800 
#    0.000    0.000    0.000    0.600    0.000    4.200 
#    0.000    0.000    0.000    0.900    0.000   19.000 
#
# Total GULP energy -222917.891886 kJ/mol
# GULP energy per Si atom -5572.947297 kJ/mol
# Density = 1.700518 g / cm^3
# Si number density = 17.043973 Si / 1000 Ang^3
#
#
#
# Elastic Constant Matrix: (Units=GPa)
#
#
# Indices 1 2 3 4 5 6 
#
# 1 76.4280 54.3558 36.1767 0.0000 0.0000 0.0000
# 2 54.3558 171.0727 64.3440 0.0000 0.0000 0.0000
# 3 36.1767 64.3440 76.2771 0.0000 0.0000 0.0000
# 4 0.0000 0.0000 0.0000 51.2967 0.0000 0.0000
# 5 0.0000 0.0000 0.0000 0.0000 20.3206 0.0000
# 6 0.0000 0.0000 0.0000 0.0000 0.0000 14.8409
#
#
#
# Elastic Compliance Matrix: (Units=1/GPa)
#
#
# Indices 1 2 3 4 5 6 
#
# 1 0.018381 -0.003752 -0.005553 0.000000 0.000000 0.000000
# 2 -0.003752 0.009328 -0.006089 0.000000 0.000000 0.000000
# 3 -0.005553 -0.006089 0.020880 0.000000 0.000000 0.000000
# 4 0.000000 0.000000 0.000000 0.019494 0.000000 0.000000
# 5 0.000000 0.000000 0.000000 0.000000 0.049211 0.000000
# 6 0.000000 0.000000 0.000000 0.000000 0.000000 0.067381
#
#
# Mechanical properties :
#
#
# Convention : Reuss Voigt Hill
#
# Bulk Modulus (GPa) = 56.17536 70.39232 63.28384
# Shear Modulus (GPa) = 22.58388 28.55173 25.56781
#
# Velocity S-wave (km/s) = 3.64405 4.09734 3.87733
# Velocity P-wave (km/s) = 7.12293 7.98588 7.56672
#
# Compressibility (1/GPa) = 0.01780140
#
# Stress axis : x y z
#
# Youngs Moduli (GPa) = 54.40446 107.20684 47.89211
#
# Poissons Ratio (x) = 0.40221 0.26594
# Poissons Ratio (y) = 0.20411 0.29162
# Poissons Ratio (z) = 0.30210 0.65280
#
# Static dielectric constant tensor:
#      x y z
#    x 1.545240 0.000000 0.000000 
#    y 0.000000 1.632240 0.000000 
#    z 0.000000 0.000000 1.565410 
# 
# From -- ./inp_files/1861.got.cif
#   From: 2010.05.17/outbox.cif.g08.bks.cpg/sg47_1_cif.got.tgz:1861.got - 2010.06.03 20:15:42.
