data_PCOD9383821
_publ_section_title
;
Structure prediction by ZEFSAII (Michael W. Deem and Ramdas Pophale) SiO2 
 PCOD9383821
Probable space group: P M M M
;
_chemical_formula_sum "Si O2"
_cell_formula_units_Z 56
_cell_length_a 15.544602
_cell_length_b 8.782363
_cell_length_c 21.570146
_cell_angle_alpha 90.000000
_cell_angle_beta 90.000000
_cell_angle_gamma 90.000000
_cell_volume 2944.720471
_symmetry_space_group_name_H-M "P M M M"
_symmetry_group_IT_number 47
_symmetry_cell_setting 'orthorhombic'
loop_
_space_group_symop_operation_xyz
x,y,z
-x,-y,z
x,-y,-z
-x,y,-z
-x,-y,-z
x,y,-z
-x,y,z
x,-y,z
loop_
_atom_site_type_symbol
_atom_site_label
_atom_site_fract_x
_atom_site_fract_y
_atom_site_fract_z
Si Si1 0.897239 0.175007 0.000000
Si Si2 0.902790 0.815515 0.573193
Si Si3 0.906808 0.829406 0.229417
Si Si4 0.828690 0.675291 0.123554
Si Si5 0.397355 0.672342 0.000000
Si Si6 0.350925 0.179102 0.867451
Si Si7 0.596784 0.681944 0.736888
Si Si8 0.239999 0.822095 0.667859
O O1 0.864395 0.264994 0.940753
O O2 0.000000 0.170932 0.000000
O O3 0.865169 0.000000 0.000000
O O4 0.893082 0.785950 0.500000
O O5 0.818862 0.760112 0.611061
O O6 0.000000 0.762058 0.591009
O O7 0.903701 0.000000 0.581967
O O8 0.897932 0.704849 0.176617
O O9 0.829214 0.815610 0.276635
O O10 0.000000 0.818410 0.260805
O O11 0.902838 0.000000 0.201070
O O12 0.802091 0.500000 0.120760
O O13 0.748845 0.781312 0.141339
O O14 0.372620 0.753548 0.064503
O O15 0.361490 0.500000 0.000000
O O16 0.500000 0.664417 0.000000
O O17 0.394882 0.252925 0.807055
O O18 0.367802 0.000000 0.867747
O O19 0.500000 0.719349 0.714350
O O20 0.605145 0.500000 0.740871
O O21 0.673121 0.743403 0.692671
O O22 0.260577 0.000000 0.655860
#
# Coordination Sequence:
#
# PCOD9383821 Si02
#       8
#     4   8   8   8   4   8   8   8
#     4  11  24  41  58  75 101 141 188 236 287 342
#     4   8  14  27  52  90 132 167 198 235 282 336
#     4  10  20  34  53  80 114 149 186 230 281 336
#     4  12  24  38  56  78 107 142 184 232 283 341
#     4  11  24  41  60  83 111 141 176 226 293 362
#     4  12  24  40  61  84 110 142 186 239 295 355
#     4  11  24  41  60  83 114 152 194 245 304 359
#     4  10  19  33  57  87 118 155 197 239 283 338
#
# _framework density 19.017085999999999
#
# number of rings (size 3 to 8) (size 9 to 14) (size 15 to 20)
#    0.000    1.429    1.429    5.571    0.000    7.714 
#    0.000    0.000    0.000    2.143    0.000    4.000 
#    0.000    0.000    0.000    0.000    0.000    0.000 
#
# Total GULP energy -312494.630617 kJ/mol
# GULP energy per Si atom -5580.261261 kJ/mol
# Density = 1.897380 g / cm^3
# Si number density = 19.017086 Si / 1000 Ang^3
#
#
#
# Elastic Constant Matrix: (Units=GPa)
#
#
# Indices 1 2 3 4 5 6 
#
# 1 141.4337 37.6637 47.8220 0.0000 0.0000 0.0000
# 2 37.6637 68.0297 33.6652 0.0000 0.0000 0.0000
# 3 47.8220 33.6652 90.2944 0.0000 0.0000 0.0000
# 4 0.0000 0.0000 0.0000 -1.2071 0.0000 0.0000
# 5 0.0000 0.0000 0.0000 0.0000 -3.6918 0.0000
# 6 0.0000 0.0000 0.0000 0.0000 0.0000 27.7841
#
#
#
# Elastic Compliance Matrix: (Units=1/GPa)
#
#
# Indices 1 2 3 4 5 6 
#
# 1 0.009173 -0.003279 -0.003636 0.000000 0.000000 0.000000
# 2 -0.003279 0.019198 -0.005421 0.000000 0.000000 0.000000
# 3 -0.003636 -0.005421 0.015021 0.000000 0.000000 0.000000
# 4 0.000000 0.000000 0.000000 -0.828423 0.000000 0.000000
# 5 0.000000 0.000000 0.000000 0.000000 -0.270869 0.000000
# 6 0.000000 0.000000 0.000000 0.000000 0.000000 0.035992
#
#
# Mechanical properties :
#
#
# Convention : Reuss Voigt Hill
#
# Bulk Modulus (GPa) = 53.41712 59.78440 56.60076
# Shear Modulus (GPa) = -5.05563 16.61751 5.78094
#
# Velocity S-wave (km/s) = -1.63225 2.95925 1.74541
# Velocity P-wave (km/s) = 4.95960 6.57128 5.82148
#
# Compressibility (1/GPa) = 0.01872059
#
# Stress axis : x y z
#
# Youngs Moduli (GPa) = 109.01535 52.08994 66.57169
#
# Poissons Ratio (x) = 0.17082 0.24202
# Poissons Ratio (y) = 0.35751 0.36087
# Poissons Ratio (z) = 0.39633 0.28237
#
# Static dielectric constant tensor:
#      x y z
#    x 1.692740 0.000000 0.000000 
#    y 0.000000 1.664360 0.000000 
#    z 0.000000 0.000000 1.699400 
# 
# From -- ./inp_files/31020.got.cif
#   From: 2010.05.17/outbox.cif.g08.bks.cpg/sg47_16_cif.got.tgz:31020.got - 2010.06.03 20:15:42.
