data_PCOD9383659
_publ_section_title
;
Structure prediction by ZEFSAII (Michael W. Deem and Ramdas Pophale) SiO2 
 PCOD9383659
Probable space group: P M M M
;
_chemical_formula_sum "Si O2"
_cell_formula_units_Z 60
_cell_length_a 20.175020
_cell_length_b 7.784816
_cell_length_c 20.225563
_cell_angle_alpha 90.000000
_cell_angle_beta 90.000000
_cell_angle_gamma 90.000000
_cell_volume 3176.603028
_symmetry_space_group_name_H-M "P M M M"
_symmetry_group_IT_number 47
_symmetry_cell_setting 'orthorhombic'
loop_
_space_group_symop_operation_xyz
x,y,z
-x,-y,z
x,-y,-z
-x,y,-z
-x,-y,-z
x,y,-z
-x,y,z
x,-y,z
loop_
_atom_site_type_symbol
_atom_site_label
_atom_site_fract_x
_atom_site_fract_y
_atom_site_fract_z
Si Si1 0.077743 0.305512 0.000000
Si Si2 0.688056 0.207157 0.424981
Si Si3 0.211542 0.293367 0.687392
Si Si4 0.574918 0.206655 0.326111
Si Si5 0.144483 0.196437 0.129413
Si Si6 0.286187 0.298663 0.924945
Si Si7 0.925086 0.702022 0.737022
Si Si8 0.326039 0.292641 0.212264
O O1 0.099771 0.207806 0.064826
O O2 0.107044 0.500000 0.000000
O O3 0.000000 0.321614 0.000000
O O4 0.690771 0.271087 0.500000
O O5 0.751679 0.251959 0.380693
O O6 0.623884 0.270628 0.384065
O O7 0.683993 0.000000 0.427179
O O8 0.208688 0.500000 0.694027
O O9 0.136466 0.226205 0.694049
O O10 0.260736 0.231526 0.746536
O O11 0.500000 0.272647 0.329805
O O12 0.611335 0.247554 0.257323
O O13 0.572389 0.000000 0.331925
O O14 0.212394 0.283009 0.105307
O O15 0.104533 0.281915 0.189071
O O16 0.158282 0.000000 0.147436
O O17 0.302208 0.500000 0.931072
O O18 0.328499 0.226637 0.863157
O O19 0.289158 0.225594 0.000000
O O20 0.930650 0.500000 0.721510
O O21 0.000000 0.774816 0.732248
O O22 0.321298 0.500000 0.209442
#
# Coordination Sequence:
#
# PCOD9383659 Si02
#       8
#     4   8   8   8   8   8   8   8
#     4  11  23  37  49  59  83 129 172 203 250 317
#     4   9  18  32  51  77 107 138 168 198 240 294
#     4   9  17  31  51  74  98 127 168 212 251 294
#     4   9  18  32  51  77 107 138 168 198 240 294
#     4  12  23  32  46  70  97 123 158 210 264 311
#     4  10  19  33  53  71  94 130 170 210 257 310
#     4  10  20  35  53  70  93 129 170 210 257 310
#     4   9  17  31  51  74  98 127 168 212 251 294
#
# _framework density 18.888100000000001
#
# number of rings (size 3 to 8) (size 9 to 14) (size 15 to 20)
#    0.000    2.200    2.000    1.800    0.000    4.267 
#    0.000    1.333    0.000    0.800    0.000    9.333 
#    0.000    0.000    0.000    0.000    0.000    0.000 
#
# Total GULP energy -334426.101261 kJ/mol
# GULP energy per Si atom -5573.768354 kJ/mol
# Density = 1.884511 g / cm^3
# Si number density = 18.888100 Si / 1000 Ang^3
#
#
#
# Elastic Constant Matrix: (Units=GPa)
#
#
# Indices 1 2 3 4 5 6 
#
# 1 135.8560 1.2019 92.4400 0.0000 0.0000 0.0000
# 2 1.2019 32.6953 0.4884 0.0000 0.0000 0.0000
# 3 92.4400 0.4884 156.8102 0.0000 0.0000 0.0000
# 4 0.0000 0.0000 0.0000 36.5459 0.0000 0.0000
# 5 0.0000 0.0000 0.0000 0.0000 15.6563 0.0000
# 6 0.0000 0.0000 0.0000 0.0000 0.0000 29.5636
#
#
#
# Elastic Compliance Matrix: (Units=1/GPa)
#
#
# Indices 1 2 3 4 5 6 
#
# 1 0.012295 -0.000344 -0.007247 0.000000 0.000000 0.000000
# 2 -0.000344 0.030596 0.000107 0.000000 0.000000 0.000000
# 3 -0.007247 0.000107 0.010649 0.000000 0.000000 0.000000
# 4 0.000000 0.000000 0.000000 0.027363 0.000000 0.000000
# 5 0.000000 0.000000 0.000000 0.000000 0.063872 0.000000
# 6 0.000000 0.000000 0.000000 0.000000 0.000000 0.033825
#
#
# Mechanical properties :
#
#
# Convention : Reuss Voigt Hill
#
# Bulk Modulus (GPa) = 25.92438 57.06912 41.49675
# Shear Modulus (GPa) = 24.22199 31.76857 27.99528
#
# Velocity S-wave (km/s) = 3.58494 4.10559 3.85407
# Velocity P-wave (km/s) = 5.55794 7.26322 6.46704
#
# Compressibility (1/GPa) = 0.03857373
#
# Stress axis : x y z
#
# Youngs Moduli (GPa) = 81.33690 32.68353 93.90834
#
# Poissons Ratio (x) = 0.01123 0.68052
# Poissons Ratio (y) = 0.02795 -0.01008
# Poissons Ratio (z) = 0.58942 -0.00351
#
# Static dielectric constant tensor:
#      x y z
#    x 1.673130 0.000000 0.000000 
#    y 0.000000 1.715480 0.000000 
#    z 0.000000 0.000000 1.665480 
# 
# From -- ./inp_files/28789.got.cif
#   From: 2010.05.17/outbox.cif.g08.bks.cpg/sg47_15_cif.got.tgz:28789.got - 2010.06.03 20:15:42.
