data_PCOD9383188
_publ_section_title
;
Structure prediction by ZEFSAII (Michael W. Deem and Ramdas Pophale) SiO2 
 PCOD9383188
Probable space group: P M M M
;
_chemical_formula_sum "Si O2"
_cell_formula_units_Z 52
_cell_length_a 8.213436
_cell_length_b 20.914463
_cell_length_c 16.501482
_cell_angle_alpha 90.000000
_cell_angle_beta 90.000000
_cell_angle_gamma 90.000000
_cell_volume 2834.618032
_symmetry_space_group_name_H-M "P M M M"
_symmetry_group_IT_number 47
_symmetry_cell_setting 'orthorhombic'
loop_
_space_group_symop_operation_xyz
x,y,z
-x,-y,z
x,-y,-z
-x,y,-z
-x,-y,-z
x,y,-z
-x,y,z
x,-y,z
loop_
_atom_site_type_symbol
_atom_site_label
_atom_site_fract_x
_atom_site_fract_y
_atom_site_fract_z
Si Si1 0.694891 0.925346 0.000000
Si Si2 0.312626 0.809233 0.307402
Si Si3 0.697756 0.070009 0.404536
Si Si4 0.196122 0.688408 0.088885
Si Si5 0.807218 0.331526 0.269376
Si Si6 0.303953 0.573478 0.590652
Si Si7 0.809436 0.833493 0.137374
O O1 0.769817 0.890113 0.077140
O O2 0.500000 0.916512 0.000000
O O3 0.731035 0.000000 0.000000
O O4 0.500000 0.798284 0.331139
O O5 0.240312 0.865334 0.363066
O O6 0.230294 0.739952 0.301591
O O7 0.299393 0.836535 0.216837
O O8 0.731814 0.072299 0.500000
O O9 0.500000 0.070555 0.394952
O O10 0.754215 0.000000 0.373609
O O11 0.258282 0.662236 0.176169
O O12 0.221751 0.764858 0.095493
O O13 0.000000 0.678312 0.088089
O O14 0.258266 0.666441 0.000000
O O15 0.746365 0.381874 0.335305
O O16 0.000000 0.338149 0.263274
O O17 0.248674 0.594495 0.500000
O O18 0.500000 0.572964 0.588765
O O19 0.248979 0.500000 0.602226
O O20 0.000000 0.833626 0.160707
#
# Coordination Sequence:
#
# PCOD9383188 Si02
#       7
#     4   8   8   8   8   8   8
#     4  11  23  35  47  67  95 127 168 217 266 321
#     4  10  19  31  50  76 105 135 168 213 266 315
#     4   8  15  29  48  68  90 122 167 213 257 308
#     4   8  14  28  50  72  96 131 169 206 249 301
#     4  10  20  32  51  81 111 138 175 221 265 313
#     4   9  19  37  59  80 106 144 183 217 263 325
#     4  10  19  33  51  69  93 128 167 209 259 314
#
# _framework density 18.344624
#
# number of rings (size 3 to 8) (size 9 to 14) (size 15 to 20)
#    0.000    2.692    0.769    3.462    0.000    2.462 
#    0.000    3.846    0.000    3.231    0.000    7.538 
#    0.000    0.000    0.000    0.000    0.000    0.000 
#
# Total GULP energy -289586.368156 kJ/mol
# GULP energy per Si atom -5568.968618 kJ/mol
# Density = 1.830287 g / cm^3
# Si number density = 18.344624 Si / 1000 Ang^3
#
#
#
# Elastic Constant Matrix: (Units=GPa)
#
#
# Indices 1 2 3 4 5 6 
#
# 1 16.5240 12.3082 13.2598 0.0000 0.0000 0.0000
# 2 12.3082 84.1162 78.7541 0.0000 0.0000 0.0000
# 3 13.2598 78.7541 130.5531 0.0000 0.0000 0.0000
# 4 0.0000 0.0000 0.0000 10.1525 0.0000 0.0000
# 5 0.0000 0.0000 0.0000 0.0000 17.8068 0.0000
# 6 0.0000 0.0000 0.0000 0.0000 0.0000 -17.8094
#
#
#
# Elastic Compliance Matrix: (Units=1/GPa)
#
#
# Indices 1 2 3 4 5 6 
#
# 1 0.068167 -0.008024 -0.002083 0.000000 0.000000 0.000000
# 2 -0.008024 0.028260 -0.016233 0.000000 0.000000 0.000000
# 3 -0.002083 -0.016233 0.017663 0.000000 0.000000 0.000000
# 4 0.000000 0.000000 0.000000 0.098498 0.000000 0.000000
# 5 0.000000 0.000000 0.000000 0.000000 0.056158 0.000000
# 6 0.000000 0.000000 0.000000 0.000000 0.000000 -0.056150
#
#
# Mechanical properties :
#
#
# Convention : Reuss Voigt Hill
#
# Bulk Modulus (GPa) = 16.28379 48.87083 32.57731
# Shear Modulus (GPa) = 17.49808 10.48806 13.99307
#
# Velocity S-wave (km/s) = 3.09180 2.39367 2.76486
# Velocity P-wave (km/s) = 4.65205 5.85984 5.29052
#
# Compressibility (1/GPa) = 0.06141075
#
# Stress axis : x y z
#
# Youngs Moduli (GPa) = 14.66994 35.38542 56.61457
#
# Poissons Ratio (x) = 0.28394 0.11793
# Poissons Ratio (y) = 0.11771 0.91900
# Poissons Ratio (z) = 0.03056 0.57440
#
# Static dielectric constant tensor:
#      x y z
#    x 1.655270 0.000000 0.000000 
#    y 0.000000 1.619700 0.000000 
#    z 0.000000 0.000000 1.670750 
# 
# From -- ./inp_files/21462.got.cif
#   From: 2010.05.17/outbox.cif.g08.bks.cpg/sg47_11_cif.got.tgz:21462.got - 2010.06.03 20:15:42.
