data_PCOD9383415
_publ_section_title
;
Structure prediction by ZEFSAII (Michael W. Deem and Ramdas Pophale) SiO2 
 PCOD9383415
Probable space group: P M M M
;
_chemical_formula_sum "Si O2"
_cell_formula_units_Z 48
_cell_length_a 7.323578
_cell_length_b 30.085271
_cell_length_c 9.954228
_cell_angle_alpha 90.000000
_cell_angle_beta 90.000000
_cell_angle_gamma 90.000000
_cell_volume 2193.233260
_symmetry_space_group_name_H-M "P M M M"
_symmetry_group_IT_number 47
_symmetry_cell_setting 'orthorhombic'
loop_
_space_group_symop_operation_xyz
x,y,z
-x,-y,z
x,-y,-z
-x,y,-z
-x,-y,-z
x,y,-z
-x,y,z
x,-y,z
loop_
_atom_site_type_symbol
_atom_site_label
_atom_site_fract_x
_atom_site_fract_y
_atom_site_fract_z
Si Si1 0.777230 0.449726 0.500000
Si Si2 0.277566 0.129600 0.344445
Si Si3 0.776796 0.551704 0.000000
Si Si4 0.713475 0.708254 0.653957
Si Si5 0.277845 0.948918 0.847973
Si Si6 0.277045 0.787604 0.843690
Si Si7 0.779952 0.609066 0.252816
O O1 0.714297 0.500000 0.500000
O O2 0.718683 0.421563 0.625931
O O3 0.000000 0.450965 0.500000
O O4 0.217912 0.133423 0.500000
O O5 0.500000 0.129746 0.347981
O O6 0.219304 0.084658 0.268161
O O7 0.223719 0.170144 0.247093
O O8 0.718504 0.581770 0.124339
O O9 0.717625 0.500000 0.000000
O O10 0.000000 0.549756 0.000000
O O11 0.788057 0.708362 0.500000
O O12 0.500000 0.719057 0.640172
O O13 0.785885 0.744473 0.759374
O O14 0.725859 0.659527 0.719156
O O15 0.500000 0.948488 0.847687
O O16 0.221523 0.000000 0.826838
O O17 0.223147 0.935312 0.000000
O O18 0.500000 0.787308 0.848609
O O19 0.217687 0.788858 0.000000
O O20 0.000000 0.609794 0.249495
#
# Coordination Sequence:
#
# PCOD9383415 Si02
#       7
#     4   8   4   8   8   8   8
#     4   9  16  28  49  73  93 117 151 183 212 257
#     4   9  15  22  33  49  70  96 131 177 222 264
#     4   9  18  32  51  75  99 121 149 187 224 259
#     4  10  20  33  48  67  93 121 150 188 231 271
#     4   8  13  20  29  42  63  93 129 171 219 267
#     4   9  17  28  42  58  76 105 144 181 219 267
#     4  10  19  32  51  74  97 121 150 185 224 267
#
# _framework density 21.885498999999999
#
# number of rings (size 3 to 8) (size 9 to 14) (size 15 to 20)
#    0.000    2.833    0.833    2.000    1.167    6.333 
#    0.000    1.667    0.000    3.000    0.000    0.000 
#    0.000    0.000    0.000    0.000    0.000    0.833 
#
# Total GULP energy -267888.637707 kJ/mol
# GULP energy per Si atom -5581.013286 kJ/mol
# Density = 2.183569 g / cm^3
# Si number density = 21.885499 Si / 1000 Ang^3
#
#
#
# Elastic Constant Matrix: (Units=GPa)
#
#
# Indices 1 2 3 4 5 6 
#
# 1 84.6343 -1.7862 7.7361 0.0000 0.0000 0.0000
# 2 -1.7862 195.5519 145.2255 0.0000 0.0000 0.0000
# 3 7.7361 145.2255 266.7950 0.0000 0.0000 0.0000
# 4 0.0000 0.0000 0.0000 41.5030 0.0000 0.0000
# 5 0.0000 0.0000 0.0000 0.0000 -2.1537 0.0000
# 6 0.0000 0.0000 0.0000 0.0000 0.0000 15.9547
#
#
#
# Elastic Compliance Matrix: (Units=1/GPa)
#
#
# Indices 1 2 3 4 5 6 
#
# 1 0.011890 0.000612 -0.000678 0.000000 0.000000 0.000000
# 2 0.000612 0.008615 -0.004707 0.000000 0.000000 0.000000
# 3 -0.000678 -0.004707 0.006330 0.000000 0.000000 0.000000
# 4 0.000000 0.000000 0.000000 0.024095 0.000000 0.000000
# 5 0.000000 0.000000 0.000000 0.000000 -0.464318 0.000000
# 6 0.000000 0.000000 0.000000 0.000000 0.000000 0.062677
#
#
# Mechanical properties :
#
#
# Convention : Reuss Voigt Hill
#
# Bulk Modulus (GPa) = 57.83865 94.37023 76.10444
# Shear Modulus (GPa) = -14.90754 37.44786 11.27016
#
# Velocity S-wave (km/s) = -2.61274 4.14101 2.27173
# Velocity P-wave (km/s) = 4.16933 8.12881 6.45991
#
# Compressibility (1/GPa) = 0.01728948
#
# Stress axis : x y z
#
# Youngs Moduli (GPa) = 84.10130 116.07475 157.97358
#
# Poissons Ratio (x) = -0.07105 0.10710
# Poissons Ratio (y) = -0.05148 0.74362
# Poissons Ratio (z) = 0.05702 0.54639
#
# Static dielectric constant tensor:
#      x y z
#    x 1.956070 0.000000 0.000000 
#    y 0.000000 1.755960 0.000000 
#    z 0.000000 0.000000 1.710630 
# 
# From -- ./inp_files/2722.got.cif
#   From: 2010.05.17/outbox.cif.g08.bks.cpg/sg47_2_cif.got.tgz:2722.got - 2010.06.03 20:15:42.
