data_PCOD9383005
_publ_section_title
;
Structure prediction by ZEFSAII (Michael W. Deem and Ramdas Pophale) SiO2 
 PCOD9383005
Probable space group: P M M M
;
_chemical_formula_sum "Si O2"
_cell_formula_units_Z 52
_cell_length_a 27.133765
_cell_length_b 13.115462
_cell_length_c 8.576439
_cell_angle_alpha 90.000000
_cell_angle_beta 90.000000
_cell_angle_gamma 90.000000
_cell_volume 3052.113331
_symmetry_space_group_name_H-M "P M M M"
_symmetry_group_IT_number 47
_symmetry_cell_setting 'orthorhombic'
loop_
_space_group_symop_operation_xyz
x,y,z
-x,-y,z
x,-y,-z
-x,y,-z
-x,-y,-z
x,y,-z
-x,y,z
x,-y,z
loop_
_atom_site_type_symbol
_atom_site_label
_atom_site_fract_x
_atom_site_fract_y
_atom_site_fract_z
Si Si1 0.205422 0.699251 0.313272
Si Si2 0.377464 0.116196 0.311526
Si Si3 0.733131 0.500000 0.309874
Si Si4 0.268727 0.117233 0.813334
Si Si5 0.380461 0.500000 0.309574
Si Si6 0.556492 0.303928 0.309511
Si Si7 0.000000 0.376500 0.318670
Si Si8 0.895236 0.381016 0.813728
O O1 0.206383 0.700676 0.500000
O O2 0.237890 0.601511 0.259770
O O3 0.229950 0.801886 0.250437
O O4 0.149962 0.681353 0.256193
O O5 0.375608 0.118123 0.500000
O O6 0.323250 0.143098 0.249636
O O7 0.417433 0.199032 0.260651
O O8 0.388793 0.000000 0.262793
O O9 0.732972 0.500000 0.500000
O O10 0.676325 0.500000 0.258091
O O11 0.258330 0.000000 0.765045
O O12 0.269339 0.120911 0.000000
O O13 0.379743 0.500000 0.500000
O O14 0.410201 0.600473 0.260300
O O15 0.555865 0.304778 0.500000
O O16 0.500000 0.312417 0.257563
O O17 0.051050 0.343376 0.240334
O O18 0.000000 0.500000 0.305861
O O19 0.000000 0.349342 0.500000
O O20 0.889877 0.500000 0.762524
O O21 0.892941 0.379052 0.000000
#
# Coordination Sequence:
#
# PCOD9383005 Si02
#       8
#     8   8   4   8   4   8   4   8
#     4  11  20  32  51  75 104 134 169 211 254 301
#     4   9  17  30  48  68  90 117 151 193 244 299
#     4   9  18  29  45  71 101 130 160 199 247 296
#     4  10  21  36  52  71  97 129 166 207 254 307
#     4   9  15  24  37  57  89 125 154 183 228 286
#     4   9  16  25  40  64  92 119 150 191 237 286
#     4   9  17  29  47  69  98 139 184 223 257 296
#     4  10  19  31  47  71 106 143 177 212 255 304
#
# _framework density 17.037375000000001
#
# number of rings (size 3 to 8) (size 9 to 14) (size 15 to 20)
#    0.000    2.385    0.769    2.769    0.000    6.154 
#    0.000    1.538    0.000    0.462    0.000    2.692 
#    0.000    6.769    0.000    0.000    0.000    0.000 
#
# Total GULP energy -290105.355932 kJ/mol
# GULP energy per Si atom -5578.949153 kJ/mol
# Density = 1.699860 g / cm^3
# Si number density = 17.037375 Si / 1000 Ang^3
#
#
#
# Elastic Constant Matrix: (Units=GPa)
#
#
# Indices 1 2 3 4 5 6 
#
# 1 155.8212 71.9738 22.1388 0.0000 0.0000 0.0000
# 2 71.9738 76.7060 14.1907 0.0000 0.0000 0.0000
# 3 22.1388 14.1907 15.9055 0.0000 0.0000 0.0000
# 4 0.0000 0.0000 0.0000 15.6057 0.0000 0.0000
# 5 0.0000 0.0000 0.0000 0.0000 -7.5874 0.0000
# 6 0.0000 0.0000 0.0000 0.0000 0.0000 9.7863
#
#
#
# Elastic Compliance Matrix: (Units=1/GPa)
#
#
# Indices 1 2 3 4 5 6 
#
# 1 0.012132 -0.009893 -0.008061 0.000000 0.000000 0.000000
# 2 -0.009893 0.023680 -0.007358 0.000000 0.000000 0.000000
# 3 -0.008061 -0.007358 0.080655 0.000000 0.000000 0.000000
# 4 0.000000 0.000000 0.000000 0.064079 0.000000 0.000000
# 5 0.000000 0.000000 0.000000 0.000000 -0.131797 0.000000
# 6 0.000000 0.000000 0.000000 0.000000 0.000000 0.102183
#
#
# Mechanical properties :
#
#
# Convention : Reuss Voigt Hill
#
# Bulk Modulus (GPa) = 15.18703 51.67103 33.42903
# Shear Modulus (GPa) = 22.37091 12.90287 17.63689
#
# Velocity S-wave (km/s) = 3.62753 2.75494 3.22092
# Velocity P-wave (km/s) = 5.14574 6.36502 5.78758
#
# Compressibility (1/GPa) = 0.06584567
#
# Stress axis : x y z
#
# Youngs Moduli (GPa) = 82.42509 42.22939 12.39842
#
# Poissons Ratio (x) = 0.41775 0.09994
# Poissons Ratio (y) = 0.81539 0.09122
# Poissons Ratio (z) = 0.66441 0.31071
#
# Static dielectric constant tensor:
#      x y z
#    x 1.556500 0.000000 0.000000 
#    y 0.000000 1.567630 0.000000 
#    z 0.000000 0.000000 1.575600 
# 
# From -- ./inp_files/13322.got.cif
#   From: 2010.05.17/outbox.cif.g08.bks.cpg/sg47_7_cif.got.tgz:13322.got - 2010.06.03 20:15:42.
