data_PCOD9383876
_publ_section_title
;
Structure prediction by ZEFSAII (Michael W. Deem and Ramdas Pophale) SiO2 
 PCOD9383876
Probable space group: P M M M
;
_chemical_formula_sum "Si O2"
_cell_formula_units_Z 56
_cell_length_a 15.711279
_cell_length_b 7.833510
_cell_length_c 21.866430
_cell_angle_alpha 90.000000
_cell_angle_beta 90.000000
_cell_angle_gamma 90.000000
_cell_volume 2691.199090
_symmetry_space_group_name_H-M "P M M M"
_symmetry_group_IT_number 47
_symmetry_cell_setting 'orthorhombic'
loop_
_space_group_symop_operation_xyz
x,y,z
-x,-y,z
x,-y,-z
-x,y,-z
-x,-y,-z
x,y,-z
-x,y,z
x,-y,z
loop_
_atom_site_type_symbol
_atom_site_label
_atom_site_fract_x
_atom_site_fract_y
_atom_site_fract_z
Si Si1 0.592011 0.298486 0.246838
Si Si2 0.671219 0.198800 0.870897
Si Si3 0.598916 0.705014 0.000000
Si Si4 0.101462 0.695673 0.000000
Si Si5 0.093508 0.704754 0.733397
Si Si6 0.264416 0.805852 0.334725
Si Si7 0.596081 0.791803 0.428524
Si Si8 0.141938 0.304162 0.133435
O O1 0.500000 0.235501 0.268411
O O2 0.598786 0.500000 0.259430
O O3 0.600172 0.267592 0.174879
O O4 0.670684 0.205440 0.277896
O O5 0.757126 0.301048 0.858112
O O6 0.686783 0.000000 0.858970
O O7 0.643592 0.225211 0.939977
O O8 0.605046 0.500000 0.000000
O O9 0.500000 0.753603 0.000000
O O10 0.126013 0.774469 0.065938
O O11 0.137660 0.500000 0.000000
O O12 0.000000 0.686908 0.000000
O O13 0.092255 0.500000 0.739144
O O14 0.173597 0.740831 0.689449
O O15 0.106116 0.771595 0.803275
O O16 0.000000 0.761234 0.711050
O O17 0.324612 0.726593 0.388023
O O18 0.248857 0.000000 0.353135
O O19 0.607611 0.751155 0.500000
O O20 0.500000 0.733413 0.410851
O O21 0.595082 0.000000 0.423078
O O22 0.109679 0.500000 0.128951
#
# Coordination Sequence:
#
# PCOD9383876 Si02
#       8
#     8   8   4   4   8   8   8   8
#     4  11  23  38  56  79 111 151 190 228 276 337
#     4  12  24  37  55  79 107 138 179 233 288 341
#     4  11  24  41  58  74  98 139 188 232 281 345
#     4   9  17  30  52  80 100 123 172 230 279 333
#     4  10  21  37  57  80 111 155 201 241 288 349
#     4  11  21  34  57  88 118 149 189 237 288 337
#     4   8  15  30  54  86 123 158 190 228 279 340
#     4  10  19  34  56  78 105 140 181 231 289 351
#
# _framework density 20.808568999999999
#
# number of rings (size 3 to 8) (size 9 to 14) (size 15 to 20)
#    0.000    1.714    1.429    4.500    0.000    6.571 
#    0.000    0.000    0.000    3.857    0.000    8.000 
#    0.000    0.000    0.000    0.000    0.000    0.000 
#
# Total GULP energy -312481.923450 kJ/mol
# GULP energy per Si atom -5580.034347 kJ/mol
# Density = 2.076121 g / cm^3
# Si number density = 20.808569 Si / 1000 Ang^3
#
#
#
# Elastic Constant Matrix: (Units=GPa)
#
#
# Indices 1 2 3 4 5 6 
#
# 1 165.5175 10.6914 64.4562 0.0000 0.0000 0.0000
# 2 10.6914 39.7113 -0.2029 0.0000 0.0000 0.0000
# 3 64.4562 -0.2029 125.5116 0.0000 0.0000 0.0000
# 4 0.0000 0.0000 0.0000 -42.1742 0.0000 0.0000
# 5 0.0000 0.0000 0.0000 0.0000 23.0320 0.0000
# 6 0.0000 0.0000 0.0000 0.0000 0.0000 -31.6373
#
#
#
# Elastic Compliance Matrix: (Units=1/GPa)
#
#
# Indices 1 2 3 4 5 6 
#
# 1 0.007723 -0.002100 -0.003970 0.000000 0.000000 0.000000
# 2 -0.002100 0.025753 0.001120 0.000000 0.000000 0.000000
# 3 -0.003970 0.001120 0.010008 0.000000 0.000000 0.000000
# 4 0.000000 0.000000 0.000000 -0.023711 0.000000 0.000000
# 5 0.000000 0.000000 0.000000 0.000000 0.043418 0.000000
# 6 0.000000 0.000000 0.000000 0.000000 0.000000 -0.031608
#
#
# Mechanical properties :
#
#
# Convention : Reuss Voigt Hill
#
# Bulk Modulus (GPa) = 29.77519 53.40334 41.58926
# Shear Modulus (GPa) = 94.92034 6.89713 50.90873
#
# Velocity S-wave (km/s) = 6.76129 1.82257 4.95160
# Velocity P-wave (km/s) = 8.67718 5.49080 7.26093
#
# Compressibility (1/GPa) = 0.03358501
#
# Stress axis : x y z
#
# Youngs Moduli (GPa) = 129.48130 38.83085 99.92232
#
# Poissons Ratio (x) = 0.08153 0.39665
# Poissons Ratio (y) = 0.27185 -0.11190
# Poissons Ratio (z) = 0.51399 -0.04348
#
# Static dielectric constant tensor:
#      x y z
#    x 1.745980 0.000000 0.000000 
#    y 0.000000 1.798860 0.000000 
#    z 0.000000 0.000000 1.777560 
# 
# From -- ./inp_files/31097.got.cif
#   From: 2010.05.17/outbox.cif.g08.bks.cpg/sg47_16_cif.got.tgz:31097.got - 2010.06.03 20:15:42.
