data_PCOD9383988
_publ_section_title
;
Structure prediction by ZEFSAII (Michael W. Deem and Ramdas Pophale) SiO2 
 PCOD9383988
Probable space group: P M M M
;
_chemical_formula_sum "Si O2"
_cell_formula_units_Z 52
_cell_length_a 7.498930
_cell_length_b 18.393915
_cell_length_c 16.629082
_cell_angle_alpha 90.000000
_cell_angle_beta 90.000000
_cell_angle_gamma 90.000000
_cell_volume 2293.727121
_symmetry_space_group_name_H-M "P M M M"
_symmetry_group_IT_number 47
_symmetry_cell_setting 'orthorhombic'
loop_
_space_group_symop_operation_xyz
x,y,z
-x,-y,z
x,-y,-z
-x,y,-z
-x,-y,-z
x,y,-z
-x,y,z
x,-y,z
loop_
_atom_site_type_symbol
_atom_site_label
_atom_site_fract_x
_atom_site_fract_y
_atom_site_fract_z
Si Si1 0.284674 0.353305 0.590235
Si Si2 0.218392 0.851541 0.909900
Si Si3 0.713758 0.812186 0.408867
Si Si4 0.715470 0.416090 0.000000
Si Si5 0.795233 0.693215 0.859825
Si Si6 0.213300 0.918786 0.740486
Si Si7 0.208330 0.577923 0.251567
O O1 0.229842 0.370576 0.500000
O O2 0.500000 0.353573 0.593333
O O3 0.223538 0.270353 0.607537
O O4 0.217815 0.410679 0.654055
O O5 0.277437 0.767855 0.895316
O O6 0.277327 0.893139 0.829039
O O7 0.000000 0.854229 0.911855
O O8 0.275473 0.875192 0.000000
O O9 0.775925 0.833531 0.500000
O O10 0.500000 0.809177 0.413702
O O11 0.753565 0.864687 0.334062
O O12 0.785954 0.370544 0.074953
O O13 0.770888 0.500000 0.000000
O O14 0.500000 0.413697 0.000000
O O15 0.709839 0.651783 0.784689
O O16 0.000000 0.711949 0.839305
O O17 0.000000 0.921963 0.747894
O O18 0.280266 0.000000 0.722656
O O19 0.286623 0.500000 0.226626
O O20 0.000000 0.576823 0.227788
#
# Coordination Sequence:
#
# PCOD9383988 Si02
#       7
#     8   8   8   4   8   8   8
#     4   9  19  36  56  77 102 137 183 228 269 318
#     4   9  17  32  56  82 106 137 181 226 266 312
#     4   9  19  37  59  81 107 142 183 224 269 325
#     4  11  23  35  49  75 108 135 164 212 269 315
#     4  10  19  35  57  76  98 136 181 218 256 312
#     4  10  21  35  54  84 117 145 176 219 270 323
#     4  10  21  34  50  77 110 142 178 222 273 325
#
# _framework density 22.670525000000001
#
# number of rings (size 3 to 8) (size 9 to 14) (size 15 to 20)
#    0.000    2.385    0.769    2.538    0.000    5.846 
#    0.000    6.923    0.000    0.000    0.000    1.077 
#    0.000    0.000    0.000    0.000    0.000    0.000 
#
# Total GULP energy -290077.282873 kJ/mol
# GULP energy per Si atom -5578.409286 kJ/mol
# Density = 2.261893 g / cm^3
# Si number density = 22.670525 Si / 1000 Ang^3
#
#
#
# Elastic Constant Matrix: (Units=GPa)
#
#
# Indices 1 2 3 4 5 6 
#
# 1 66.6192 -0.6221 -2.0425 0.0000 0.0000 0.0000
# 2 -0.6221 36.0656 26.2696 0.0000 0.0000 0.0000
# 3 -2.0425 26.2696 124.5584 0.0000 0.0000 0.0000
# 4 0.0000 0.0000 0.0000 36.9137 0.0000 0.0000
# 5 0.0000 0.0000 0.0000 0.0000 30.0519 0.0000
# 6 0.0000 0.0000 0.0000 0.0000 0.0000 22.5029
#
#
#
# Elastic Compliance Matrix: (Units=1/GPa)
#
#
# Indices 1 2 3 4 5 6 
#
# 1 0.015019 0.000094 0.000226 0.000000 0.000000 0.000000
# 2 0.000094 0.032760 -0.006908 0.000000 0.000000 0.000000
# 3 0.000226 -0.006908 0.009489 0.000000 0.000000 0.000000
# 4 0.000000 0.000000 0.000000 0.027090 0.000000 0.000000
# 5 0.000000 0.000000 0.000000 0.000000 0.033276 0.000000
# 6 0.000000 0.000000 0.000000 0.000000 0.000000 0.044439
#
#
# Mechanical properties :
#
#
# Convention : Reuss Voigt Hill
#
# Bulk Modulus (GPa) = 22.67905 30.49478 26.58692
# Shear Modulus (GPa) = 26.32348 31.46958 28.89653
#
# Velocity S-wave (km/s) = 3.41124 3.72980 3.57407
# Velocity P-wave (km/s) = 5.05380 5.65942 5.36516
#
# Compressibility (1/GPa) = 0.04409356
#
# Stress axis : x y z
#
# Youngs Moduli (GPa) = 66.58452 30.52473 105.38618
#
# Poissons Ratio (x) = -0.00287 -0.02386
# Poissons Ratio (y) = -0.00627 0.72797
# Poissons Ratio (z) = -0.01508 0.21085
#
# Static dielectric constant tensor:
#      x y z
#    x 1.883240 0.000000 0.000000 
#    y 0.000000 1.835960 0.000000 
#    z 0.000000 0.000000 1.924140 
# 
# From -- ./inp_files/21382.got.cif
#   From: 2010.05.17/outbox.cif.g08.bks.cpg/sg47_11_cif.got.tgz:21382.got - 2010.06.03 20:15:42.
