data_PCOD9383655
_publ_section_title
;
Structure prediction by ZEFSAII (Michael W. Deem and Ramdas Pophale) SiO2 
 PCOD9383655
Probable space group: P M M M
;
_chemical_formula_sum "Si O2"
_cell_formula_units_Z 52
_cell_length_a 7.879195
_cell_length_b 12.225478
_cell_length_c 30.430501
_cell_angle_alpha 90.000000
_cell_angle_beta 90.000000
_cell_angle_gamma 90.000000
_cell_volume 2931.276592
_symmetry_space_group_name_H-M "P M M M"
_symmetry_group_IT_number 47
_symmetry_cell_setting 'orthorhombic'
loop_
_space_group_symop_operation_xyz
x,y,z
-x,-y,z
x,-y,-z
-x,y,-z
-x,-y,-z
x,y,-z
-x,y,z
x,-y,z
loop_
_atom_site_type_symbol
_atom_site_label
_atom_site_fract_x
_atom_site_fract_y
_atom_site_fract_z
Si Si1 0.207026 0.741884 0.200753
Si Si2 0.306505 0.131006 0.886696
Si Si3 0.204392 0.375385 0.450259
Si Si4 0.202166 0.123352 0.285720
Si Si5 0.293446 0.500000 0.685161
Si Si6 0.701167 0.721527 0.638398
Si Si7 0.200405 0.500000 0.786598
Si Si8 0.000000 0.867016 0.050236
O O1 0.267736 0.811652 0.159471
O O2 0.265559 0.797881 0.246466
O O3 0.268755 0.616597 0.197271
O O4 0.000000 0.741055 0.201002
O O5 0.500000 0.153624 0.900398
O O6 0.166998 0.165857 0.922507
O O7 0.289555 0.000000 0.880813
O O8 0.260938 0.349895 0.500000
O O9 0.264461 0.500000 0.439761
O O10 0.257945 0.291009 0.412880
O O11 0.000000 0.378659 0.450564
O O12 0.232006 0.178102 0.332991
O O13 0.000000 0.116737 0.279500
O O14 0.271475 0.000000 0.282704
O O15 0.500000 0.500000 0.685893
O O16 0.233666 0.390790 0.660651
O O17 0.225769 0.500000 0.734299
O O18 0.500000 0.723014 0.643201
O O19 0.000000 0.500000 0.796514
O O20 0.000000 0.000000 0.048955
O O21 0.000000 0.828247 0.000000
#
# Coordination Sequence:
#
# PCOD9383655 Si02
#       8
#     8   8   8   8   4   8   4   4
#     4  10  19  33  52  76 108 142 178 221 268 316
#     4  10  20  33  53  81 111 147 187 225 272 327
#     4   9  18  32  51  75 100 127 162 205 254 309
#     4  10  21  35  53  75  99 135 179 217 254 305
#     4  10  20  32  45  69 104 137 167 205 256 308
#     4  11  21  33  50  73 104 137 167 206 258 310
#     4  10  20  32  52  77 101 137 181 221 261 309
#     4   9  18  34  56  81 113 149 183 230 282 323
#
# _framework density 17.739712999999998
#
# number of rings (size 3 to 8) (size 9 to 14) (size 15 to 20)
#    0.000    2.077    3.077    1.385    0.000    3.385 
#    0.000    2.308    0.000    0.462    0.000    4.308 
#    0.000    1.231    0.000    0.000    0.000    0.000 
#
# Total GULP energy -290069.919547 kJ/mol
# GULP energy per Si atom -5578.267684 kJ/mol
# Density = 1.769934 g / cm^3
# Si number density = 17.739713 Si / 1000 Ang^3
#
#
#
# Elastic Constant Matrix: (Units=GPa)
#
#
# Indices 1 2 3 4 5 6 
#
# 1 43.0391 29.9830 25.7698 0.0000 0.0000 0.0000
# 2 29.9830 89.1306 44.1359 0.0000 0.0000 0.0000
# 3 25.7698 44.1359 121.2435 0.0000 0.0000 0.0000
# 4 0.0000 0.0000 0.0000 18.1363 0.0000 0.0000
# 5 0.0000 0.0000 0.0000 0.0000 -22.7415 0.0000
# 6 0.0000 0.0000 0.0000 0.0000 0.0000 11.7098
#
#
#
# Elastic Compliance Matrix: (Units=1/GPa)
#
#
# Indices 1 2 3 4 5 6 
#
# 1 0.031494 -0.008880 -0.003461 0.000000 0.000000 0.000000
# 2 -0.008880 0.016191 -0.004006 0.000000 0.000000 0.000000
# 3 -0.003461 -0.004006 0.010442 0.000000 0.000000 0.000000
# 4 0.000000 0.000000 0.000000 0.055138 0.000000 0.000000
# 5 0.000000 0.000000 0.000000 0.000000 -0.043972 0.000000
# 6 0.000000 0.000000 0.000000 0.000000 0.000000 0.085398
#
#
# Mechanical properties :
#
#
# Convention : Reuss Voigt Hill
#
# Bulk Modulus (GPa) = 39.32292 50.35451 44.83871
# Shear Modulus (GPa) = 25.52813 11.65590 18.59201
#
# Velocity S-wave (km/s) = 3.79758 2.56608 3.24086
# Velocity P-wave (km/s) = 6.43767 6.10135 6.27176
#
# Compressibility (1/GPa) = 0.02543046
#
# Stress axis : x y z
#
# Youngs Moduli (GPa) = 31.75254 61.76405 95.76770
#
# Poissons Ratio (x) = 0.54849 0.33147
# Poissons Ratio (y) = 0.28197 0.38368
# Poissons Ratio (z) = 0.10990 0.24745
#
# Static dielectric constant tensor:
#      x y z
#    x 1.635480 0.000000 0.000000 
#    y 0.000000 1.613890 0.000000 
#    z 0.000000 0.000000 1.585980 
# 
# From -- ./inp_files/34321.got.cif
#   From: 2010.05.17/outbox.cif.g08.bks.cpg/sg47_18_cif.got.tgz:34321.got - 2010.06.03 20:15:42.
