data_PCOD9383720
_publ_section_title
;
Structure prediction by ZEFSAII (Michael W. Deem and Ramdas Pophale) SiO2 
 PCOD9383720
Probable space group: P M M M
;
_chemical_formula_sum "Si O2"
_cell_formula_units_Z 48
_cell_length_a 9.895968
_cell_length_b 29.982483
_cell_length_c 7.387270
_cell_angle_alpha 90.000000
_cell_angle_beta 90.000000
_cell_angle_gamma 90.000000
_cell_volume 2191.845060
_symmetry_space_group_name_H-M "P M M M"
_symmetry_group_IT_number 47
_symmetry_cell_setting 'orthorhombic'
loop_
_space_group_symop_operation_xyz
x,y,z
-x,-y,z
x,-y,-z
-x,y,-z
-x,-y,-z
x,y,-z
-x,y,z
x,-y,z
loop_
_atom_site_type_symbol
_atom_site_label
_atom_site_fract_x
_atom_site_fract_y
_atom_site_fract_z
Si Si1 0.156430 0.211287 0.721120
Si Si2 0.000000 0.448505 0.277357
Si Si3 0.344087 0.294043 0.278828
Si Si4 0.754957 0.389646 0.292774
Si Si5 0.500000 0.551383 0.781768
Si Si6 0.848792 0.051107 0.217972
Si Si7 0.346530 0.868678 0.287186
O O1 0.152649 0.210536 0.500000
O O2 0.241379 0.255037 0.774087
O O3 0.243869 0.168838 0.784895
O O4 0.000000 0.210929 0.780673
O O5 0.126877 0.419652 0.213740
O O6 0.000000 0.500000 0.218611
O O7 0.000000 0.450245 0.500000
O O8 0.347681 0.294727 0.500000
O O9 0.500000 0.286983 0.221530
O O10 0.288811 0.341994 0.215319
O O11 0.795701 0.379915 0.500000
O O12 0.627445 0.421870 0.288940
O O13 0.500000 0.500000 0.725667
O O14 0.500000 0.552935 0.000000
O O15 0.730072 0.084305 0.271200
O O16 0.000000 0.065648 0.278699
O O17 0.828238 0.000000 0.278231
O O18 0.851533 0.050620 0.000000
O O19 0.359199 0.858817 0.500000
O O20 0.500000 0.868569 0.213415
#
# Coordination Sequence:
#
# PCOD9383720 Si02
#       7
#     8   4   8   8   4   8   8
#     4   9  17  28  46  73 105 138 170 211 260 308
#     4   9  18  30  47  75 107 133 163 211 262 303
#     4   9  16  27  45  72 102 130 163 205 255 308
#     4  10  19  33  54  79 105 135 170 212 261 309
#     4  11  23  37  53  75 103 137 177 215 254 307
#     4   9  19  36  56  77 103 138 180 225 270 314
#     4  10  20  33  50  76 110 144 177 216 262 311
#
# _framework density 21.899356000000001
#
# number of rings (size 3 to 8) (size 9 to 14) (size 15 to 20)
#    0.000    2.500    0.833    2.250    1.167    5.333 
#    0.000    2.917    0.000    2.500    0.000    0.000 
#    0.000    0.000    0.000    0.000    0.000    0.000 
#
# Total GULP energy -268004.066633 kJ/mol
# GULP energy per Si atom -5583.418055 kJ/mol
# Density = 2.184951 g / cm^3
# Si number density = 21.899356 Si / 1000 Ang^3
#
#
#
# Elastic Constant Matrix: (Units=GPa)
#
#
# Indices 1 2 3 4 5 6 
#
# 1 249.4524 128.3539 0.6119 0.0000 0.0000 0.0000
# 2 128.3539 168.4049 -2.3887 0.0000 0.0000 0.0000
# 3 0.6119 -2.3887 76.5389 0.0000 0.0000 0.0000
# 4 0.0000 0.0000 0.0000 -4.3731 0.0000 0.0000
# 5 0.0000 0.0000 0.0000 0.0000 207.1119 0.0000
# 6 0.0000 0.0000 0.0000 0.0000 0.0000 32.7063
#
#
#
# Elastic Compliance Matrix: (Units=1/GPa)
#
#
# Indices 1 2 3 4 5 6 
#
# 1 0.006599 -0.005032 -0.000210 0.000000 0.000000 0.000000
# 2 -0.005032 0.009778 0.000345 0.000000 0.000000 0.000000
# 3 -0.000210 0.000345 0.013078 0.000000 0.000000 0.000000
# 4 0.000000 0.000000 0.000000 -0.228669 0.000000 0.000000
# 5 0.000000 0.000000 0.000000 0.000000 0.004828 0.000000
# 6 0.000000 0.000000 0.000000 0.000000 0.000000 0.030575
#
#
# Mechanical properties :
#
#
# Convention : Reuss Voigt Hill
#
# Bulk Modulus (GPa) = 50.86104 83.06116 66.96110
# Shear Modulus (GPa) = -33.90663 71.61029 18.85183
#
# Velocity S-wave (km/s) = -3.93911 5.72457 2.93719
# Velocity P-wave (km/s) = 1.60829 9.03909 6.49199
#
# Compressibility (1/GPa) = 0.01966141
#
# Stress axis : x y z
#
# Youngs Moduli (GPa) = 151.54694 102.26579 76.46603
#
# Poissons Ratio (x) = 0.51463 0.01604
# Poissons Ratio (y) = 0.76263 -0.02641
# Poissons Ratio (z) = 0.03180 -0.03532
#
# Static dielectric constant tensor:
#      x y z
#    x 1.729150 0.000000 0.000000 
#    y 0.000000 1.758670 0.000000 
#    z 0.000000 0.000000 1.881040 
# 
# From -- ./inp_files/2803.got.cif
#   From: 2010.05.17/outbox.cif.g08.bks.cpg/sg47_2_cif.got.tgz:2803.got - 2010.06.03 20:15:42.
