data_PCOD9383691
_publ_section_title
;
Structure prediction by ZEFSAII (Michael W. Deem and Ramdas Pophale) SiO2 
 PCOD9383691
Probable space group: P M M M
;
_chemical_formula_sum "Si O2"
_cell_formula_units_Z 40
_cell_length_a 7.460158
_cell_length_b 22.914994
_cell_length_c 11.328449
_cell_angle_alpha 90.000000
_cell_angle_beta 90.000000
_cell_angle_gamma 90.000000
_cell_volume 1936.592418
_symmetry_space_group_name_H-M "P M M M"
_symmetry_group_IT_number 47
_symmetry_cell_setting 'orthorhombic'
loop_
_space_group_symop_operation_xyz
x,y,z
-x,-y,z
x,-y,-z
-x,y,-z
-x,-y,-z
x,y,-z
-x,y,z
x,-y,z
loop_
_atom_site_type_symbol
_atom_site_label
_atom_site_fract_x
_atom_site_fract_y
_atom_site_fract_z
Si Si1 0.714629 0.766044 0.636026
Si Si2 0.291683 0.882485 0.749229
Si Si3 0.784430 0.932018 0.000000
Si Si4 0.792657 0.632006 0.633433
Si Si5 0.288483 0.000000 0.360703
Si Si6 0.781957 0.431405 0.131396
O O1 0.750275 0.782435 0.500000
O O2 0.500000 0.759773 0.650534
O O3 0.782615 0.819292 0.715614
O O4 0.789238 0.701531 0.655363
O O5 0.500000 0.879620 0.710119
O O6 0.210191 0.939671 0.687348
O O7 0.281130 0.898098 0.885628
O O8 0.000000 0.932684 0.000000
O O9 0.724492 0.000000 0.000000
O O10 0.715972 0.622324 0.500000
O O11 0.715825 0.600948 0.750248
O O12 0.000000 0.613079 0.626477
O O13 0.500000 0.000000 0.324185
O O14 0.279826 0.000000 0.500000
O O15 0.738557 0.500000 0.139868
O O16 0.000000 0.426522 0.130847
O O17 0.722621 0.410741 0.000000
#
# Coordination Sequence:
#
# PCOD9383691 Si02
#       6
#     8   8   4   8   4   8
#     4   9  18  33  52  74 100 128 158 197 245 292
#     4  10  19  33  54  74  94 124 163 202 239 285
#     4  11  23  37  51  69  99 131 158 195 246 297
#     4   9  17  29  47  72 100 129 162 200 243 292
#     4   9  16  27  49  78  96 111 150 205 248 283
#     4   8  14  26  45  69  97 128 163 204 246 286
#
# _framework density 20.654837000000001
#
# number of rings (size 3 to 8) (size 9 to 14) (size 15 to 20)
#    0.000    2.800    1.000    1.500    0.000    4.000 
#    1.800    2.000    0.000    3.000    0.000    4.200 
#    0.000    0.000    0.000    0.000    0.000    0.000 
#
# Total GULP energy -222955.530715 kJ/mol
# GULP energy per Si atom -5573.888268 kJ/mol
# Density = 2.060783 g / cm^3
# Si number density = 20.654837 Si / 1000 Ang^3
#
#
#
# Elastic Constant Matrix: (Units=GPa)
#
#
# Indices 1 2 3 4 5 6 
#
# 1 59.6422 2.4322 3.3606 0.0000 0.0000 0.0000
# 2 2.4322 85.7286 91.5485 0.0000 0.0000 0.0000
# 3 3.3606 91.5485 147.8659 0.0000 0.0000 0.0000
# 4 0.0000 0.0000 0.0000 120.4924 0.0000 0.0000
# 5 0.0000 0.0000 0.0000 0.0000 -24.1212 0.0000
# 6 0.0000 0.0000 0.0000 0.0000 0.0000 4.0273
#
#
#
# Elastic Compliance Matrix: (Units=1/GPa)
#
#
# Indices 1 2 3 4 5 6 
#
# 1 0.016789 -0.000203 -0.000256 0.000000 0.000000 0.000000
# 2 -0.000203 0.034428 -0.021311 0.000000 0.000000 0.000000
# 3 -0.000256 -0.021311 0.019963 0.000000 0.000000 0.000000
# 4 0.000000 0.000000 0.000000 0.008299 0.000000 0.000000
# 5 0.000000 0.000000 0.000000 0.000000 -0.041457 0.000000
# 6 0.000000 0.000000 0.000000 0.000000 0.000000 0.248308
#
#
# Mechanical properties :
#
#
# Convention : Reuss Voigt Hill
#
# Bulk Modulus (GPa) = 36.17853 54.21324 45.19589
# Shear Modulus (GPa) = 14.74558 33.13938 23.94248
#
# Velocity S-wave (km/s) = 2.67480 4.00989 3.40835
# Velocity P-wave (km/s) = 5.20511 6.90964 6.11704
#
# Compressibility (1/GPa) = 0.02764070
#
# Stress axis : x y z
#
# Youngs Moduli (GPa) = 59.56154 29.04587 50.09255
#
# Poissons Ratio (x) = 0.00590 0.01281
# Poissons Ratio (y) = 0.01210 1.06752
# Poissons Ratio (z) = 0.01524 0.61900
#
# Static dielectric constant tensor:
#      x y z
#    x 1.832180 0.000000 0.000000 
#    y 0.000000 1.717400 0.000000 
#    z 0.000000 0.000000 1.695340 
# 
# From -- ./inp_files/10674.got.cif
#   From: 2010.05.17/outbox.cif.g08.bks.cpg/sg47_6_cif.got.tgz:10674.got - 2010.06.03 20:15:42.
