data_PCOD9383688
_publ_section_title
;
Structure prediction by ZEFSAII (Michael W. Deem and Ramdas Pophale) SiO2 
 PCOD9383688
Probable space group: P M M M
;
_chemical_formula_sum "Si O2"
_cell_formula_units_Z 44
_cell_length_a 7.599068
_cell_length_b 14.230536
_cell_length_c 19.512762
_cell_angle_alpha 90.000000
_cell_angle_beta 90.000000
_cell_angle_gamma 90.000000
_cell_volume 2110.086877
_symmetry_space_group_name_H-M "P M M M"
_symmetry_group_IT_number 47
_symmetry_cell_setting 'orthorhombic'
loop_
_space_group_symop_operation_xyz
x,y,z
-x,-y,z
x,-y,-z
-x,y,-z
-x,-y,-z
x,y,-z
-x,y,z
x,-y,z
loop_
_atom_site_type_symbol
_atom_site_label
_atom_site_fract_x
_atom_site_fract_y
_atom_site_fract_z
Si Si1 0.293694 0.896742 0.293421
Si Si2 0.714757 0.395380 0.174860
Si Si3 0.714393 0.000000 0.079299
Si Si4 0.285022 0.808219 0.844465
Si Si5 0.204763 0.783523 0.576671
Si Si6 0.287641 0.604302 0.335136
O O1 0.500000 0.904755 0.277787
O O2 0.227397 0.828367 0.233991
O O3 0.281167 0.856624 0.369212
O O4 0.213922 0.000000 0.287872
O O5 0.500000 0.396601 0.172954
O O6 0.772388 0.500000 0.151400
O O7 0.772085 0.298510 0.138098
O O8 0.764860 0.386150 0.255377
O O9 0.771612 0.901605 0.114241
O O10 0.500000 0.000000 0.083694
O O11 0.764715 0.000000 0.000000
O O12 0.500000 0.806251 0.848898
O O13 0.280423 0.783722 0.500000
O O14 0.222070 0.683356 0.613833
O O15 0.000000 0.806228 0.571670
O O16 0.500000 0.610773 0.335074
O O17 0.236072 0.500000 0.357820
#
# Coordination Sequence:
#
# PCOD9383688 Si02
#       6
#     8   8   4   8   8   8
#     4  10  19  33  54  74  89 115 164 217 254 289
#     4   8  13  22  41  68  91 114 151 200 247 283
#     4   9  16  24  38  68 106 135 156 186 239 299
#     4   9  14  24  44  68  94 123 156 198 242 285
#     4  11  24  37  47  64  96 134 164 198 254 316
#     4   9  17  31  52  74  93 119 162 213 256 294
#
# _framework density 20.852222999999999
#
# number of rings (size 3 to 8) (size 9 to 14) (size 15 to 20)
#    0.000    2.636    2.727    1.636    0.000    2.909 
#    0.000    3.636    0.000    0.545    0.000    3.818 
#    0.000    1.455    0.000    0.000    0.000    5.818 
#
# Total GULP energy -245184.326840 kJ/mol
# GULP energy per Si atom -5572.371065 kJ/mol
# Density = 2.080476 g / cm^3
# Si number density = 20.852223 Si / 1000 Ang^3
#
#
#
# Elastic Constant Matrix: (Units=GPa)
#
#
# Indices 1 2 3 4 5 6 
#
# 1 36.6984 1.7638 0.3264 0.0000 0.0000 0.0000
# 2 1.7638 206.6641 52.5711 0.0000 0.0000 0.0000
# 3 0.3264 52.5711 58.5202 0.0000 0.0000 0.0000
# 4 0.0000 0.0000 0.0000 15.7108 0.0000 0.0000
# 5 0.0000 0.0000 0.0000 0.0000 21.7321 0.0000
# 6 0.0000 0.0000 0.0000 0.0000 0.0000 1152.0974
#
#
#
# Elastic Compliance Matrix: (Units=1/GPa)
#
#
# Indices 1 2 3 4 5 6 
#
# 1 0.027261 -0.000251 0.000074 0.000000 0.000000 0.000000
# 2 -0.000251 0.006274 -0.005635 0.000000 0.000000 0.000000
# 3 0.000074 -0.005635 0.022150 0.000000 0.000000 0.000000
# 4 0.000000 0.000000 0.000000 0.063651 0.000000 0.000000
# 5 0.000000 0.000000 0.000000 0.000000 0.046015 0.000000
# 6 0.000000 0.000000 0.000000 0.000000 0.000000 0.000868
#
#
# Mechanical properties :
#
#
# Convention : Reuss Voigt Hill
#
# Bulk Modulus (GPa) = 22.69660 45.68948 34.19304
# Shear Modulus (GPa) = 25.96993 254.38949 140.17971
#
# Velocity S-wave (km/s) = 3.53289 11.05718 8.20800
# Velocity P-wave (km/s) = 5.24880 13.60050 10.30833
#
# Compressibility (1/GPa) = 0.04405947
#
# Stress axis : x y z
#
# Youngs Moduli (GPa) = 36.68303 159.37838 45.14682
#
# Poissons Ratio (x) = 0.04008 -0.00333
# Poissons Ratio (y) = 0.00922 0.25441
# Poissons Ratio (z) = -0.00271 0.89812
#
# Static dielectric constant tensor:
#      x y z
#    x 1.786950 0.000000 0.000000 
#    y 0.000000 1.789590 0.000000 
#    z 0.000000 0.000000 1.721190 
# 
# From -- ./inp_files/8991.got.cif
#   From: 2010.05.17/outbox.cif.g08.bks.cpg/sg47_5_cif.got.tgz:8991.got - 2010.06.03 20:15:42.
