data_PCOD9383193
_publ_section_title
;
Structure prediction by ZEFSAII (Michael W. Deem and Ramdas Pophale) SiO2 
 PCOD9383193
Probable space group: P M M M
;
_chemical_formula_sum "Si O2"
_cell_formula_units_Z 52
_cell_length_a 9.072005
_cell_length_b 13.982763
_cell_length_c 24.265783
_cell_angle_alpha 90.000000
_cell_angle_beta 90.000000
_cell_angle_gamma 90.000000
_cell_volume 3078.155725
_symmetry_space_group_name_H-M "P M M M"
_symmetry_group_IT_number 47
_symmetry_cell_setting 'orthorhombic'
loop_
_space_group_symop_operation_xyz
x,y,z
-x,-y,z
x,-y,-z
-x,y,-z
-x,-y,-z
x,y,-z
-x,y,z
x,-y,z
loop_
_atom_site_type_symbol
_atom_site_label
_atom_site_fract_x
_atom_site_fract_y
_atom_site_fract_z
Si Si1 0.677271 0.389265 0.563819
Si Si2 0.325450 0.220192 0.836342
Si Si3 0.827358 0.610636 0.773091
Si Si4 0.332158 0.500000 0.066662
Si Si5 0.677337 0.109622 0.271855
Si Si6 0.175687 0.300348 0.935632
Si Si7 0.172744 0.720866 0.338509
O O1 0.715442 0.369310 0.500000
O O2 0.500000 0.383236 0.568702
O O3 0.719070 0.500000 0.575420
O O4 0.751694 0.318209 0.606649
O O5 0.500000 0.218185 0.845563
O O6 0.276232 0.318125 0.806356
O O7 0.285608 0.139895 0.791142
O O8 0.241536 0.222107 0.894285
O O9 0.792666 0.500000 0.781921
O O10 0.812548 0.640126 0.709141
O O11 0.000000 0.626973 0.788266
O O12 0.500000 0.500000 0.088059
O O13 0.245693 0.596857 0.080550
O O14 0.340056 0.500000 0.000000
O O15 0.500000 0.119040 0.276957
O O16 0.753244 0.184557 0.312826
O O17 0.718392 0.000000 0.282374
O O18 0.000000 0.305981 0.930481
O O19 0.211743 0.282885 0.000000
O O20 0.000000 0.737735 0.347409
#
# Coordination Sequence:
#
# PCOD9383193 Si02
#       7
#     8   8   8   4   8   8   8
#     4   9  18  32  50  74 107 148 187 216 244 285
#     4  10  20  32  49  73  96 121 159 206 249 292
#     4   9  18  31  45  64  96 134 164 194 238 294
#     4   9  17  29  45  65  89 121 163 203 232 267
#     4   9  19  37  58  77  98 127 164 207 258 313
#     4  10  20  33  48  66  93 130 165 196 239 296
#     4  10  19  31  50  77 105 133 169 211 256 302
#
# _framework density 16.893232000000001
#
# number of rings (size 3 to 8) (size 9 to 14) (size 15 to 20)
#    0.000    2.538    0.000    2.538    1.077    4.923 
#    0.000    0.769    0.000    0.923    0.000    6.462 
#    0.000    0.000    0.000    0.000    0.000    0.000 
#
# Total GULP energy -290049.617031 kJ/mol
# GULP energy per Si atom -5577.877251 kJ/mol
# Density = 1.685478 g / cm^3
# Si number density = 16.893232 Si / 1000 Ang^3
#
#
#
# Elastic Constant Matrix: (Units=GPa)
#
#
# Indices 1 2 3 4 5 6 
#
# 1 52.6782 29.0148 46.0778 0.0000 0.0000 0.0000
# 2 29.0148 72.4613 46.0794 0.0000 0.0000 0.0000
# 3 46.0778 46.0794 110.8948 0.0000 0.0000 0.0000
# 4 0.0000 0.0000 0.0000 19.3058 0.0000 0.0000
# 5 0.0000 0.0000 0.0000 0.0000 30.2642 0.0000
# 6 0.0000 0.0000 0.0000 0.0000 0.0000 15.6614
#
#
#
# Elastic Compliance Matrix: (Units=1/GPa)
#
#
# Indices 1 2 3 4 5 6 
#
# 1 0.031540 -0.005838 -0.010679 0.000000 0.000000 0.000000
# 2 -0.005838 0.019837 -0.005817 0.000000 0.000000 0.000000
# 3 -0.010679 -0.005817 0.015872 0.000000 0.000000 0.000000
# 4 0.000000 0.000000 0.000000 0.051798 0.000000 0.000000
# 5 0.000000 0.000000 0.000000 0.000000 0.033042 0.000000
# 6 0.000000 0.000000 0.000000 0.000000 0.000000 0.063851
#
#
# Mechanical properties :
#
#
# Convention : Reuss Voigt Hill
#
# Bulk Modulus (GPa) = 44.28612 53.15315 48.71964
# Shear Modulus (GPa) = 18.64722 20.70377 19.67550
#
# Velocity S-wave (km/s) = 3.32599 3.50461 3.41647
# Velocity P-wave (km/s) = 6.40483 6.92162 6.66823
#
# Compressibility (1/GPa) = 0.02258044
#
# Stress axis : x y z
#
# Youngs Moduli (GPa) = 31.70582 50.41009 63.00379
#
# Poissons Ratio (x) = 0.29429 0.67284
# Poissons Ratio (y) = 0.18510 0.36650
# Poissons Ratio (z) = 0.33860 0.29324
#
# Static dielectric constant tensor:
#      x y z
#    x 1.566300 0.000000 0.000000 
#    y 0.000000 1.546170 0.000000 
#    z 0.000000 0.000000 1.589570 
# 
# From -- ./inp_files/31959.got.cif
#   From: 2010.05.17/outbox.cif.g08.bks.cpg/sg47_16_cif.got.tgz:31959.got - 2010.06.03 20:15:42.
