data_PCOD9383028
_publ_section_title
;
Structure prediction by ZEFSAII (Michael W. Deem and Ramdas Pophale) SiO2 
 PCOD9383028
Probable space group: P M M M
;
_chemical_formula_sum "Si O2"
_cell_formula_units_Z 64
_cell_length_a 14.736630
_cell_length_b 28.878538
_cell_length_c 9.091618
_cell_angle_alpha 90.000000
_cell_angle_beta 90.000000
_cell_angle_gamma 90.000000
_cell_volume 3869.141051
_symmetry_space_group_name_H-M "P M M M"
_symmetry_group_IT_number 47
_symmetry_cell_setting 'orthorhombic'
loop_
_space_group_symop_operation_xyz
x,y,z
-x,-y,z
x,-y,-z
-x,y,-z
-x,-y,-z
x,y,-z
-x,y,z
x,-y,z
loop_
_atom_site_type_symbol
_atom_site_label
_atom_site_fract_x
_atom_site_fract_y
_atom_site_fract_z
Si Si1 0.402671 0.582859 0.676745
Si Si2 0.097690 0.264883 0.323580
Si Si3 0.391448 0.854274 0.174228
Si Si4 0.353642 0.324469 0.167383
Si Si5 0.201590 0.448068 0.322917
Si Si6 0.855582 0.357842 0.833406
Si Si7 0.297349 0.232647 0.676844
Si Si8 0.610034 0.051469 0.328812
O O1 0.399826 0.586473 0.500000
O O2 0.500000 0.560715 0.716671
O O3 0.400874 0.633965 0.746265
O O4 0.308512 0.558087 0.719138
O O5 0.101124 0.268540 0.500000
O O6 0.099848 0.316336 0.256666
O O7 0.190912 0.239261 0.279775
O O8 0.000000 0.243250 0.282610
O O9 0.500000 0.849705 0.201745
O O10 0.338718 0.814248 0.259740
O O11 0.361964 0.904901 0.231853
O O12 0.376923 0.850157 0.000000
O O13 0.249492 0.341766 0.160422
O O14 0.351266 0.276178 0.253794
O O15 0.386612 0.318905 0.000000
O O16 0.196149 0.442858 0.500000
O O17 0.172556 0.500000 0.284107
O O18 0.145545 0.407262 0.246502
O O19 0.889603 0.360927 0.000000
O O20 0.303639 0.233957 0.500000
O O21 0.635547 0.058192 0.500000
O O22 0.500000 0.050644 0.324475
O O23 0.640802 0.000000 0.281748
#
# Coordination Sequence:
#
# PCOD9383028 Si02
#       8
#     8   8   8   8   8   8   8   8
#     4   9  17  28  41  58  80 106 140 181 220 260
#     4   9  18  33  53  75  96 118 146 182 226 276
#     4  10  20  31  43  63  94 131 167 201 236 272
#     4   9  17  29  43  58  79 108 141 176 214 258
#     4   9  17  29  45  63  83 110 142 175 216 264
#     4   9  17  29  46  67  88 110 137 169 207 255
#     4  10  19  31  48  68  92 122 154 189 229 274
#     4   8  14  26  44  64  87 119 161 206 246 281
#
# _framework density 16.541139000000001
#
# number of rings (size 3 to 8) (size 9 to 14) (size 15 to 20)
#    0.000    2.875    0.000    1.875    0.000    6.000 
#    0.000    2.500    0.000    0.375    0.000    6.125 
#    0.000    0.500    0.000    5.750    0.000    1.875 
#
# Total GULP energy -356458.307745 kJ/mol
# GULP energy per Si atom -5569.661059 kJ/mol
# Density = 1.650349 g / cm^3
# Si number density = 16.541139 Si / 1000 Ang^3
#
#
#
# Elastic Constant Matrix: (Units=GPa)
#
#
# Indices 1 2 3 4 5 6 
#
# 1 39.8473 14.5875 11.1424 0.0000 0.0000 0.0000
# 2 14.5875 115.1001 38.3753 0.0000 0.0000 0.0000
# 3 11.1424 38.3753 30.6300 0.0000 0.0000 0.0000
# 4 0.0000 0.0000 0.0000 7.0417 0.0000 0.0000
# 5 0.0000 0.0000 0.0000 0.0000 6.1368 0.0000
# 6 0.0000 0.0000 0.0000 0.0000 0.0000 8.5208
#
#
#
# Elastic Compliance Matrix: (Units=1/GPa)
#
#
# Indices 1 2 3 4 5 6 
#
# 1 0.027942 -0.000262 -0.009837 0.000000 0.000000 0.000000
# 2 -0.000262 0.014923 -0.018601 0.000000 0.000000 0.000000
# 3 -0.009837 -0.018601 0.059531 0.000000 0.000000 0.000000
# 4 0.000000 0.000000 0.000000 0.142012 0.000000 0.000000
# 5 0.000000 0.000000 0.000000 0.000000 0.162952 0.000000
# 6 0.000000 0.000000 0.000000 0.000000 0.000000 0.117360
#
#
# Mechanical properties :
#
#
# Convention : Reuss Voigt Hill
#
# Bulk Modulus (GPa) = 22.22385 34.86531 28.54458
# Shear Modulus (GPa) = 8.37355 12.43801 10.40578
#
# Velocity S-wave (km/s) = 2.25239 2.74513 2.51088
# Velocity P-wave (km/s) = 4.49767 5.58313 5.06954
#
# Compressibility (1/GPa) = 0.04499671
#
# Stress axis : x y z
#
# Youngs Moduli (GPa) = 35.78814 67.01004 16.79792
#
# Poissons Ratio (x) = 0.01754 0.16524
# Poissons Ratio (y) = 0.00937 0.31247
# Poissons Ratio (z) = 0.35204 1.24649
#
# Static dielectric constant tensor:
#      x y z
#    x 1.597400 0.000000 0.000000 
#    y 0.000000 1.537880 0.000000 
#    z 0.000000 0.000000 1.557580 
# 
# From -- ./inp_files/8293.got.cif
#   From: 2010.05.17/outbox.cif.g08.bks.cpg/sg47_5_cif.got.tgz:8293.got - 2010.06.03 20:15:42.
