data_PCOD9383672
_publ_section_title
;
Structure prediction by ZEFSAII (Michael W. Deem and Ramdas Pophale) SiO2 
 PCOD9383672
Probable space group: P M M M
;
_chemical_formula_sum "Si O2"
_cell_formula_units_Z 56
_cell_length_a 17.808846
_cell_length_b 7.713252
_cell_length_c 19.521093
_cell_angle_alpha 90.000000
_cell_angle_beta 90.000000
_cell_angle_gamma 90.000000
_cell_volume 2681.497703
_symmetry_space_group_name_H-M "P M M M"
_symmetry_group_IT_number 47
_symmetry_cell_setting 'orthorhombic'
loop_
_space_group_symop_operation_xyz
x,y,z
-x,-y,z
x,-y,-z
-x,y,-z
-x,-y,-z
x,y,-z
-x,y,z
x,-y,z
loop_
_atom_site_type_symbol
_atom_site_label
_atom_site_fract_x
_atom_site_fract_y
_atom_site_fract_z
Si Si1 0.877849 0.299556 0.575369
Si Si2 0.416126 0.202536 0.683509
Si Si3 0.134260 0.287731 0.276828
Si Si4 0.241641 0.797785 0.074650
Si Si5 0.294740 0.206598 0.577162
Si Si6 0.705636 0.299393 0.221977
Si Si7 0.081780 0.710016 0.126956
O O1 0.897950 0.223494 0.500000
O O2 0.902647 0.500000 0.573896
O O3 0.898600 0.225900 0.650337
O O4 0.786895 0.293426 0.579730
O O5 0.500000 0.276528 0.684453
O O6 0.356506 0.276803 0.629246
O O7 0.371401 0.213978 0.754657
O O8 0.422773 0.000000 0.665382
O O9 0.135104 0.500000 0.279809
O O10 0.220473 0.229080 0.262116
O O11 0.091199 0.241276 0.207235
O O12 0.277822 0.714731 0.141667
O O13 0.152229 0.780945 0.085915
O O14 0.261336 0.000000 0.075980
O O15 0.261509 0.725213 0.000000
O O16 0.323617 0.225851 0.500000
O O17 0.282030 0.000000 0.589197
O O18 0.700071 0.500000 0.240128
O O19 0.086454 0.500000 0.124049
O O20 0.000000 0.763774 0.102009
#
# Coordination Sequence:
#
# PCOD9383672 Si02
#       7
#     8   8   8   8   8   8   8
#     4   9  15  24  41  63  88 120 161 210 257 294
#     4  10  20  32  47  69  99 135 171 208 252 298
#     4   8  14  26  44  66  90 121 162 204 245 284
#     4  10  21  36  55  79 105 131 157 192 241 293
#     4   9  17  28  42  63  93 128 167 209 250 293
#     4  10  19  33  53  74  97 127 165 206 245 290
#     4   9  18  32  50  73 103 138 171 202 237 282
#
# _framework density 20.883852999999998
#
# number of rings (size 3 to 8) (size 9 to 14) (size 15 to 20)
#    0.000    2.714    1.429    1.714    0.000    2.286 
#    0.000    2.857    0.000    0.857    0.000    9.000 
#    0.000    0.000    0.000    7.286    0.000    8.571 
#
# Total GULP energy -312217.646686 kJ/mol
# GULP energy per Si atom -5575.315119 kJ/mol
# Density = 2.083632 g / cm^3
# Si number density = 20.883853 Si / 1000 Ang^3
#
#
#
# Elastic Constant Matrix: (Units=GPa)
#
#
# Indices 1 2 3 4 5 6 
#
# 1 55.6288 0.9256 -7.0737 0.0000 0.0000 0.0000
# 2 0.9256 39.4166 1.2701 0.0000 0.0000 0.0000
# 3 -7.0737 1.2701 110.4517 0.0000 0.0000 0.0000
# 4 0.0000 0.0000 0.0000 14.1792 0.0000 0.0000
# 5 0.0000 0.0000 0.0000 0.0000 6.2360 0.0000
# 6 0.0000 0.0000 0.0000 0.0000 0.0000 10.1144
#
#
#
# Elastic Compliance Matrix: (Units=1/GPa)
#
#
# Indices 1 2 3 4 5 6 
#
# 1 0.018132 -0.000463 0.001167 0.000000 0.000000 0.000000
# 2 -0.000463 0.025391 -0.000322 0.000000 0.000000 0.000000
# 3 0.001167 -0.000322 0.009132 0.000000 0.000000 0.000000
# 4 0.000000 0.000000 0.000000 0.070526 0.000000 0.000000
# 5 0.000000 0.000000 0.000000 0.000000 0.160358 0.000000
# 6 0.000000 0.000000 0.000000 0.000000 0.000000 0.098869
#
#
# Mechanical properties :
#
#
# Convention : Reuss Voigt Hill
#
# Bulk Modulus (GPa) = 18.71999 21.74901 20.23450
# Shear Modulus (GPa) = 12.51716 20.13094 16.32405
#
# Velocity S-wave (km/s) = 2.45086 3.10812 2.79885
# Velocity P-wave (km/s) = 4.12217 4.82881 4.48941
#
# Compressibility (1/GPa) = 0.05341883
#
# Stress axis : x y z
#
# Youngs Moduli (GPa) = 55.15007 39.38360 109.50330
#
# Poissons Ratio (x) = 0.01825 -0.12775
# Poissons Ratio (y) = 0.02556 0.03522
# Poissons Ratio (z) = -0.06434 0.01267
#
# Static dielectric constant tensor:
#      x y z
#    x 1.743160 0.000000 0.000000 
#    y 0.000000 1.807070 0.000000 
#    z 0.000000 0.000000 1.801830 
# 
# From -- ./inp_files/9871.got.cif
#   From: 2010.05.17/outbox.cif.g08.bks.cpg/sg47_5_cif.got.tgz:9871.got - 2010.06.03 20:15:42.
