data_PCOD9383496
_publ_section_title
;
Structure prediction by ZEFSAII (Michael W. Deem and Ramdas Pophale) SiO2 
 PCOD9383496
Probable space group: P M M M
;
_chemical_formula_sum "Si O2"
_cell_formula_units_Z 48
_cell_length_a 7.456206
_cell_length_b 29.999530
_cell_length_c 9.953363
_cell_angle_alpha 90.000000
_cell_angle_beta 90.000000
_cell_angle_gamma 90.000000
_cell_volume 2226.394867
_symmetry_space_group_name_H-M "P M M M"
_symmetry_group_IT_number 47
_symmetry_cell_setting 'orthorhombic'
loop_
_space_group_symop_operation_xyz
x,y,z
-x,-y,z
x,-y,-z
-x,y,-z
-x,-y,-z
x,y,-z
-x,y,z
x,-y,z
loop_
_atom_site_type_symbol
_atom_site_label
_atom_site_fract_x
_atom_site_fract_y
_atom_site_fract_z
Si Si1 0.719519 0.948181 0.500000
Si Si2 0.788852 0.208545 0.154052
Si Si3 0.284500 0.371095 0.154112
Si Si4 0.283505 0.890577 0.752722
Si Si5 0.719091 0.050410 0.000000
Si Si6 0.718616 0.551321 0.348124
Si Si7 0.214305 0.286759 0.654508
O O1 0.500000 0.950113 0.500000
O O2 0.776931 0.918063 0.375610
O O3 0.778055 0.000000 0.500000
O O4 0.772155 0.159891 0.220028
O O5 0.713873 0.245248 0.257225
O O6 0.000000 0.218241 0.141366
O O7 0.715985 0.208924 0.000000
O O8 0.500000 0.374219 0.145295
O O9 0.219697 0.415289 0.232229
O O10 0.245069 0.330098 0.253522
O O11 0.218422 0.365822 0.000000
O O12 0.500000 0.889605 0.749680
O O13 0.223264 0.921311 0.874080
O O14 0.500000 0.049108 0.000000
O O15 0.781540 0.000000 0.000000
O O16 0.773039 0.565061 0.500000
O O17 0.500000 0.551918 0.347371
O O18 0.773148 0.500000 0.327506
O O19 0.282613 0.289983 0.500000
O O20 0.000000 0.281118 0.642830
#
# Coordination Sequence:
#
# PCOD9383496 Si02
#       7
#     4   8   8   8   4   8   8
#     4   9  18  32  51  77 107 135 165 205 250 295
#     4  10  21  37  55  75 102 134 167 208 260 313
#     4  10  20  33  52  81 113 143 177 220 268 314
#     4  10  19  32  52  78 104 132 168 207 247 296
#     4   9  16  28  49  75 101 131 167 203 240 289
#     4   8  14  26  46  73 107 146 183 218 260 311
#     4  10  22  39  58  78 100 135 181 222 266 322
#
# _framework density 21.559517
#
# number of rings (size 3 to 8) (size 9 to 14) (size 15 to 20)
#    0.000    2.500    0.833    2.000    1.167    5.000 
#    0.000    1.667    0.000    3.500    0.000    3.500 
#    0.000    0.000    0.000    0.000    0.000    0.000 
#
# Total GULP energy -267861.023871 kJ/mol
# GULP energy per Si atom -5580.437997 kJ/mol
# Density = 2.151045 g / cm^3
# Si number density = 21.559517 Si / 1000 Ang^3
#
#
#
# Elastic Constant Matrix: (Units=GPa)
#
#
# Indices 1 2 3 4 5 6 
#
# 1 64.9659 -3.8796 8.8419 0.0000 0.0000 0.0000
# 2 -3.8796 182.7353 133.6192 0.0000 0.0000 0.0000
# 3 8.8419 133.6192 256.4228 0.0000 0.0000 0.0000
# 4 0.0000 0.0000 0.0000 39.5603 0.0000 0.0000
# 5 0.0000 0.0000 0.0000 0.0000 12.3022 0.0000
# 6 0.0000 0.0000 0.0000 0.0000 0.0000 24.8369
#
#
#
# Elastic Compliance Matrix: (Units=1/GPa)
#
#
# Indices 1 2 3 4 5 6 
#
# 1 0.015619 0.001172 -0.001149 0.000000 0.000000 0.000000
# 2 0.001172 0.008929 -0.004693 0.000000 0.000000 0.000000
# 3 -0.001149 -0.004693 0.006385 0.000000 0.000000 0.000000
# 4 0.000000 0.000000 0.000000 0.025278 0.000000 0.000000
# 5 0.000000 0.000000 0.000000 0.000000 0.081286 0.000000
# 6 0.000000 0.000000 0.000000 0.000000 0.000000 0.040263
#
#
# Mechanical properties :
#
#
# Convention : Reuss Voigt Hill
#
# Bulk Modulus (GPa) = 46.31326 86.80968 66.56147
# Shear Modulus (GPa) = 25.73357 39.70937 32.72147
#
# Velocity S-wave (km/s) = 3.45861 4.29633 3.90003
# Velocity P-wave (km/s) = 6.12189 8.06001 7.15686
#
# Compressibility (1/GPa) = 0.02159209
#
# Stress axis : x y z
#
# Youngs Moduli (GPa) = 64.02421 111.99382 156.61600
#
# Poissons Ratio (x) = -0.13125 0.18000
# Poissons Ratio (y) = -0.07503 0.73504
# Poissons Ratio (z) = 0.07358 0.52562
#
# Static dielectric constant tensor:
#      x y z
#    x 1.839640 0.000000 0.000000 
#    y 0.000000 1.746820 0.000000 
#    z 0.000000 0.000000 1.722690 
# 
# From -- ./inp_files/2663.got.cif
#   From: 2010.05.17/outbox.cif.g08.bks.cpg/sg47_2_cif.got.tgz:2663.got - 2010.06.03 20:15:42.
