data_PCOD9383141
_publ_section_title
;
Structure prediction by ZEFSAII (Michael W. Deem and Ramdas Pophale) SiO2 
 PCOD9383141
Probable space group: P M M M
;
_chemical_formula_sum "Si O2"
_cell_formula_units_Z 48
_cell_length_a 18.479141
_cell_length_b 15.945853
_cell_length_c 7.646120
_cell_angle_alpha 90.000000
_cell_angle_beta 90.000000
_cell_angle_gamma 90.000000
_cell_volume 2253.049042
_symmetry_space_group_name_H-M "P M M M"
_symmetry_group_IT_number 47
_symmetry_cell_setting 'orthorhombic'
loop_
_space_group_symop_operation_xyz
x,y,z
-x,-y,z
x,-y,-z
-x,y,-z
-x,-y,-z
x,y,-z
-x,y,z
x,-y,z
loop_
_atom_site_type_symbol
_atom_site_label
_atom_site_fract_x
_atom_site_fract_y
_atom_site_fract_z
Si Si1 0.341033 0.000000 0.791659
Si Si2 0.081667 0.159844 0.293068
Si Si3 0.082357 0.500000 0.290862
Si Si4 0.164917 0.671249 0.793731
Si Si5 0.416469 0.500000 0.213874
Si Si6 0.416520 0.169651 0.214071
Si Si7 0.828224 0.000000 0.288107
Si Si8 0.670192 0.665309 0.214205
O O1 0.378252 0.915392 0.724105
O O2 0.255500 0.000000 0.762533
O O3 0.353411 0.000000 0.000000
O O4 0.075371 0.144303 0.500000
O O5 0.120224 0.249360 0.273990
O O6 0.130534 0.083509 0.223712
O O7 0.000000 0.161027 0.220148
O O8 0.079242 0.500000 0.500000
O O9 0.123961 0.416018 0.236667
O O10 0.000000 0.500000 0.222880
O O11 0.246869 0.666299 0.724167
O O12 0.170773 0.684509 0.000000
O O13 0.500000 0.500000 0.270466
O O14 0.373379 0.417179 0.269695
O O15 0.417234 0.500000 0.000000
O O16 0.500000 0.173567 0.268263
O O17 0.371731 0.251116 0.268968
O O18 0.415946 0.169525 0.000000
O O19 0.829664 0.000000 0.500000
O O20 0.671086 0.663913 0.000000
#
# Coordination Sequence:
#
# PCOD9383141 Si02
#       8
#     4   8   4   8   4   8   4   8
#     4  10  19  31  49  75 105 134 170 220 270 310
#     4  10  21  38  58  79 105 139 181 226 268 317
#     4  11  24  41  59  79 106 143 186 226 262 311
#     4  11  22  36  56  83 114 143 173 218 276 328
#     4   9  15  24  40  62  92 131 168 200 240 293
#     4   9  16  27  45  70 101 137 174 211 256 311
#     4  10  21  37  57  79 105 142 184 222 268 326
#     4   9  17  28  43  68 102 134 164 205 257 309
#
# _framework density 21.304462999999998
#
# number of rings (size 3 to 8) (size 9 to 14) (size 15 to 20)
#    0.000    2.167    0.000    3.750    0.000   10.333 
#    0.000    0.000    0.000    2.500    0.000    0.000 
#    0.000   27.333    0.000    0.000    0.000    0.000 
#
# Total GULP energy -268281.312602 kJ/mol
# GULP energy per Si atom -5589.194013 kJ/mol
# Density = 2.125597 g / cm^3
# Si number density = 21.304463 Si / 1000 Ang^3
#
#
#
# Elastic Constant Matrix: (Units=GPa)
#
#
# Indices 1 2 3 4 5 6 
#
# 1 225.6294 119.5030 -10.8528 0.0000 0.0000 0.0000
# 2 119.5030 204.8751 -14.9793 0.0000 0.0000 0.0000
# 3 -10.8528 -14.9793 35.5304 0.0000 0.0000 0.0000
# 4 0.0000 0.0000 0.0000 73.2398 0.0000 0.0000
# 5 0.0000 0.0000 0.0000 0.0000 34.0969 0.0000
# 6 0.0000 0.0000 0.0000 0.0000 0.0000 54.7963
#
#
#
# Elastic Compliance Matrix: (Units=1/GPa)
#
#
# Indices 1 2 3 4 5 6 
#
# 1 0.006419 -0.003715 0.000394 0.000000 0.000000 0.000000
# 2 -0.003715 0.007187 0.001895 0.000000 0.000000 0.000000
# 3 0.000394 0.001895 0.029064 0.000000 0.000000 0.000000
# 4 0.000000 0.000000 0.000000 0.013654 0.000000 0.000000
# 5 0.000000 0.000000 0.000000 0.000000 0.029328 0.000000
# 6 0.000000 0.000000 0.000000 0.000000 0.000000 0.018249
#
#
# Mechanical properties :
#
#
# Convention : Reuss Voigt Hill
#
# Bulk Modulus (GPa) = 25.11436 72.59743 48.85589
# Shear Modulus (GPa) = 41.65785 57.25086 49.45436
#
# Velocity S-wave (km/s) = 4.42674 5.18951 4.82323
# Velocity P-wave (km/s) = 6.15970 8.37008 7.34847
#
# Compressibility (1/GPa) = 0.03981785
#
# Stress axis : x y z
#
# Youngs Moduli (GPa) = 155.79376 139.14715 34.40655
#
# Poissons Ratio (x) = 0.51696 -0.01357
# Poissons Ratio (y) = 0.57881 -0.06520
# Poissons Ratio (z) = -0.06143 -0.26368
#
# Static dielectric constant tensor:
#      x y z
#    x 1.736390 0.000000 0.000000 
#    y 0.000000 1.695610 0.000000 
#    z 0.000000 0.000000 1.807880 
# 
# From -- ./inp_files/9262.got.cif
#   From: 2010.05.17/outbox.cif.g08.bks.cpg/sg47_5_cif.got.tgz:9262.got - 2010.06.03 20:15:42.
