data_PCOD9383284
_publ_section_title
;
Structure prediction by ZEFSAII (Michael W. Deem and Ramdas Pophale) SiO2 
 PCOD9383284
Probable space group: P M M M
;
_chemical_formula_sum "Si O2"
_cell_formula_units_Z 40
_cell_length_a 18.966145
_cell_length_b 8.832786
_cell_length_c 17.169922
_cell_angle_alpha 90.000000
_cell_angle_beta 90.000000
_cell_angle_gamma 90.000000
_cell_volume 2876.372297
_symmetry_space_group_name_H-M "P M M M"
_symmetry_group_IT_number 47
_symmetry_cell_setting 'orthorhombic'
loop_
_space_group_symop_operation_xyz
x,y,z
-x,-y,z
x,-y,-z
-x,y,-z
-x,-y,-z
x,y,-z
-x,y,z
x,-y,z
loop_
_atom_site_type_symbol
_atom_site_label
_atom_site_fract_x
_atom_site_fract_y
_atom_site_fract_z
Si Si1 0.269106 0.816916 0.092562
Si Si2 0.085587 0.674608 0.500000
Si Si3 0.000000 0.821589 0.093164
Si Si4 0.424246 0.181410 0.906345
Si Si5 0.865037 0.680522 0.178203
Si Si6 0.915937 0.180376 0.336226
O O1 0.347253 0.764276 0.119801
O O2 0.206552 0.741776 0.140127
O O3 0.265434 0.000000 0.100136
O O4 0.261813 0.784037 0.000000
O O5 0.108290 0.500000 0.500000
O O6 0.106758 0.757839 0.420569
O O7 0.000000 0.676482 0.500000
O O8 0.930712 0.746198 0.129164
O O9 0.000000 0.000000 0.113169
O O10 0.000000 0.806827 0.000000
O O11 0.500000 0.241982 0.876987
O O12 0.424686 0.000000 0.893176
O O13 0.424205 0.201489 0.000000
O O14 0.866877 0.500000 0.176687
O O15 0.875591 0.740419 0.265808
O O16 0.000000 0.212666 0.326901
O O17 0.907156 0.000000 0.332562
#
# Coordination Sequence:
#
# PCOD9383284 Si02
#       6
#     8   4   4   8   8   8
#     4   9  17  29  44  61  83 112 145 180 218 259
#     4   9  17  29  47  69  91 107 128 165 211 258
#     4  11  23  37  49  58  73 104 147 189 225 259
#     4   7  10  19  38  62  82 101 132 174 214 252
#     4  12  23  32  44  61  84 111 143 182 221 256
#     4  10  19  32  49  65  83 108 141 175 211 256
#
# _framework density 13.906404999999999
#
# number of rings (size 3 to 8) (size 9 to 14) (size 15 to 20)
#    0.000    2.400    1.000    5.400    0.000    5.600 
#    0.000    0.000    0.000    0.600    0.000    2.800 
#    0.000    0.000    0.000    0.900    0.000   18.600 
#
# Total GULP energy -222876.805719 kJ/mol
# GULP energy per Si atom -5571.920143 kJ/mol
# Density = 1.387475 g / cm^3
# Si number density = 13.906405 Si / 1000 Ang^3
#
#
#
# Elastic Constant Matrix: (Units=GPa)
#
#
# Indices 1 2 3 4 5 6 
#
# 1 133.3592 47.6008 58.2027 0.0000 0.0000 0.0000
# 2 47.6008 63.3755 50.0245 0.0000 0.0000 0.0000
# 3 58.2027 50.0245 83.6986 0.0000 0.0000 0.0000
# 4 0.0000 0.0000 0.0000 36.7752 0.0000 0.0000
# 5 0.0000 0.0000 0.0000 0.0000 0.3867 0.0000
# 6 0.0000 0.0000 0.0000 0.0000 0.0000 0.0035
#
#
#
# Elastic Compliance Matrix: (Units=1/GPa)
#
#
# Indices 1 2 3 4 5 6 
#
# 1 0.011366 -0.004351 -0.005303 0.000000 0.000000 0.000000
# 2 -0.004351 0.031537 -0.015823 0.000000 0.000000 0.000000
# 3 -0.005303 -0.015823 0.025093 0.000000 0.000000 0.000000
# 4 0.000000 0.000000 0.000000 0.027192 0.000000 0.000000
# 5 0.000000 0.000000 0.000000 0.000000 2.585848 0.000000
# 6 0.000000 0.000000 0.000000 0.000000 0.000000287.050293
#
#
# Mechanical properties :
#
#
# Convention : Reuss Voigt Hill
#
# Bulk Modulus (GPa) = 58.68344 65.78770 62.23557
# Shear Modulus (GPa) = 0.01725 15.74011 7.87868
#
# Velocity S-wave (km/s) = 0.11151 3.36796 2.38281
# Velocity P-wave (km/s) = 6.50439 7.90787 7.24022
#
# Compressibility (1/GPa) = 0.01704058
#
# Stress axis : x y z
#
# Youngs Moduli (GPa) = 87.98069 31.70928 39.85235
#
# Poissons Ratio (x) = 0.13796 0.21136
# Poissons Ratio (y) = 0.38279 0.63059
# Poissons Ratio (z) = 0.46660 0.50174
#
# Static dielectric constant tensor:
#      x y z
#    x 1.472600 0.000000 0.000000 
#    y 0.000000 1.458140 0.000000 
#    z 0.000000 0.000000 1.436950 
# 
# From -- ./inp_files/28393.got.cif
#   From: 2010.05.17/outbox.cif.g08.bks.cpg/sg47_15_cif.got.tgz:28393.got - 2010.06.03 20:15:42.
