data_PCOD9383812
_publ_section_title
;
Structure prediction by ZEFSAII (Michael W. Deem and Ramdas Pophale) SiO2 
 PCOD9383812
Probable space group: P M M M
;
_chemical_formula_sum "Si O2"
_cell_formula_units_Z 56
_cell_length_a 15.805056
_cell_length_b 19.631315
_cell_length_c 8.400153
_cell_angle_alpha 90.000000
_cell_angle_beta 90.000000
_cell_angle_gamma 90.000000
_cell_volume 2606.349349
_symmetry_space_group_name_H-M "P M M M"
_symmetry_group_IT_number 47
_symmetry_cell_setting 'orthorhombic'
loop_
_space_group_symop_operation_xyz
x,y,z
-x,-y,z
x,-y,-z
-x,y,-z
-x,-y,-z
x,y,-z
-x,y,z
x,-y,z
loop_
_atom_site_type_symbol
_atom_site_label
_atom_site_fract_x
_atom_site_fract_y
_atom_site_fract_z
Si Si1 0.596610 0.665814 0.194417
Si Si2 0.095804 0.892858 0.179710
Si Si3 0.743339 0.926321 0.318155
Si Si4 0.363417 0.819373 0.187693
Si Si5 0.782456 0.626924 0.807157
Si Si6 0.900841 0.500000 0.194034
Si Si7 0.905470 0.742237 0.688613
Si Si8 0.500000 0.076224 0.310932
O O1 0.500000 0.646310 0.244799
O O2 0.614386 0.744136 0.247783
O O3 0.682639 0.625332 0.241824
O O4 0.595123 0.664561 0.000000
O O5 0.156406 0.927619 0.304859
O O6 0.094823 0.812145 0.214652
O O7 0.000000 0.916439 0.191083
O O8 0.126662 0.906613 0.000000
O O9 0.714612 0.921480 0.500000
O O10 0.723960 0.854959 0.231103
O O11 0.711174 0.000000 0.254446
O O12 0.422594 0.878263 0.255480
O O13 0.374105 0.815497 0.000000
O O14 0.843700 0.564890 0.757352
O O15 0.829646 0.693896 0.743823
O O16 0.782163 0.628963 0.000000
O O17 0.000000 0.500000 0.247246
O O18 0.903804 0.500000 0.000000
O O19 0.897344 0.756381 0.500000
O O20 0.000000 0.710487 0.713609
O O21 0.500000 0.071873 0.500000
O O22 0.500000 0.000000 0.244832
#
# Coordination Sequence:
#
# PCOD9383812 Si02
#       8
#     8   8   8   8   8   4   8   4
#     4   9  18  34  55  81 110 141 185 242 294 340
#     4  10  21  37  57  80 106 140 186 237 287 344
#     4  11  24  39  54  76 109 146 184 232 291 351
#     4  11  21  36  58  80 105 141 187 239 293 347
#     4  10  19  33  57  83 113 156 197 236 286 343
#     4   9  18  32  52  86 126 157 193 241 290 345
#     4  10  20  34  54  82 115 147 182 231 290 349
#     4  11  23  37  53  77 111 146 181 228 292 363
#
# _framework density 21.485990999999999
#
# number of rings (size 3 to 8) (size 9 to 14) (size 15 to 20)
#    0.000    1.857    0.714    3.643    0.000    7.143 
#    0.000    2.857    0.000    3.429    0.000    0.000 
#    0.000    1.143    0.000    0.000    0.000    0.000 
#
# Total GULP energy -312239.452823 kJ/mol
# GULP energy per Si atom -5575.704515 kJ/mol
# Density = 2.143709 g / cm^3
# Si number density = 21.485991 Si / 1000 Ang^3
#
#
#
# Elastic Constant Matrix: (Units=GPa)
#
#
# Indices 1 2 3 4 5 6 
#
# 1 162.1536 44.6093 13.6244 0.0000 0.0000 0.0000
# 2 44.6093 79.5540 3.5467 0.0000 0.0000 0.0000
# 3 13.6244 3.5467 26.0273 0.0000 0.0000 0.0000
# 4 0.0000 0.0000 0.0000 12.7851 0.0000 0.0000
# 5 0.0000 0.0000 0.0000 0.0000 22.4491 0.0000
# 6 0.0000 0.0000 0.0000 0.0000 0.0000 22.4592
#
#
#
# Elastic Compliance Matrix: (Units=1/GPa)
#
#
# Indices 1 2 3 4 5 6 
#
# 1 0.007581 -0.004099 -0.003410 0.000000 0.000000 0.000000
# 2 -0.004099 0.014863 0.000120 0.000000 0.000000 0.000000
# 3 -0.003410 0.000120 0.040190 0.000000 0.000000 0.000000
# 4 0.000000 0.000000 0.000000 0.078216 0.000000 0.000000
# 5 0.000000 0.000000 0.000000 0.000000 0.044545 0.000000
# 6 0.000000 0.000000 0.000000 0.000000 0.000000 0.044525
#
#
# Mechanical properties :
#
#
# Convention : Reuss Voigt Hill
#
# Bulk Modulus (GPa) = 20.89567 43.47730 32.18649
# Shear Modulus (GPa) = 19.18279 25.26897 22.22588
#
# Velocity S-wave (km/s) = 2.99122 3.43310 3.21975
# Velocity P-wave (km/s) = 4.65578 5.99950 5.36984
#
# Compressibility (1/GPa) = 0.04785680
#
# Stress axis : x y z
#
# Youngs Moduli (GPa) = 131.90574 67.28008 24.88200
#
# Poissons Ratio (x) = 0.27579 0.08484
# Poissons Ratio (y) = 0.54069 -0.00299
# Poissons Ratio (z) = 0.44978 -0.00809
#
# Static dielectric constant tensor:
#      x y z
#    x 2.412290 0.000000 0.000000 
#    y 0.000000 1.783140 0.000000 
#    z 0.000000 0.000000 1.752640 
# 
# From -- ./inp_files/7412.got.cif
#   From: 2010.05.17/outbox.cif.g08.bks.cpg/sg47_4_cif.got.tgz:7412.got - 2010.06.03 20:15:42.
