data_PCOD9383548
_publ_section_title
;
Structure prediction by ZEFSAII (Michael W. Deem and Ramdas Pophale) SiO2 
 PCOD9383548
Probable space group: P M M M
;
_chemical_formula_sum "Si O2"
_cell_formula_units_Z 48
_cell_length_a 19.602577
_cell_length_b 15.585247
_cell_length_c 7.790725
_cell_angle_alpha 90.000000
_cell_angle_beta 90.000000
_cell_angle_gamma 90.000000
_cell_volume 2380.152220
_symmetry_space_group_name_H-M "P M M M"
_symmetry_group_IT_number 47
_symmetry_cell_setting 'orthorhombic'
loop_
_space_group_symop_operation_xyz
x,y,z
-x,-y,z
x,-y,-z
-x,y,-z
-x,-y,-z
x,y,-z
-x,y,z
x,-y,z
loop_
_atom_site_type_symbol
_atom_site_label
_atom_site_fract_x
_atom_site_fract_y
_atom_site_fract_z
Si Si1 0.922312 0.000000 0.705436
Si Si2 0.922110 0.500000 0.710246
Si Si3 0.676761 0.097417 0.790162
Si Si4 0.823034 0.349898 0.700445
Si Si5 0.173561 0.158300 0.203591
Si Si6 0.672813 0.596321 0.202385
Si Si7 0.578455 0.749661 0.789486
O O1 0.880972 0.915702 0.761143
O O2 0.924297 0.000000 0.500000
O O3 0.000000 0.000000 0.770746
O O4 0.924150 0.500000 0.500000
O O5 0.879663 0.416330 0.766009
O O6 0.000000 0.500000 0.769729
O O7 0.751966 0.127509 0.733162
O O8 0.620352 0.166032 0.735840
O O9 0.663761 0.000000 0.734488
O O10 0.677629 0.097088 0.000000
O O11 0.813864 0.368402 0.500000
O O12 0.843665 0.251190 0.721924
O O13 0.749364 0.367388 0.782081
O O14 0.179231 0.169694 0.000000
O O15 0.669463 0.500000 0.275855
O O16 0.619604 0.665872 0.272087
O O17 0.658059 0.589695 0.000000
O O18 0.500000 0.750323 0.735394
O O19 0.579258 0.749113 0.000000
#
# Coordination Sequence:
#
# PCOD9383548 Si02
#       7
#     4   4   8   8   8   8   8
#     4  11  25  43  61  87 122 155 192 238 286 340
#     4   9  20  38  57  79 110 145 182 230 287 341
#     4   9  16  28  49  77 106 140 181 227 275 327
#     4  11  21  35  58  86 112 146 192 238 287 350
#     4  11  21  37  61  87 116 151 193 239 288 342
#     4  10  19  32  53  79 109 146 188 237 286 336
#     4   9  17  29  47  76 113 147 182 231 289 339
#
# _framework density 20.166778000000001
#
# number of rings (size 3 to 8) (size 9 to 14) (size 15 to 20)
#    0.000    2.000    3.333    1.250    0.000    2.000 
#    0.000    5.000    0.000    4.000    0.000    1.167 
#    0.000    2.000    0.000    0.000    0.000    0.000 
#
# Total GULP energy -268077.697654 kJ/mol
# GULP energy per Si atom -5584.952034 kJ/mol
# Density = 2.012088 g / cm^3
# Si number density = 20.166778 Si / 1000 Ang^3
#
#
#
# Elastic Constant Matrix: (Units=GPa)
#
#
# Indices 1 2 3 4 5 6 
#
# 1 184.1381 101.9236 -4.5951 0.0000 0.0000 0.0000
# 2 101.9236 198.4876 -5.7340 0.0000 0.0000 0.0000
# 3 -4.5951 -5.7340 26.5285 0.0000 0.0000 0.0000
# 4 0.0000 0.0000 0.0000 14.2747 0.0000 0.0000
# 5 0.0000 0.0000 0.0000 0.0000 37.7609 0.0000
# 6 0.0000 0.0000 0.0000 0.0000 0.0000 36.2583
#
#
#
# Elastic Compliance Matrix: (Units=1/GPa)
#
#
# Indices 1 2 3 4 5 6 
#
# 1 0.007593 -0.003885 0.000475 0.000000 0.000000 0.000000
# 2 -0.003885 0.007058 0.000853 0.000000 0.000000 0.000000
# 3 0.000475 0.000853 0.037962 0.000000 0.000000 0.000000
# 4 0.000000 0.000000 0.000000 0.070054 0.000000 0.000000
# 5 0.000000 0.000000 0.000000 0.000000 0.026482 0.000000
# 6 0.000000 0.000000 0.000000 0.000000 0.000000 0.027580
#
#
# Mechanical properties :
#
#
# Convention : Reuss Voigt Hill
#
# Bulk Modulus (GPa) = 21.05347 65.81591 43.43469
# Shear Modulus (GPa) = 25.29382 38.82943 32.06162
#
# Velocity S-wave (km/s) = 3.54536 4.39272 3.99159
# Velocity P-wave (km/s) = 5.21745 7.64425 6.54432
#
# Compressibility (1/GPa) = 0.04749810
#
# Stress axis : x y z
#
# Youngs Moduli (GPa) = 131.69686 141.68567 26.34223
#
# Poissons Ratio (x) = 0.55050 -0.01252
# Poissons Ratio (y) = 0.51169 -0.02246
# Poissons Ratio (z) = -0.06261 -0.12079
#
# Static dielectric constant tensor:
#      x y z
#    x 1.673610 0.000000 0.000000 
#    y 0.000000 1.664490 0.000000 
#    z 0.000000 0.000000 1.764390 
# 
# From -- ./inp_files/9252.got.cif
#   From: 2010.05.17/outbox.cif.g08.bks.cpg/sg47_5_cif.got.tgz:9252.got - 2010.06.03 20:15:42.
