data_PCOD9383442
_publ_section_title
;
Structure prediction by ZEFSAII (Michael W. Deem and Ramdas Pophale) SiO2 
 PCOD9383442
Probable space group: P M M M
;
_chemical_formula_sum "Si O2"
_cell_formula_units_Z 52
_cell_length_a 19.376670
_cell_length_b 7.605958
_cell_length_c 19.325852
_cell_angle_alpha 90.000000
_cell_angle_beta 90.000000
_cell_angle_gamma 90.000000
_cell_volume 2848.208087
_symmetry_space_group_name_H-M "P M M M"
_symmetry_group_IT_number 47
_symmetry_cell_setting 'orthorhombic'
loop_
_space_group_symop_operation_xyz
x,y,z
-x,-y,z
x,-y,-z
-x,y,-z
-x,-y,-z
x,y,-z
-x,y,z
x,-y,z
loop_
_atom_site_type_symbol
_atom_site_label
_atom_site_fract_x
_atom_site_fract_y
_atom_site_fract_z
Si Si1 0.365329 0.198242 0.152126
Si Si2 0.187800 0.000000 0.580973
Si Si3 0.500000 0.699324 0.081119
Si Si4 0.081800 0.000000 0.702140
Si Si5 0.724265 0.710596 0.343751
Si Si6 0.421876 0.704423 0.300271
Si Si7 0.831310 0.710450 0.778385
Si Si8 0.773519 0.294609 0.078069
O O1 0.432191 0.202444 0.104543
O O2 0.393088 0.285656 0.222112
O O3 0.303737 0.282967 0.108780
O O4 0.344226 0.000000 0.169224
O O5 0.231845 0.829005 0.604167
O O6 0.174396 0.000000 0.500000
O O7 0.119037 0.000000 0.627592
O O8 0.500000 0.500000 0.111102
O O9 0.500000 0.684191 0.000000
O O10 0.110939 0.171125 0.742399
O O11 0.000000 0.000000 0.697974
O O12 0.726778 0.500000 0.357530
O O13 0.644483 0.772848 0.342427
O O14 0.761915 0.735347 0.268618
O O15 0.500000 0.780352 0.304685
O O16 0.427716 0.500000 0.318976
O O17 0.845372 0.500000 0.777497
O O18 0.818760 0.772410 0.857289
O O19 0.790791 0.500000 0.072383
O O20 0.778279 0.219038 0.000000
#
# Coordination Sequence:
#
# PCOD9383442 Si02
#       8
#     8   4   4   4   8   8   8   8
#     4  12  23  30  44  69  98 133 178 242 301 345
#     4  10  22  39  63  93 121 146 174 210 258 326
#     4  11  23  37  45  51  83 141 191 232 293 366
#     4  10  22  39  63  93 121 148 176 208 260 328
#     4   9  18  34  57  82 112 150 191 233 272 319
#     4  10  19  32  52  74 102 142 188 237 285 330
#     4   9  18  34  57  83 113 150 193 235 271 319
#     4  10  20  34  52  73 101 142 189 237 288 333
#
# _framework density 18.257093999999999
#
# number of rings (size 3 to 8) (size 9 to 14) (size 15 to 20)
#    0.000    1.923    2.308    2.077    2.154    3.538 
#    0.000    0.000    0.000    1.846    0.000    8.615 
#    0.000    0.000    0.000    0.000    0.000    0.000 
#
# Total GULP energy -289767.342135 kJ/mol
# GULP energy per Si atom -5572.448887 kJ/mol
# Density = 1.821554 g / cm^3
# Si number density = 18.257094 Si / 1000 Ang^3
#
#
#
# Elastic Constant Matrix: (Units=GPa)
#
#
# Indices 1 2 3 4 5 6 
#
# 1 144.0124 35.5471 66.3132 0.0000 0.0000 0.0000
# 2 35.5471 69.6099 27.3247 0.0000 0.0000 0.0000
# 3 66.3132 27.3247 113.1504 0.0000 0.0000 0.0000
# 4 0.0000 0.0000 0.0000 21.8065 0.0000 0.0000
# 5 0.0000 0.0000 0.0000 0.0000 10.3902 0.0000
# 6 0.0000 0.0000 0.0000 0.0000 0.0000 18.5189
#
#
#
# Elastic Compliance Matrix: (Units=1/GPa)
#
#
# Indices 1 2 3 4 5 6 
#
# 1 0.010091 -0.003128 -0.005159 0.000000 0.000000 0.000000
# 2 -0.003128 0.016840 -0.002233 0.000000 0.000000 0.000000
# 3 -0.005159 -0.002233 0.012400 0.000000 0.000000 0.000000
# 4 0.000000 0.000000 0.000000 0.045858 0.000000 0.000000
# 5 0.000000 0.000000 0.000000 0.000000 0.096244 0.000000
# 6 0.000000 0.000000 0.000000 0.000000 0.000000 0.053999
#
#
# Mechanical properties :
#
#
# Convention : Reuss Voigt Hill
#
# Bulk Modulus (GPa) = 54.67130 65.01585 59.84357
# Shear Modulus (GPa) = 19.04249 23.31565 21.17907
#
# Velocity S-wave (km/s) = 3.23308 3.57749 3.40964
# Velocity P-wave (km/s) = 6.62928 7.26314 6.95344
#
# Compressibility (1/GPa) = 0.01829113
#
# Stress axis : x y z
#
# Youngs Moduli (GPa) = 99.09366 59.38264 80.64209
#
# Poissons Ratio (x) = 0.18577 0.41601
# Poissons Ratio (y) = 0.30999 0.18010
# Poissons Ratio (z) = 0.51120 0.13262
#
# Static dielectric constant tensor:
#      x y z
#    x 1.621830 0.000000 0.000000 
#    y 0.000000 1.689250 0.000000 
#    z 0.000000 0.000000 1.637470 
# 
# From -- ./inp_files/28579.got.cif
#   From: 2010.05.17/outbox.cif.g08.bks.cpg/sg47_15_cif.got.tgz:28579.got - 2010.06.03 20:15:42.
