data_PCOD9383029
_publ_section_title
;
Structure prediction by ZEFSAII (Michael W. Deem and Ramdas Pophale) SiO2 
 PCOD9383029
Probable space group: P M M M
;
_chemical_formula_sum "Si O2"
_cell_formula_units_Z 44
_cell_length_a 18.144189
_cell_length_b 15.255324
_cell_length_c 7.347913
_cell_angle_alpha 90.000000
_cell_angle_beta 90.000000
_cell_angle_gamma 90.000000
_cell_volume 2033.869120
_symmetry_space_group_name_H-M "P M M M"
_symmetry_group_IT_number 47
_symmetry_cell_setting 'orthorhombic'
loop_
_space_group_symop_operation_xyz
x,y,z
-x,-y,z
x,-y,-z
-x,y,-z
-x,-y,-z
x,y,-z
-x,y,z
x,-y,z
loop_
_atom_site_type_symbol
_atom_site_label
_atom_site_fract_x
_atom_site_fract_y
_atom_site_fract_z
Si Si1 0.500000 0.898039 0.278433
Si Si2 0.201961 0.139328 0.705817
Si Si3 0.684786 0.596367 0.286842
Si Si4 0.353992 0.207085 0.276748
Si Si5 0.084915 0.000000 0.277336
Si Si6 0.000000 0.399652 0.778684
Si Si7 0.842138 0.666315 0.219025
O O1 0.500000 0.900021 0.500000
O O2 0.571966 0.842754 0.223763
O O3 0.500000 0.000000 0.219359
O O4 0.212725 0.106434 0.500000
O O5 0.283548 0.149794 0.786985
O O6 0.135538 0.081731 0.782758
O O7 0.175337 0.238735 0.704717
O O8 0.665460 0.595153 0.500000
O O9 0.662911 0.500000 0.211967
O O10 0.653998 0.690612 0.216529
O O11 0.773481 0.605169 0.270657
O O12 0.350441 0.209443 0.500000
O O13 0.080298 0.000000 0.500000
O O14 0.000000 0.000000 0.214692
O O15 0.922940 0.360079 0.717534
O O16 0.000000 0.500000 0.726798
O O17 0.000000 0.394448 0.000000
O O18 0.842500 0.670345 0.000000
#
# Coordination Sequence:
#
# PCOD9383029 Si02
#       7
#     4   8   8   8   4   4   8
#     4   9  16  24  41  69 100 127 155 193 236 286
#     4   9  18  32  49  68  95 126 159 201 243 282
#     4   9  17  31  49  68  94 126 157 194 240 284
#     4   8  15  27  42  66  97 126 155 190 235 285
#     4   9  18  30  47  70  92 124 167 205 241 285
#     4   9  18  30  43  62  89 118 150 193 239 281
#     4  10  19  31  48  68  92 123 160 197 239 287
#
# _framework density 21.633644
#
# number of rings (size 3 to 8) (size 9 to 14) (size 15 to 20)
#    0.000    3.000    0.000    2.182    2.545    1.091 
#    0.000    2.273    0.000    6.545    0.000   10.182 
#    0.000   17.455    0.000    0.000    0.000    0.000 
#
# Total GULP energy -245228.715990 kJ/mol
# GULP energy per Si atom -5573.379909 kJ/mol
# Density = 2.158440 g / cm^3
# Si number density = 21.633644 Si / 1000 Ang^3
#
#
#
# Elastic Constant Matrix: (Units=GPa)
#
#
# Indices 1 2 3 4 5 6 
#
# 1 205.6094 104.4448 -0.2126 0.0000 0.0000 0.0000
# 2 104.4448 151.5548 3.8182 0.0000 0.0000 0.0000
# 3 -0.2126 3.8182 81.5218 0.0000 0.0000 0.0000
# 4 0.0000 0.0000 0.0000 13.6785 0.0000 0.0000
# 5 0.0000 0.0000 0.0000 0.0000 13.4256 0.0000
# 6 0.0000 0.0000 0.0000 0.0000 0.0000 -81.4046
#
#
#
# Elastic Compliance Matrix: (Units=1/GPa)
#
#
# Indices 1 2 3 4 5 6 
#
# 1 0.007489 -0.005168 0.000262 0.000000 0.000000 0.000000
# 2 -0.005168 0.010172 -0.000490 0.000000 0.000000 0.000000
# 3 0.000262 -0.000490 0.012290 0.000000 0.000000 0.000000
# 4 0.000000 0.000000 0.000000 0.073108 0.000000 0.000000
# 5 0.000000 0.000000 0.000000 0.000000 0.074484 0.000000
# 6 0.000000 0.000000 0.000000 0.000000 0.000000 -0.012284
#
#
# Mechanical properties :
#
#
# Convention : Reuss Voigt Hill
#
# Bulk Modulus (GPa) = 52.19423 72.75410 62.47417
# Shear Modulus (GPa) = 27.40672 11.18229 19.29451
#
# Velocity S-wave (km/s) = 3.56315 2.27600 2.98967
# Velocity P-wave (km/s) = 6.41147 6.37259 6.39206
#
# Compressibility (1/GPa) = 0.01915921
#
# Stress axis : x y z
#
# Youngs Moduli (GPa) = 133.53142 98.31021 81.36512
#
# Poissons Ratio (x) = 0.50803 -0.02128
# Poissons Ratio (y) = 0.69004 0.03986
# Poissons Ratio (z) = -0.03493 0.04816
#
# Static dielectric constant tensor:
#      x y z
#    x 1.651160 0.000000 0.000000 
#    y 0.000000 1.774380 0.000000 
#    z 0.000000 0.000000 1.824880 
# 
# From -- ./inp_files/9088.got.cif
#   From: 2010.05.17/outbox.cif.g08.bks.cpg/sg47_5_cif.got.tgz:9088.got - 2010.06.03 20:15:42.
