data_PCOD9383526
_publ_section_title
;
Structure prediction by ZEFSAII (Michael W. Deem and Ramdas Pophale) SiO2 
 PCOD9383526
Probable space group: P M M M
;
_chemical_formula_sum "Si O2"
_cell_formula_units_Z 56
_cell_length_a 15.973035
_cell_length_b 21.284668
_cell_length_c 7.712984
_cell_angle_alpha 90.000000
_cell_angle_beta 90.000000
_cell_angle_gamma 90.000000
_cell_volume 2622.266061
_symmetry_space_group_name_H-M "P M M M"
_symmetry_group_IT_number 47
_symmetry_cell_setting 'orthorhombic'
loop_
_space_group_symop_operation_xyz
x,y,z
-x,-y,z
x,-y,-z
-x,y,-z
-x,-y,-z
x,y,-z
-x,y,z
x,-y,z
loop_
_atom_site_type_symbol
_atom_site_label
_atom_site_fract_x
_atom_site_fract_y
_atom_site_fract_z
Si Si1 0.232015 0.430703 0.208460
Si Si2 0.589830 0.102070 0.789473
Si Si3 0.831819 0.202666 0.697862
Si Si4 0.645956 0.239414 0.209042
Si Si5 0.408411 0.622254 0.788235
Si Si6 0.907839 0.671995 0.290776
Si Si7 0.225686 0.067404 0.207156
O O1 0.206976 0.500000 0.271328
O O2 0.325381 0.413515 0.272005
O O3 0.165154 0.376948 0.248753
O O4 0.237295 0.432842 0.000000
O O5 0.500000 0.077307 0.727446
O O6 0.595008 0.176480 0.751797
O O7 0.678474 0.075255 0.725920
O O8 0.590203 0.094725 0.000000
O O9 0.858124 0.197322 0.500000
O O10 0.737531 0.229983 0.711556
O O11 0.887210 0.258060 0.779336
O O12 0.825351 0.131137 0.761104
O O13 0.604105 0.304596 0.260135
O O14 0.657124 0.240878 0.000000
O O15 0.500000 0.599815 0.730465
O O16 0.408532 0.619604 0.000000
O O17 0.909072 0.675982 0.500000
O O18 0.000000 0.651484 0.231681
O O19 0.191973 0.000000 0.269529
O O20 0.232465 0.064374 0.000000
#
# Coordination Sequence:
#
# PCOD9383526 Si02
#       7
#     8   8   8   8   8   8   8
#     4  10  21  36  55  83 117 147 178 222 273 321
#     4   8  13  21  37  64  94 123 164 216 256 289
#     4  10  19  32  53  77 101 130 169 219 271 317
#     4   9  15  26  46  70  98 133 174 217 263 311
#     4   9  16  27  48  77 108 144 184 223 263 310
#     4  10  22  40  61  83 106 137 180 225 272 331
#     4   9  18  31  48  72 102 138 176 212 256 315
#
# _framework density 21.355574000000001
#
# number of rings (size 3 to 8) (size 9 to 14) (size 15 to 20)
#    0.000    2.714    1.429    1.714    0.000    4.000 
#    0.000    4.286    0.000   12.429    0.000    8.000 
#    0.000    0.000    0.000    0.000    0.000    0.000 
#
# Total GULP energy -312201.159723 kJ/mol
# GULP energy per Si atom -5575.020709 kJ/mol
# Density = 2.130697 g / cm^3
# Si number density = 21.355574 Si / 1000 Ang^3
#
#
#
# Elastic Constant Matrix: (Units=GPa)
#
#
# Indices 1 2 3 4 5 6 
#
# 1 99.6867 61.5957 4.2222 0.0000 0.0000 0.0000
# 2 61.5957 153.3386 14.8308 0.0000 0.0000 0.0000
# 3 4.2222 14.8308 29.6751 0.0000 0.0000 0.0000
# 4 0.0000 0.0000 0.0000 0.6512 0.0000 0.0000
# 5 0.0000 0.0000 0.0000 0.0000 12.1456 0.0000
# 6 0.0000 0.0000 0.0000 0.0000 0.0000 -3.3110
#
#
#
# Elastic Compliance Matrix: (Units=1/GPa)
#
#
# Indices 1 2 3 4 5 6 
#
# 1 0.013362 -0.005447 0.000821 0.000000 0.000000 0.000000
# 2 -0.005447 0.009073 -0.003760 0.000000 0.000000 0.000000
# 3 0.000821 -0.003760 0.035460 0.000000 0.000000 0.000000
# 4 0.000000 0.000000 0.000000 1.535519 0.000000 0.000000
# 5 0.000000 0.000000 0.000000 0.000000 0.082334 0.000000
# 6 0.000000 0.000000 0.000000 0.000000 0.000000 -0.302023
#
#
# Mechanical properties :
#
#
# Convention : Reuss Voigt Hill
#
# Bulk Modulus (GPa) = 24.31614 49.33308 36.82461
# Shear Modulus (GPa) = 3.56073 15.36727 9.46400
#
# Velocity S-wave (km/s) = 1.29266 2.68543 2.10743
# Velocity P-wave (km/s) = 3.69310 5.72419 4.81691
#
# Compressibility (1/GPa) = 0.04112495
#
# Stress axis : x y z
#
# Youngs Moduli (GPa) = 74.83724 110.21484 28.20046
#
# Poissons Ratio (x) = 0.60034 -0.02315
# Poissons Ratio (y) = 0.40764 0.10602
# Poissons Ratio (z) = -0.06145 0.41436
#
# Static dielectric constant tensor:
#      x y z
#    x 1.764980 0.000000 0.000000 
#    y 0.000000 1.797900 0.000000 
#    z 0.000000 0.000000 1.808160 
# 
# From -- ./inp_files/7369.got.cif
#   From: 2010.05.17/outbox.cif.g08.bks.cpg/sg47_4_cif.got.tgz:7369.got - 2010.06.03 20:15:42.
