data_PCOD9383665
_publ_section_title
;
Structure prediction by ZEFSAII (Michael W. Deem and Ramdas Pophale) SiO2 
 PCOD9383665
Probable space group: P M M M
;
_chemical_formula_sum "Si O2"
_cell_formula_units_Z 52
_cell_length_a 8.227318
_cell_length_b 27.209709
_cell_length_c 13.113499
_cell_angle_alpha 90.000000
_cell_angle_beta 90.000000
_cell_angle_gamma 90.000000
_cell_volume 2935.626291
_symmetry_space_group_name_H-M "P M M M"
_symmetry_group_IT_number 47
_symmetry_cell_setting 'orthorhombic'
loop_
_space_group_symop_operation_xyz
x,y,z
-x,-y,z
x,-y,-z
-x,y,-z
-x,-y,-z
x,y,-z
-x,y,z
x,-y,z
loop_
_atom_site_type_symbol
_atom_site_label
_atom_site_fract_x
_atom_site_fract_y
_atom_site_fract_z
Si Si1 0.694191 0.222903 0.615910
Si Si2 0.198583 0.500000 0.118669
Si Si3 0.196571 0.605770 0.193674
Si Si4 0.194498 0.157523 0.801310
Si Si5 0.694989 0.782385 0.000000
Si Si6 0.198044 0.054507 0.119083
Si Si7 0.695049 0.669182 0.000000
Si Si8 0.195724 0.332721 0.384621
O O1 0.750633 0.212132 0.500000
O O2 0.500000 0.225697 0.615124
O O3 0.746321 0.183203 0.698605
O O4 0.759851 0.276909 0.644108
O O5 0.253256 0.550307 0.171776
O O6 0.000000 0.500000 0.119559
O O7 0.247956 0.500000 0.000000
O O8 0.256050 0.629688 0.299053
O O9 0.000000 0.604511 0.196992
O O10 0.245334 0.640338 0.099644
O O11 0.246699 0.189411 0.899209
O O12 0.254864 0.101664 0.818080
O O13 0.000000 0.156365 0.799610
O O14 0.500000 0.782157 0.000000
O O15 0.752216 0.725759 0.000000
O O16 0.000000 0.054372 0.121806
O O17 0.252233 0.000000 0.151962
O O18 0.243053 0.061069 0.000000
O O19 0.500000 0.669335 0.000000
O O20 0.256612 0.341591 0.500000
O O21 0.000000 0.336093 0.387182
#
# Coordination Sequence:
#
# PCOD9383665 Si02
#       8
#     8   4   8   8   4   8   4   8
#     4  10  21  36  53  73 101 139 175 207 254 311
#     4   9  16  30  51  73  97 128 167 200 237 297
#     4  10  19  33  53  73  96 130 164 199 246 299
#     4  11  20  32  53  79 104 132 171 215 256 298
#     4  11  23  35  47  71 109 143 165 200 257 314
#     4   8  14  27  48  74 103 133 166 206 252 299
#     4  11  23  34  46  68  99 130 165 204 243 290
#     4   9  18  33  53  77 101 126 164 211 250 292
#
# _framework density 17.713425999999998
#
# number of rings (size 3 to 8) (size 9 to 14) (size 15 to 20)
#    0.000    2.231    1.538    2.769    0.000    5.231 
#    0.000    1.154    0.000    5.077    0.000    3.231 
#    0.000    3.692    0.000    0.000    0.000    0.000 
#
# Total GULP energy -290142.836533 kJ/mol
# GULP energy per Si atom -5579.669933 kJ/mol
# Density = 1.767311 g / cm^3
# Si number density = 17.713426 Si / 1000 Ang^3
#
#
#
# Elastic Constant Matrix: (Units=GPa)
#
#
# Indices 1 2 3 4 5 6 
#
# 1 12.4406 8.8122 8.8639 0.0000 0.0000 0.0000
# 2 8.8122 187.1042 105.2819 0.0000 0.0000 0.0000
# 3 8.8639 105.2819 120.6188 0.0000 0.0000 0.0000
# 4 0.0000 0.0000 0.0000 18.6951 0.0000 0.0000
# 5 0.0000 0.0000 0.0000 0.0000 30.0244 0.0000
# 6 0.0000 0.0000 0.0000 0.0000 0.0000 -16.1122
#
#
#
# Elastic Compliance Matrix: (Units=1/GPa)
#
#
# Indices 1 2 3 4 5 6 
#
# 1 0.084911 -0.000959 -0.005403 0.000000 0.000000 0.000000
# 2 -0.000959 0.010514 -0.009107 0.000000 0.000000 0.000000
# 3 -0.005403 -0.009107 0.016636 0.000000 0.000000 0.000000
# 4 0.000000 0.000000 0.000000 0.053490 0.000000 0.000000
# 5 0.000000 0.000000 0.000000 0.000000 0.033306 0.000000
# 6 0.000000 0.000000 0.000000 0.000000 0.000000 -0.062065
#
#
# Mechanical properties :
#
#
# Convention : Reuss Voigt Hill
#
# Bulk Modulus (GPa) = 12.32673 62.89774 37.61224
# Shear Modulus (GPa) = 25.67110 19.66848 22.66979
#
# Velocity S-wave (km/s) = 3.81103 3.33584 3.58132
# Velocity P-wave (km/s) = 5.13218 7.10089 6.19524
#
# Compressibility (1/GPa) = 0.08112452
#
# Stress axis : x y z
#
# Youngs Moduli (GPa) = 11.77703 95.11087 60.10928
#
# Poissons Ratio (x) = 0.09122 0.32475
# Poissons Ratio (y) = 0.01130 0.54740
# Poissons Ratio (z) = 0.06363 0.86615
#
# Static dielectric constant tensor:
#      x y z
#    x 1.609310 0.000000 0.000000 
#    y 0.000000 1.607790 0.000000 
#    z 0.000000 0.000000 1.584100 
# 
# From -- ./inp_files/15571.got.cif
#   From: 2010.05.17/outbox.cif.g08.bks.cpg/sg47_8_cif.got.tgz:15571.got - 2010.06.03 20:15:42.
