data_PCOD9383260
_publ_section_title
;
Structure prediction by ZEFSAII (Michael W. Deem and Ramdas Pophale) SiO2 
 PCOD9383260
Probable space group: P M M M
;
_chemical_formula_sum "Si O2"
_cell_formula_units_Z 52
_cell_length_a 14.851027
_cell_length_b 7.695859
_cell_length_c 21.344293
_cell_angle_alpha 90.000000
_cell_angle_beta 90.000000
_cell_angle_gamma 90.000000
_cell_volume 2439.469338
_symmetry_space_group_name_H-M "P M M M"
_symmetry_group_IT_number 47
_symmetry_cell_setting 'orthorhombic'
loop_
_space_group_symop_operation_xyz
x,y,z
-x,-y,z
x,-y,-z
-x,y,-z
-x,-y,-z
x,y,-z
-x,y,z
x,-y,z
loop_
_atom_site_type_symbol
_atom_site_label
_atom_site_fract_x
_atom_site_fract_y
_atom_site_fract_z
Si Si1 0.802169 0.285933 0.571965
Si Si2 0.296140 0.201823 0.932858
Si Si3 0.000000 0.299564 0.423679
Si Si4 0.714384 0.300375 0.691459
Si Si5 0.601222 0.706913 0.806908
Si Si6 0.900633 0.207348 0.250221
Si Si7 0.098426 0.708001 0.102409
O O1 0.785886 0.236334 0.500000
O O2 0.805191 0.500000 0.573337
O O3 0.902425 0.222695 0.592101
O O4 0.728623 0.224892 0.622132
O O5 0.341120 0.271882 0.869955
O O6 0.188307 0.218248 0.927671
O O7 0.319901 0.000000 0.933809
O O8 0.324472 0.280346 0.000000
O O9 0.000000 0.500000 0.402680
O O10 0.000000 0.302929 0.500000
O O11 0.685374 0.500000 0.682772
O O12 0.651806 0.220229 0.745364
O O13 0.815498 0.297776 0.719176
O O14 0.500000 0.775895 0.814052
O O15 0.595531 0.500000 0.797618
O O16 0.897884 0.247128 0.176123
O O17 0.000000 0.262418 0.273250
O O18 0.892493 0.000000 0.258468
O O19 0.101895 0.500000 0.095274
O O20 0.000000 0.767915 0.079248
#
# Coordination Sequence:
#
# PCOD9383260 Si02
#       7
#     8   8   4   8   8   8   8
#     4   8  14  24  40  68 106 141 176 220 265 311
#     4  11  24  40  59  84 113 144 179 222 272 326
#     4   7  10  18  32  56  95 137 170 207 254 298
#     4  10  19  31  53  80 103 137 184 228 271 322
#     4  10  22  40  59  80 107 138 177 230 288 338
#     4  10  20  32  48  74 110 147 180 220 269 317
#     4  10  20  35  56  82 113 149 187 222 257 307
#
# _framework density 21.316110999999999
#
# number of rings (size 3 to 8) (size 9 to 14) (size 15 to 20)
#    0.000    2.385    1.538    2.308    1.077    4.000 
#    0.000    3.077    0.000    0.923    0.000    4.308 
#    0.000    0.000    0.000    2.769    0.000    3.077 
#
# Total GULP energy -290152.679904 kJ/mol
# GULP energy per Si atom -5579.859229 kJ/mol
# Density = 2.126759 g / cm^3
# Si number density = 21.316111 Si / 1000 Ang^3
#
#
#
# Elastic Constant Matrix: (Units=GPa)
#
#
# Indices 1 2 3 4 5 6 
#
# 1 106.0612 -1.1611 69.4263 0.0000 0.0000 0.0000
# 2 -1.1611 43.5454 -1.3814 0.0000 0.0000 0.0000
# 3 69.4263 -1.3814 154.8716 0.0000 0.0000 0.0000
# 4 0.0000 0.0000 0.0000 15.0273 0.0000 0.0000
# 5 0.0000 0.0000 0.0000 0.0000 0.1879 0.0000
# 6 0.0000 0.0000 0.0000 0.0000 0.0000 -80.7372
#
#
#
# Elastic Compliance Matrix: (Units=1/GPa)
#
#
# Indices 1 2 3 4 5 6 
#
# 1 0.013345 0.000166 -0.005981 0.000000 0.000000 0.000000
# 2 0.000166 0.022973 0.000130 0.000000 0.000000 0.000000
# 3 -0.005981 0.000130 0.009139 0.000000 0.000000 0.000000
# 4 0.000000 0.000000 0.000000 0.066546 0.000000 0.000000
# 5 0.000000 0.000000 0.000000 0.000000 5.323105 0.000000
# 6 0.000000 0.000000 0.000000 0.000000 0.000000 -0.012386
#
#
# Mechanical properties :
#
#
# Convention : Reuss Voigt Hill
#
# Bulk Modulus (GPa) = 29.33506 48.69399 39.01452
# Shear Modulus (GPa) = 0.91820 2.73521 1.82671
#
# Velocity S-wave (km/s) = 0.65703 1.13400 0.92673
# Velocity P-wave (km/s) = 3.79043 4.96064 4.41448
#
# Compressibility (1/GPa) = 0.03408891
#
# Stress axis : x y z
#
# Youngs Moduli (GPa) = 74.93184 43.52912 109.41717
#
# Poissons Ratio (x) = -0.00723 0.65443
# Poissons Ratio (y) = -0.01245 -0.01427
# Poissons Ratio (z) = 0.44817 -0.00568
#
# Static dielectric constant tensor:
#      x y z
#    x 1.768390 0.000000 0.000000 
#    y 0.000000 1.781700 0.000000 
#    z 0.000000 0.000000 1.860290 
# 
# From -- ./inp_files/21402.got.cif
#   From: 2010.05.17/outbox.cif.g08.bks.cpg/sg47_11_cif.got.tgz:21402.got - 2010.06.03 20:15:42.
