data_PCOD9383167
_publ_section_title
;
Structure prediction by ZEFSAII (Michael W. Deem and Ramdas Pophale) SiO2 
 PCOD9383167
Probable space group: P M M M
;
_chemical_formula_sum "Si O2"
_cell_formula_units_Z 64
_cell_length_a 20.828702
_cell_length_b 8.157131
_cell_length_c 20.652577
_cell_angle_alpha 90.000000
_cell_angle_beta 90.000000
_cell_angle_gamma 90.000000
_cell_volume 3508.923447
_symmetry_space_group_name_H-M "P M M M"
_symmetry_group_IT_number 47
_symmetry_cell_setting 'orthorhombic'
loop_
_space_group_symop_operation_xyz
x,y,z
-x,-y,z
x,-y,-z
-x,y,-z
-x,-y,-z
x,y,-z
-x,y,z
x,-y,z
loop_
_atom_site_type_symbol
_atom_site_label
_atom_site_fract_x
_atom_site_fract_y
_atom_site_fract_z
Si Si1 0.821110 0.196864 0.675031
Si Si2 0.926916 0.200247 0.425880
Si Si3 0.323490 0.197570 0.322211
Si Si4 0.176416 0.304689 0.178345
Si Si5 0.679821 0.804346 0.824641
Si Si6 0.427153 0.697950 0.074087
Si Si7 0.572889 0.302498 0.426799
Si Si8 0.926703 0.299872 0.073889
O O1 0.874644 0.259984 0.625483
O O2 0.748625 0.256457 0.661024
O O3 0.835337 0.236144 0.749782
O O4 0.820043 0.000000 0.668698
O O5 0.912349 0.248605 0.500000
O O6 0.000000 0.251122 0.410558
O O7 0.926514 0.000000 0.424722
O O8 0.337123 0.253006 0.248446
O O9 0.376176 0.249861 0.373646
O O10 0.322146 0.000000 0.321588
O O11 0.170256 0.500000 0.181856
O O12 0.249567 0.263393 0.159287
O O13 0.125229 0.242066 0.125854
O O14 0.625825 0.756823 0.875802
O O15 0.685337 0.000000 0.822658
O O16 0.500000 0.751315 0.090627
O O17 0.426871 0.500000 0.074429
O O18 0.413744 0.750754 0.000000
O O19 0.589149 0.246563 0.500000
O O20 0.500000 0.246565 0.412147
O O21 0.571801 0.500000 0.427890
O O22 0.925608 0.500000 0.074194
O O23 0.000000 0.250771 0.089331
O O24 0.912254 0.248925 0.000000
#
# Coordination Sequence:
#
# PCOD9383167 Si02
#       8
#     8   8   8   8   8   8   8   8
#     4   9  18  32  48  69  99 129 157 197 245 288
#     4   8  14  26  46  71  96 125 164 204 240 286
#     4   9  19  33  48  69  97 128 162 199 239 285
#     4  10  19  31  50  74  98 127 164 204 245 294
#     4  10  21  36  52  73 103 135 167 206 250 294
#     4   9  19  36  56  78 104 133 167 206 245 290
#     4   9  19  35  52  71  96 124 155 194 240 289
#     4   8  15  29  48  70  96 125 159 200 243 286
#
# _framework density 18.239211000000001
#
# number of rings (size 3 to 8) (size 9 to 14) (size 15 to 20)
#    0.000    3.000    0.000    3.000    0.000    5.500 
#    0.000    6.250    0.000    2.625    0.000    4.375 
#    0.000    0.000    0.000    0.000    0.000    0.000 
#
# Total GULP energy -356748.988655 kJ/mol
# GULP energy per Si atom -5574.202948 kJ/mol
# Density = 1.819770 g / cm^3
# Si number density = 18.239211 Si / 1000 Ang^3
#
#
#
# Elastic Constant Matrix: (Units=GPa)
#
#
# Indices 1 2 3 4 5 6 
#
# 1 160.1389 5.4383 133.0996 0.0000 0.0000 0.0000
# 2 5.4383 3.5048 1.9479 0.0000 0.0000 0.0000
# 3 133.0996 1.9479 134.8537 0.0000 0.0000 0.0000
# 4 0.0000 0.0000 0.0000 30.5739 0.0000 0.0000
# 5 0.0000 0.0000 0.0000 0.0000 45.1479 0.0000
# 6 0.0000 0.0000 0.0000 0.0000 0.0000 14.1761
#
#
#
# Elastic Compliance Matrix: (Units=1/GPa)
#
#
# Indices 1 2 3 4 5 6 
#
# 1 0.039659 -0.040105 -0.038563 0.000000 0.000000 0.000000
# 2 -0.040105 0.328193 0.034843 0.000000 0.000000 0.000000
# 3 -0.038563 0.034843 0.044974 0.000000 0.000000 0.000000
# 4 0.000000 0.000000 0.000000 0.032708 0.000000 0.000000
# 5 0.000000 0.000000 0.000000 0.000000 0.022149 0.000000
# 6 0.000000 0.000000 0.000000 0.000000 0.000000 0.070541
#
#
# Mechanical properties :
#
#
# Convention : Reuss Voigt Hill
#
# Bulk Modulus (GPa) = 3.07528 64.38542 33.73035
# Shear Modulus (GPa) = 6.80952 28.51369 17.66160
#
# Velocity S-wave (km/s) = 1.93431 3.95817 3.11518
# Velocity P-wave (km/s) = 2.58428 7.50111 5.61004
#
# Compressibility (1/GPa) = 0.32517391
#
# Stress axis : x y z
#
# Youngs Moduli (GPa) = 25.21520 3.04699 22.23505
#
# Poissons Ratio (x) = 0.12220 0.85746
# Poissons Ratio (y) = 1.01126 -0.77473
# Poissons Ratio (z) = 0.97239 -0.10617
#
# Static dielectric constant tensor:
#      x y z
#    x 1.616860 0.000000 0.000000 
#    y 0.000000 1.648830 0.000000 
#    z 0.000000 0.000000 1.614350 
# 
# From -- ./inp_files/9946.got.cif
#   From: 2010.05.17/outbox.cif.g08.bks.cpg/sg47_5_cif.got.tgz:9946.got - 2010.06.03 20:15:42.
