data_PCOD9383803
_publ_section_title
;
Structure prediction by ZEFSAII (Michael W. Deem and Ramdas Pophale) SiO2 
 PCOD9383803
Probable space group: P M M M
;
_chemical_formula_sum "Si O2"
_cell_formula_units_Z 40
_cell_length_a 7.591378
_cell_length_b 11.993096
_cell_length_c 22.028710
_cell_angle_alpha 90.000000
_cell_angle_beta 90.000000
_cell_angle_gamma 90.000000
_cell_volume 2005.584630
_symmetry_space_group_name_H-M "P M M M"
_symmetry_group_IT_number 47
_symmetry_cell_setting 'orthorhombic'
loop_
_space_group_symop_operation_xyz
x,y,z
-x,-y,z
x,-y,-z
-x,y,-z
-x,-y,-z
x,y,-z
-x,y,z
x,-y,z
loop_
_atom_site_type_symbol
_atom_site_label
_atom_site_fract_x
_atom_site_fract_y
_atom_site_fract_z
Si Si1 0.713015 0.239230 0.381421
Si Si2 0.285723 0.500000 0.931206
Si Si3 0.000000 0.867026 0.928906
Si Si4 0.715254 0.000000 0.428540
Si Si5 0.792765 0.629289 0.258576
Si Si6 0.297443 0.726833 0.132629
Si Si7 0.284784 0.372978 0.500000
O O1 0.500000 0.237603 0.380990
O O2 0.768537 0.303897 0.321080
O O3 0.772024 0.309418 0.439817
O O4 0.771326 0.112084 0.393558
O O5 0.500000 0.500000 0.930792
O O6 0.232118 0.388559 0.897352
O O7 0.224706 0.500000 0.000000
O O8 0.830645 0.820560 0.893029
O O9 0.000000 0.000000 0.928550
O O10 0.000000 0.830071 0.000000
O O11 0.500000 0.000000 0.429857
O O12 0.769118 0.000000 0.500000
O O13 0.726721 0.500000 0.261611
O O14 0.709417 0.700434 0.204109
O O15 0.000000 0.623188 0.245532
O O16 0.500000 0.747785 0.114792
O O17 0.226444 0.500000 0.500000
O O18 0.500000 0.372166 0.500000
#
# Coordination Sequence:
#
# PCOD9383803 Si02
#       7
#     8   4   4   4   8   8   4
#     4  10  19  33  56  84 115 154 203 258 315 382
#     4   9  18  33  61 101 132 158 203 261 323 389
#     4  11  26  47  69  97 135 177 223 272 317 371
#     4   9  16  32  57  85 115 149 199 262 321 377
#     4  11  23  40  60  86 125 168 208 257 325 397
#     4  11  22  41  68  98 133 173 217 266 324 388
#     4   9  16  27  48  80 111 143 194 257 316 377
#
# _framework density 19.944307999999999
#
# number of rings (size 3 to 8) (size 9 to 14) (size 15 to 20)
#    0.000    1.800    3.000    1.800    0.000    4.000 
#    1.800    3.000    0.000    2.400    0.000    0.000 
#    0.000    0.000    0.000    0.000    0.000    0.000 
#
# Total GULP energy -223437.450329 kJ/mol
# GULP energy per Si atom -5585.936258 kJ/mol
# Density = 1.989891 g / cm^3
# Si number density = 19.944308 Si / 1000 Ang^3
#
#
#
# Elastic Constant Matrix: (Units=GPa)
#
#
# Indices 1 2 3 4 5 6 
#
# 1 81.6416 32.8686 17.0101 0.0000 0.0000 0.0000
# 2 32.8686 140.8183 62.0356 0.0000 0.0000 0.0000
# 3 17.0101 62.0356 149.3342 0.0000 0.0000 0.0000
# 4 0.0000 0.0000 0.0000 45.5651 0.0000 0.0000
# 5 0.0000 0.0000 0.0000 0.0000 12.5536 0.0000
# 6 0.0000 0.0000 0.0000 0.0000 0.0000 15.7742
#
#
#
# Elastic Compliance Matrix: (Units=1/GPa)
#
#
# Indices 1 2 3 4 5 6 
#
# 1 0.013529 -0.003034 -0.000281 0.000000 0.000000 0.000000
# 2 -0.003034 0.009373 -0.003548 0.000000 0.000000 0.000000
# 3 -0.000281 -0.003548 0.008202 0.000000 0.000000 0.000000
# 4 0.000000 0.000000 0.000000 0.021947 0.000000 0.000000
# 5 0.000000 0.000000 0.000000 0.000000 0.079659 0.000000
# 6 0.000000 0.000000 0.000000 0.000000 0.000000 0.063395
#
#
# Mechanical properties :
#
#
# Convention : Reuss Voigt Hill
#
# Bulk Modulus (GPa) = 57.54343 66.18031 61.86187
# Shear Modulus (GPa) = 23.18882 32.10389 27.64635
#
# Velocity S-wave (km/s) = 3.41351 4.01643 3.72718
# Velocity P-wave (km/s) = 6.66714 7.40024 7.04323
#
# Compressibility (1/GPa) = 0.01737818
#
# Stress axis : x y z
#
# Youngs Moduli (GPa) = 73.91727 106.69488 121.91863
#
# Poissons Ratio (x) = 0.32373 0.03421
# Poissons Ratio (y) = 0.22427 0.43255
# Poissons Ratio (z) = 0.02074 0.37854
#
# Static dielectric constant tensor:
#      x y z
#    x 1.740920 0.000000 0.000000 
#    y 0.000000 1.677930 0.000000 
#    z 0.000000 0.000000 1.694160 
# 
# From -- ./inp_files/29399.got.cif
#   From: 2010.05.17/outbox.cif.g08.bks.cpg/sg47_15_cif.got.tgz:29399.got - 2010.06.03 20:15:42.
