data_PCOD9383692
_publ_section_title
;
Structure prediction by ZEFSAII (Michael W. Deem and Ramdas Pophale) SiO2 
 PCOD9383692
Probable space group: P M M M
;
_chemical_formula_sum "Si O2"
_cell_formula_units_Z 52
_cell_length_a 28.939138
_cell_length_b 12.100903
_cell_length_c 8.699175
_cell_angle_alpha 90.000000
_cell_angle_beta 90.000000
_cell_angle_gamma 90.000000
_cell_volume 3046.361500
_symmetry_space_group_name_H-M "P M M M"
_symmetry_group_IT_number 47
_symmetry_cell_setting 'orthorhombic'
loop_
_space_group_symop_operation_xyz
x,y,z
-x,-y,z
x,-y,-z
-x,y,-z
-x,-y,-z
x,y,-z
-x,y,z
x,-y,z
loop_
_atom_site_type_symbol
_atom_site_label
_atom_site_fract_x
_atom_site_fract_y
_atom_site_fract_z
Si Si1 0.902462 0.871769 0.314819
Si Si2 0.553498 0.127203 0.814716
Si Si3 0.811803 0.259909 0.313618
Si Si4 0.000000 0.866031 0.177816
Si Si5 0.275845 0.128998 0.184339
Si Si6 0.672426 0.500000 0.312944
Si Si7 0.779860 0.500000 0.687102
Si Si8 0.362685 0.261655 0.315583
O O1 0.903469 0.871999 0.500000
O O2 0.859771 0.796163 0.263964
O O3 0.952136 0.831140 0.255819
O O4 0.895562 0.000000 0.264979
O O5 0.500000 0.148011 0.772986
O O6 0.589218 0.211633 0.741537
O O7 0.564707 0.000000 0.770623
O O8 0.556877 0.133017 0.000000
O O9 0.810291 0.256769 0.500000
O O10 0.768930 0.189920 0.250917
O O11 0.804637 0.386943 0.264635
O O12 0.000000 0.000000 0.188593
O O13 0.000000 0.834798 0.000000
O O14 0.321360 0.186993 0.250190
O O15 0.275086 0.000000 0.226797
O O16 0.276077 0.137393 0.000000
O O17 0.673213 0.500000 0.500000
O O18 0.726134 0.500000 0.262832
O O19 0.647261 0.612440 0.264474
O O20 0.779283 0.500000 0.500000
O O21 0.361032 0.258830 0.500000
#
# Coordination Sequence:
#
# PCOD9383692 Si02
#       8
#     8   8   8   4   8   4   4   8
#     4   9  17  29  47  73 102 129 162 208 256 301
#     4   9  19  37  58  79 107 139 167 204 259 313
#     4  10  19  33  54  76 100 133 173 213 255 303
#     4   9  17  29  47  70  97 132 168 201 248 309
#     4  11  23  35  48  72 107 139 166 205 258 310
#     4   9  18  34  53  75 103 136 171 213 259 295
#     4   9  16  32  54  74 100 134 172 213 254 297
#     4  11  21  35  56  78 102 135 175 215 252 298
#
# _framework density 17.069544
#
# number of rings (size 3 to 8) (size 9 to 14) (size 15 to 20)
#    0.000    2.231    1.538    2.538    0.000    5.846 
#    0.000    5.385    0.000    2.769    0.000    3.231 
#    0.000    0.000    0.000    0.000    0.000    0.000 
#
# Total GULP energy -290127.931041 kJ/mol
# GULP energy per Si atom -5579.383289 kJ/mol
# Density = 1.703069 g / cm^3
# Si number density = 17.069544 Si / 1000 Ang^3
#
#
#
# Elastic Constant Matrix: (Units=GPa)
#
#
# Indices 1 2 3 4 5 6 
#
# 1 148.7676 98.9339 29.4728 0.0000 0.0000 0.0000
# 2 98.9339 155.7832 32.2799 0.0000 0.0000 0.0000
# 3 29.4728 32.2799 15.6513 0.0000 0.0000 0.0000
# 4 0.0000 0.0000 0.0000 1.0683 0.0000 0.0000
# 5 0.0000 0.0000 0.0000 0.0000 -68.5843 0.0000
# 6 0.0000 0.0000 0.0000 0.0000 0.0000 3.7734
#
#
#
# Elastic Compliance Matrix: (Units=1/GPa)
#
#
# Indices 1 2 3 4 5 6 
#
# 1 0.012995 -0.005557 -0.013009 0.000000 0.000000 0.000000
# 2 -0.005557 0.013586 -0.017556 0.000000 0.000000 0.000000
# 3 -0.013009 -0.017556 0.124598 0.000000 0.000000 0.000000
# 4 0.000000 0.000000 0.000000 0.936035 0.000000 0.000000
# 5 0.000000 0.000000 0.000000 0.000000 -0.014581 0.000000
# 6 0.000000 0.000000 0.000000 0.000000 0.000000 0.265014
#
#
# Mechanical properties :
#
#
# Convention : Reuss Voigt Hill
#
# Bulk Modulus (GPa) = 12.66876 71.28614 41.97745
# Shear Modulus (GPa) = 3.48140 -2.11414 0.68363
#
# Velocity S-wave (km/s) = 1.42967 -1.11411 0.63353
# Velocity P-wave (km/s) = 3.18799 6.34018 5.01802
#
# Compressibility (1/GPa) = 0.07893433
#
# Stress axis : x y z
#
# Youngs Moduli (GPa) = 76.95447 73.60482 8.02578
#
# Poissons Ratio (x) = 0.40902 0.10441
# Poissons Ratio (y) = 0.42763 0.14090
# Poissons Ratio (z) = 1.00113 1.29222
#
# Static dielectric constant tensor:
#      x y z
#    x 1.555790 0.000000 0.000000 
#    y 0.000000 1.571720 0.000000 
#    z 0.000000 0.000000 1.576130 
# 
# From -- ./inp_files/13334.got.cif
#   From: 2010.05.17/outbox.cif.g08.bks.cpg/sg47_7_cif.got.tgz:13334.got - 2010.06.03 20:15:42.
