data_PCOD9383595
_publ_section_title
;
Structure prediction by ZEFSAII (Michael W. Deem and Ramdas Pophale) SiO2 
 PCOD9383595
Probable space group: P M M M
;
_chemical_formula_sum "Si O2"
_cell_formula_units_Z 52
_cell_length_a 7.892359
_cell_length_b 28.665194
_cell_length_c 13.129301
_cell_angle_alpha 90.000000
_cell_angle_beta 90.000000
_cell_angle_gamma 90.000000
_cell_volume 2970.320565
_symmetry_space_group_name_H-M "P M M M"
_symmetry_group_IT_number 47
_symmetry_cell_setting 'orthorhombic'
loop_
_space_group_symop_operation_xyz
x,y,z
-x,-y,z
x,-y,-z
-x,y,-z
-x,-y,-z
x,y,-z
-x,y,z
x,-y,z
loop_
_atom_site_type_symbol
_atom_site_label
_atom_site_fract_x
_atom_site_fract_y
_atom_site_fract_z
Si Si1 0.500000 0.853295 0.378771
Si Si2 0.300713 0.734652 0.882746
Si Si3 0.295043 0.446699 0.278645
Si Si4 0.500000 0.051693 0.255937
Si Si5 0.797948 0.630627 0.115748
Si Si6 0.189766 0.179939 0.246692
Si Si7 0.804030 0.086425 0.879615
Si Si8 0.694975 0.556677 0.500000
O O1 0.500000 0.851126 0.500000
O O2 0.500000 0.906634 0.337752
O O3 0.665326 0.829101 0.329488
O O4 0.500000 0.745893 0.881503
O O5 0.276645 0.680702 0.853183
O O6 0.210843 0.770601 0.808338
O O7 0.239296 0.739165 0.000000
O O8 0.500000 0.448217 0.285688
O O9 0.237814 0.500000 0.258793
O O10 0.247649 0.410799 0.191462
O O11 0.229210 0.430897 0.390366
O O12 0.334481 0.058489 0.184810
O O13 0.500000 0.000000 0.300719
O O14 0.000000 0.635644 0.113975
O O15 0.738978 0.620751 0.000000
O O16 0.210650 0.139650 0.160756
O O17 0.000000 0.175144 0.288984
O O18 0.000000 0.071711 0.862265
O O19 0.770200 0.083806 0.000000
O O20 0.689853 0.500000 0.500000
O O21 0.500000 0.573561 0.500000
#
# Coordination Sequence:
#
# PCOD9383595 Si02
#       8
#     4   8   8   4   8   8   8   4
#     4  10  22  40  59  80 106 139 184 234 280 321
#     4  10  19  32  54  82 109 137 169 208 257 317
#     4   9  17  31  52  73  94 125 169 219 266 316
#     4  10  21  35  52  77 107 144 187 228 268 315
#     4  10  21  34  47  69 104 141 173 208 256 315
#     4  10  19  34  57  82 108 139 177 222 270 323
#     4   9  18  31  49  77 112 146 178 215 263 322
#     4   7  12  26  49  73  91 113 153 205 259 305
#
# _framework density 17.506526999999998
#
# number of rings (size 3 to 8) (size 9 to 14) (size 15 to 20)
#    0.000    2.538    0.769    2.538    0.000    4.462 
#    0.000    2.692    1.692    1.385    0.000    4.308 
#    0.000    0.000    0.000    0.000    0.000    0.000 
#
# Total GULP energy -289944.941323 kJ/mol
# GULP energy per Si atom -5575.864256 kJ/mol
# Density = 1.746668 g / cm^3
# Si number density = 17.506527 Si / 1000 Ang^3
#
#
#
# Elastic Constant Matrix: (Units=GPa)
#
#
# Indices 1 2 3 4 5 6 
#
# 1 71.7528 25.4663 34.3639 0.0000 0.0000 0.0000
# 2 25.4663 90.3052 55.1362 0.0000 0.0000 0.0000
# 3 34.3639 55.1362 93.4140 0.0000 0.0000 0.0000
# 4 0.0000 0.0000 0.0000 8.7462 0.0000 0.0000
# 5 0.0000 0.0000 0.0000 0.0000 2.8728 0.0000
# 6 0.0000 0.0000 0.0000 0.0000 0.0000 14.4874
#
#
#
# Elastic Compliance Matrix: (Units=1/GPa)
#
#
# Indices 1 2 3 4 5 6 
#
# 1 0.017051 -0.001530 -0.005369 0.000000 0.000000 0.000000
# 2 -0.001530 0.017450 -0.009737 0.000000 0.000000 0.000000
# 3 -0.005369 -0.009737 0.018427 0.000000 0.000000 0.000000
# 4 0.000000 0.000000 0.000000 0.114335 0.000000 0.000000
# 5 0.000000 0.000000 0.000000 0.000000 0.348087 0.000000
# 6 0.000000 0.000000 0.000000 0.000000 0.000000 0.069025
#
#
# Mechanical properties :
#
#
# Convention : Reuss Voigt Hill
#
# Bulk Modulus (GPa) = 50.87541 53.93388 52.40465
# Shear Modulus (GPa) = 8.01026 14.58835 11.29930
#
# Velocity S-wave (km/s) = 2.14138 2.88984 2.54329
# Velocity P-wave (km/s) = 5.93615 6.48149 6.21480
#
# Compressibility (1/GPa) = 0.01965586
#
# Stress axis : x y z
#
# Youngs Moduli (GPa) = 58.64633 57.30736 54.26779
#
# Poissons Ratio (x) = 0.08769 0.29139
# Poissons Ratio (y) = 0.08974 0.52838
# Poissons Ratio (z) = 0.31490 0.55798
#
# Static dielectric constant tensor:
#      x y z
#    x 1.629100 0.000000 0.000000 
#    y 0.000000 1.579370 0.000000 
#    z 0.000000 0.000000 1.580170 
# 
# From -- ./inp_files/15591.got.cif
#   From: 2010.05.17/outbox.cif.g08.bks.cpg/sg47_8_cif.got.tgz:15591.got - 2010.06.03 20:15:42.
