data_PCOD9383741
_publ_section_title
;
Structure prediction by ZEFSAII (Michael W. Deem and Ramdas Pophale) SiO2 
 PCOD9383741
Probable space group: P M M M
;
_chemical_formula_sum "Si O2"
_cell_formula_units_Z 52
_cell_length_a 8.656756
_cell_length_b 28.788146
_cell_length_c 12.086562
_cell_angle_alpha 90.000000
_cell_angle_beta 90.000000
_cell_angle_gamma 90.000000
_cell_volume 3012.115753
_symmetry_space_group_name_H-M "P M M M"
_symmetry_group_IT_number 47
_symmetry_cell_setting 'orthorhombic'
loop_
_space_group_symop_operation_xyz
x,y,z
-x,-y,z
x,-y,-z
-x,y,-z
-x,-y,-z
x,y,-z
-x,y,z
x,-y,z
loop_
_atom_site_type_symbol
_atom_site_label
_atom_site_fract_x
_atom_site_fract_y
_atom_site_fract_z
Si Si1 0.814392 0.315954 0.269185
Si Si2 0.186372 0.863112 0.264790
Si Si3 0.686224 0.946467 0.873984
Si Si4 0.684156 0.716901 0.500000
Si Si5 0.811855 0.226546 0.873913
Si Si6 0.684810 0.599027 0.129525
Si Si7 0.822703 0.500000 0.865974
Si Si8 0.187192 0.177925 0.500000
O O1 0.745315 0.308682 0.390502
O O2 0.764936 0.271378 0.196103
O O3 0.758442 0.361804 0.206319
O O4 0.000000 0.315866 0.276285
O O5 0.249299 0.910644 0.214713
O O6 0.237490 0.820580 0.186251
O O7 0.233251 0.849579 0.389276
O O8 0.000000 0.864837 0.262809
O O9 0.500000 0.944966 0.871929
O O10 0.732794 0.000000 0.853875
O O11 0.735458 0.933991 0.000000
O O12 0.500000 0.717911 0.500000
O O13 0.747126 0.769912 0.500000
O O14 0.000000 0.226327 0.875176
O O15 0.757805 0.228912 0.000000
O O16 0.500000 0.601735 0.134276
O O17 0.739074 0.547707 0.165659
O O18 0.731569 0.605809 0.000000
O O19 0.000000 0.500000 0.828199
O O20 0.822662 0.500000 0.000000
O O21 0.000000 0.182253 0.500000
#
# Coordination Sequence:
#
# PCOD9383741 Si02
#       8
#     8   8   8   4   8   8   4   4
#     4  11  21  36  56  77 108 147 186 226 272 328
#     4  10  19  33  55  79 105 136 177 223 265 312
#     4   9  19  36  55  76 106 141 174 213 266 325
#     4  12  24  38  56  78 106 142 188 233 273 322
#     4   9  17  29  49  78 107 134 168 214 265 315
#     4  10  20  34  53  82 119 151 182 229 284 329
#     4   9  17  31  53  80 109 148 195 231 270 331
#     4  10  20  38  57  77 105 142 180 220 267 320
#
# _framework density 17.263611999999998
#
# number of rings (size 3 to 8) (size 9 to 14) (size 15 to 20)
#    0.000    2.077    1.538    3.231    0.000    4.308 
#    0.000    1.154    0.000    5.538    0.000    3.231 
#    0.000    0.000    0.000    0.000    0.000    0.000 
#
# Total GULP energy -290232.533272 kJ/mol
# GULP energy per Si atom -5581.394871 kJ/mol
# Density = 1.722432 g / cm^3
# Si number density = 17.263612 Si / 1000 Ang^3
#
#
#
# Elastic Constant Matrix: (Units=GPa)
#
#
# Indices 1 2 3 4 5 6 
#
# 1 42.7469 37.6866 40.9512 0.0000 0.0000 0.0000
# 2 37.6866 142.2645 90.1141 0.0000 0.0000 0.0000
# 3 40.9512 90.1141 156.5058 0.0000 0.0000 0.0000
# 4 0.0000 0.0000 0.0000 3.9334 0.0000 0.0000
# 5 0.0000 0.0000 0.0000 0.0000 19.6660 0.0000
# 6 0.0000 0.0000 0.0000 0.0000 0.0000 11.5208
#
#
#
# Elastic Compliance Matrix: (Units=1/GPa)
#
#
# Indices 1 2 3 4 5 6 
#
# 1 0.033524 -0.005233 -0.005759 0.000000 0.000000 0.000000
# 2 -0.005233 0.011881 -0.005472 0.000000 0.000000 0.000000
# 3 -0.005759 -0.005472 0.011047 0.000000 0.000000 0.000000
# 4 0.000000 0.000000 0.000000 0.254233 0.000000 0.000000
# 5 0.000000 0.000000 0.000000 0.000000 0.050849 0.000000
# 6 0.000000 0.000000 0.000000 0.000000 0.000000 0.086799
#
#
# Mechanical properties :
#
#
# Convention : Reuss Voigt Hill
#
# Bulk Modulus (GPa) = 42.50781 75.44677 58.97729
# Shear Modulus (GPa) = 10.22281 18.54174 14.38227
#
# Velocity S-wave (km/s) = 2.43607 3.28080 2.88947
# Velocity P-wave (km/s) = 5.70866 7.62556 6.73565
#
# Compressibility (1/GPa) = 0.02352509
#
# Stress axis : x y z
#
# Youngs Moduli (GPa) = 29.82957 84.16468 90.52164
#
# Poissons Ratio (x) = 0.44042 0.52130
# Poissons Ratio (y) = 0.15609 0.49533
# Poissons Ratio (z) = 0.17178 0.46055
#
# Static dielectric constant tensor:
#      x y z
#    x 1.584630 0.000000 0.000000 
#    y 0.000000 1.561770 0.000000 
#    z 0.000000 0.000000 1.572790 
# 
# From -- ./inp_files/15512.got.cif
#   From: 2010.05.17/outbox.cif.g08.bks.cpg/sg47_8_cif.got.tgz:15512.got - 2010.06.03 20:15:42.
