data_PCOD9383243
_publ_section_title
;
Structure prediction by ZEFSAII (Michael W. Deem and Ramdas Pophale) SiO2 
 PCOD9383243
Probable space group: P M M M
;
_chemical_formula_sum "Si O2"
_cell_formula_units_Z 52
_cell_length_a 16.248805
_cell_length_b 19.706743
_cell_length_c 7.721457
_cell_angle_alpha 90.000000
_cell_angle_beta 90.000000
_cell_angle_gamma 90.000000
_cell_volume 2472.495654
_symmetry_space_group_name_H-M "P M M M"
_symmetry_group_IT_number 47
_symmetry_cell_setting 'orthorhombic'
loop_
_space_group_symop_operation_xyz
x,y,z
-x,-y,z
x,-y,-z
-x,y,-z
-x,-y,-z
x,y,-z
-x,y,z
x,-y,z
loop_
_atom_site_type_symbol
_atom_site_label
_atom_site_fract_x
_atom_site_fract_y
_atom_site_fract_z
Si Si1 0.907897 0.420857 0.288398
Si Si2 0.409900 0.890022 0.203966
Si Si3 0.140402 0.183804 0.192090
Si Si4 0.771396 0.681579 0.298129
Si Si5 0.407118 0.269286 0.710233
Si Si6 0.000000 0.920599 0.211647
Si Si7 0.758778 0.928106 0.302840
O O1 0.907494 0.417157 0.500000
O O2 0.899966 0.500000 0.241979
O O3 0.830953 0.376721 0.223341
O O4 0.000000 0.397297 0.234173
O O5 0.500000 0.909859 0.264052
O O6 0.402461 0.808944 0.232371
O O7 0.338582 0.927534 0.302228
O O8 0.403070 0.904485 0.000000
O O9 0.172193 0.250463 0.287057
O O10 0.218751 0.135105 0.186701
O O11 0.075576 0.128549 0.264237
O O12 0.112557 0.203987 0.000000
O O13 0.759021 0.665356 0.500000
O O14 0.678505 0.694994 0.228189
O O15 0.405126 0.270488 0.500000
O O16 0.500000 0.294262 0.762025
O O17 0.000000 0.000000 0.271195
O O18 0.000000 0.924133 0.000000
O O19 0.786794 0.918309 0.500000
O O20 0.791802 0.000000 0.236512
#
# Coordination Sequence:
#
# PCOD9383243 Si02
#       7
#     8   8   8   8   8   4   8
#     4   8  15  29  50  78 111 145 178 213 259 313
#     4  10  20  33  50  72  98 130 171 216 261 314
#     4  11  22  36  55  77 101 132 172 217 264 319
#     4  10  19  31  52  80 107 136 175 223 265 308
#     4   9  17  30  48  70 101 139 174 212 263 316
#     4   9  20  38  55  71  96 133 172 210 263 327
#     4  11  23  37  52  71  98 132 171 217 269 319
#
# _framework density 21.031382000000001
#
# number of rings (size 3 to 8) (size 9 to 14) (size 15 to 20)
#    0.000    2.231    1.538    2.308    1.077    3.077 
#    0.000    2.692    0.000    3.692    0.000    4.308 
#    0.000    0.000    0.000    5.231    0.000    5.538 
#
# Total GULP energy -289664.924827 kJ/mol
# GULP energy per Si atom -5570.479324 kJ/mol
# Density = 2.098351 g / cm^3
# Si number density = 21.031382 Si / 1000 Ang^3
#
#
#
# Elastic Constant Matrix: (Units=GPa)
#
#
# Indices 1 2 3 4 5 6 
#
# 1 154.5195 54.2785 7.0865 0.0000 0.0000 0.0000
# 2 54.2785 75.4045 0.8675 0.0000 0.0000 0.0000
# 3 7.0865 0.8675 38.9260 0.0000 0.0000 0.0000
# 4 0.0000 0.0000 0.0000 57.1169 0.0000 0.0000
# 5 0.0000 0.0000 0.0000 0.0000 10.8795 0.0000
# 6 0.0000 0.0000 0.0000 0.0000 0.0000 8.9604
#
#
#
# Elastic Compliance Matrix: (Units=1/GPa)
#
#
# Indices 1 2 3 4 5 6 
#
# 1 0.008743 -0.006277 -0.001452 0.000000 0.000000 0.000000
# 2 -0.006277 0.017772 0.000747 0.000000 0.000000 0.000000
# 3 -0.001452 0.000747 0.025937 0.000000 0.000000 0.000000
# 4 0.000000 0.000000 0.000000 0.017508 0.000000 0.000000
# 5 0.000000 0.000000 0.000000 0.000000 0.091916 0.000000
# 6 0.000000 0.000000 0.000000 0.000000 0.000000 0.111602
#
#
# Mechanical properties :
#
#
# Convention : Reuss Voigt Hill
#
# Bulk Modulus (GPa) = 25.98211 43.70165 34.84188
# Shear Modulus (GPa) = 16.65158 29.16585 22.90872
#
# Velocity S-wave (km/s) = 2.81686 3.72799 3.30398
# Velocity P-wave (km/s) = 4.79170 6.27335 5.58190
#
# Compressibility (1/GPa) = 0.03848801
#
# Stress axis : x y z
#
# Youngs Moduli (GPa) = 114.37519 56.26979 38.55433
#
# Poissons Ratio (x) = 0.35320 0.05597
# Poissons Ratio (y) = 0.71792 -0.02879
# Poissons Ratio (z) = 0.16605 -0.04201
#
# Static dielectric constant tensor:
#      x y z
#    x 1.923800 0.000000 0.000000 
#    y 0.000000 1.716410 0.000000 
#    z 0.000000 0.000000 1.788330 
# 
# From -- ./inp_files/6983.got.cif
#   From: 2010.05.17/outbox.cif.g08.bks.cpg/sg47_4_cif.got.tgz:6983.got - 2010.06.03 20:15:42.
