data_PCOD9383542
_publ_section_title
;
Structure prediction by ZEFSAII (Michael W. Deem and Ramdas Pophale) SiO2 
 PCOD9383542
Probable space group: P M M M
;
_chemical_formula_sum "Si O2"
_cell_formula_units_Z 40
_cell_length_a 7.525309
_cell_length_b 8.459158
_cell_length_c 27.992171
_cell_angle_alpha 90.000000
_cell_angle_beta 90.000000
_cell_angle_gamma 90.000000
_cell_volume 1781.919402
_symmetry_space_group_name_H-M "P M M M"
_symmetry_group_IT_number 47
_symmetry_cell_setting 'orthorhombic'
loop_
_space_group_symop_operation_xyz
x,y,z
-x,-y,z
x,-y,-z
-x,y,-z
-x,-y,-z
x,y,-z
-x,y,z
x,-y,z
loop_
_atom_site_type_symbol
_atom_site_label
_atom_site_fract_x
_atom_site_fract_y
_atom_site_fract_z
Si Si1 0.292041 0.326405 0.601924
Si Si2 0.284037 0.000000 0.443962
Si Si3 0.290012 0.819762 0.000000
Si Si4 0.788200 0.820401 0.102951
Si Si5 0.217120 0.679712 0.797577
Si Si6 0.215122 0.176713 0.301403
O O1 0.500000 0.330747 0.588572
O O2 0.216728 0.500000 0.589554
O O3 0.217168 0.164820 0.578915
O O4 0.278064 0.298537 0.658753
O O5 0.500000 0.000000 0.437865
O O6 0.245466 0.000000 0.500000
O O7 0.241693 0.744883 0.949132
O O8 0.500000 0.832607 0.000000
O O9 0.211736 0.000000 0.000000
O O10 0.720282 0.736402 0.150483
O O11 0.000000 0.829917 0.108383
O O12 0.716913 0.000000 0.101243
O O13 0.270452 0.500000 0.789311
O O14 0.272961 0.782944 0.752300
O O15 0.000000 0.684345 0.798321
O O16 0.000000 0.179699 0.301880
O O17 0.274308 0.000000 0.314607
#
# Coordination Sequence:
#
# PCOD9383542 Si02
#       6
#     8   4   4   8   8   8
#     4  10  20  34  54  80 109 141 178 221 269 318
#     4   9  18  34  55  79 109 143 181 226 269 310
#     4   9  17  29  46  67  90 116 150 193 242 296
#     4   9  16  28  47  68  88 114 153 198 240 286
#     4   9  17  29  46  70  98 126 160 204 248 294
#     4  10  19  32  53  79 106 139 176 213 259 315
#
# _framework density 22.447707000000001
#
# number of rings (size 3 to 8) (size 9 to 14) (size 15 to 20)
#    0.000    2.600    1.000    1.500    0.000    5.200 
#    0.000    3.500    0.000    8.400    0.000    1.400 
#    0.000    0.000    0.000    0.000    0.000    0.000 
#
# Total GULP energy -223196.875446 kJ/mol
# GULP energy per Si atom -5579.921886 kJ/mol
# Density = 2.239661 g / cm^3
# Si number density = 22.447707 Si / 1000 Ang^3
#
#
#
# Elastic Constant Matrix: (Units=GPa)
#
#
# Indices 1 2 3 4 5 6 
#
# 1 58.9097 5.9867 -5.2595 0.0000 0.0000 0.0000
# 2 5.9867 142.6869 59.1615 0.0000 0.0000 0.0000
# 3 -5.2595 59.1615 121.1349 0.0000 0.0000 0.0000
# 4 0.0000 0.0000 0.0000 3.3957 0.0000 0.0000
# 5 0.0000 0.0000 0.0000 0.0000 10.6962 0.0000
# 6 0.0000 0.0000 0.0000 0.0000 0.0000 3.0546
#
#
#
# Elastic Compliance Matrix: (Units=1/GPa)
#
#
# Indices 1 2 3 4 5 6 
#
# 1 0.017230 -0.001295 0.001381 0.000000 0.000000 0.000000
# 2 -0.001295 0.008885 -0.004396 0.000000 0.000000 0.000000
# 3 0.001381 -0.004396 0.010462 0.000000 0.000000 0.000000
# 4 0.000000 0.000000 0.000000 0.294492 0.000000 0.000000
# 5 0.000000 0.000000 0.000000 0.000000 0.093492 0.000000
# 6 0.000000 0.000000 0.000000 0.000000 0.000000 0.327373
#
#
# Mechanical properties :
#
#
# Convention : Reuss Voigt Hill
#
# Bulk Modulus (GPa) = 35.76971 49.16766 42.46868
# Shear Modulus (GPa) = 6.49457 20.95213 13.72335
#
# Velocity S-wave (km/s) = 1.70279 3.05843 2.47523
# Velocity P-wave (km/s) = 4.45368 5.86709 5.20855
#
# Compressibility (1/GPa) = 0.02795661
#
# Stress axis : x y z
#
# Youngs Moduli (GPa) = 58.03806 112.54539 95.58326
#
# Poissons Ratio (x) = 0.14579 -0.13198
# Poissons Ratio (y) = 0.07518 0.42016
# Poissons Ratio (z) = -0.08014 0.49472
#
# Static dielectric constant tensor:
#      x y z
#    x 1.860880 0.000000 0.000000 
#    y 0.000000 1.833140 0.000000 
#    z 0.000000 0.000000 1.825740 
# 
# From -- ./inp_files/1854.got.cif
#   From: 2010.05.17/outbox.cif.g08.bks.cpg/sg47_1_cif.got.tgz:1854.got - 2010.06.03 20:15:42.
