data_PCOD9383780
_publ_section_title
;
Structure prediction by ZEFSAII (Michael W. Deem and Ramdas Pophale) SiO2 
 PCOD9383780
Probable space group: P M M M
;
_chemical_formula_sum "Si O2"
_cell_formula_units_Z 48
_cell_length_a 19.515885
_cell_length_b 15.595272
_cell_length_c 8.666780
_cell_angle_alpha 90.000000
_cell_angle_beta 90.000000
_cell_angle_gamma 90.000000
_cell_volume 2637.782463
_symmetry_space_group_name_H-M "P M M M"
_symmetry_group_IT_number 47
_symmetry_cell_setting 'orthorhombic'
loop_
_space_group_symop_operation_xyz
x,y,z
-x,-y,z
x,-y,-z
-x,y,-z
-x,-y,-z
x,y,-z
-x,y,z
x,-y,z
loop_
_atom_site_type_symbol
_atom_site_label
_atom_site_fract_x
_atom_site_fract_y
_atom_site_fract_z
Si Si1 0.672203 0.349316 0.314852
Si Si2 0.827289 0.841952 0.313477
Si Si3 0.921406 0.000000 0.311709
Si Si4 0.579533 0.500000 0.185045
Si Si5 0.578371 0.000000 0.815727
Si Si6 0.330523 0.151607 0.685277
Si Si7 0.078331 0.500000 0.811911
Si Si8 0.823378 0.345892 0.185174
O O1 0.673338 0.354619 0.500000
O O2 0.618800 0.416730 0.248058
O O3 0.655426 0.250646 0.271922
O O4 0.748522 0.367662 0.252536
O O5 0.829463 0.834515 0.500000
O O6 0.879861 0.915350 0.264003
O O7 0.748893 0.866185 0.272532
O O8 0.841862 0.749139 0.242655
O O9 0.921424 0.000000 0.500000
O O10 0.000000 0.000000 0.260029
O O11 0.500000 0.500000 0.232383
O O12 0.582932 0.500000 0.000000
O O13 0.618779 0.083682 0.758793
O O14 0.500000 0.000000 0.758710
O O15 0.577502 0.000000 0.000000
O O16 0.335512 0.144646 0.500000
O O17 0.120899 0.416005 0.764963
O O18 0.000000 0.500000 0.757659
O O19 0.076861 0.500000 0.000000
O O20 0.819011 0.346673 0.000000
#
# Coordination Sequence:
#
# PCOD9383780 Si02
#       8
#     8   8   4   4   4   8   4   8
#     4  10  21  38  60  83 108 140 181 227 269 314
#     4   9  18  34  54  77 105 135 174 221 264 311
#     4   9  17  30  51  77 106 143 180 216 266 325
#     4  11  24  39  56  82 116 149 178 215 266 320
#     4  11  24  37  51  77 110 139 168 212 268 317
#     4   9  19  36  57  78 101 137 180 219 260 308
#     4   9  19  34  50  72 106 145 178 209 254 316
#     4  10  19  33  56  81 104 136 179 223 269 319
#
# _framework density 18.197104
#
# number of rings (size 3 to 8) (size 9 to 14) (size 15 to 20)
#    0.000    2.333    0.000    3.500    0.000    8.000 
#    0.000    5.000    0.000    4.000    0.000    0.000 
#    0.000    0.000    0.000    0.000    0.000    0.000 
#
# Total GULP energy -267979.263996 kJ/mol
# GULP energy per Si atom -5582.901333 kJ/mol
# Density = 1.815569 g / cm^3
# Si number density = 18.197104 Si / 1000 Ang^3
#
#
#
# Elastic Constant Matrix: (Units=GPa)
#
#
# Indices 1 2 3 4 5 6 
#
# 1 181.8670 147.3156 44.3962 0.0000 0.0000 0.0000
# 2 147.3156 158.4050 43.2166 0.0000 0.0000 0.0000
# 3 44.3962 43.2166 30.7962 0.0000 0.0000 0.0000
# 4 0.0000 0.0000 0.0000 41.1700 0.0000 0.0000
# 5 0.0000 0.0000 0.0000 0.0000 20.6770 0.0000
# 6 0.0000 0.0000 0.0000 0.0000 0.0000 -11.9352
#
#
#
# Elastic Compliance Matrix: (Units=1/GPa)
#
#
# Indices 1 2 3 4 5 6 
#
# 1 0.022761 -0.019794 -0.005036 0.000000 0.000000 0.000000
# 2 -0.019794 0.027443 -0.009975 0.000000 0.000000 0.000000
# 3 -0.005036 -0.009975 0.053730 0.000000 0.000000 0.000000
# 4 0.000000 0.000000 0.000000 0.024290 0.000000 0.000000
# 5 0.000000 0.000000 0.000000 0.000000 0.048363 0.000000
# 6 0.000000 0.000000 0.000000 0.000000 0.000000 -0.083785
#
#
# Mechanical properties :
#
#
# Convention : Reuss Voigt Hill
#
# Bulk Modulus (GPa) = 29.13462 93.43614 61.28538
# Shear Modulus (GPa) = 28.75990 19.05833 23.90912
#
# Velocity S-wave (km/s) = 3.97982 3.23976 3.62870
# Velocity P-wave (km/s) = 6.09623 8.09029 7.16299
#
# Compressibility (1/GPa) = 0.03432343
#
# Stress axis : x y z
#
# Youngs Moduli (GPa) = 43.93398 36.43948 18.61155
#
# Poissons Ratio (x) = 0.72128 0.09373
# Poissons Ratio (y) = 0.86963 0.18566
# Poissons Ratio (z) = 0.22125 0.36350
#
# Static dielectric constant tensor:
#      x y z
#    x 1.604470 0.000000 0.000000 
#    y 0.000000 1.608190 0.000000 
#    z 0.000000 0.000000 1.614600 
# 
# From -- ./inp_files/9305.got.cif
#   From: 2010.05.17/outbox.cif.g08.bks.cpg/sg47_5_cif.got.tgz:9305.got - 2010.06.03 20:15:42.
