data_PCOD9383956
_publ_section_title
;
Structure prediction by ZEFSAII (Michael W. Deem and Ramdas Pophale) SiO2 
 PCOD9383956
Probable space group: P M M M
;
_chemical_formula_sum "Si O2"
_cell_formula_units_Z 56
_cell_length_a 22.451476
_cell_length_b 15.144400
_cell_length_c 9.864430
_cell_angle_alpha 90.000000
_cell_angle_beta 90.000000
_cell_angle_gamma 90.000000
_cell_volume 3354.045615
_symmetry_space_group_name_H-M "P M M M"
_symmetry_group_IT_number 47
_symmetry_cell_setting 'orthorhombic'
loop_
_space_group_symop_operation_xyz
x,y,z
-x,-y,z
x,-y,-z
-x,y,-z
-x,-y,-z
x,y,-z
-x,y,z
x,-y,z
loop_
_atom_site_type_symbol
_atom_site_label
_atom_site_fract_x
_atom_site_fract_y
_atom_site_fract_z
Si Si1 0.112788 0.104275 0.659539
Si Si2 0.258746 0.396781 0.839440
Si Si3 0.674963 0.096383 0.660030
Si Si4 0.603171 0.652849 0.150638
Si Si5 0.430000 0.141749 0.152530
Si Si6 0.224113 0.765025 0.338362
Si Si7 0.000000 0.106699 0.155576
Si Si8 0.500000 0.396602 0.352183
O O1 0.095615 0.110721 0.500000
O O2 0.167731 0.170453 0.682128
O O3 0.058630 0.129834 0.758145
O O4 0.127847 0.000000 0.682693
O O5 0.247787 0.500000 0.805465
O O6 0.329307 0.376129 0.822236
O O7 0.224767 0.324712 0.748211
O O8 0.245785 0.384692 0.000000
O O9 0.663783 0.106000 0.500000
O O10 0.613600 0.097919 0.740883
O O11 0.718543 0.175554 0.701184
O O12 0.704171 0.000000 0.680659
O O13 0.593206 0.757706 0.146074
O O14 0.558314 0.623805 0.266021
O O15 0.586853 0.618345 0.000000
O O16 0.500000 0.140108 0.188337
O O17 0.424234 0.105178 0.000000
O O18 0.227930 0.746049 0.500000
O O19 0.000000 0.000000 0.149429
O O20 0.000000 0.139410 0.000000
O O21 0.500000 0.500000 0.369950
O O22 0.500000 0.351964 0.500000
#
# Coordination Sequence:
#
# PCOD9383956 Si02
#       8
#     8   8   8   8   8   8   4   4
#     4   9  17  31  52  78 111 151 187 214 248 298
#     4  10  21  36  54  75  99 130 168 210 258 313
#     4  10  21  36  53  74 100 130 165 207 257 309
#     4  10  19  35  54  69  90 124 162 200 251 315
#     4  10  20  35  53  71  91 120 163 211 256 306
#     4  10  20  34  54  79 106 137 173 215 257 301
#     4   9  17  29  47  77 116 151 184 221 255 288
#     4  11  23  33  45  71  98 117 148 199 257 316
#
# _framework density 16.696255000000001
#
# number of rings (size 3 to 8) (size 9 to 14) (size 15 to 20)
#    0.000    2.143    2.143    1.286    0.000    6.571 
#    0.000    1.429    0.000    2.571    0.000    0.500 
#    0.000    4.000    0.000    0.000    0.000    0.000 
#
# Total GULP energy -312115.605798 kJ/mol
# GULP energy per Si atom -5573.492961 kJ/mol
# Density = 1.665825 g / cm^3
# Si number density = 16.696255 Si / 1000 Ang^3
#
#
#
# Elastic Constant Matrix: (Units=GPa)
#
#
# Indices 1 2 3 4 5 6 
#
# 1 84.8518 41.4964 57.4957 0.0000 0.0000 0.0000
# 2 41.4964 109.6793 54.6000 0.0000 0.0000 0.0000
# 3 57.4957 54.6000 87.0360 0.0000 0.0000 0.0000
# 4 0.0000 0.0000 0.0000 15.7945 0.0000 0.0000
# 5 0.0000 0.0000 0.0000 0.0000 22.9971 0.0000
# 6 0.0000 0.0000 0.0000 0.0000 0.0000 22.1473
#
#
#
# Elastic Compliance Matrix: (Units=1/GPa)
#
#
# Indices 1 2 3 4 5 6 
#
# 1 0.021515 -0.001548 -0.013241 0.000000 0.000000 0.000000
# 2 -0.001548 0.013369 -0.007364 0.000000 0.000000 0.000000
# 3 -0.013241 -0.007364 0.024856 0.000000 0.000000 0.000000
# 4 0.000000 0.000000 0.000000 0.063313 0.000000 0.000000
# 5 0.000000 0.000000 0.000000 0.000000 0.043484 0.000000
# 6 0.000000 0.000000 0.000000 0.000000 0.000000 0.045152
#
#
# Mechanical properties :
#
#
# Convention : Reuss Voigt Hill
#
# Bulk Modulus (GPa) = 64.79613 65.41678 65.10645
# Shear Modulus (GPa) = 19.14675 20.71947 19.93311
#
# Velocity S-wave (km/s) = 3.39007 3.52655 3.45899
# Velocity P-wave (km/s) = 7.36318 7.47313 7.41836
#
# Compressibility (1/GPa) = 0.01543302
#
# Stress axis : x y z
#
# Youngs Moduli (GPa) = 46.47974 74.79876 40.23113
#
# Poissons Ratio (x) = 0.11580 0.53271
# Poissons Ratio (y) = 0.07196 0.29627
# Poissons Ratio (z) = 0.61545 0.55083
#
# Static dielectric constant tensor:
#      x y z
#    x 1.517190 0.000000 0.000000 
#    y 0.000000 1.588060 0.000000 
#    z 0.000000 0.000000 1.611400 
# 
# From -- ./inp_files/7394.got.cif
#   From: 2010.05.17/outbox.cif.g08.bks.cpg/sg47_4_cif.got.tgz:7394.got - 2010.06.03 20:15:42.
