data_PCOD9383086
_publ_section_title
;
Structure prediction by ZEFSAII (Michael W. Deem and Ramdas Pophale) SiO2 
 PCOD9383086
Probable space group: P M M M
;
_chemical_formula_sum "Si O2"
_cell_formula_units_Z 64
_cell_length_a 7.760669
_cell_length_b 21.098526
_cell_length_c 20.359399
_cell_angle_alpha 90.000000
_cell_angle_beta 90.000000
_cell_angle_gamma 90.000000
_cell_volume 3333.621050
_symmetry_space_group_name_H-M "P M M M"
_symmetry_group_IT_number 47
_symmetry_cell_setting 'orthorhombic'
loop_
_space_group_symop_operation_xyz
x,y,z
-x,-y,z
x,-y,-z
-x,y,-z
-x,-y,-z
x,y,-z
-x,y,z
x,-y,z
loop_
_atom_site_type_symbol
_atom_site_label
_atom_site_fract_x
_atom_site_fract_y
_atom_site_fract_z
Si Si1 0.802837 0.797032 0.235981
Si Si2 0.291675 0.381714 0.572206
Si Si3 0.795179 0.568351 0.288433
Si Si4 0.290746 0.894096 0.570843
Si Si5 0.292077 0.429301 0.924200
Si Si6 0.206182 0.330251 0.813511
Si Si7 0.292194 0.243301 0.380842
Si Si8 0.705637 0.068121 0.714592
O O1 0.723657 0.741551 0.190499
O O2 0.788275 0.767267 0.309265
O O3 0.735387 0.868376 0.243776
O O4 0.000000 0.805238 0.216812
O O5 0.231931 0.402015 0.500000
O O6 0.500000 0.383488 0.572045
O O7 0.231512 0.421218 0.634494
O O8 0.239240 0.308874 0.586165
O O9 0.722664 0.500000 0.268463
O O10 0.723160 0.626672 0.246411
O O11 0.000000 0.567197 0.276248
O O12 0.228798 0.918088 0.500000
O O13 0.500000 0.901385 0.570816
O O14 0.253608 0.819119 0.577066
O O15 0.227060 0.922681 0.639697
O O16 0.500000 0.430129 0.923280
O O17 0.232906 0.500000 0.902368
O O18 0.234722 0.372305 0.877880
O O19 0.237697 0.421027 0.000000
O O20 0.000000 0.324012 0.804415
O O21 0.500000 0.244607 0.372114
O O22 0.500000 0.064760 0.708613
O O23 0.768283 0.000000 0.740391
#
# Coordination Sequence:
#
# PCOD9383086 Si02
#       8
#     8   8   8   8   8   8   8   8
#     4  10  19  31  49  71  95 122 159 205 248 288
#     4  10  20  32  47  66  87 113 152 207 264 312
#     4  10  21  36  50  65  90 124 162 204 250 301
#     4   8  13  22  39  62  84 107 142 188 236 290
#     4   9  19  35  54  80 114 146 173 202 240 288
#     4  10  20  34  53  76 101 132 172 211 244 286
#     4   9  16  28  45  64  86 113 148 193 248 305
#     4   9  18  31  46  66  93 125 160 198 245 303
#
# _framework density 19.198343000000001
#
# number of rings (size 3 to 8) (size 9 to 14) (size 15 to 20)
#    0.000    2.625    1.250    2.250    0.000    5.250 
#    0.000    3.125    0.000    9.000    0.000    3.500 
#    0.000    0.500    0.000    5.500    0.000    4.000 
#
# Total GULP energy -356788.643208 kJ/mol
# GULP energy per Si atom -5574.822550 kJ/mol
# Density = 1.915465 g / cm^3
# Si number density = 19.198343 Si / 1000 Ang^3
#
#
#
# Elastic Constant Matrix: (Units=GPa)
#
#
# Indices 1 2 3 4 5 6 
#
# 1 23.0114 15.3835 -3.6570 0.0000 0.0000 0.0000
# 2 15.3835 164.4831 51.3867 0.0000 0.0000 0.0000
# 3 -3.6570 51.3867 63.3881 0.0000 0.0000 0.0000
# 4 0.0000 0.0000 0.0000 13.9081 0.0000 0.0000
# 5 0.0000 0.0000 0.0000 0.0000 18.4991 0.0000
# 6 0.0000 0.0000 0.0000 0.0000 0.0000 11.7306
#
#
#
# Elastic Compliance Matrix: (Units=1/GPa)
#
#
# Indices 1 2 3 4 5 6 
#
# 1 0.049852 -0.007447 0.008913 0.000000 0.000000 0.000000
# 2 -0.007447 0.009254 -0.007932 0.000000 0.000000 0.000000
# 3 0.008913 -0.007932 0.022720 0.000000 0.000000 0.000000
# 4 0.000000 0.000000 0.000000 0.071901 0.000000 0.000000
# 5 0.000000 0.000000 0.000000 0.000000 0.054057 0.000000
# 6 0.000000 0.000000 0.000000 0.000000 0.000000 0.085247
#
#
# Mechanical properties :
#
#
# Convention : Reuss Voigt Hill
#
# Bulk Modulus (GPa) = 14.51491 41.90098 28.20794
# Shear Modulus (GPa) = 15.20097 21.34551 18.27324
#
# Velocity S-wave (km/s) = 2.81692 3.33805 3.08849
# Velocity P-wave (km/s) = 4.26110 6.06048 5.23863
#
# Compressibility (1/GPa) = 0.06889469
#
# Stress axis : x y z
#
# Youngs Moduli (GPa) = 20.05951 108.06042 44.01415
#
# Poissons Ratio (x) = 0.80473 -0.39230
# Poissons Ratio (y) = 0.14938 0.34910
# Poissons Ratio (z) = -0.17879 0.85709
#
# Static dielectric constant tensor:
#      x y z
#    x 1.713340 0.000000 0.000000 
#    y 0.000000 1.736590 0.000000 
#    z 0.000000 0.000000 1.652910 
# 
# From -- ./inp_files/27047.got.cif
#   From: 2010.05.17/outbox.cif.g08.bks.cpg/sg47_14_cif.got.tgz:27047.got - 2010.06.03 20:15:42.
