data_PCOD9383401
_publ_section_title
;
Structure prediction by ZEFSAII (Michael W. Deem and Ramdas Pophale) SiO2 
 PCOD9383401
Probable space group: P M M M
;
_chemical_formula_sum "Si O2"
_cell_formula_units_Z 44
_cell_length_a 9.825258
_cell_length_b 30.529667
_cell_length_c 8.251012
_cell_angle_alpha 90.000000
_cell_angle_beta 90.000000
_cell_angle_gamma 90.000000
_cell_volume 2474.988865
_symmetry_space_group_name_H-M "P M M M"
_symmetry_group_IT_number 47
_symmetry_cell_setting 'orthorhombic'
loop_
_space_group_symop_operation_xyz
x,y,z
-x,-y,z
x,-y,-z
-x,y,-z
-x,-y,-z
x,y,-z
-x,y,z
x,-y,z
loop_
_atom_site_type_symbol
_atom_site_label
_atom_site_fract_x
_atom_site_fract_y
_atom_site_fract_z
Si Si1 0.333978 0.550810 0.500000
Si Si2 0.156153 0.871524 0.693141
Si Si3 0.342498 0.049187 0.195696
Si Si4 0.665630 0.396351 0.180668
Si Si5 0.342117 0.302457 0.690862
Si Si6 0.157798 0.223912 0.192674
O O1 0.294373 0.500000 0.500000
O O2 0.500000 0.552572 0.500000
O O3 0.288730 0.574926 0.334610
O O4 0.155817 0.866730 0.500000
O O5 0.248100 0.912475 0.740092
O O6 0.204201 0.825417 0.767037
O O7 0.000000 0.878617 0.748639
O O8 0.500000 0.055622 0.244684
O O9 0.300879 0.000000 0.247524
O O10 0.338595 0.050034 0.000000
O O11 0.500000 0.397768 0.182364
O O12 0.702896 0.345725 0.212654
O O13 0.709691 0.410319 0.000000
O O14 0.338000 0.313308 0.500000
O O15 0.500000 0.293197 0.733244
O O16 0.249937 0.260725 0.726441
O O17 0.000000 0.227365 0.247277
O O18 0.161841 0.230154 0.000000
#
# Coordination Sequence:
#
# PCOD9383401 Si02
#       6
#     4   8   8   8   8   8
#     4   9  16  26  40  62  95 133 173 215 260 313
#     4  10  21  36  53  74 101 132 165 203 250 302
#     4   9  19  36  56  77 101 130 165 205 248 295
#     4   9  16  27  43  64  94 131 170 214 261 308
#     4  10  19  32  51  74 101 134 172 212 256 309
#     4  10  21  36  53  74 101 133 170 212 256 304
#
# _framework density 17.777857000000001
#
# number of rings (size 3 to 8) (size 9 to 14) (size 15 to 20)
#    0.000    2.455    0.909    2.182    0.000    5.455 
#    0.000    4.545    0.000    0.000    0.000    0.000 
#    0.000    1.455    0.000    3.818    0.000    3.636 
#
# Total GULP energy -245386.739125 kJ/mol
# GULP energy per Si atom -5576.971344 kJ/mol
# Density = 1.773739 g / cm^3
# Si number density = 17.777857 Si / 1000 Ang^3
#
#
#
# Elastic Constant Matrix: (Units=GPa)
#
#
# Indices 1 2 3 4 5 6 
#
# 1 28.8973 42.5629 19.3608 0.0000 0.0000 0.0000
# 2 42.5629 124.0966 47.8639 0.0000 0.0000 0.0000
# 3 19.3608 47.8639 79.8340 0.0000 0.0000 0.0000
# 4 0.0000 0.0000 0.0000 19.8748 0.0000 0.0000
# 5 0.0000 0.0000 0.0000 0.0000 19.3225 0.0000
# 6 0.0000 0.0000 0.0000 0.0000 0.0000 -41.0950
#
#
#
# Elastic Compliance Matrix: (Units=1/GPa)
#
#
# Indices 1 2 3 4 5 6 
#
# 1 0.070633 -0.022919 -0.003389 0.000000 0.000000 0.000000
# 2 -0.022919 0.017919 -0.005185 0.000000 0.000000 0.000000
# 3 -0.003389 -0.005185 0.016456 0.000000 0.000000 0.000000
# 4 0.000000 0.000000 0.000000 0.050315 0.000000 0.000000
# 5 0.000000 0.000000 0.000000 0.000000 0.051753 0.000000
# 6 0.000000 0.000000 0.000000 0.000000 0.000000 -0.024334
#
#
# Mechanical properties :
#
#
# Convention : Reuss Voigt Hill
#
# Bulk Modulus (GPa) = 23.79636 50.26702 37.03169
# Shear Modulus (GPa) = 19.25040 7.82313 13.53677
#
# Velocity S-wave (km/s) = 3.29421 2.10001 2.76241
# Velocity P-wave (km/s) = 5.28049 5.84949 5.57225
#
# Compressibility (1/GPa) = 0.04202323
#
# Stress axis : x y z
#
# Youngs Moduli (GPa) = 14.15773 55.80724 60.76664
#
# Poissons Ratio (x) = 1.27904 0.20591
# Poissons Ratio (y) = 0.32448 0.31507
# Poissons Ratio (z) = 0.04798 0.28936
#
# Static dielectric constant tensor:
#      x y z
#    x 1.586740 0.000000 0.000000 
#    y 0.000000 1.586170 0.000000 
#    z 0.000000 0.000000 1.628500 
# 
# From -- ./inp_files/2280.got.cif
#   From: 2010.05.17/outbox.cif.g08.bks.cpg/sg47_2_cif.got.tgz:2280.got - 2010.06.03 20:15:42.
