data_PCOD9383486
_publ_section_title
;
Structure prediction by ZEFSAII (Michael W. Deem and Ramdas Pophale) SiO2 
 PCOD9383486
Probable space group: P M M M
;
_chemical_formula_sum "Si O2"
_cell_formula_units_Z 52
_cell_length_a 8.708454
_cell_length_b 12.367286
_cell_length_c 28.336170
_cell_angle_alpha 90.000000
_cell_angle_beta 90.000000
_cell_angle_gamma 90.000000
_cell_volume 3051.803844
_symmetry_space_group_name_H-M "P M M M"
_symmetry_group_IT_number 47
_symmetry_cell_setting 'orthorhombic'
loop_
_space_group_symop_operation_xyz
x,y,z
-x,-y,z
x,-y,-z
-x,y,-z
-x,-y,-z
x,y,-z
-x,y,z
x,-y,z
loop_
_atom_site_type_symbol
_atom_site_label
_atom_site_fract_x
_atom_site_fract_y
_atom_site_fract_z
Si Si1 0.684427 0.373194 0.445358
Si Si2 0.183592 0.873885 0.178181
Si Si3 0.680547 0.870861 0.280966
Si Si4 0.182303 0.500000 0.801497
Si Si5 0.681134 0.500000 0.698658
Si Si6 0.181819 0.706156 0.646787
Si Si7 0.684188 0.675955 0.870319
Si Si8 0.313171 0.500000 0.946249
O O1 0.719645 0.348683 0.500000
O O2 0.500000 0.365348 0.439260
O O3 0.725822 0.500000 0.437217
O O4 0.767859 0.297480 0.407772
O O5 0.252444 0.842257 0.229349
O O6 0.248201 0.794348 0.138267
O O7 0.000000 0.864400 0.180488
O O8 0.223333 0.000000 0.169993
O O9 0.500000 0.843546 0.282046
O O10 0.766449 0.809134 0.322799
O O11 0.697243 0.000000 0.286081
O O12 0.226910 0.500000 0.747278
O O13 0.255416 0.396552 0.827064
O O14 0.000000 0.500000 0.807896
O O15 0.500000 0.500000 0.707776
O O16 0.729384 0.394679 0.669798
O O17 0.000000 0.690913 0.650822
O O18 0.500000 0.680461 0.869494
O O19 0.732122 0.606795 0.916513
O O20 0.500000 0.500000 0.946927
O O21 0.258328 0.500000 0.000000
#
# Coordination Sequence:
#
# PCOD9383486 Si02
#       8
#     8   8   8   4   4   8   8   4
#     4   9  18  34  55  76 100 132 168 207 253 307
#     4  10  20  34  52  75 105 139 174 213 256 302
#     4  10  21  37  56  76 101 138 180 215 250 299
#     4  11  21  33  48  69 102 136 168 206 252 306
#     4  12  23  35  49  69 102 138 172 207 248 301
#     4  12  23  34  51  77 106 133 165 207 259 310
#     4  10  19  32  52  77 103 134 173 214 257 305
#     4   8  16  32  54  79 105 134 171 218 266 307
#
# _framework density 17.039102
#
# number of rings (size 3 to 8) (size 9 to 14) (size 15 to 20)
#    0.000    1.769    0.769    6.000    0.000    2.154 
#    0.000    0.769    0.000    9.231    0.000    6.462 
#    0.000    0.000    0.000    0.000    0.000    0.000 
#
# Total GULP energy -290328.124804 kJ/mol
# GULP energy per Si atom -5583.233169 kJ/mol
# Density = 1.700032 g / cm^3
# Si number density = 17.039102 Si / 1000 Ang^3
#
#
#
# Elastic Constant Matrix: (Units=GPa)
#
#
# Indices 1 2 3 4 5 6 
#
# 1 30.9131 24.0312 4.1576 0.0000 0.0000 0.0000
# 2 24.0312 70.8905 41.9694 0.0000 0.0000 0.0000
# 3 4.1576 41.9694 96.0273 0.0000 0.0000 0.0000
# 4 0.0000 0.0000 0.0000 36.9070 0.0000 0.0000
# 5 0.0000 0.0000 0.0000 0.0000 -38.1784 0.0000
# 6 0.0000 0.0000 0.0000 0.0000 0.0000 7.5560
#
#
#
# Elastic Compliance Matrix: (Units=1/GPa)
#
#
# Indices 1 2 3 4 5 6 
#
# 1 0.046856 -0.019808 0.006629 0.000000 0.000000 0.000000
# 2 -0.019808 0.027404 -0.011120 0.000000 0.000000 0.000000
# 3 0.006629 -0.011120 0.014987 0.000000 0.000000 0.000000
# 4 0.000000 0.000000 0.000000 0.027095 0.000000 0.000000
# 5 0.000000 0.000000 0.000000 0.000000 -0.026193 0.000000
# 6 0.000000 0.000000 0.000000 0.000000 0.000000 0.132344
#
#
# Mechanical properties :
#
#
# Convention : Reuss Voigt Hill
#
# Bulk Modulus (GPa) = 24.60120 37.57192 31.08656
# Shear Modulus (GPa) = 17.56602 9.76843 13.66723
#
# Velocity S-wave (km/s) = 3.21428 2.39696 2.83523
# Velocity P-wave (km/s) = 5.31460 5.45516 5.38534
#
# Compressibility (1/GPa) = 0.04064843
#
# Stress axis : x y z
#
# Youngs Moduli (GPa) = 21.34215 36.49089 66.72633
#
# Poissons Ratio (x) = 0.72281 -0.44230
# Poissons Ratio (y) = 0.42274 0.74197
# Poissons Ratio (z) = -0.14147 0.40576
#
# Static dielectric constant tensor:
#      x y z
#    x 1.565820 0.000000 0.000000 
#    y 0.000000 1.583210 0.000000 
#    z 0.000000 0.000000 1.568560 
# 
# From -- ./inp_files/33265.got.cif
#   From: 2010.05.17/outbox.cif.g08.bks.cpg/sg47_17_cif.got.tgz:33265.got - 2010.06.03 20:15:42.
