data_PCOD9383132
_publ_section_title
;
Structure prediction by ZEFSAII (Michael W. Deem and Ramdas Pophale) SiO2 
 PCOD9383132
Probable space group: P M M M
;
_chemical_formula_sum "Si O2"
_cell_formula_units_Z 52
_cell_length_a 23.676189
_cell_length_b 7.580674
_cell_length_c 14.934009
_cell_angle_alpha 90.000000
_cell_angle_beta 90.000000
_cell_angle_gamma 90.000000
_cell_volume 2680.377894
_symmetry_space_group_name_H-M "P M M M"
_symmetry_group_IT_number 47
_symmetry_cell_setting 'orthorhombic'
loop_
_space_group_symop_operation_xyz
x,y,z
-x,-y,z
x,-y,-z
-x,y,-z
-x,-y,-z
x,y,-z
-x,y,z
x,-y,z
loop_
_atom_site_type_symbol
_atom_site_label
_atom_site_fract_x
_atom_site_fract_y
_atom_site_fract_z
Si Si1 0.848152 0.712754 0.900243
Si Si2 0.000000 0.283478 0.603579
Si Si3 0.284607 0.788782 0.098775
Si Si4 0.221097 0.213127 0.397944
Si Si5 0.108571 0.709994 0.713705
Si Si6 0.327837 0.210366 0.715342
Si Si7 0.563696 0.287817 0.398857
O O1 0.852673 0.500000 0.901386
O O2 0.782044 0.755993 0.886078
O O3 0.882744 0.779919 0.814619
O O4 0.863999 0.776895 0.000000
O O5 0.944414 0.223020 0.656871
O O6 0.000000 0.500000 0.602280
O O7 0.000000 0.227303 0.500000
O O8 0.318725 0.719624 0.184194
O O9 0.292386 0.000000 0.095126
O O10 0.298994 0.717566 0.000000
O O11 0.217290 0.277303 0.500000
O O12 0.166144 0.261171 0.340980
O O13 0.277705 0.278340 0.348729
O O14 0.223613 0.000000 0.400967
O O15 0.100192 0.500000 0.722096
O O16 0.388300 0.239637 0.671102
O O17 0.319582 0.000000 0.720596
O O18 0.577963 0.225870 0.500000
O O19 0.500000 0.226346 0.377444
O O20 0.561950 0.500000 0.401926
#
# Coordination Sequence:
#
# PCOD9383132 Si02
#       7
#     8   4   8   8   8   8   8
#     4   9  17  29  46  70  97 121 151 196 245 289
#     4   9  18  32  48  66  90 123 165 207 240 279
#     4   9  17  30  49  72  98 128 159 191 234 288
#     4  10  20  32  46  69 101 127 151 195 248 288
#     4  10  19  32  50  69  91 124 164 200 237 288
#     4  10  19  31  49  74 101 126 158 198 242 288
#     4   9  19  35  52  71  98 132 168 203 237 278
#
# _framework density 19.400248999999999
#
# number of rings (size 3 to 8) (size 9 to 14) (size 15 to 20)
#    0.000    2.538    1.538    1.385    0.000    3.385 
#    0.000    1.538    0.000    4.154    0.000    3.231 
#    0.000    3.692    0.000    0.000    0.000    0.000 
#
# Total GULP energy -290117.965802 kJ/mol
# GULP energy per Si atom -5579.191650 kJ/mol
# Density = 1.935609 g / cm^3
# Si number density = 19.400249 Si / 1000 Ang^3
#
#
#
# Elastic Constant Matrix: (Units=GPa)
#
#
# Indices 1 2 3 4 5 6 
#
# 1 124.6482 -3.9017 110.6163 0.0000 0.0000 0.0000
# 2 -3.9017 39.7403 6.6154 0.0000 0.0000 0.0000
# 3 110.6163 6.6154 225.9404 0.0000 0.0000 0.0000
# 4 0.0000 0.0000 0.0000 11.6736 0.0000 0.0000
# 5 0.0000 0.0000 0.0000 0.0000 32.3958 0.0000
# 6 0.0000 0.0000 0.0000 0.0000 0.0000 20.7845
#
#
#
# Elastic Compliance Matrix: (Units=1/GPa)
#
#
# Indices 1 2 3 4 5 6 
#
# 1 0.014450 0.002609 -0.007151 0.000000 0.000000 0.000000
# 2 0.002609 0.025758 -0.002032 0.000000 0.000000 0.000000
# 3 -0.007151 -0.002032 0.007986 0.000000 0.000000 0.000000
# 4 0.000000 0.000000 0.000000 0.085663 0.000000 0.000000
# 5 0.000000 0.000000 0.000000 0.000000 0.030868 0.000000
# 6 0.000000 0.000000 0.000000 0.000000 0.000000 0.048113
#
#
# Mechanical properties :
#
#
# Convention : Reuss Voigt Hill
#
# Bulk Modulus (GPa) = 28.53267 68.55433 48.54350
# Shear Modulus (GPa) = 21.03775 31.43735 26.23755
#
# Velocity S-wave (km/s) = 3.29661 4.02986 3.68153
# Velocity P-wave (km/s) = 5.40643 7.55424 6.56872
#
# Compressibility (1/GPa) = 0.03504754
#
# Stress axis : x y z
#
# Youngs Moduli (GPa) = 69.20317 38.82332 125.21276
#
# Poissons Ratio (x) = -0.10129 0.89539
# Poissons Ratio (y) = -0.18056 0.25437
# Poissons Ratio (z) = 0.49487 0.07887
#
# Static dielectric constant tensor:
#      x y z
#    x 1.634670 0.000000 0.000000 
#    y 0.000000 1.729100 0.000000 
#    z 0.000000 0.000000 1.710220 
# 
# From -- ./inp_files/7024.got.cif
#   From: 2010.05.17/outbox.cif.g08.bks.cpg/sg47_4_cif.got.tgz:7024.got - 2010.06.03 20:15:42.
