data_PCOD9383414
_publ_section_title
;
Structure prediction by ZEFSAII (Michael W. Deem and Ramdas Pophale) SiO2 
 PCOD9383414
Probable space group: P M M M
;
_chemical_formula_sum "Si O2"
_cell_formula_units_Z 64
_cell_length_a 15.982304
_cell_length_b 25.747140
_cell_length_c 7.913384
_cell_angle_alpha 90.000000
_cell_angle_beta 90.000000
_cell_angle_gamma 90.000000
_cell_volume 3256.346585
_symmetry_space_group_name_H-M "P M M M"
_symmetry_group_IT_number 47
_symmetry_cell_setting 'orthorhombic'
loop_
_space_group_symop_operation_xyz
x,y,z
-x,-y,z
x,-y,-z
-x,y,-z
-x,-y,-z
x,y,-z
-x,y,z
x,-y,z
loop_
_atom_site_type_symbol
_atom_site_label
_atom_site_fract_x
_atom_site_fract_y
_atom_site_fract_z
Si Si1 0.643525 0.787413 0.704017
Si Si2 0.590497 0.098040 0.294071
Si Si3 0.590742 0.672420 0.294073
Si Si4 0.907697 0.141875 0.796080
Si Si5 0.093494 0.558652 0.202315
Si Si6 0.772369 0.356307 0.696943
Si Si7 0.769185 0.057514 0.296236
Si Si8 0.824578 0.243575 0.804475
O O1 0.655867 0.787622 0.500000
O O2 0.598870 0.840874 0.748347
O O3 0.597274 0.733834 0.745987
O O4 0.733965 0.783599 0.788794
O O5 0.590599 0.094480 0.500000
O O6 0.500000 0.078122 0.235767
O O7 0.675435 0.070872 0.234520
O O8 0.591562 0.668941 0.500000
O O9 0.500000 0.652423 0.235976
O O10 0.677531 0.647206 0.229910
O O11 0.835793 0.101435 0.749249
O O12 0.886957 0.200157 0.733453
O O13 0.000000 0.125389 0.738897
O O14 0.907829 0.145045 0.000000
O O15 0.111234 0.500000 0.265074
O O16 0.165649 0.599618 0.239382
O O17 0.000000 0.573893 0.264218
O O18 0.088406 0.555786 0.000000
O O19 0.761770 0.365777 0.500000
O O20 0.813879 0.299514 0.720052
O O21 0.765070 0.056773 0.500000
O O22 0.794067 0.000000 0.237177
O O23 0.845003 0.253544 0.000000
#
# Coordination Sequence:
#
# PCOD9383414 Si02
#       8
#     8   8   8   8   8   8   8   8
#     4   9  15  26  47  72  98 130 170 211 252 298
#     4   9  16  27  48  76 103 132 165 203 252 310
#     4   8  14  25  43  70 104 139 174 211 250 296
#     4  10  22  39  57  75  96 130 174 213 256 315
#     4   9  19  37  59  80 105 142 184 222 265 317
#     4  10  20  32  52  83 113 142 178 219 261 306
#     4  10  21  36  54  77 103 129 163 212 264 312
#     4  10  19  32  51  74 104 138 171 208 257 312
#
# _framework density 19.653928000000001
#
# number of rings (size 3 to 8) (size 9 to 14) (size 15 to 20)
#    0.000    2.625    1.250    2.250    0.000    4.000 
#    0.000    4.375    0.000   14.250    0.000    3.500 
#    0.000    0.000    0.000    0.000    0.000    0.000 
#
# Total GULP energy -356746.638983 kJ/mol
# GULP energy per Si atom -5574.166234 kJ/mol
# Density = 1.960919 g / cm^3
# Si number density = 19.653928 Si / 1000 Ang^3
#
#
#
# Elastic Constant Matrix: (Units=GPa)
#
#
# Indices 1 2 3 4 5 6 
#
# 1 151.5384 77.5428 8.6604 0.0000 0.0000 0.0000
# 2 77.5428 92.1297 5.5949 0.0000 0.0000 0.0000
# 3 8.6604 5.5949 15.1365 0.0000 0.0000 0.0000
# 4 0.0000 0.0000 0.0000 19.3828 0.0000 0.0000
# 5 0.0000 0.0000 0.0000 0.0000 23.2083 0.0000
# 6 0.0000 0.0000 0.0000 0.0000 0.0000 8.8253
#
#
#
# Elastic Compliance Matrix: (Units=1/GPa)
#
#
# Indices 1 2 3 4 5 6 
#
# 1 0.011735 -0.009686 -0.003134 0.000000 0.000000 0.000000
# 2 -0.009686 0.019099 -0.001517 0.000000 0.000000 0.000000
# 3 -0.003134 -0.001517 0.068419 0.000000 0.000000 0.000000
# 4 0.000000 0.000000 0.000000 0.051592 0.000000 0.000000
# 5 0.000000 0.000000 0.000000 0.000000 0.043088 0.000000
# 6 0.000000 0.000000 0.000000 0.000000 0.000000 0.113311
#
#
# Mechanical properties :
#
#
# Convention : Reuss Voigt Hill
#
# Bulk Modulus (GPa) = 14.16870 49.15565 31.66218
# Shear Modulus (GPa) = 13.91033 21.41704 17.66368
#
# Velocity S-wave (km/s) = 2.66327 3.30465 3.00114
# Velocity P-wave (km/s) = 4.08437 6.29491 5.30603
#
# Compressibility (1/GPa) = 0.07057812
#
# Stress axis : x y z
#
# Youngs Moduli (GPa) = 85.21768 52.35825 14.61574
#
# Poissons Ratio (x) = 0.50716 0.04580
# Poissons Ratio (y) = 0.82545 0.02218
# Poissons Ratio (z) = 0.26704 0.07945
#
# Static dielectric constant tensor:
#      x y z
#    x 1.727150 0.000000 0.000000 
#    y 0.000000 1.669390 0.000000 
#    z 0.000000 0.000000 1.724480 
# 
# From -- ./inp_files/7808.got.cif
#   From: 2010.05.17/outbox.cif.g08.bks.cpg/sg47_4_cif.got.tgz:7808.got - 2010.06.03 20:15:42.
