data_PCOD9383639
_publ_section_title
;
Structure prediction by ZEFSAII (Michael W. Deem and Ramdas Pophale) SiO2 
 PCOD9383639
Probable space group: P M M M
;
_chemical_formula_sum "Si O2"
_cell_formula_units_Z 64
_cell_length_a 7.962226
_cell_length_b 24.509500
_cell_length_c 19.865713
_cell_angle_alpha 90.000000
_cell_angle_beta 90.000000
_cell_angle_gamma 90.000000
_cell_volume 3876.797431
_symmetry_space_group_name_H-M "P M M M"
_symmetry_group_IT_number 47
_symmetry_cell_setting 'orthorhombic'
loop_
_space_group_symop_operation_xyz
x,y,z
-x,-y,z
x,-y,-z
-x,y,-z
-x,-y,-z
x,y,-z
-x,y,z
x,-y,z
loop_
_atom_site_type_symbol
_atom_site_label
_atom_site_fract_x
_atom_site_fract_y
_atom_site_fract_z
Si Si1 0.198527 0.835207 0.699864
Si Si2 0.699067 0.939295 0.783653
Si Si3 0.204791 0.238247 0.926128
Si Si4 0.797074 0.889503 0.925045
Si Si5 0.800782 0.335521 0.659189
Si Si6 0.301507 0.229736 0.576214
Si Si7 0.205749 0.729524 0.216283
Si Si8 0.205371 0.561551 0.422396
O O1 0.233784 0.893073 0.733528
O O2 0.271175 0.820622 0.626832
O O3 0.257585 0.787360 0.750726
O O4 0.000000 0.828558 0.693645
O O5 0.500000 0.940601 0.774468
O O6 0.733966 0.922243 0.860856
O O7 0.768176 0.000000 0.771356
O O8 0.250658 0.174358 0.918129
O O9 0.262270 0.271136 0.860803
O O10 0.000000 0.239399 0.926411
O O11 0.261915 0.256644 0.000000
O O12 0.000000 0.891595 0.923589
O O13 0.742981 0.908029 0.000000
O O14 0.777485 0.283530 0.610193
O O15 0.734547 0.316762 0.732084
O O16 0.731625 0.390187 0.625343
O O17 0.000000 0.343869 0.667079
O O18 0.239680 0.221228 0.500000
O O19 0.500000 0.239434 0.573757
O O20 0.000000 0.728628 0.216063
O O21 0.255125 0.571523 0.500000
O O22 0.256545 0.500000 0.403644
O O23 0.000000 0.562450 0.421667
#
# Coordination Sequence:
#
# PCOD9383639 Si02
#       8
#     8   8   8   8   8   8   8   8
#     4  10  19  33  52  69  86 110 145 185 218 256
#     4  11  23  35  47  65  91 120 146 177 222 274
#     4   8  12  20  37  59  82 106 133 170 215 258
#     4   9  17  30  48  66  84 112 151 189 220 256
#     4   9  16  25  41  64  88 114 149 190 222 256
#     4  10  20  32  47  69  96 120 139 168 217 273
#     4   8  13  22  38  61  83 102 131 176 222 256
#     4   8  13  21  34  54  82 116 152 189 227 262
#
# _framework density 16.508471
#
# number of rings (size 3 to 8) (size 9 to 14) (size 15 to 20)
#    0.000    2.875    1.250    3.375    0.000    3.000 
#    0.000    1.250    0.000    0.750    0.000    4.375 
#    0.000    0.500    0.000    7.000    0.000    0.000 
#
# Total GULP energy -356538.532454 kJ/mol
# GULP energy per Si atom -5570.914570 kJ/mol
# Density = 1.647090 g / cm^3
# Si number density = 16.508471 Si / 1000 Ang^3
#
#
#
# Elastic Constant Matrix: (Units=GPa)
#
#
# Indices 1 2 3 4 5 6 
#
# 1 10.5489 -2.5701 -2.3739 0.0000 0.0000 0.0000
# 2 -2.5701 99.4757 66.4024 0.0000 0.0000 0.0000
# 3 -2.3739 66.4024 137.2651 0.0000 0.0000 0.0000
# 4 0.0000 0.0000 0.0000 25.9341 0.0000 0.0000
# 5 0.0000 0.0000 0.0000 0.0000 7.9797 0.0000
# 6 0.0000 0.0000 0.0000 0.0000 0.0000 -46.8427
#
#
#
# Elastic Compliance Matrix: (Units=1/GPa)
#
#
# Indices 1 2 3 4 5 6 
#
# 1 0.095440 0.002015 0.000676 0.000000 0.000000 0.000000
# 2 0.002015 0.014890 -0.007168 0.000000 0.000000 0.000000
# 3 0.000676 -0.007168 0.010764 0.000000 0.000000 0.000000
# 4 0.000000 0.000000 0.000000 0.038559 0.000000 0.000000
# 5 0.000000 0.000000 0.000000 0.000000 0.125318 0.000000
# 6 0.000000 0.000000 0.000000 0.000000 0.000000 -0.021348
#
#
# Mechanical properties :
#
#
# Convention : Reuss Voigt Hill
#
# Bulk Modulus (GPa) = 8.91751 41.13405 25.02578
# Shear Modulus (GPa) = 16.13123 9.80298 12.96710
#
# Velocity S-wave (km/s) = 3.12933 2.43948 2.80569
# Velocity P-wave (km/s) = 4.29772 5.73635 5.06834
#
# Compressibility (1/GPa) = 0.11213895
#
# Stress axis : x y z
#
# Youngs Moduli (GPa) = 10.47781 67.16104 92.89862
#
# Poissons Ratio (x) = -0.13531 -0.06279
# Poissons Ratio (y) = -0.02111 0.66590
# Poissons Ratio (z) = -0.00708 0.48141
#
# Static dielectric constant tensor:
#      x y z
#    x 1.589890 0.000000 0.000000 
#    y 0.000000 1.550510 0.000000 
#    z 0.000000 0.000000 1.579320 
# 
# From -- ./inp_files/30218.got.cif
#   From: 2010.05.17/outbox.cif.g08.bks.cpg/sg47_16_cif.got.tgz:30218.got - 2010.06.03 20:15:42.
