data_PCOD9383371
_publ_section_title
;
Structure prediction by ZEFSAII (Michael W. Deem and Ramdas Pophale) SiO2 
 PCOD9383371
Probable space group: P M M M
;
_chemical_formula_sum "Si O2"
_cell_formula_units_Z 64
_cell_length_a 14.446309
_cell_length_b 19.362251
_cell_length_c 14.244115
_cell_angle_alpha 90.000000
_cell_angle_beta 90.000000
_cell_angle_gamma 90.000000
_cell_volume 3984.265006
_symmetry_space_group_name_H-M "P M M M"
_symmetry_group_IT_number 47
_symmetry_cell_setting 'orthorhombic'
loop_
_space_group_symop_operation_xyz
x,y,z
-x,-y,z
x,-y,-z
-x,y,-z
-x,-y,-z
x,y,-z
-x,y,z
x,-y,z
loop_
_atom_site_type_symbol
_atom_site_label
_atom_site_fract_x
_atom_site_fract_y
_atom_site_fract_z
Si Si1 0.302726 0.079262 0.608892
Si Si2 0.106331 0.346183 0.887266
Si Si3 0.770945 0.922510 0.888111
Si Si4 0.892084 0.800007 0.801540
Si Si5 0.389019 0.714420 0.108795
Si Si6 0.714489 0.423969 0.113680
Si Si7 0.389930 0.855772 0.213535
Si Si8 0.103843 0.861929 0.606921
O O1 0.325503 0.093706 0.500000
O O2 0.352832 0.129316 0.681994
O O3 0.191522 0.087956 0.618513
O O4 0.328140 0.000000 0.629602
O O5 0.137140 0.273966 0.841287
O O6 0.179365 0.405416 0.863142
O O7 0.000000 0.360494 0.860284
O O8 0.108738 0.337304 0.000000
O O9 0.834203 0.863217 0.843269
O O10 0.667493 0.908065 0.851736
O O11 0.799778 0.000000 0.860055
O O12 0.774938 0.917337 0.000000
O O13 0.886214 0.805674 0.688889
O O14 0.000000 0.808490 0.828310
O O15 0.500000 0.708076 0.107236
O O16 0.345801 0.642226 0.142078
O O17 0.366285 0.779561 0.174147
O O18 0.358575 0.727614 0.000000
O O19 0.687764 0.500000 0.148769
O O20 0.707161 0.425965 0.000000
O O21 0.500000 0.865011 0.208283
O O22 0.108803 0.835136 0.500000
O O23 0.000000 0.892765 0.618322
#
# Coordination Sequence:
#
# PCOD9383371 Si02
#       8
#     8   8   8   8   8   8   8   8
#     4  10  21  36  53  74  99 126 159 202 254 305
#     4   9  17  28  43  65  94 129 165 194 224 272
#     4  11  23  35  47  66  92 123 162 206 247 287
#     4  10  19  32  51  71  95 128 162 199 245 294
#     4   9  18  32  50  71  94 123 159 198 240 288
#     4   9  17  28  44  68  97 128 158 190 231 277
#     4  11  22  36  53  70  92 125 165 205 247 293
#     4   9  18  32  51  75  99 122 153 196 245 297
#
# _framework density 16.063189999999999
#
# number of rings (size 3 to 8) (size 9 to 14) (size 15 to 20)
#    0.000    2.250    1.250    1.875    0.000    4.750 
#    0.000    6.875    0.000    0.000    0.000    0.000 
#    0.000    2.000    0.000    7.625    0.000    0.250 
#
# Total GULP energy -356670.545856 kJ/mol
# GULP energy per Si atom -5572.977279 kJ/mol
# Density = 1.602663 g / cm^3
# Si number density = 16.063190 Si / 1000 Ang^3
#
#
#
# Elastic Constant Matrix: (Units=GPa)
#
#
# Indices 1 2 3 4 5 6 
#
# 1 47.0242 24.3015 18.1752 0.0000 0.0000 0.0000
# 2 24.3015 86.6991 37.2199 0.0000 0.0000 0.0000
# 3 18.1752 37.2199 62.7304 0.0000 0.0000 0.0000
# 4 0.0000 0.0000 0.0000 4.8344 0.0000 0.0000
# 5 0.0000 0.0000 0.0000 0.0000 21.3666 0.0000
# 6 0.0000 0.0000 0.0000 0.0000 0.0000 13.7073
#
#
#
# Elastic Compliance Matrix: (Units=1/GPa)
#
#
# Indices 1 2 3 4 5 6 
#
# 1 0.025687 -0.005374 -0.004254 0.000000 0.000000 0.000000
# 2 -0.005374 0.016600 -0.008293 0.000000 0.000000 0.000000
# 3 -0.004254 -0.008293 0.022094 0.000000 0.000000 0.000000
# 4 0.000000 0.000000 0.000000 0.206851 0.000000 0.000000
# 5 0.000000 0.000000 0.000000 0.000000 0.046802 0.000000
# 6 0.000000 0.000000 0.000000 0.000000 0.000000 0.072954
#
#
# Mechanical properties :
#
#
# Convention : Reuss Voigt Hill
#
# Bulk Modulus (GPa) = 35.03767 39.53853 37.28810
# Shear Modulus (GPa) = 11.45890 15.76547 13.61219
#
# Velocity S-wave (km/s) = 2.67378 3.13623 2.91420
# Velocity P-wave (km/s) = 5.60285 6.14674 5.88109
#
# Compressibility (1/GPa) = 0.02854071
#
# Stress axis : x y z
#
# Youngs Moduli (GPa) = 38.93036 60.23959 45.26116
#
# Poissons Ratio (x) = 0.32371 0.19254
# Poissons Ratio (y) = 0.20920 0.37533
# Poissons Ratio (z) = 0.16561 0.49954
#
# Static dielectric constant tensor:
#      x y z
#    x 1.577850 0.000000 0.000000 
#    y 0.000000 1.526780 0.000000 
#    z 0.000000 0.000000 1.539100 
# 
# From -- ./inp_files/24082.got.cif
#   From: 2010.05.17/outbox.cif.g08.bks.cpg/sg47_13_cif.got.tgz:24082.got - 2010.06.03 20:15:42.
