data_PCOD9383145
_publ_section_title
;
Structure prediction by ZEFSAII (Michael W. Deem and Ramdas Pophale) SiO2 
 PCOD9383145
Probable space group: P M M M
;
_chemical_formula_sum "Si O2"
_cell_formula_units_Z 48
_cell_length_a 16.301441
_cell_length_b 15.801512
_cell_length_c 9.384302
_cell_angle_alpha 90.000000
_cell_angle_beta 90.000000
_cell_angle_gamma 90.000000
_cell_volume 2417.278099
_symmetry_space_group_name_H-M "P M M M"
_symmetry_group_IT_number 47
_symmetry_cell_setting 'orthorhombic'
loop_
_space_group_symop_operation_xyz
x,y,z
-x,-y,z
x,-y,-z
-x,y,-z
-x,-y,-z
x,y,-z
-x,y,z
x,-y,z
loop_
_atom_site_type_symbol
_atom_site_label
_atom_site_fract_x
_atom_site_fract_y
_atom_site_fract_z
Si Si1 0.404465 0.842578 0.833157
Si Si2 0.687219 0.666496 0.166878
Si Si3 0.409609 0.500000 0.827482
Si Si4 0.835869 0.601412 0.330363
Si Si5 0.091637 0.103419 0.834466
Si Si6 0.249376 0.899623 0.659488
Si Si7 0.000000 0.397425 0.838105
O O1 0.500000 0.852229 0.790261
O O2 0.373502 0.745724 0.823164
O O3 0.335397 0.888699 0.740871
O O4 0.398708 0.867869 0.000000
O O5 0.637259 0.583977 0.211129
O O6 0.765896 0.661819 0.266854
O O7 0.712377 0.659508 0.000000
O O8 0.500000 0.500000 0.767244
O O9 0.414253 0.500000 0.000000
O O10 0.843319 0.609092 0.500000
O O11 0.819189 0.500000 0.299796
O O12 0.919257 0.624981 0.249668
O O13 0.170208 0.133777 0.745749
O O14 0.000000 0.129715 0.785305
O O15 0.091923 0.000000 0.831567
O O16 0.101020 0.128027 0.000000
O O17 0.253811 0.863652 0.500000
O O18 0.235833 0.000000 0.648452
O O19 0.000000 0.500000 0.846384
O O20 0.000000 0.364445 0.000000
#
# Coordination Sequence:
#
# PCOD9383145 Si02
#       7
#     8   8   4   8   8   8   4
#     4  10  22  39  58  81 109 143 185 232 281 330
#     4  10  19  33  55  80 106 138 179 224 273 325
#     4   9  16  28  51  80 105 130 167 217 266 315
#     4  10  19  31  49  76 110 144 178 218 268 323
#     4   8  14  27  51  83 115 145 177 216 265 320
#     4  10  21  36  56  83 113 147 186 226 272 329
#     4   9  17  29  49  75 103 137 182 227 268 315
#
# _framework density 19.857043999999998
#
# number of rings (size 3 to 8) (size 9 to 14) (size 15 to 20)
#    0.000    2.500    0.833    2.250    0.000    6.333 
#    0.000    3.333    1.833    2.000    0.000    0.000 
#    0.000    0.000    0.000    0.000    0.000    0.000 
#
# Total GULP energy -267693.856720 kJ/mol
# GULP energy per Si atom -5576.955348 kJ/mol
# Density = 1.981185 g / cm^3
# Si number density = 19.857044 Si / 1000 Ang^3
#
#
#
# Elastic Constant Matrix: (Units=GPa)
#
#
# Indices 1 2 3 4 5 6 
#
# 1 191.3292 7.3574 94.5529 0.0000 0.0000 0.0000
# 2 7.3574 17.6765 14.1540 0.0000 0.0000 0.0000
# 3 94.5529 14.1540 98.7994 0.0000 0.0000 0.0000
# 4 0.0000 0.0000 0.0000 13.0595 0.0000 0.0000
# 5 0.0000 0.0000 0.0000 0.0000 -26.0044 0.0000
# 6 0.0000 0.0000 0.0000 0.0000 0.0000 23.8607
#
#
#
# Elastic Compliance Matrix: (Units=1/GPa)
#
#
# Indices 1 2 3 4 5 6 
#
# 1 0.010163 0.004019 -0.010302 0.000000 0.000000 0.000000
# 2 0.004019 0.065492 -0.013229 0.000000 0.000000 0.000000
# 3 -0.010302 -0.013229 0.021876 0.000000 0.000000 0.000000
# 4 0.000000 0.000000 0.000000 0.076573 0.000000 0.000000
# 5 0.000000 0.000000 0.000000 0.000000 -0.038455 0.000000
# 6 0.000000 0.000000 0.000000 0.000000 0.000000 0.041910
#
#
# Mechanical properties :
#
#
# Convention : Reuss Voigt Hill
#
# Bulk Modulus (GPa) = 17.09183 59.99264 38.54224
# Shear Modulus (GPa) = 21.17884 14.96589 18.07236
#
# Velocity S-wave (km/s) = 3.26937 2.74830 3.02010
# Velocity P-wave (km/s) = 4.78308 6.35207 5.62257
#
# Compressibility (1/GPa) = 0.05850749
#
# Stress axis : x y z
#
# Youngs Moduli (GPa) = 98.39315 15.26910 45.71205
#
# Poissons Ratio (x) = -0.06137 0.47094
# Poissons Ratio (y) = -0.39544 0.60470
# Poissons Ratio (z) = 1.01367 0.20199
#
# Static dielectric constant tensor:
#      x y z
#    x 1.690030 0.000000 0.000000 
#    y 0.000000 1.739300 0.000000 
#    z 0.000000 0.000000 1.679150 
# 
# From -- ./inp_files/6424.got.cif
#   From: 2010.05.17/outbox.cif.g08.bks.cpg/sg47_4_cif.got.tgz:6424.got - 2010.06.03 20:15:42.
