data_PCOD9383831
_publ_section_title
;
Structure prediction by ZEFSAII (Michael W. Deem and Ramdas Pophale) SiO2 
 PCOD9383831
Probable space group: P M M M
;
_chemical_formula_sum "Si O2"
_cell_formula_units_Z 52
_cell_length_a 22.984694
_cell_length_b 9.033574
_cell_length_c 15.939229
_cell_angle_alpha 90.000000
_cell_angle_beta 90.000000
_cell_angle_gamma 90.000000
_cell_volume 3309.524824
_symmetry_space_group_name_H-M "P M M M"
_symmetry_group_IT_number 47
_symmetry_cell_setting 'orthorhombic'
loop_
_space_group_symop_operation_xyz
x,y,z
-x,-y,z
x,-y,-z
-x,y,-z
-x,-y,-z
x,y,-z
-x,y,z
x,-y,z
loop_
_atom_site_type_symbol
_atom_site_label
_atom_site_fract_x
_atom_site_fract_y
_atom_site_fract_z
Si Si1 0.102198 0.829307 0.684755
Si Si2 0.812509 0.677956 0.091293
Si Si3 0.777267 0.322157 0.724390
Si Si4 0.935010 0.828105 0.876356
Si Si5 0.684669 0.823110 0.401043
Si Si6 0.564578 0.671039 0.601482
Si Si7 0.000000 0.335556 0.598339
O O1 0.160837 0.735406 0.690674
O O2 0.071482 0.826968 0.775759
O O3 0.056754 0.754597 0.623692
O O4 0.115114 0.000000 0.663732
O O5 0.815156 0.500000 0.094323
O O6 0.778808 0.724491 0.176443
O O7 0.878564 0.739056 0.094226
O O8 0.787450 0.721762 0.000000
O O9 0.773471 0.500000 0.720834
O O10 0.728604 0.251896 0.664503
O O11 0.000000 0.774399 0.899121
O O12 0.930331 0.000000 0.902732
O O13 0.694803 0.780314 0.500000
O O14 0.619464 0.771421 0.377016
O O15 0.689764 0.000000 0.396597
O O16 0.562528 0.670638 0.500000
O O17 0.500000 0.718152 0.630636
O O18 0.574044 0.500000 0.627649
O O19 0.000000 0.500000 0.638323
O O20 0.000000 0.351619 0.500000
#
# Coordination Sequence:
#
# PCOD9383831 Si02
#       7
#     8   8   8   8   8   8   4
#     4  10  19  34  51  65  84 112 146 187 234 281
#     4   9  19  34  49  68  92 117 149 189 235 286
#     4  10  20  34  52  71  92 124 159 196 240 283
#     4   9  17  30  47  67  88 110 138 173 220 279
#     4  10  20  32  47  70 100 133 167 201 235 273
#     4   8  14  26  45  69  98 132 166 198 232 270
#     4  11  23  35  47  65  86 109 144 189 235 286
#
# _framework density 15.712225999999999
#
# number of rings (size 3 to 8) (size 9 to 14) (size 15 to 20)
#    0.000    2.538    0.769    2.077    0.000    4.615 
#    0.000    3.077    0.000    0.000    0.000    0.000 
#    0.000    0.615    0.000    7.077    0.000    2.308 
#
# Total GULP energy -289614.378657 kJ/mol
# GULP energy per Si atom -5569.507282 kJ/mol
# Density = 1.567646 g / cm^3
# Si number density = 15.712226 Si / 1000 Ang^3
#
#
#
# Elastic Constant Matrix: (Units=GPa)
#
#
# Indices 1 2 3 4 5 6 
#
# 1 103.5465 37.0366 57.2090 0.0000 0.0000 0.0000
# 2 37.0366 50.5082 39.3429 0.0000 0.0000 0.0000
# 3 57.2090 39.3429 92.9053 0.0000 0.0000 0.0000
# 4 0.0000 0.0000 0.0000 8.3632 0.0000 0.0000
# 5 0.0000 0.0000 0.0000 0.0000 47.4700 0.0000
# 6 0.0000 0.0000 0.0000 0.0000 0.0000 26.7368
#
#
#
# Elastic Compliance Matrix: (Units=1/GPa)
#
#
# Indices 1 2 3 4 5 6 
#
# 1 0.015755 -0.005963 -0.007177 0.000000 0.000000 0.000000
# 2 -0.005963 0.031801 -0.009795 0.000000 0.000000 0.000000
# 3 -0.007177 -0.009795 0.019331 0.000000 0.000000 0.000000
# 4 0.000000 0.000000 0.000000 0.119571 0.000000 0.000000
# 5 0.000000 0.000000 0.000000 0.000000 0.021066 0.000000
# 6 0.000000 0.000000 0.000000 0.000000 0.000000 0.037402
#
#
# Mechanical properties :
#
#
# Convention : Reuss Voigt Hill
#
# Bulk Modulus (GPa) = 47.57834 57.12633 52.35233
# Shear Modulus (GPa) = 16.78971 24.07210 20.43091
#
# Velocity S-wave (km/s) = 3.27245 3.91840 3.60991
# Velocity P-wave (km/s) = 6.68023 7.54378 7.12510
#
# Compressibility (1/GPa) = 0.02101797
#
# Stress axis : x y z
#
# Youngs Moduli (GPa) = 63.47023 31.44556 51.73080
#
# Poissons Ratio (x) = 0.18751 0.37126
# Poissons Ratio (y) = 0.37847 0.50670
# Poissons Ratio (z) = 0.45551 0.30801
#
# Static dielectric constant tensor:
#      x y z
#    x 1.508180 0.000000 0.000000 
#    y 0.000000 1.534700 0.000000 
#    z 0.000000 0.000000 1.551380 
# 
# From -- ./inp_files/25027.got.cif
#   From: 2010.05.17/outbox.cif.g08.bks.cpg/sg47_13_cif.got.tgz:25027.got - 2010.06.03 20:15:42.
