data_PCOD9383740
_publ_section_title
;
Structure prediction by ZEFSAII (Michael W. Deem and Ramdas Pophale) SiO2 
 PCOD9383740
Probable space group: P M M M
;
_chemical_formula_sum "Si O2"
_cell_formula_units_Z 52
_cell_length_a 14.521289
_cell_length_b 23.556238
_cell_length_c 8.911017
_cell_angle_alpha 90.000000
_cell_angle_beta 90.000000
_cell_angle_gamma 90.000000
_cell_volume 3048.164315
_symmetry_space_group_name_H-M "P M M M"
_symmetry_group_IT_number 47
_symmetry_cell_setting 'orthorhombic'
loop_
_space_group_symop_operation_xyz
x,y,z
-x,-y,z
x,-y,-z
-x,y,-z
-x,-y,-z
x,y,-z
-x,y,z
x,-y,z
loop_
_atom_site_type_symbol
_atom_site_label
_atom_site_fract_x
_atom_site_fract_y
_atom_site_fract_z
Si Si1 0.894154 0.500000 0.817019
Si Si2 0.780993 0.167203 0.678371
Si Si3 0.892541 0.933850 0.179673
Si Si4 0.394850 0.657149 0.320742
Si Si5 0.215883 0.612359 0.180812
Si Si6 0.891574 0.728345 0.819948
Si Si7 0.606196 0.782013 0.178370
O O1 0.840149 0.556679 0.771477
O O2 0.000000 0.500000 0.765824
O O3 0.896349 0.500000 0.000000
O O4 0.776242 0.168752 0.500000
O O5 0.827567 0.109540 0.735266
O O6 0.842803 0.219552 0.737984
O O7 0.680269 0.176722 0.748438
O O8 0.000000 0.922245 0.215405
O O9 0.874398 0.000000 0.214032
O O10 0.882154 0.926382 0.000000
O O11 0.385995 0.661433 0.500000
O O12 0.500000 0.639411 0.285596
O O13 0.315943 0.617370 0.254452
O O14 0.381103 0.719482 0.248970
O O15 0.158479 0.669243 0.218616
O O16 0.225541 0.611045 0.000000
O O17 0.000000 0.725653 0.785403
O O18 0.882247 0.736552 0.000000
O O19 0.500000 0.798745 0.204725
O O20 0.621622 0.778205 0.000000
#
# Coordination Sequence:
#
# PCOD9383740 Si02
#       7
#     4   8   8   8   8   8   8
#     4   9  18  34  56  81 106 136 181 229 270 317
#     4  12  23  33  51  81 115 146 176 217 272 325
#     4   9  19  37  59  80 106 146 192 231 266 310
#     4  10  20  34  53  78 108 139 171 215 273 330
#     4  10  19  33  55  79 104 139 180 224 271 320
#     4  10  20  33  50  74 105 141 180 222 268 318
#     4  10  20  35  56  80 106 139 180 223 268 322
#
# _framework density 17.059449000000001
#
# number of rings (size 3 to 8) (size 9 to 14) (size 15 to 20)
#    0.000    1.923    1.538    3.692    0.000    6.462 
#    0.000    1.538    0.000    4.615    0.000    3.231 
#    0.000    0.000    0.000    0.000    0.000    0.000 
#
# Total GULP energy -290378.266693 kJ/mol
# GULP energy per Si atom -5584.197436 kJ/mol
# Density = 1.702062 g / cm^3
# Si number density = 17.059449 Si / 1000 Ang^3
#
#
#
# Elastic Constant Matrix: (Units=GPa)
#
#
# Indices 1 2 3 4 5 6 
#
# 1 158.6899 84.3514 66.7676 0.0000 0.0000 0.0000
# 2 84.3514 98.7578 50.7415 0.0000 0.0000 0.0000
# 3 66.7676 50.7415 54.1913 0.0000 0.0000 0.0000
# 4 0.0000 0.0000 0.0000 -10.2823 0.0000 0.0000
# 5 0.0000 0.0000 0.0000 0.0000 14.3751 0.0000
# 6 0.0000 0.0000 0.0000 0.0000 0.0000 32.1924
#
#
#
# Elastic Compliance Matrix: (Units=1/GPa)
#
#
# Indices 1 2 3 4 5 6 
#
# 1 0.014898 -0.006347 -0.012412 0.000000 0.000000 0.000000
# 2 -0.006347 0.022218 -0.012983 0.000000 0.000000 0.000000
# 3 -0.012412 -0.012983 0.045902 0.000000 0.000000 0.000000
# 4 0.000000 0.000000 0.000000 -0.097255 0.000000 0.000000
# 5 0.000000 0.000000 0.000000 0.000000 0.069565 0.000000
# 6 0.000000 0.000000 0.000000 0.000000 0.000000 0.031063
#
#
# Mechanical properties :
#
#
# Convention : Reuss Voigt Hill
#
# Bulk Modulus (GPa) = 51.19515 79.48445 65.33980
# Shear Modulus (GPa) = 31.97212 14.57561 23.27386
#
# Velocity S-wave (km/s) = 4.33385 2.92618 3.69762
# Velocity P-wave (km/s) = 7.42415 7.62303 7.52425
#
# Compressibility (1/GPa) = 0.01953310
#
# Stress axis : x y z
#
# Youngs Moduli (GPa) = 67.12460 45.00877 21.78553
#
# Poissons Ratio (x) = 0.28569 0.27040
# Poissons Ratio (y) = 0.42606 0.28284
# Poissons Ratio (z) = 0.83313 0.58436
#
# Static dielectric constant tensor:
#      x y z
#    x 1.579490 0.000000 0.000000 
#    y 0.000000 1.549850 0.000000 
#    z 0.000000 0.000000 1.565250 
# 
# From -- ./inp_files/6948.got.cif
#   From: 2010.05.17/outbox.cif.g08.bks.cpg/sg47_4_cif.got.tgz:6948.got - 2010.06.03 20:15:42.
