data_PCOD9383465
_publ_section_title
;
Structure prediction by ZEFSAII (Michael W. Deem and Ramdas Pophale) SiO2 
 PCOD9383465
Probable space group: P M M M
;
_chemical_formula_sum "Si O2"
_cell_formula_units_Z 64
_cell_length_a 23.507226
_cell_length_b 16.525335
_cell_length_c 7.887702
_cell_angle_alpha 90.000000
_cell_angle_beta 90.000000
_cell_angle_gamma 90.000000
_cell_volume 3064.094458
_symmetry_space_group_name_H-M "P M M M"
_symmetry_group_IT_number 47
_symmetry_cell_setting 'orthorhombic'
loop_
_space_group_symop_operation_xyz
x,y,z
-x,-y,z
x,-y,-z
-x,y,-z
-x,-y,-z
x,y,-z
-x,y,z
x,-y,z
loop_
_atom_site_type_symbol
_atom_site_label
_atom_site_fract_x
_atom_site_fract_y
_atom_site_fract_z
Si Si1 0.587857 0.908770 0.803514
Si Si2 0.938496 0.763473 0.298751
Si Si3 0.285322 0.905955 0.694345
Si Si4 0.652536 0.409884 0.702282
Si Si5 0.778853 0.359055 0.800584
Si Si6 0.096427 0.586224 0.203086
Si Si7 0.818114 0.811216 0.695218
Si Si8 0.437453 0.270814 0.795770
O O1 0.655889 0.898453 0.792466
O O2 0.567081 0.822533 0.730416
O O3 0.574886 0.000000 0.731352
O O4 0.569795 0.911950 0.000000
O O5 0.938913 0.779858 0.500000
O O6 0.930018 0.667176 0.277861
O O7 0.881074 0.804123 0.227722
O O8 0.000000 0.787065 0.227436
O O9 0.294492 0.874680 0.500000
O O10 0.230796 0.864770 0.776403
O O11 0.272857 0.000000 0.681434
O O12 0.653129 0.412038 0.500000
O O13 0.634046 0.500000 0.764118
O O14 0.717531 0.395547 0.760965
O O15 0.611844 0.334623 0.750254
O O16 0.835391 0.411238 0.767469
O O17 0.791051 0.277857 0.697528
O O18 0.779980 0.338610 0.000000
O O19 0.074013 0.500000 0.265029
O O20 0.087789 0.590274 0.000000
O O21 0.824302 0.839263 0.500000
O O22 0.500000 0.302062 0.745062
O O23 0.435583 0.264281 0.000000
#
# Coordination Sequence:
#
# PCOD9383465 Si02
#       8
#     8   8   8   8   8   8   8   8
#     4   9  18  33  54  81 111 138 163 197 246 304
#     4   9  18  31  45  62  86 120 162 202 239 282
#     4   9  17  29  47  72 100 128 158 194 239 292
#     4  11  24  39  55  76 103 137 175 215 260 306
#     4  10  19  32  52  76 100 125 158 202 251 301
#     4   9  18  31  46  66  92 120 150 189 239 291
#     4   9  17  30  48  69  96 130 164 201 247 296
#     4  10  22  39  58  80 105 136 175 215 253 295
#
# _framework density 20.887086
#
# number of rings (size 3 to 8) (size 9 to 14) (size 15 to 20)
#    0.000    2.500    0.000    1.875    0.000    6.500 
#    0.000    3.750    0.000    0.375    0.000    5.250 
#    0.000    0.000    0.000    9.375    0.000    9.750 
#
# Total GULP energy -356590.103973 kJ/mol
# GULP energy per Si atom -5571.720375 kJ/mol
# Density = 2.083955 g / cm^3
# Si number density = 20.887086 Si / 1000 Ang^3
#
#
#
# Elastic Constant Matrix: (Units=GPa)
#
#
# Indices 1 2 3 4 5 6 
#
# 1 116.0664 44.5239 8.4485 0.0000 0.0000 0.0000
# 2 44.5239 50.0318 6.3748 0.0000 0.0000 0.0000
# 3 8.4485 6.3748 31.1337 0.0000 0.0000 0.0000
# 4 0.0000 0.0000 0.0000 10.7402 0.0000 0.0000
# 5 0.0000 0.0000 0.0000 0.0000 -2.6315 0.0000
# 6 0.0000 0.0000 0.0000 0.0000 0.0000 -0.1990
#
#
#
# Elastic Compliance Matrix: (Units=1/GPa)
#
#
# Indices 1 2 3 4 5 6 
#
# 1 0.013125 -0.011527 -0.001201 0.000000 0.000000 0.000000
# 2 -0.011527 0.030646 -0.003147 0.000000 0.000000 0.000000
# 3 -0.001201 -0.003147 0.033090 0.000000 0.000000 0.000000
# 4 0.000000 0.000000 0.000000 0.093108 0.000000 0.000000
# 5 0.000000 0.000000 0.000000 0.000000 -0.380005 0.000000
# 6 0.000000 0.000000 0.000000 0.000000 0.000000 -5.024421
#
#
# Mechanical properties :
#
#
# Convention : Reuss Voigt Hill
#
# Bulk Modulus (GPa) = 22.16788 35.10293 28.63541
# Shear Modulus (GPa) = -0.96382 10.77423 4.90520
#
# Velocity S-wave (km/s) = -0.68003 2.27366 1.53412
# Velocity P-wave (km/s) = 3.16538 4.87188 4.10822
#
# Compressibility (1/GPa) = 0.04511030
#
# Stress axis : x y z
#
# Youngs Moduli (GPa) = 76.18997 32.63027 30.22069
#
# Poissons Ratio (x) = 0.37613 0.03631
# Poissons Ratio (y) = 0.87825 0.09511
# Poissons Ratio (z) = 0.09153 0.10269
#
# Static dielectric constant tensor:
#      x y z
#    x 1.780760 0.000000 0.000000 
#    y 0.000000 1.770480 0.000000 
#    z 0.000000 0.000000 1.781190 
# 
# From -- ./inp_files/12734.got.cif
#   From: 2010.05.17/outbox.cif.g08.bks.cpg/sg47_7_cif.got.tgz:12734.got - 2010.06.03 20:15:42.
