data_PCOD9383136
_publ_section_title
;
Structure prediction by ZEFSAII (Michael W. Deem and Ramdas Pophale) SiO2 
 PCOD9383136
Probable space group: P M M M
;
_chemical_formula_sum "Si O2"
_cell_formula_units_Z 52
_cell_length_a 29.261942
_cell_length_b 12.157642
_cell_length_c 7.856067
_cell_angle_alpha 90.000000
_cell_angle_beta 90.000000
_cell_angle_gamma 90.000000
_cell_volume 2794.844661
_symmetry_space_group_name_H-M "P M M M"
_symmetry_group_IT_number 47
_symmetry_cell_setting 'orthorhombic'
loop_
_space_group_symop_operation_xyz
x,y,z
-x,-y,z
x,-y,-z
-x,y,-z
-x,-y,-z
x,y,-z
-x,y,z
x,-y,z
loop_
_atom_site_type_symbol
_atom_site_label
_atom_site_fract_x
_atom_site_fract_y
_atom_site_fract_z
Si Si1 0.900672 0.873424 0.296289
Si Si2 0.551893 0.126246 0.792102
Si Si3 0.813485 0.262896 0.291324
Si Si4 0.000000 0.874270 0.202870
Si Si5 0.274131 0.124098 0.295816
Si Si6 0.674003 0.500000 0.298133
Si Si7 0.779423 0.500000 0.708456
Si Si8 0.362747 0.264176 0.202420
O O1 0.895946 0.880288 0.500000
O O2 0.860001 0.795642 0.233340
O O3 0.951281 0.827610 0.258884
O O4 0.897349 0.000000 0.229979
O O5 0.500000 0.151308 0.737443
O O6 0.590410 0.210326 0.730224
O O7 0.562770 0.000000 0.742796
O O8 0.551723 0.128072 0.000000
O O9 0.813835 0.263166 0.500000
O O10 0.770179 0.190341 0.234693
O O11 0.804570 0.388266 0.237835
O O12 0.000000 0.000000 0.271837
O O13 0.000000 0.877831 0.000000
O O14 0.269713 0.117836 0.500000
O O15 0.319841 0.191036 0.258768
O O16 0.276155 0.000000 0.228143
O O17 0.678406 0.500000 0.500000
O O18 0.726462 0.500000 0.231705
O O19 0.647555 0.610337 0.248856
O O20 0.778516 0.500000 0.500000
O O21 0.365089 0.258045 0.000000
#
# Coordination Sequence:
#
# PCOD9383136 Si02
#       8
#     8   8   8   4   8   4   4   8
#     4   9  16  27  46  71  96 121 156 203 246 284
#     4   8  15  30  52  76 102 133 168 207 254 306
#     4   9  16  28  47  72  97 126 167 209 244 287
#     4   9  17  29  45  66  95 128 158 189 238 303
#     4  10  19  31  49  74 105 139 170 200 247 312
#     4  11  21  37  56  72  98 139 178 209 249 307
#     4   9  16  29  51  71  91 125 171 209 239 282
#     4  11  21  33  52  78 104 130 168 218 262 299
#
# _framework density 18.605682999999999
#
# number of rings (size 3 to 8) (size 9 to 14) (size 15 to 20)
#    0.000    2.538    1.538    2.308    0.000    3.692 
#    0.000    1.154    0.000    6.462    0.000    8.615 
#    0.000    0.000    0.000    0.000    0.000    0.000 
#
# Total GULP energy -290022.801416 kJ/mol
# GULP energy per Si atom -5577.361566 kJ/mol
# Density = 1.856334 g / cm^3
# Si number density = 18.605683 Si / 1000 Ang^3
#
#
#
# Elastic Constant Matrix: (Units=GPa)
#
#
# Indices 1 2 3 4 5 6 
#
# 1 190.7632 113.0133 4.4808 0.0000 0.0000 0.0000
# 2 113.0133 167.1160 3.9657 0.0000 0.0000 0.0000
# 3 4.4808 3.9657 17.7246 0.0000 0.0000 0.0000
# 4 0.0000 0.0000 0.0000 12.0396 0.0000 0.0000
# 5 0.0000 0.0000 0.0000 0.0000 20.6835 0.0000
# 6 0.0000 0.0000 0.0000 0.0000 0.0000 9.2106
#
#
#
# Elastic Compliance Matrix: (Units=1/GPa)
#
#
# Indices 1 2 3 4 5 6 
#
# 1 0.008760 -0.005903 -0.000894 0.000000 0.000000 0.000000
# 2 -0.005903 0.009993 -0.000744 0.000000 0.000000 0.000000
# 3 -0.000894 -0.000744 0.056811 0.000000 0.000000 0.000000
# 4 0.000000 0.000000 0.000000 0.083059 0.000000 0.000000
# 5 0.000000 0.000000 0.000000 0.000000 0.048348 0.000000
# 6 0.000000 0.000000 0.000000 0.000000 0.000000 0.108571
#
#
# Mechanical properties :
#
#
# Convention : Reuss Voigt Hill
#
# Bulk Modulus (GPa) = 16.53332 68.72480 42.62906
# Shear Modulus (GPa) = 14.25376 25.32967 19.79171
#
# Velocity S-wave (km/s) = 2.77085 3.69371 3.26505
# Velocity P-wave (km/s) = 4.37519 7.43028 6.09718
#
# Compressibility (1/GPa) = 0.06048394
#
# Stress axis : x y z
#
# Youngs Moduli (GPa) = 114.15371 100.06629 17.60215
#
# Poissons Ratio (x) = 0.59068 0.01573
# Poissons Ratio (y) = 0.67384 0.01309
# Poissons Ratio (z) = 0.10204 0.07442
#
# Static dielectric constant tensor:
#      x y z
#    x 1.645330 0.000000 0.000000 
#    y 0.000000 1.622700 0.000000 
#    z 0.000000 0.000000 1.692380 
# 
# From -- ./inp_files/13336.got.cif
#   From: 2010.05.17/outbox.cif.g08.bks.cpg/sg47_7_cif.got.tgz:13336.got - 2010.06.03 20:15:42.
