data_PCOD9383072
_publ_section_title
;
Structure prediction by ZEFSAII (Michael W. Deem and Ramdas Pophale) SiO2 
 PCOD9383072
Probable space group: P M M M
;
_chemical_formula_sum "Si O2"
_cell_formula_units_Z 60
_cell_length_a 19.984554
_cell_length_b 8.277330
_cell_length_c 20.280718
_cell_angle_alpha 90.000000
_cell_angle_beta 90.000000
_cell_angle_gamma 90.000000
_cell_volume 3354.810987
_symmetry_space_group_name_H-M "P M M M"
_symmetry_group_IT_number 47
_symmetry_cell_setting 'orthorhombic'
loop_
_space_group_symop_operation_xyz
x,y,z
-x,-y,z
x,-y,-z
-x,y,-z
-x,-y,-z
x,y,-z
-x,y,z
x,-y,z
loop_
_atom_site_type_symbol
_atom_site_label
_atom_site_fract_x
_atom_site_fract_y
_atom_site_fract_z
Si Si1 0.323663 0.804408 0.713924
Si Si2 0.921768 0.183126 0.500000
Si Si3 0.423572 0.195347 0.828042
Si Si4 0.076598 0.193012 0.241662
Si Si5 0.789622 0.306725 0.187631
Si Si6 0.288380 0.808150 0.425061
Si Si7 0.146608 0.687678 0.374945
Si Si8 0.688613 0.695138 0.074977
O O1 0.382885 0.750826 0.762808
O O2 0.254492 0.750981 0.749425
O O3 0.330392 0.746426 0.638295
O O4 0.322966 0.000000 0.712869
O O5 0.901099 0.282331 0.436439
O O6 0.000000 0.163580 0.500000
O O7 0.891437 0.000000 0.500000
O O8 0.500000 0.252028 0.829269
O O9 0.380009 0.251739 0.890194
O O10 0.423929 0.000000 0.827647
O O11 0.134044 0.248739 0.190968
O O12 0.107825 0.248185 0.311287
O O13 0.000000 0.253093 0.232707
O O14 0.074159 0.000000 0.240969
O O15 0.789445 0.500000 0.188843
O O16 0.748509 0.249725 0.123356
O O17 0.296041 0.741826 0.500000
O O18 0.213554 0.778752 0.398155
O O19 0.300002 0.000000 0.429795
O O20 0.162921 0.500000 0.365074
O O21 0.690254 0.500000 0.074235
O O22 0.694352 0.753219 0.000000
#
# Coordination Sequence:
#
# PCOD9383072 Si02
#       8
#     8   4   8   8   8   8   8   8
#     4   9  17  31  51  71  97 135 173 210 256 309
#     4  11  23  37  49  61  87 129 168 201 252 321
#     4   9  18  32  51  78 110 142 176 212 249 292
#     4  11  23  37  52  70  96 131 168 208 259 314
#     4  10  19  32  53  77 100 128 168 216 256 298
#     4  10  19  31  49  69  94 129 169 212 261 315
#     4  12  23  33  48  70  95 123 161 212 263 309
#     4   9  19  35  54  79 111 143 171 202 247 302
#
# _framework density 17.884764000000001
#
# number of rings (size 3 to 8) (size 9 to 14) (size 15 to 20)
#    0.000    1.933    2.000    2.600    0.000    4.533 
#    0.000    1.333    0.000    0.800    0.000    5.600 
#    0.000    0.000    0.000    7.867    0.000    8.267 
#
# Total GULP energy -334476.579313 kJ/mol
# GULP energy per Si atom -5574.609655 kJ/mol
# Density = 1.784406 g / cm^3
# Si number density = 17.884764 Si / 1000 Ang^3
#
#
#
# Elastic Constant Matrix: (Units=GPa)
#
#
# Indices 1 2 3 4 5 6 
#
# 1 106.0485 5.6592 69.9418 0.0000 0.0000 0.0000
# 2 5.6592 16.6104 10.5796 0.0000 0.0000 0.0000
# 3 69.9418 10.5796 152.2529 0.0000 0.0000 0.0000
# 4 0.0000 0.0000 0.0000 21.9477 0.0000 0.0000
# 5 0.0000 0.0000 0.0000 0.0000 14.7934 0.0000
# 6 0.0000 0.0000 0.0000 0.0000 0.0000 9.4778
#
#
#
# Elastic Compliance Matrix: (Units=1/GPa)
#
#
# Indices 1 2 3 4 5 6 
#
# 1 0.013536 -0.000681 -0.006171 0.000000 0.000000 0.000000
# 2 -0.000681 0.063025 -0.004066 0.000000 0.000000 0.000000
# 3 -0.006171 -0.004066 0.009685 0.000000 0.000000 0.000000
# 4 0.000000 0.000000 0.000000 0.045563 0.000000 0.000000
# 5 0.000000 0.000000 0.000000 0.000000 0.067598 0.000000
# 6 0.000000 0.000000 0.000000 0.000000 0.000000 0.105510
#
#
# Mechanical properties :
#
#
# Convention : Reuss Voigt Hill
#
# Bulk Modulus (GPa) = 15.52568 49.69700 32.61134
# Shear Modulus (GPa) = 14.35857 21.82585 18.09221
#
# Velocity S-wave (km/s) = 2.83651 3.49715 3.18401
# Velocity P-wave (km/s) = 4.40767 6.64488 5.63835
#
# Compressibility (1/GPa) = 0.06440940
#
# Stress axis : x y z
#
# Youngs Moduli (GPa) = 73.87851 15.86662 103.24963
#
# Poissons Ratio (x) = 0.01081 0.63712
# Poissons Ratio (y) = 0.05034 0.41986
# Poissons Ratio (z) = 0.45588 0.06452
#
# Static dielectric constant tensor:
#      x y z
#    x 1.622730 0.000000 0.000000 
#    y 0.000000 1.632950 0.000000 
#    z 0.000000 0.000000 1.641600 
# 
# From -- ./inp_files/31357.got.cif
#   From: 2010.05.17/outbox.cif.g08.bks.cpg/sg47_16_cif.got.tgz:31357.got - 2010.06.03 20:15:42.
