data_PCOD9383397
_publ_section_title
;
Structure prediction by ZEFSAII (Michael W. Deem and Ramdas Pophale) SiO2 
 PCOD9383397
Probable space group: P M M M
;
_chemical_formula_sum "Si O2"
_cell_formula_units_Z 48
_cell_length_a 21.067939
_cell_length_b 14.755158
_cell_length_c 7.596388
_cell_angle_alpha 90.000000
_cell_angle_beta 90.000000
_cell_angle_gamma 90.000000
_cell_volume 2361.419013
_symmetry_space_group_name_H-M "P M M M"
_symmetry_group_IT_number 47
_symmetry_cell_setting 'orthorhombic'
loop_
_space_group_symop_operation_xyz
x,y,z
-x,-y,z
x,-y,-z
-x,y,-z
-x,-y,-z
x,y,-z
-x,y,z
x,-y,z
loop_
_atom_site_type_symbol
_atom_site_label
_atom_site_fract_x
_atom_site_fract_y
_atom_site_fract_z
Si Si1 0.752392 0.896102 0.286567
Si Si2 0.500000 0.897394 0.208981
Si Si3 0.329740 0.399645 0.709479
Si Si4 0.121815 0.783793 0.792482
Si Si5 0.000000 0.105021 0.216298
Si Si6 0.181199 0.398316 0.213205
Si Si7 0.627957 0.209867 0.289468
O O1 0.751721 0.896067 0.500000
O O2 0.814344 0.841904 0.228760
O O3 0.688369 0.847075 0.223368
O O4 0.754567 0.000000 0.227328
O O5 0.437127 0.842243 0.258083
O O6 0.500000 0.000000 0.283159
O O7 0.500000 0.904903 0.000000
O O8 0.341082 0.404504 0.500000
O O9 0.343552 0.500000 0.783264
O O10 0.254559 0.382003 0.735162
O O11 0.367525 0.312813 0.779773
O O12 0.062304 0.840522 0.722894
O O13 0.137530 0.683664 0.720505
O O14 0.109331 0.771904 0.000000
O O15 0.000000 0.000000 0.272372
O O16 0.000000 0.103132 0.000000
O O17 0.163977 0.500000 0.272369
O O18 0.179476 0.397664 0.000000
O O19 0.635781 0.216009 0.500000
#
# Coordination Sequence:
#
# PCOD9383397 Si02
#       7
#     8   4   8   8   4   8   8
#     4  10  20  33  51  77 105 130 166 217 264 307
#     4  11  25  41  56  77 106 140 179 219 256 301
#     4   9  17  31  54  82 107 133 168 208 251 303
#     4  10  19  32  51  73  99 135 177 215 256 309
#     4   9  18  32  48  68  98 137 179 219 260 307
#     4   9  17  29  47  74 105 133 164 209 264 311
#     4  10  20  36  57  79 105 138 173 209 258 312
#
# _framework density 20.326763
#
# number of rings (size 3 to 8) (size 9 to 14) (size 15 to 20)
#    0.000    2.333    1.667    1.250    0.000    3.667 
#    0.000    1.250    0.000    6.500    0.000    0.000 
#    0.000    4.000    0.000    0.000    0.000    0.000 
#
# Total GULP energy -267910.387106 kJ/mol
# GULP energy per Si atom -5581.466398 kJ/mol
# Density = 2.028050 g / cm^3
# Si number density = 20.326763 Si / 1000 Ang^3
#
#
#
# Elastic Constant Matrix: (Units=GPa)
#
#
# Indices 1 2 3 4 5 6 
#
# 1 145.8919 105.7918 -12.2731 0.0000 0.0000 0.0000
# 2 105.7918 231.6993 2.4635 0.0000 0.0000 0.0000
# 3 -12.2731 2.4635 40.1037 0.0000 0.0000 0.0000
# 4 0.0000 0.0000 0.0000 11.7660 0.0000 0.0000
# 5 0.0000 0.0000 0.0000 0.0000 16.1797 0.0000
# 6 0.0000 0.0000 0.0000 0.0000 0.0000 38.3456
#
#
#
# Elastic Compliance Matrix: (Units=1/GPa)
#
#
# Indices 1 2 3 4 5 6 
#
# 1 0.010740 -0.004942 0.003590 0.000000 0.000000 0.000000
# 2 -0.004942 0.006593 -0.001917 0.000000 0.000000 0.000000
# 3 0.003590 -0.001917 0.026152 0.000000 0.000000 0.000000
# 4 0.000000 0.000000 0.000000 0.084990 0.000000 0.000000
# 5 0.000000 0.000000 0.000000 0.000000 0.061806 0.000000
# 6 0.000000 0.000000 0.000000 0.000000 0.000000 0.026079
#
#
# Mechanical properties :
#
#
# Convention : Reuss Voigt Hill
#
# Bulk Modulus (GPa) = 27.06596 67.73992 47.40294
# Shear Modulus (GPa) = 21.25730 34.70578 27.98154
#
# Velocity S-wave (km/s) = 3.23736 4.13654 3.71426
# Velocity P-wave (km/s) = 5.22669 7.49750 6.46262
#
# Compressibility (1/GPa) = 0.03694678
#
# Stress axis : x y z
#
# Youngs Moduli (GPa) = 93.10934 151.68078 38.23814
#
# Poissons Ratio (x) = 0.74960 -0.13729
# Poissons Ratio (y) = 0.46015 0.07332
# Poissons Ratio (z) = -0.33430 0.29083
#
# Static dielectric constant tensor:
#      x y z
#    x 1.682330 0.000000 0.000000 
#    y 0.000000 1.759830 0.000000 
#    z 0.000000 0.000000 1.766120 
# 
# From -- ./inp_files/9230.got.cif
#   From: 2010.05.17/outbox.cif.g08.bks.cpg/sg47_5_cif.got.tgz:9230.got - 2010.06.03 20:15:42.
