data_PCOD9383190
_publ_section_title
;
Structure prediction by ZEFSAII (Michael W. Deem and Ramdas Pophale) SiO2 
 PCOD9383190
Probable space group: P M M M
;
_chemical_formula_sum "Si O2"
_cell_formula_units_Z 56
_cell_length_a 20.867005
_cell_length_b 15.777736
_cell_length_c 7.669919
_cell_angle_alpha 90.000000
_cell_angle_beta 90.000000
_cell_angle_gamma 90.000000
_cell_volume 2525.198848
_symmetry_space_group_name_H-M "P M M M"
_symmetry_group_IT_number 47
_symmetry_cell_setting 'orthorhombic'
loop_
_space_group_symop_operation_xyz
x,y,z
-x,-y,z
x,-y,-z
-x,y,-z
-x,-y,-z
x,y,-z
-x,y,z
x,-y,z
loop_
_atom_site_type_symbol
_atom_site_label
_atom_site_fract_x
_atom_site_fract_y
_atom_site_fract_z
Si Si1 0.335115 0.348190 0.288823
Si Si2 0.907577 0.905778 0.297948
Si Si3 0.365773 0.169994 0.303577
Si Si4 0.069583 0.287884 0.206425
Si Si5 0.760879 0.097673 0.799244
Si Si6 0.810735 0.401837 0.790599
Si Si7 0.424023 0.000000 0.706465
Si Si8 0.426408 0.500000 0.286910
O O1 0.336626 0.342988 0.500000
O O2 0.364962 0.261115 0.217869
O O3 0.260981 0.367263 0.245369
O O4 0.383416 0.420909 0.232151
O O5 0.925807 0.906814 0.500000
O O6 0.928135 0.814634 0.225187
O O7 0.831065 0.901547 0.279132
O O8 0.925836 0.000000 0.224181
O O9 0.392818 0.176850 0.500000
O O10 0.290391 0.149141 0.307435
O O11 0.397948 0.088079 0.217978
O O12 0.132387 0.338546 0.274493
O O13 0.000000 0.315749 0.278795
O O14 0.068905 0.304479 0.000000
O O15 0.739494 0.000000 0.800083
O O16 0.763888 0.127670 0.000000
O O17 0.816427 0.500000 0.727028
O O18 0.816401 0.404818 0.000000
O O19 0.500000 0.000000 0.713741
O O20 0.403604 0.000000 0.500000
O O21 0.500000 0.500000 0.227810
O O22 0.428082 0.500000 0.500000
#
# Coordination Sequence:
#
# PCOD9383190 Si02
#       8
#     8   8   8   8   8   8   4   4
#     4  10  20  34  56  85 111 142 183 228 278 332
#     4  10  21  36  55  80 112 150 189 230 276 329
#     4  10  19  31  51  77 106 141 182 227 275 327
#     4  10  22  39  58  83 115 150 190 235 282 335
#     4  10  19  31  50  76 105 138 179 225 274 324
#     4  10  21  38  61  86 112 145 185 232 287 343
#     4   9  18  32  49  73 109 149 186 227 274 327
#     4   9  18  34  55  81 114 145 176 222 277 331
#
# _framework density 22.176470999999999
#
# number of rings (size 3 to 8) (size 9 to 14) (size 15 to 20)
#    0.000    2.143    1.429    1.714    0.000    6.286 
#    0.000    5.714    0.000    1.714    0.000    4.000 
#    0.000    0.000    0.000    0.000    0.000    0.000 
#
# Total GULP energy -312290.156654 kJ/mol
# GULP energy per Si atom -5576.609940 kJ/mol
# Density = 2.212600 g / cm^3
# Si number density = 22.176471 Si / 1000 Ang^3
#
#
#
# Elastic Constant Matrix: (Units=GPa)
#
#
# Indices 1 2 3 4 5 6 
#
# 1 135.5178 95.5915 -0.7167 0.0000 0.0000 0.0000
# 2 95.5915 200.8679 7.2195 0.0000 0.0000 0.0000
# 3 -0.7167 7.2195 52.6148 0.0000 0.0000 0.0000
# 4 0.0000 0.0000 0.0000 10.8473 0.0000 0.0000
# 5 0.0000 0.0000 0.0000 0.0000 10.9599 0.0000
# 6 0.0000 0.0000 0.0000 0.0000 0.0000 -14.5184
#
#
#
# Elastic Compliance Matrix: (Units=1/GPa)
#
#
# Indices 1 2 3 4 5 6 
#
# 1 0.011149 -0.005337 0.000884 0.000000 0.000000 0.000000
# 2 -0.005337 0.007558 -0.001110 0.000000 0.000000 0.000000
# 3 0.000884 -0.001110 0.019170 0.000000 0.000000 0.000000
# 4 0.000000 0.000000 0.000000 0.092189 0.000000 0.000000
# 5 0.000000 0.000000 0.000000 0.000000 0.091242 0.000000
# 6 0.000000 0.000000 0.000000 0.000000 0.000000 -0.068878
#
#
# Mechanical properties :
#
#
# Convention : Reuss Voigt Hill
#
# Bulk Modulus (GPa) = 37.38113 65.90990 51.64551
# Shear Modulus (GPa) = 28.99004 20.58483 24.78743
#
# Velocity S-wave (km/s) = 3.61950 3.04999 3.34688
# Velocity P-wave (km/s) = 5.86179 6.49526 6.18664
#
# Compressibility (1/GPa) = 0.02675147
#
# Stress axis : x y z
#
# Youngs Moduli (GPa) = 89.69727 132.30536 52.16375
#
# Poissons Ratio (x) = 0.70616 -0.04612
# Poissons Ratio (y) = 0.47874 0.05789
# Poissons Ratio (z) = -0.07931 0.14683
#
# Static dielectric constant tensor:
#      x y z
#    x 1.790270 0.000000 0.000000 
#    y 0.000000 1.867190 0.000000 
#    z 0.000000 0.000000 1.840930 
# 
# From -- ./inp_files/11336.got.cif
#   From: 2010.05.17/outbox.cif.g08.bks.cpg/sg47_6_cif.got.tgz:11336.got - 2010.06.03 20:15:42.
