data_PCOD9383499
_publ_section_title
;
Structure prediction by ZEFSAII (Michael W. Deem and Ramdas Pophale) SiO2 
 PCOD9383499
Probable space group: P M M M
;
_chemical_formula_sum "Si O2"
_cell_formula_units_Z 48
_cell_length_a 15.695219
_cell_length_b 9.258084
_cell_length_c 17.543753
_cell_angle_alpha 90.000000
_cell_angle_beta 90.000000
_cell_angle_gamma 90.000000
_cell_volume 2549.241624
_symmetry_space_group_name_H-M "P M M M"
_symmetry_group_IT_number 47
_symmetry_cell_setting 'orthorhombic'
loop_
_space_group_symop_operation_xyz
x,y,z
-x,-y,z
x,-y,-z
-x,y,-z
-x,-y,-z
x,y,-z
-x,y,z
x,-y,z
loop_
_atom_site_type_symbol
_atom_site_label
_atom_site_fract_x
_atom_site_fract_y
_atom_site_fract_z
Si Si1 0.171842 0.830058 0.873237
Si Si2 0.000000 0.666756 0.875915
Si Si3 0.342786 0.669892 0.913592
Si Si4 0.500000 0.325065 0.187280
Si Si5 0.671367 0.171027 0.587258
Si Si6 0.500000 0.326993 0.365852
Si Si7 0.829614 0.170194 0.689986
Si Si8 0.000000 0.665451 0.690062
O O1 0.255805 0.757617 0.906943
O O2 0.179284 0.813289 0.781200
O O3 0.085894 0.749406 0.899047
O O4 0.166719 0.000000 0.890378
O O5 0.000000 0.668429 0.782977
O O6 0.000000 0.500000 0.900451
O O7 0.325244 0.500000 0.897641
O O8 0.414674 0.724472 0.855501
O O9 0.376068 0.679009 0.000000
O O10 0.500000 0.500000 0.180280
O O11 0.500000 0.289727 0.275913
O O12 0.700880 0.187507 0.500000
O O13 0.584843 0.258733 0.598989
O O14 0.744931 0.218116 0.645784
O O15 0.654523 0.000000 0.600119
O O16 0.500000 0.500000 0.374326
O O17 0.914010 0.254783 0.665485
O O18 0.841342 0.000000 0.674522
O O19 0.000000 0.500000 0.665710
#
# Coordination Sequence:
#
# PCOD9383499 Si02
#       8
#     8   4   8   4   8   4   8   4
#     4  10  19  32  52  78 107 136 169 214 264 308
#     4   9  17  31  52  77 104 135 175 217 254 301
#     4  10  20  35  55  77 103 137 174 210 251 304
#     4   9  19  36  57  80 104 133 172 214 254 301
#     4  10  21  37  55  75 103 140 178 214 254 304
#     4  11  22  35  55  81 106 133 168 214 264 309
#     4   9  18  33  53  76 102 136 177 216 255 303
#     4   9  17  29  50  79 106 134 169 214 264 305
#
# _framework density 18.829128000000001
#
# number of rings (size 3 to 8) (size 9 to 14) (size 15 to 20)
#    0.000    2.333    0.000    2.750    0.000    6.000 
#    0.000    2.083    0.000    6.000    0.000    0.000 
#    0.000    0.000    0.000    0.000    0.000    0.000 
#
# Total GULP energy -268000.250938 kJ/mol
# GULP energy per Si atom -5583.338561 kJ/mol
# Density = 1.878627 g / cm^3
# Si number density = 18.829128 Si / 1000 Ang^3
#
#
#
# Elastic Constant Matrix: (Units=GPa)
#
#
# Indices 1 2 3 4 5 6 
#
# 1 101.7834 36.6826 22.5327 0.0000 0.0000 0.0000
# 2 36.6826 59.6745 24.9423 0.0000 0.0000 0.0000
# 3 22.5327 24.9423 39.6577 0.0000 0.0000 0.0000
# 4 0.0000 0.0000 0.0000 17.4876 0.0000 0.0000
# 5 0.0000 0.0000 0.0000 0.0000 -44.7836 0.0000
# 6 0.0000 0.0000 0.0000 0.0000 0.0000 20.0385
#
#
#
# Elastic Compliance Matrix: (Units=1/GPa)
#
#
# Indices 1 2 3 4 5 6 
#
# 1 0.012910 -0.006607 -0.003180 0.000000 0.000000 0.000000
# 2 -0.006607 0.026115 -0.012671 0.000000 0.000000 0.000000
# 3 -0.003180 -0.012671 0.034992 0.000000 0.000000 0.000000
# 4 0.000000 0.000000 0.000000 0.057183 0.000000 0.000000
# 5 0.000000 0.000000 0.000000 0.000000 -0.022330 0.000000
# 6 0.000000 0.000000 0.000000 0.000000 0.000000 0.049904
#
#
# Mechanical properties :
#
#
# Convention : Reuss Voigt Hill
#
# Bulk Modulus (GPa) = 34.36247 41.04784 37.70516
# Shear Modulus (GPa) = 23.43134 6.34570 14.88852
#
# Velocity S-wave (km/s) = 3.53146 1.83779 2.81502
# Velocity P-wave (km/s) = 5.90911 5.13330 5.53481
#
# Compressibility (1/GPa) = 0.02910152
#
# Stress axis : x y z
#
# Youngs Moduli (GPa) = 77.46068 38.29240 28.57818
#
# Poissons Ratio (x) = 0.25299 0.09087
# Poissons Ratio (y) = 0.51176 0.36211
# Poissons Ratio (z) = 0.24631 0.48520
#
# Static dielectric constant tensor:
#      x y z
#    x 1.617400 0.000000 0.000000 
#    y 0.000000 1.626790 0.000000 
#    z 0.000000 0.000000 1.654850 
# 
# From -- ./inp_files/9269.got.cif
#   From: 2010.05.17/outbox.cif.g08.bks.cpg/sg47_5_cif.got.tgz:9269.got - 2010.06.03 20:15:42.
