data_PCOD9383253
_publ_section_title
;
Structure prediction by ZEFSAII (Michael W. Deem and Ramdas Pophale) SiO2 
 PCOD9383253
Probable space group: P M M M
;
_chemical_formula_sum "Si O2"
_cell_formula_units_Z 28
_cell_length_a 20.283887
_cell_length_b 8.656233
_cell_length_c 8.064265
_cell_angle_alpha 90.000000
_cell_angle_beta 90.000000
_cell_angle_gamma 90.000000
_cell_volume 1415.940197
_symmetry_space_group_name_H-M "P M M M"
_symmetry_group_IT_number 47
_symmetry_cell_setting 'orthorhombic'
loop_
_space_group_symop_operation_xyz
x,y,z
-x,-y,z
x,-y,-z
-x,y,-z
-x,-y,-z
x,y,-z
-x,y,z
x,-y,z
loop_
_atom_site_type_symbol
_atom_site_label
_atom_site_fract_x
_atom_site_fract_y
_atom_site_fract_z
Si Si1 0.428571 0.815424 0.698940
Si Si2 0.923796 0.815212 0.000000
Si Si3 0.713755 0.182405 0.195229
Si Si4 0.152777 0.684151 0.683715
O O1 0.425692 0.798346 0.500000
O O2 0.500000 0.753213 0.755836
O O3 0.360103 0.756483 0.772296
O O4 0.429491 0.000000 0.734537
O O5 0.887625 0.756221 0.165050
O O6 0.000000 0.765230 0.000000
O O7 0.920905 0.000000 0.000000
O O8 0.770952 0.268964 0.292184
O O9 0.715303 0.000000 0.241386
O O10 0.727983 0.193392 0.000000
O O11 0.130755 0.735527 0.500000
O O12 0.146842 0.500000 0.692907
#
# Coordination Sequence:
#
# PCOD9383253 Si02
#       4
#     8   4   8   8
#     4   8  14  25  42  68 105 148 194 246 301 352
#     4  11  25  45  69  97 126 155 192 241 295 350
#     4  10  19  31  52  82 114 152 200 252 302 350
#     4  11  24  41  63  91 124 164 204 242 291 352
#
# _framework density 19.774847000000001
#
# number of rings (size 3 to 8) (size 9 to 14) (size 15 to 20)
#    0.000    2.143    1.429    3.000    0.000    5.714 
#    0.000    5.714    0.000    0.857    0.000    6.000 
#    0.000    0.000    0.000    0.000    0.000    0.000 
#
# Total GULP energy -156263.178971 kJ/mol
# GULP energy per Si atom -5580.827820 kJ/mol
# Density = 1.972984 g / cm^3
# Si number density = 19.774847 Si / 1000 Ang^3
#
#
#
# Elastic Constant Matrix: (Units=GPa)
#
#
# Indices 1 2 3 4 5 6 
#
# 1 135.8049 24.4918 74.9032 0.0000 0.0000 0.0000
# 2 24.4918 19.8910 31.1907 0.0000 0.0000 0.0000
# 3 74.9032 31.1907 109.9625 0.0000 0.0000 0.0000
# 4 0.0000 0.0000 0.0000 13.0036 0.0000 0.0000
# 5 0.0000 0.0000 0.0000 0.0000 0.9117 0.0000
# 6 0.0000 0.0000 0.0000 0.0000 0.0000 -33.5411
#
#
#
# Elastic Compliance Matrix: (Units=1/GPa)
#
#
# Indices 1 2 3 4 5 6 
#
# 1 0.011929 -0.003506 -0.007131 0.000000 0.000000 0.000000
# 2 -0.003506 0.091579 -0.023588 0.000000 0.000000 0.000000
# 3 -0.007131 -0.023588 0.020642 0.000000 0.000000 0.000000
# 4 0.000000 0.000000 0.000000 0.076902 0.000000 0.000000
# 5 0.000000 0.000000 0.000000 0.000000 1.096824 0.000000
# 6 0.000000 0.000000 0.000000 0.000000 0.000000 -0.029814
#
#
# Mechanical properties :
#
#
# Convention : Reuss Voigt Hill
#
# Bulk Modulus (GPa) = 17.95336 58.53664 38.24500
# Shear Modulus (GPa) = 3.68982 5.07969 4.38476
#
# Velocity S-wave (km/s) = 1.36747 1.60447 1.49069
# Velocity P-wave (km/s) = 3.40469 5.75311 4.72706
#
# Compressibility (1/GPa) = 0.05569987
#
# Stress axis : x y z
#
# Youngs Moduli (GPa) = 83.82915 10.91954 48.44412
#
# Poissons Ratio (x) = 0.03828 0.34547
# Poissons Ratio (y) = 0.29389 1.14271
# Poissons Ratio (z) = 0.59781 0.25757
#
# Static dielectric constant tensor:
#      x y z
#    x 1.710610 0.000000 0.000000 
#    y 0.000000 1.672440 0.000000 
#    z 0.000000 0.000000 1.692980 
# 
# From -- ./inp_files/833.got.cif
#   From: 2010.05.17/outbox.cif.g08.bks.cpg/sg47_1_cif.got.tgz:833.got - 2010.06.03 20:15:42.
