data_PCOD9383615
_publ_section_title
;
Structure prediction by ZEFSAII (Michael W. Deem and Ramdas Pophale) SiO2 
 PCOD9383615
Probable space group: P M M M
;
_chemical_formula_sum "Si O2"
_cell_formula_units_Z 52
_cell_length_a 22.275132
_cell_length_b 15.152346
_cell_length_c 8.851067
_cell_angle_alpha 90.000000
_cell_angle_beta 90.000000
_cell_angle_gamma 90.000000
_cell_volume 2987.416624
_symmetry_space_group_name_H-M "P M M M"
_symmetry_group_IT_number 47
_symmetry_cell_setting 'orthorhombic'
loop_
_space_group_symop_operation_xyz
x,y,z
-x,-y,z
x,-y,-z
-x,y,-z
-x,-y,-z
x,y,-z
-x,y,z
x,-y,z
loop_
_atom_site_type_symbol
_atom_site_label
_atom_site_fract_x
_atom_site_fract_y
_atom_site_fract_z
Si Si1 0.070773 0.600272 0.682042
Si Si2 0.114568 0.219352 0.182546
Si Si3 0.428466 0.000000 0.824256
Si Si4 0.770570 0.102898 0.817603
Si Si5 0.356518 0.841926 0.320198
Si Si6 0.429451 0.684702 0.180518
Si Si7 0.427617 0.500000 0.671696
Si Si8 0.000000 0.102170 0.184021
O O1 0.075027 0.604345 0.500000
O O2 0.088820 0.500000 0.727854
O O3 0.106336 0.682469 0.751948
O O4 0.000000 0.610520 0.721834
O O5 0.174970 0.167417 0.226361
O O6 0.058536 0.157606 0.230232
O O7 0.113316 0.225317 0.000000
O O8 0.401400 0.916027 0.741916
O O9 0.500000 0.000000 0.819119
O O10 0.409493 0.000000 0.000000
O O11 0.708752 0.135752 0.745737
O O12 0.781713 0.000000 0.776303
O O13 0.765412 0.105540 0.000000
O O14 0.354389 0.842779 0.500000
O O15 0.384651 0.751898 0.259228
O O16 0.500000 0.701377 0.221264
O O17 0.412426 0.587556 0.236981
O O18 0.425360 0.691877 0.000000
O O19 0.500000 0.500000 0.661748
O O20 0.404116 0.500000 0.500000
O O21 0.000000 0.000000 0.235071
O O22 0.000000 0.099469 0.000000
#
# Coordination Sequence:
#
# PCOD9383615 Si02
#       8
#     8   8   4   8   8   8   4   4
#     4   9  18  33  53  78 111 150 184 219 276 341
#     4  10  19  32  55  85 110 140 184 231 274 322
#     4  11  23  39  59  83 113 148 185 230 283 339
#     4  10  21  38  58  78 107 149 189 224 274 340
#     4  12  24  37  56  82 112 146 188 236 281 329
#     4  10  20  35  57  84 113 147 184 223 275 337
#     4   9  17  31  53  83 117 147 179 224 275 328
#     4   9  16  28  48  79 116 142 173 223 274 321
#
# _framework density 17.406343
#
# number of rings (size 3 to 8) (size 9 to 14) (size 15 to 20)
#    0.000    1.923    1.538    3.692    0.000    7.077 
#    0.000    0.769    1.692    1.846    0.000    0.000 
#    0.000    0.000    0.000    0.000    0.000    0.000 
#
# Total GULP energy -290201.066122 kJ/mol
# GULP energy per Si atom -5580.789733 kJ/mol
# Density = 1.736673 g / cm^3
# Si number density = 17.406343 Si / 1000 Ang^3
#
#
#
# Elastic Constant Matrix: (Units=GPa)
#
#
# Indices 1 2 3 4 5 6 
#
# 1 98.6382 79.7037 44.6068 0.0000 0.0000 0.0000
# 2 79.7037 184.3125 48.8837 0.0000 0.0000 0.0000
# 3 44.6068 48.8837 50.6620 0.0000 0.0000 0.0000
# 4 0.0000 0.0000 0.0000 28.2992 0.0000 0.0000
# 5 0.0000 0.0000 0.0000 0.0000 11.6157 0.0000
# 6 0.0000 0.0000 0.0000 0.0000 0.0000 49.3114
#
#
#
# Elastic Compliance Matrix: (Units=1/GPa)
#
#
# Indices 1 2 3 4 5 6 
#
# 1 0.020177 -0.005394 -0.012561 0.000000 0.000000 0.000000
# 2 -0.005394 0.008733 -0.003678 0.000000 0.000000 0.000000
# 3 -0.012561 -0.003678 0.034347 0.000000 0.000000 0.000000
# 4 0.000000 0.000000 0.000000 0.035337 0.000000 0.000000
# 5 0.000000 0.000000 0.000000 0.000000 0.086091 0.000000
# 6 0.000000 0.000000 0.000000 0.000000 0.000000 0.020279
#
#
# Mechanical properties :
#
#
# Convention : Reuss Voigt Hill
#
# Bulk Modulus (GPa) = 50.01901 75.55569 62.78735
# Shear Modulus (GPa) = 19.61611 28.53983 24.07797
#
# Velocity S-wave (km/s) = 3.36065 4.05362 3.72329
# Velocity P-wave (km/s) = 6.62247 8.08766 7.39146
#
# Compressibility (1/GPa) = 0.01999240
#
# Stress axis : x y z
#
# Youngs Moduli (GPa) = 49.56187 114.50173 29.11476
#
# Poissons Ratio (x) = 0.61760 0.36570
# Poissons Ratio (y) = 0.26733 0.10708
# Poissons Ratio (z) = 0.62253 0.42111
#
# Static dielectric constant tensor:
#      x y z
#    x 1.571770 0.000000 0.000000 
#    y 0.000000 1.625910 0.000000 
#    z 0.000000 0.000000 1.584690 
# 
# From -- ./inp_files/11159.got.cif
#   From: 2010.05.17/outbox.cif.g08.bks.cpg/sg47_6_cif.got.tgz:11159.got - 2010.06.03 20:15:42.
