data_PCOD9383322
_publ_section_title
;
Structure prediction by ZEFSAII (Michael W. Deem and Ramdas Pophale) SiO2 
 PCOD9383322
Probable space group: P M M M
;
_chemical_formula_sum "Si O2"
_cell_formula_units_Z 44
_cell_length_a 7.851800
_cell_length_b 31.166218
_cell_length_c 9.437028
_cell_angle_alpha 90.000000
_cell_angle_beta 90.000000
_cell_angle_gamma 90.000000
_cell_volume 2309.343714
_symmetry_space_group_name_H-M "P M M M"
_symmetry_group_IT_number 47
_symmetry_cell_setting 'orthorhombic'
loop_
_space_group_symop_operation_xyz
x,y,z
-x,-y,z
x,-y,-z
-x,y,-z
-x,-y,-z
x,y,-z
-x,y,z
x,-y,z
loop_
_atom_site_type_symbol
_atom_site_label
_atom_site_fract_x
_atom_site_fract_y
_atom_site_fract_z
Si Si1 0.000000 0.049350 0.173313
Si Si2 0.705746 0.286114 0.338218
Si Si3 0.707779 0.451932 0.336130
Si Si4 0.312042 0.108100 0.172469
Si Si5 0.708619 0.630783 0.162747
Si Si6 0.797230 0.797886 0.837314
O O1 0.165272 0.075980 0.219958
O O2 0.000000 0.000000 0.219030
O O3 0.000000 0.049176 0.000000
O O4 0.767240 0.286732 0.500000
O O5 0.500000 0.287944 0.341398
O O6 0.764937 0.327808 0.251532
O O7 0.755447 0.242725 0.258323
O O8 0.757494 0.444810 0.500000
O O9 0.500000 0.451825 0.333759
O O10 0.762162 0.500000 0.293835
O O11 0.765115 0.413232 0.237172
O O12 0.500000 0.093973 0.214984
O O13 0.281110 0.157375 0.215559
O O14 0.304566 0.108912 0.000000
O O15 0.500000 0.630689 0.163928
O O16 0.762897 0.633443 0.000000
O O17 0.000000 0.804188 0.841094
O O18 0.738815 0.790115 0.000000
#
# Coordination Sequence:
#
# PCOD9383322 Si02
#       6
#     4   8   8   8   8   8
#     4   9  16  26  40  64 101 139 177 219 260 309
#     4  10  20  32  46  66  93 124 159 200 248 305
#     4   8  13  21  33  50  76 113 154 195 244 301
#     4   9  16  27  44  66  95 133 174 215 261 311
#     4   9  16  25  38  57  83 116 155 199 246 299
#     4  10  19  32  50  70  94 125 164 209 255 307
#
# _framework density 19.053032999999999
#
# number of rings (size 3 to 8) (size 9 to 14) (size 15 to 20)
#    0.000    2.818    0.909    2.182    0.000    5.091 
#    0.000    3.636    0.000    0.000    0.000    0.000 
#    0.000    2.182    0.000   11.455    0.000   14.182 
#
# Total GULP energy -245463.308619 kJ/mol
# GULP energy per Si atom -5578.711560 kJ/mol
# Density = 1.900967 g / cm^3
# Si number density = 19.053033 Si / 1000 Ang^3
#
#
#
# Elastic Constant Matrix: (Units=GPa)
#
#
# Indices 1 2 3 4 5 6 
#
# 1 64.9293 53.4949 24.3521 0.0000 0.0000 0.0000
# 2 53.4949 189.7031 78.9313 0.0000 0.0000 0.0000
# 3 24.3521 78.9313 84.2638 0.0000 0.0000 0.0000
# 4 0.0000 0.0000 0.0000 -16.4714 0.0000 0.0000
# 5 0.0000 0.0000 0.0000 0.0000 5.7965 0.0000
# 6 0.0000 0.0000 0.0000 0.0000 0.0000 25.5481
#
#
#
# Elastic Compliance Matrix: (Units=1/GPa)
#
#
# Indices 1 2 3 4 5 6 
#
# 1 0.020097 -0.005327 -0.000818 0.000000 0.000000 0.000000
# 2 -0.005327 0.010050 -0.007875 0.000000 0.000000 0.000000
# 3 -0.000818 -0.007875 0.019480 0.000000 0.000000 0.000000
# 4 0.000000 0.000000 0.000000 -0.060711 0.000000 0.000000
# 5 0.000000 0.000000 0.000000 0.000000 0.172519 0.000000
# 6 0.000000 0.000000 0.000000 0.000000 0.000000 0.039142
#
#
# Mechanical properties :
#
#
# Convention : Reuss Voigt Hill
#
# Bulk Modulus (GPa) = 46.32229 72.49475 59.40852
# Shear Modulus (GPa) = 21.20339 15.11582 18.15961
#
# Velocity S-wave (km/s) = 3.33958 2.81971 3.09059
# Velocity P-wave (km/s) = 6.26382 6.98087 6.63204
#
# Compressibility (1/GPa) = 0.02158788
#
# Stress axis : x y z
#
# Youngs Moduli (GPa) = 49.75885 99.50363 51.33422
#
# Poissons Ratio (x) = 0.53002 0.04201
# Poissons Ratio (y) = 0.26505 0.40423
# Poissons Ratio (z) = 0.04072 0.78354
#
# Static dielectric constant tensor:
#      x y z
#    x 1.712410 0.000000 0.000000 
#    y 0.000000 1.634840 0.000000 
#    z 0.000000 0.000000 1.635230 
# 
# From -- ./inp_files/2246.got.cif
#   From: 2010.05.17/outbox.cif.g08.bks.cpg/sg47_2_cif.got.tgz:2246.got - 2010.06.03 20:15:42.
