data_PCOD9383297
_publ_section_title
;
Structure prediction by ZEFSAII (Michael W. Deem and Ramdas Pophale) SiO2 
 PCOD9383297
Probable space group: P M M M
;
_chemical_formula_sum "Si O2"
_cell_formula_units_Z 52
_cell_length_a 18.031890
_cell_length_b 18.517467
_cell_length_c 8.738161
_cell_angle_alpha 90.000000
_cell_angle_beta 90.000000
_cell_angle_gamma 90.000000
_cell_volume 2917.715020
_symmetry_space_group_name_H-M "P M M M"
_symmetry_group_IT_number 47
_symmetry_cell_setting 'orthorhombic'
loop_
_space_group_symop_operation_xyz
x,y,z
-x,-y,z
x,-y,-z
-x,y,-z
-x,-y,-z
x,y,-z
-x,y,z
x,-y,z
loop_
_atom_site_type_symbol
_atom_site_label
_atom_site_fract_x
_atom_site_fract_y
_atom_site_fract_z
Si Si1 0.418987 0.370342 0.816297
Si Si2 0.410845 0.919027 0.678967
Si Si3 0.346271 0.778924 0.821367
Si Si4 0.086886 0.158438 0.185086
Si Si5 0.196509 0.724519 0.319985
Si Si6 0.909765 0.000000 0.179319
Si Si7 0.256589 0.419187 0.815004
O O1 0.500000 0.392541 0.755383
O O2 0.405687 0.284784 0.791824
O O3 0.342419 0.406868 0.762480
O O4 0.420965 0.382516 0.000000
O O5 0.392029 0.906863 0.500000
O O6 0.500000 0.916996 0.689864
O O7 0.377560 0.856676 0.781739
O O8 0.386471 0.000000 0.721224
O O9 0.274606 0.762190 0.720919
O O10 0.325404 0.773127 0.000000
O O11 0.133758 0.224617 0.248534
O O12 0.113434 0.078571 0.241879
O O13 0.000000 0.165668 0.224542
O O14 0.092058 0.157768 0.000000
O O15 0.186063 0.719285 0.500000
O O16 0.205848 0.644536 0.249715
O O17 0.000000 0.000000 0.184349
O O18 0.888845 0.000000 0.000000
O O19 0.233301 0.500000 0.772926
O O20 0.256941 0.413335 0.000000
#
# Coordination Sequence:
#
# PCOD9383297 Si02
#       7
#     8   8   8   8   8   4   8
#     4   8  14  25  44  72 100 123 154 204 260 306
#     4   9  18  32  48  67  95 130 166 210 268 325
#     4  10  19  32  49  69  95 129 175 220 256 300
#     4   9  17  33  58  84 109 137 170 209 252 303
#     4  11  22  35  52  75 105 140 174 210 258 312
#     4   7  12  26  51  81 107 131 160 195 238 289
#     4   9  18  33  53  76 103 136 173 214 260 313
#
# _framework density 17.822164999999998
#
# number of rings (size 3 to 8) (size 9 to 14) (size 15 to 20)
#    0.000    2.846    0.000    4.615    0.000    2.154 
#    1.385    2.692    0.000    6.000    0.000    7.538 
#    0.000    0.000    0.000    0.000    0.000    0.000 
#
# Total GULP energy -289703.343577 kJ/mol
# GULP energy per Si atom -5571.218146 kJ/mol
# Density = 1.778160 g / cm^3
# Si number density = 17.822165 Si / 1000 Ang^3
#
#
#
# Elastic Constant Matrix: (Units=GPa)
#
#
# Indices 1 2 3 4 5 6 
#
# 1 56.2888 50.0530 20.7482 0.0000 0.0000 0.0000
# 2 50.0530 148.5357 34.1193 0.0000 0.0000 0.0000
# 3 20.7482 34.1193 22.4470 0.0000 0.0000 0.0000
# 4 0.0000 0.0000 0.0000 13.8970 0.0000 0.0000
# 5 0.0000 0.0000 0.0000 0.0000 10.0831 0.0000
# 6 0.0000 0.0000 0.0000 0.0000 0.0000 -0.8428
#
#
#
# Elastic Compliance Matrix: (Units=1/GPa)
#
#
# Indices 1 2 3 4 5 6 
#
# 1 0.029793 -0.005706 -0.018865 0.000000 0.000000 0.000000
# 2 -0.005706 0.011437 -0.012110 0.000000 0.000000 0.000000
# 3 -0.018865 -0.012110 0.080393 0.000000 0.000000 0.000000
# 4 0.000000 0.000000 0.000000 0.071958 0.000000 0.000000
# 5 0.000000 0.000000 0.000000 0.000000 0.099176 0.000000
# 6 0.000000 0.000000 0.000000 0.000000 0.000000 -1.186571
#
#
# Mechanical properties :
#
#
# Convention : Reuss Voigt Hill
#
# Bulk Modulus (GPa) = 20.72043 48.56807 34.64425
# Shear Modulus (GPa) = -6.21609 12.78420 3.28405
#
# Velocity S-wave (km/s) = -1.86960 2.68119 1.35893
# Velocity P-wave (km/s) = 2.64403 6.07418 4.68437
#
# Compressibility (1/GPa) = 0.04826155
#
# Stress axis : x y z
#
# Youngs Moduli (GPa) = 33.56453 87.43633 12.43887
#
# Poissons Ratio (x) = 0.49893 0.23466
# Poissons Ratio (y) = 0.19153 0.15063
# Poissons Ratio (z) = 0.63320 1.05882
#
# Static dielectric constant tensor:
#      x y z
#    x 1.601470 0.000000 0.000000 
#    y 0.000000 1.629620 0.000000 
#    z 0.000000 0.000000 1.601010 
# 
# From -- ./inp_files/9555.got.cif
#   From: 2010.05.17/outbox.cif.g08.bks.cpg/sg47_5_cif.got.tgz:9555.got - 2010.06.03 20:15:42.
