data_PCOD9383409
_publ_section_title
;
Structure prediction by ZEFSAII (Michael W. Deem and Ramdas Pophale) SiO2 
 PCOD9383409
Probable space group: P M M M
;
_chemical_formula_sum "Si O2"
_cell_formula_units_Z 64
_cell_length_a 7.430408
_cell_length_b 20.279483
_cell_length_c 19.727468
_cell_angle_alpha 90.000000
_cell_angle_beta 90.000000
_cell_angle_gamma 90.000000
_cell_volume 2972.630216
_symmetry_space_group_name_H-M "P M M M"
_symmetry_group_IT_number 47
_symmetry_cell_setting 'orthorhombic'
loop_
_space_group_symop_operation_xyz
x,y,z
-x,-y,z
x,-y,-z
-x,y,-z
-x,-y,-z
x,y,-z
-x,y,z
x,-y,z
loop_
_atom_site_type_symbol
_atom_site_label
_atom_site_fract_x
_atom_site_fract_y
_atom_site_fract_z
Si Si1 0.719331 0.927309 0.077446
Si Si2 0.794995 0.805933 0.673664
Si Si3 0.220047 0.576014 0.174113
Si Si4 0.205192 0.336357 0.700278
Si Si5 0.712920 0.187884 0.172894
Si Si6 0.282656 0.423387 0.574780
Si Si7 0.216155 0.688058 0.923238
Si Si8 0.780776 0.075098 0.421098
O O1 0.500000 0.925607 0.077070
O O2 0.783101 0.868853 0.123845
O O3 0.773101 0.000000 0.100859
O O4 0.776870 0.918619 0.000000
O O5 0.709136 0.732742 0.676682
O O6 0.797004 0.821171 0.753521
O O7 0.718849 0.866016 0.628748
O O8 0.000000 0.797441 0.647935
O O9 0.280099 0.500000 0.176608
O O10 0.282312 0.620344 0.238123
O O11 0.272217 0.617371 0.107416
O O12 0.000000 0.574188 0.176742
O O13 0.203245 0.382338 0.635238
O O14 0.000000 0.320042 0.722010
O O15 0.500000 0.179849 0.183055
O O16 0.737769 0.256382 0.132543
O O17 0.229173 0.399883 0.500000
O O18 0.500000 0.419887 0.578923
O O19 0.232876 0.500000 0.580779
O O20 0.000000 0.687563 0.926752
O O21 0.283218 0.701094 0.000000
O O22 0.731476 0.087181 0.500000
O O23 0.000000 0.074144 0.418237
O O24 0.722739 0.000000 0.403152
#
# Coordination Sequence:
#
# PCOD9383409 Si02
#       8
#     8   8   8   8   8   8   8   8
#     4   8  15  29  48  70  97 130 169 210 249 292
#     4  10  20  34  53  77 107 137 170 213 260 306
#     4   9  17  31  51  75 102 132 169 213 261 311
#     4  10  19  32  51  74 103 136 172 218 260 301
#     4  11  21  33  52  77 106 139 174 214 257 309
#     4   9  19  35  52  72 102 137 169 205 254 312
#     4  10  20  35  55  77 103 136 172 215 268 317
#     4   8  15  30  53  80 108 140 179 219 259 305
#
# _framework density 21.529755000000002
#
# number of rings (size 3 to 8) (size 9 to 14) (size 15 to 20)
#    0.000    2.625    1.250    2.250    0.000    3.500 
#    0.000    3.125    0.000    1.875    0.000    6.125 
#    0.000    0.000    0.000    0.000    0.000    0.000 
#
# Total GULP energy -357003.260287 kJ/mol
# GULP energy per Si atom -5578.175942 kJ/mol
# Density = 2.148075 g / cm^3
# Si number density = 21.529755 Si / 1000 Ang^3
#
#
#
# Elastic Constant Matrix: (Units=GPa)
#
#
# Indices 1 2 3 4 5 6 
#
# 1 70.0463 1.7991 -1.7232 0.0000 0.0000 0.0000
# 2 1.7991 145.4345 78.7019 0.0000 0.0000 0.0000
# 3 -1.7232 78.7019 116.4098 0.0000 0.0000 0.0000
# 4 0.0000 0.0000 0.0000 50.8289 0.0000 0.0000
# 5 0.0000 0.0000 0.0000 0.0000 31.4011 0.0000
# 6 0.0000 0.0000 0.0000 0.0000 0.0000 1.3701
#
#
#
# Elastic Compliance Matrix: (Units=1/GPa)
#
#
# Indices 1 2 3 4 5 6 
#
# 1 0.014301 -0.000460 0.000522 0.000000 0.000000 0.000000
# 2 -0.000460 0.010858 -0.007347 0.000000 0.000000 0.000000
# 3 0.000522 -0.007347 0.013565 0.000000 0.000000 0.000000
# 4 0.000000 0.000000 0.000000 0.019674 0.000000 0.000000
# 5 0.000000 0.000000 0.000000 0.000000 0.031846 0.000000
# 6 0.000000 0.000000 0.000000 0.000000 0.000000 0.729857
#
#
# Mechanical properties :
#
#
# Convention : Reuss Voigt Hill
#
# Bulk Modulus (GPa) = 41.39950 54.38291 47.89121
# Shear Modulus (GPa) = 5.93316 33.59420 19.76368
#
# Velocity S-wave (km/s) = 1.66186 3.95443 3.03309
# Velocity P-wave (km/s) = 4.79094 6.79443 5.87866
#
# Compressibility (1/GPa) = 0.02415488
#
# Stress axis : x y z
#
# Youngs Moduli (GPa) = 69.92552 92.10065 73.71648
#
# Poissons Ratio (x) = 0.04233 -0.03851
# Poissons Ratio (y) = 0.03214 0.54163
# Poissons Ratio (z) = -0.03653 0.67670
#
# Static dielectric constant tensor:
#      x y z
#    x 1.835720 0.000000 0.000000 
#    y 0.000000 1.783980 0.000000 
#    z 0.000000 0.000000 1.753930 
# 
# From -- ./inp_files/27025.got.cif
#   From: 2010.05.17/outbox.cif.g08.bks.cpg/sg47_14_cif.got.tgz:27025.got - 2010.06.03 20:15:42.
