data_PCOD9383727
_publ_section_title
;
Structure prediction by ZEFSAII (Michael W. Deem and Ramdas Pophale) SiO2 
 PCOD9383727
Probable space group: P M M M
;
_chemical_formula_sum "Si O2"
_cell_formula_units_Z 52
_cell_length_a 8.334522
_cell_length_b 32.112723
_cell_length_c 11.170264
_cell_angle_alpha 90.000000
_cell_angle_beta 90.000000
_cell_angle_gamma 90.000000
_cell_volume 2989.656331
_symmetry_space_group_name_H-M "P M M M"
_symmetry_group_IT_number 47
_symmetry_cell_setting 'orthorhombic'
loop_
_space_group_symop_operation_xyz
x,y,z
-x,-y,z
x,-y,-z
-x,y,-z
-x,-y,-z
x,y,-z
-x,y,z
x,-y,z
loop_
_atom_site_type_symbol
_atom_site_label
_atom_site_fract_x
_atom_site_fract_y
_atom_site_fract_z
Si Si1 0.500000 0.951191 0.354340
Si Si2 0.803995 0.452014 0.500000
Si Si3 0.811930 0.758556 0.861124
Si Si4 0.178858 0.095317 0.357056
Si Si5 0.682950 0.331488 0.141214
Si Si6 0.690818 0.187733 0.637539
Si Si7 0.319458 0.500000 0.858608
Si Si8 0.190708 0.415965 0.251165
O O1 0.500000 0.946872 0.500000
O O2 0.665141 0.929614 0.310856
O O3 0.500000 0.000000 0.326352
O O4 0.749955 0.500000 0.500000
O O5 0.752635 0.427551 0.616515
O O6 0.000000 0.453495 0.500000
O O7 0.788690 0.709318 0.837101
O O8 0.731267 0.782791 0.750263
O O9 0.000000 0.768857 0.860541
O O10 0.752248 0.766028 0.000000
O O11 0.173240 0.087099 0.500000
O O12 0.216183 0.144311 0.344203
O O13 0.000000 0.085378 0.309149
O O14 0.500000 0.320206 0.171294
O O15 0.731679 0.373741 0.205553
O O16 0.692003 0.340437 0.000000
O O17 0.729108 0.202782 0.500000
O O18 0.500000 0.179340 0.638344
O O19 0.500000 0.500000 0.807011
O O20 0.231934 0.542314 0.821599
O O21 0.330816 0.500000 0.000000
O O22 0.000000 0.410195 0.249964
#
# Coordination Sequence:
#
# PCOD9383727 Si02
#       8
#     4   4   8   8   8   8   4   8
#     4   9  16  26  40  64 101 143 189 237 285 342
#     4   9  18  36  56  76 102 130 160 200 246 286
#     4  10  21  37  57  82 110 141 181 227 274 328
#     4   9  16  27  44  67  99 141 186 233 286 338
#     4  10  21  38  57  77 105 137 166 204 258 312
#     4  10  19  33  54  79 109 145 186 231 279 335
#     4  11  23  36  51  76 106 129 156 199 246 293
#     4  11  21  36  58  78  99 130 167 203 244 297
#
# _framework density 17.393303
#
# number of rings (size 3 to 8) (size 9 to 14) (size 15 to 20)
#    0.000    2.077    1.538    2.538    0.000    5.538 
#    1.385    3.462    0.000    0.000    0.000    0.000 
#    0.000    1.231    0.000    3.231    0.000    3.077 
#
# Total GULP energy -289743.399157 kJ/mol
# GULP energy per Si atom -5571.988445 kJ/mol
# Density = 1.735371 g / cm^3
# Si number density = 17.393303 Si / 1000 Ang^3
#
#
#
# Elastic Constant Matrix: (Units=GPa)
#
#
# Indices 1 2 3 4 5 6 
#
# 1 79.5023 34.2881 29.6647 0.0000 0.0000 0.0000
# 2 34.2881 74.9702 38.8658 0.0000 0.0000 0.0000
# 3 29.6647 38.8658 69.4004 0.0000 0.0000 0.0000
# 4 0.0000 0.0000 0.0000 17.8406 0.0000 0.0000
# 5 0.0000 0.0000 0.0000 0.0000 20.3774 0.0000
# 6 0.0000 0.0000 0.0000 0.0000 0.0000 5.9902
#
#
#
# Elastic Compliance Matrix: (Units=1/GPa)
#
#
# Indices 1 2 3 4 5 6 
#
# 1 0.016407 -0.005451 -0.003961 0.000000 0.000000 0.000000
# 2 -0.005451 0.020606 -0.009210 0.000000 0.000000 0.000000
# 3 -0.003961 -0.009210 0.021260 0.000000 0.000000 0.000000
# 4 0.000000 0.000000 0.000000 0.056052 0.000000 0.000000
# 5 0.000000 0.000000 0.000000 0.000000 0.049074 0.000000
# 6 0.000000 0.000000 0.000000 0.000000 0.000000 0.166940
#
#
# Mechanical properties :
#
#
# Convention : Reuss Voigt Hill
#
# Bulk Modulus (GPa) = 47.55008 47.72336 47.63672
# Shear Modulus (GPa) = 13.34788 16.91193 15.12991
#
# Velocity S-wave (km/s) = 2.77323 3.12159 2.95256
# Velocity P-wave (km/s) = 6.13612 6.36316 6.25067
#
# Compressibility (1/GPa) = 0.02103046
#
# Stress axis : x y z
#
# Youngs Moduli (GPa) = 60.95034 48.52928 47.03694
#
# Poissons Ratio (x) = 0.26451 0.18629
# Poissons Ratio (y) = 0.33221 0.43321
# Poissons Ratio (z) = 0.24140 0.44696
#
# Static dielectric constant tensor:
#      x y z
#    x 1.632080 0.000000 0.000000 
#    y 0.000000 1.831380 0.000000 
#    z 0.000000 0.000000 1.582300 
# 
# From -- ./inp_files/15598.got.cif
#   From: 2010.05.17/outbox.cif.g08.bks.cpg/sg47_8_cif.got.tgz:15598.got - 2010.06.03 20:15:42.
