data_PCOD9383096
_publ_section_title
;
Structure prediction by ZEFSAII (Michael W. Deem and Ramdas Pophale) SiO2 
 PCOD9383096
Probable space group: P M M M
;
_chemical_formula_sum "Si O2"
_cell_formula_units_Z 52
_cell_length_a 28.925980
_cell_length_b 12.126099
_cell_length_c 8.607171
_cell_angle_alpha 90.000000
_cell_angle_beta 90.000000
_cell_angle_gamma 90.000000
_cell_volume 3019.045250
_symmetry_space_group_name_H-M "P M M M"
_symmetry_group_IT_number 47
_symmetry_cell_setting 'orthorhombic'
loop_
_space_group_symop_operation_xyz
x,y,z
-x,-y,z
x,-y,-z
-x,y,-z
-x,-y,-z
x,y,-z
-x,y,z
x,-y,z
loop_
_atom_site_type_symbol
_atom_site_label
_atom_site_fract_x
_atom_site_fract_y
_atom_site_fract_z
Si Si1 0.336519 0.500000 0.683769
Si Si2 0.235214 0.500000 0.183409
Si Si3 0.098816 0.370825 0.814443
Si Si4 0.269224 0.872644 0.187511
Si Si5 0.360117 0.268558 0.811143
Si Si6 0.000000 0.366448 0.678073
Si Si7 0.551328 0.127193 0.810946
Si Si8 0.809774 0.278344 0.684472
O O1 0.326697 0.500000 0.500000
O O2 0.289243 0.500000 0.781675
O O3 0.361423 0.387892 0.733424
O O4 0.214236 0.390991 0.258322
O O5 0.225760 0.500000 0.000000
O O6 0.106205 0.500000 0.763670
O O7 0.047641 0.335711 0.761722
O O8 0.138069 0.292081 0.745496
O O9 0.101913 0.370262 0.000000
O O10 0.313223 0.797239 0.233818
O O11 0.221866 0.819645 0.249308
O O12 0.275105 0.000000 0.236320
O O13 0.267896 0.870487 0.000000
O O14 0.405220 0.199660 0.763358
O O15 0.359596 0.279260 0.000000
O O16 0.000000 0.500000 0.677884
O O17 0.000000 0.328646 0.500000
O O18 0.500000 0.164794 0.761497
O O19 0.557183 0.000000 0.762559
O O20 0.551445 0.127393 0.000000
O O21 0.809781 0.272745 0.500000
#
# Coordination Sequence:
#
# PCOD9383096 Si02
#       8
#     4   4   8   8   8   4   8   8
#     4  12  24  36  51  75 105 140 176 216 261 314
#     4  12  22  36  54  74 102 138 178 219 259 316
#     4  10  19  31  49  72 103 142 182 220 261 315
#     4  10  21  36  54  76 104 139 178 218 262 315
#     4  10  19  33  55  79 106 139 175 215 263 317
#     4   9  17  29  45  69 104 139 176 221 268 317
#     4   8  14  27  51  83 111 133 168 221 271 311
#     4  12  23  34  52  78 108 141 177 219 266 315
#
# _framework density 17.223987999999999
#
# number of rings (size 3 to 8) (size 9 to 14) (size 15 to 20)
#    0.000    1.769    2.308    4.385    0.000    3.692 
#    0.000    0.385    0.000    4.154    0.000    1.615 
#    0.000    4.308    0.000    0.000    0.000    0.000 
#
# Total GULP energy -290194.699174 kJ/mol
# GULP energy per Si atom -5580.667292 kJ/mol
# Density = 1.718479 g / cm^3
# Si number density = 17.223988 Si / 1000 Ang^3
#
#
#
# Elastic Constant Matrix: (Units=GPa)
#
#
# Indices 1 2 3 4 5 6 
#
# 1 144.2856 62.8317 25.3840 0.0000 0.0000 0.0000
# 2 62.8317 102.5212 27.2519 0.0000 0.0000 0.0000
# 3 25.3840 27.2519 40.8624 0.0000 0.0000 0.0000
# 4 0.0000 0.0000 0.0000 5.0637 0.0000 0.0000
# 5 0.0000 0.0000 0.0000 0.0000 -33.2610 0.0000
# 6 0.0000 0.0000 0.0000 0.0000 0.0000 3.9389
#
#
#
# Elastic Compliance Matrix: (Units=1/GPa)
#
#
# Indices 1 2 3 4 5 6 
#
# 1 0.009658 -0.005256 -0.002494 0.000000 0.000000 0.000000
# 2 -0.005256 0.014716 -0.006549 0.000000 0.000000 0.000000
# 3 -0.002494 -0.006549 0.030390 0.000000 0.000000 0.000000
# 4 0.000000 0.000000 0.000000 0.197485 0.000000 0.000000
# 5 0.000000 0.000000 0.000000 0.000000 -0.030065 0.000000
# 6 0.000000 0.000000 0.000000 0.000000 0.000000 0.253876
#
#
# Mechanical properties :
#
#
# Convention : Reuss Voigt Hill
#
# Bulk Modulus (GPa) = 38.21969 57.62271 47.92120
# Shear Modulus (GPa) = 9.73933 6.62843 8.18388
#
# Velocity S-wave (km/s) = 2.38050 1.96385 2.18215
# Velocity P-wave (km/s) = 5.45836 6.21851 5.85079
#
# Compressibility (1/GPa) = 0.02616453
#
# Stress axis : x y z
#
# Youngs Moduli (GPa) = 103.53600 67.95134 32.90578
#
# Poissons Ratio (x) = 0.35717 0.08208
# Poissons Ratio (y) = 0.54421 0.21551
# Poissons Ratio (z) = 0.25826 0.44504
#
# Static dielectric constant tensor:
#      x y z
#    x 1.596160 0.000000 0.000000 
#    y 0.000000 1.578590 0.000000 
#    z 0.000000 0.000000 1.577720 
# 
# From -- ./inp_files/13306.got.cif
#   From: 2010.05.17/outbox.cif.g08.bks.cpg/sg47_7_cif.got.tgz:13306.got - 2010.06.03 20:15:42.
