data_PCOD9383731
_publ_section_title
;
Structure prediction by ZEFSAII (Michael W. Deem and Ramdas Pophale) SiO2 
 PCOD9383731
Probable space group: P M M M
;
_chemical_formula_sum "Si O2"
_cell_formula_units_Z 64
_cell_length_a 8.925345
_cell_length_b 20.038535
_cell_length_c 21.263768
_cell_angle_alpha 90.000000
_cell_angle_beta 90.000000
_cell_angle_gamma 90.000000
_cell_volume 3803.042729
_symmetry_space_group_name_H-M "P M M M"
_symmetry_group_IT_number 47
_symmetry_cell_setting 'orthorhombic'
loop_
_space_group_symop_operation_xyz
x,y,z
-x,-y,z
x,-y,-z
-x,y,-z
-x,-y,-z
x,y,-z
-x,y,z
x,-y,z
loop_
_atom_site_type_symbol
_atom_site_label
_atom_site_fract_x
_atom_site_fract_y
_atom_site_fract_z
Si Si1 0.320344 0.712798 0.815238
Si Si2 0.319879 0.707476 0.430251
Si Si3 0.679106 0.424872 0.756990
Si Si4 0.820825 0.424921 0.380980
Si Si5 0.679209 0.924177 0.879427
Si Si6 0.821262 0.207410 0.929668
Si Si7 0.319559 0.795890 0.688701
Si Si8 0.177931 0.076108 0.258982
O O1 0.500000 0.717348 0.823284
O O2 0.279573 0.635692 0.802670
O O3 0.242961 0.745947 0.874900
O O4 0.282602 0.753295 0.751402
O O5 0.281383 0.732603 0.500000
O O6 0.500000 0.701760 0.426023
O O7 0.250931 0.634554 0.420092
O O8 0.271894 0.755383 0.373221
O O9 0.500000 0.418832 0.744792
O O10 0.707678 0.500000 0.780872
O O11 0.762691 0.417467 0.690626
O O12 0.778436 0.500000 0.401889
O O13 0.000000 0.419961 0.382422
O O14 0.500000 0.916302 0.878946
O O15 0.753139 0.866203 0.919804
O O16 0.740940 0.916497 0.808452
O O17 0.714336 0.000000 0.900095
O O18 0.000000 0.203568 0.923785
O O19 0.783487 0.231295 0.000000
O O20 0.500000 0.803451 0.687226
O O21 0.242934 0.867440 0.695903
O O22 0.000000 0.085018 0.250213
O O23 0.204433 0.000000 0.280605
#
# Coordination Sequence:
#
# PCOD9383731 Si02
#       8
#     8   8   8   8   8   8   8   8
#     4  10  19  33  55  81 105 133 172 218 262 304
#     4  10  21  37  55  75 103 140 179 217 259 310
#     4   9  17  32  55  80 106 135 171 216 262 308
#     4  10  20  32  48  74 108 143 177 213 255 305
#     4  10  20  34  53  77 105 138 174 211 254 304
#     4  11  24  38  52  74 105 141 178 214 255 306
#     4  10  19  33  54  81 106 132 172 217 261 306
#     4  10  20  33  52  79 107 136 172 212 256 306
#
# _framework density 16.828631000000001
#
# number of rings (size 3 to 8) (size 9 to 14) (size 15 to 20)
#    0.000    2.000    2.500    1.500    0.000    5.000 
#    0.000    2.500    0.000    0.750    0.000    5.250 
#    0.000    0.000    0.000    0.000    0.000    0.000 
#
# Total GULP energy -357160.600379 kJ/mol
# GULP energy per Si atom -5580.634381 kJ/mol
# Density = 1.679033 g / cm^3
# Si number density = 16.828631 Si / 1000 Ang^3
#
#
#
# Elastic Constant Matrix: (Units=GPa)
#
#
# Indices 1 2 3 4 5 6 
#
# 1 27.4673 36.9376 38.7861 0.0000 0.0000 0.0000
# 2 36.9376 107.0875 65.3185 0.0000 0.0000 0.0000
# 3 38.7861 65.3185 113.1051 0.0000 0.0000 0.0000
# 4 0.0000 0.0000 0.0000 22.0480 0.0000 0.0000
# 5 0.0000 0.0000 0.0000 0.0000 -808.8641 0.0000
# 6 0.0000 0.0000 0.0000 0.0000 0.0000 23.6110
#
#
#
# Elastic Compliance Matrix: (Units=1/GPa)
#
#
# Indices 1 2 3 4 5 6 
#
# 1 0.089932 -0.018849 -0.019954 0.000000 0.000000 0.000000
# 2 -0.018849 0.018367 -0.004143 0.000000 0.000000 0.000000
# 3 -0.019954 -0.004143 0.018077 0.000000 0.000000 0.000000
# 4 0.000000 0.000000 0.000000 0.045356 0.000000 0.000000
# 5 0.000000 0.000000 0.000000 0.000000 -0.001236 0.000000
# 6 0.000000 0.000000 0.000000 0.000000 0.000000 0.042353
#
#
# Mechanical properties :
#
#
# Convention : Reuss Voigt Hill
#
# Bulk Modulus (GPa) = 24.70191 58.86045 41.78118
# Shear Modulus (GPa) = 16.01360 -145.53318 -64.75979
#
# Velocity S-wave (km/s) = 3.08810 -9.30952 -6.21011
# Velocity P-wave (km/s) = 5.23694 8.97240 5.15163
#
# Compressibility (1/GPa) = 0.04048270
#
# Stress axis : x y z
#
# Youngs Moduli (GPa) = 11.11955 54.44576 55.31972
#
# Poissons Ratio (x) = 1.02625 1.10386
# Poissons Ratio (y) = 0.20959 0.22920
# Poissons Ratio (z) = 0.22188 0.22558
#
# Static dielectric constant tensor:
#      x y z
#    x 1.559730 0.000000 0.000000 
#    y 0.000000 1.578230 0.000000 
#    z 0.000000 0.000000 1.555260 
# 
# From -- ./inp_files/10042.got.cif
#   From: 2010.05.17/outbox.cif.g08.bks.cpg/sg47_6_cif.got.tgz:10042.got - 2010.06.03 20:15:42.
