data_PCOD9383892
_publ_section_title
;
Structure prediction by ZEFSAII (Michael W. Deem and Ramdas Pophale) SiO2 
 PCOD9383892
Probable space group: P M M M
;
_chemical_formula_sum "Si O2"
_cell_formula_units_Z 52
_cell_length_a 7.679563
_cell_length_b 15.289325
_cell_length_c 20.878322
_cell_angle_alpha 90.000000
_cell_angle_beta 90.000000
_cell_angle_gamma 90.000000
_cell_volume 2451.435163
_symmetry_space_group_name_H-M "P M M M"
_symmetry_group_IT_number 47
_symmetry_cell_setting 'orthorhombic'
loop_
_space_group_symop_operation_xyz
x,y,z
-x,-y,z
x,-y,-z
-x,y,-z
-x,-y,-z
x,y,-z
-x,y,z
x,-y,z
loop_
_atom_site_type_symbol
_atom_site_label
_atom_site_fract_x
_atom_site_fract_y
_atom_site_fract_z
Si Si1 0.500000 0.604641 0.431192
Si Si2 0.789657 0.781749 0.926970
Si Si3 0.291995 0.902789 0.811208
Si Si4 0.793942 0.593175 0.922165
Si Si5 0.287992 0.101740 0.573538
Si Si6 0.711668 0.217088 0.695477
Si Si7 0.199033 0.400782 0.333771
O O1 0.500000 0.500000 0.437984
O O2 0.500000 0.648383 0.500000
O O3 0.671492 0.623055 0.391254
O O4 0.740830 0.856910 0.878565
O O5 0.722661 0.687125 0.902143
O O6 0.000000 0.775867 0.929194
O O7 0.729575 0.795785 0.000000
O O8 0.500000 0.907914 0.802522
O O9 0.226714 0.844319 0.752884
O O10 0.219414 0.000000 0.809528
O O11 0.718772 0.500000 0.900011
O O12 0.000000 0.591602 0.906343
O O13 0.783263 0.594224 0.000000
O O14 0.233381 0.121521 0.500000
O O15 0.500000 0.102915 0.574060
O O16 0.232801 0.170858 0.628301
O O17 0.237877 0.000000 0.587890
O O18 0.500000 0.220824 0.694543
O O19 0.777722 0.315424 0.709432
O O20 0.243419 0.500000 0.310329
O O21 0.000000 0.404131 0.354926
#
# Coordination Sequence:
#
# PCOD9383892 Si02
#       7
#     4   8   8   8   8   8   8
#     4   9  18  34  56  82 115 157 200 241 289 343
#     4   9  18  33  54  80 108 140 183 235 287 339
#     4  10  22  38  55  77 108 147 188 230 282 351
#     4   7  10  20  42  71 100 129 162 205 260 319
#     4   8  14  26  48  79 108 134 173 226 281 336
#     4  10  19  34  56  81 109 148 188 233 289 351
#     4  10  21  37  57  83 116 155 199 246 295 349
#
# _framework density 21.212064000000002
#
# number of rings (size 3 to 8) (size 9 to 14) (size 15 to 20)
#    0.000    3.000    0.769    2.308    0.000    4.308 
#    0.000    3.846    0.000    4.615    0.000    3.231 
#    0.000    0.000    0.000    0.000    0.000    0.000 
#
# Total GULP energy -289755.593788 kJ/mol
# GULP energy per Si atom -5572.222957 kJ/mol
# Density = 2.116378 g / cm^3
# Si number density = 21.212064 Si / 1000 Ang^3
#
#
#
# Elastic Constant Matrix: (Units=GPa)
#
#
# Indices 1 2 3 4 5 6 
#
# 1 49.3414 18.6251 6.2507 0.0000 0.0000 0.0000
# 2 18.6251 198.1080 80.7029 0.0000 0.0000 0.0000
# 3 6.2507 80.7029 80.1379 0.0000 0.0000 0.0000
# 4 0.0000 0.0000 0.0000 5.9254 0.0000 0.0000
# 5 0.0000 0.0000 0.0000 0.0000 28.4151 0.0000
# 6 0.0000 0.0000 0.0000 0.0000 0.0000 5.2227
#
#
#
# Elastic Compliance Matrix: (Units=1/GPa)
#
#
# Indices 1 2 3 4 5 6 
#
# 1 0.021029 -0.002219 0.000595 0.000000 0.000000 0.000000
# 2 -0.002219 0.008793 -0.008682 0.000000 0.000000 0.000000
# 3 0.000595 -0.008682 0.021175 0.000000 0.000000 0.000000
# 4 0.000000 0.000000 0.000000 0.168765 0.000000 0.000000
# 5 0.000000 0.000000 0.000000 0.000000 0.035193 0.000000
# 6 0.000000 0.000000 0.000000 0.000000 0.000000 0.191470
#
#
# Mechanical properties :
#
#
# Convention : Reuss Voigt Hill
#
# Bulk Modulus (GPa) = 32.91151 59.86055 46.38603
# Shear Modulus (GPa) = 10.47851 22.71322 16.59586
#
# Velocity S-wave (km/s) = 2.22500 3.27581 2.80014
# Velocity P-wave (km/s) = 4.70637 6.52604 5.68943
#
# Compressibility (1/GPa) = 0.03038451
#
# Stress axis : x y z
#
# Youngs Moduli (GPa) = 47.55259 113.72407 47.22460
#
# Poissons Ratio (x) = 0.25239 -0.02808
# Poissons Ratio (y) = 0.10554 0.41001
# Poissons Ratio (z) = -0.02828 0.98736
#
# Static dielectric constant tensor:
#      x y z
#    x 1.800920 0.000000 0.000000 
#    y 0.000000 1.814330 0.000000 
#    z 0.000000 0.000000 1.772310 
# 
# From -- ./inp_files/29582.got.cif
#   From: 2010.05.17/outbox.cif.g08.bks.cpg/sg47_15_cif.got.tgz:29582.got - 2010.06.03 20:15:42.
