data_PCOD9383681
_publ_section_title
;
Structure prediction by ZEFSAII (Michael W. Deem and Ramdas Pophale) SiO2 
 PCOD9383681
Probable space group: P M M M
;
_chemical_formula_sum "Si O2"
_cell_formula_units_Z 44
_cell_length_a 8.289342
_cell_length_b 7.505521
_cell_length_c 31.963721
_cell_angle_alpha 90.000000
_cell_angle_beta 90.000000
_cell_angle_gamma 90.000000
_cell_volume 1988.649447
_symmetry_space_group_name_H-M "P M M M"
_symmetry_group_IT_number 47
_symmetry_cell_setting 'orthorhombic'
loop_
_space_group_symop_operation_xyz
x,y,z
-x,-y,z
x,-y,-z
-x,y,-z
-x,-y,-z
x,y,-z
-x,y,z
x,-y,z
loop_
_atom_site_type_symbol
_atom_site_label
_atom_site_fract_x
_atom_site_fract_y
_atom_site_fract_z
Si Si1 0.500000 0.782942 0.223670
Si Si2 0.500000 0.781737 0.679286
Si Si3 0.176919 0.217770 0.175512
Si Si4 0.687400 0.284690 0.453286
Si Si5 0.823792 0.791733 0.365227
Si Si6 0.320763 0.211874 0.909594
Si Si7 0.819761 0.288337 0.000000
O O1 0.500000 0.732896 0.272154
O O2 0.664936 0.724340 0.201020
O O3 0.500000 0.000000 0.221521
O O4 0.336420 0.717325 0.656853
O O5 0.500000 0.000000 0.676465
O O6 0.203626 0.274653 0.127214
O O7 0.000000 0.276350 0.190426
O O8 0.175819 0.000000 0.177151
O O9 0.736813 0.227743 0.500000
O O10 0.500000 0.230113 0.446978
O O11 0.690634 0.500000 0.452656
O O12 0.792955 0.219926 0.414873
O O13 0.000000 0.714403 0.354994
O O14 0.829386 0.000000 0.353549
O O15 0.500000 0.286168 0.903407
O O16 0.330155 0.000000 0.903626
O O17 0.266486 0.239148 0.956990
O O18 0.829667 0.500000 0.000000
O O19 0.000000 0.212071 0.000000
#
# Coordination Sequence:
#
# PCOD9383681 Si02
#       7
#     4   4   8   8   8   8   4
#     4   9  16  28  46  71 101 131 165 205 253 308
#     4   9  18  32  48  68 102 139 168 209 257 298
#     4   9  16  27  46  73 103 132 164 207 254 298
#     4   9  18  33  53  76 101 132 172 215 258 303
#     4  10  20  33  50  74 104 139 176 208 248 305
#     4  10  19  33  53  76 102 132 170 212 252 299
#     4  11  24  37  48  70 104 139 176 212 247 297
#
# _framework density 22.125568000000001
#
# number of rings (size 3 to 8) (size 9 to 14) (size 15 to 20)
#    0.000    2.455    1.818    1.636    0.000    4.727 
#    0.000    6.364    0.000    0.000    0.000    2.545 
#    0.000    0.000    0.000    0.000    0.000    0.000 
#
# Total GULP energy -245657.547749 kJ/mol
# GULP energy per Si atom -5583.126085 kJ/mol
# Density = 2.207521 g / cm^3
# Si number density = 22.125568 Si / 1000 Ang^3
#
#
#
# Elastic Constant Matrix: (Units=GPa)
#
#
# Indices 1 2 3 4 5 6 
#
# 1 213.7739 8.2249 93.9732 0.0000 0.0000 0.0000
# 2 8.2249 56.8781 -6.1340 0.0000 0.0000 0.0000
# 3 93.9732 -6.1340 130.0570 0.0000 0.0000 0.0000
# 4 0.0000 0.0000 0.0000 58.4438 0.0000 0.0000
# 5 0.0000 0.0000 0.0000 0.0000 4.1139 0.0000
# 6 0.0000 0.0000 0.0000 0.0000 0.0000 27.2653
#
#
#
# Elastic Compliance Matrix: (Units=1/GPa)
#
#
# Indices 1 2 3 4 5 6 
#
# 1 0.006991 -0.001564 -0.005125 0.000000 0.000000 0.000000
# 2 -0.001564 0.018021 0.001980 0.000000 0.000000 0.000000
# 3 -0.005125 0.001980 0.011485 0.000000 0.000000 0.000000
# 4 0.000000 0.000000 0.000000 0.017110 0.000000 0.000000
# 5 0.000000 0.000000 0.000000 0.000000 0.243080 0.000000
# 6 0.000000 0.000000 0.000000 0.000000 0.000000 0.036677
#
#
# Mechanical properties :
#
#
# Convention : Reuss Voigt Hill
#
# Bulk Modulus (GPa) = 36.92825 65.87081 51.39953
# Shear Modulus (GPa) = 14.21228 38.27427 26.24328
#
# Velocity S-wave (km/s) = 2.53720 4.16368 3.44773
# Velocity P-wave (km/s) = 5.03088 7.27674 6.25543
#
# Compressibility (1/GPa) = 0.02707954
#
# Stress axis : x y z
#
# Youngs Moduli (GPa) = 143.04229 55.49059 87.06666
#
# Poissons Ratio (x) = 0.08677 0.44622
# Poissons Ratio (y) = 0.22367 -0.17237
# Poissons Ratio (z) = 0.73310 -0.10986
#
# Static dielectric constant tensor:
#      x y z
#    x 1.826930 0.000000 0.000000 
#    y 0.000000 1.836100 0.000000 
#    z 0.000000 0.000000 1.813330 
# 
# From -- ./inp_files/33966.got.cif
#   From: 2010.05.17/outbox.cif.g08.bks.cpg/sg47_17_cif.got.tgz:33966.got - 2010.06.03 20:15:42.
