data_PCOD9383444
_publ_section_title
;
Structure prediction by ZEFSAII (Michael W. Deem and Ramdas Pophale) SiO2 
 PCOD9383444
Probable space group: P M M M
;
_chemical_formula_sum "Si O2"
_cell_formula_units_Z 52
_cell_length_a 18.341856
_cell_length_b 17.797451
_cell_length_c 7.342510
_cell_angle_alpha 90.000000
_cell_angle_beta 90.000000
_cell_angle_gamma 90.000000
_cell_volume 2396.876360
_symmetry_space_group_name_H-M "P M M M"
_symmetry_group_IT_number 47
_symmetry_cell_setting 'orthorhombic'
loop_
_space_group_symop_operation_xyz
x,y,z
-x,-y,z
x,-y,-z
-x,y,-z
-x,-y,-z
x,y,-z
-x,y,z
x,-y,z
loop_
_atom_site_type_symbol
_atom_site_label
_atom_site_fract_x
_atom_site_fract_y
_atom_site_fract_z
Si Si1 0.305654 0.000000 0.289582
Si Si2 0.500000 0.587044 0.723326
Si Si3 0.867558 0.000000 0.221991
Si Si4 0.703389 0.163005 0.278116
Si Si5 0.363693 0.316006 0.710127
Si Si6 0.777585 0.414091 0.779451
Si Si7 0.079800 0.325346 0.222511
Si Si8 0.123398 0.837141 0.787936
O O1 0.217350 0.000000 0.278943
O O2 0.325792 0.081775 0.214039
O O3 0.328639 0.000000 0.500000
O O4 0.500000 0.500000 0.782018
O O5 0.500000 0.584506 0.500000
O O6 0.570925 0.633488 0.785120
O O7 0.897751 0.919539 0.285319
O O8 0.869224 0.000000 0.000000
O O9 0.703775 0.162724 0.500000
O O10 0.657375 0.234421 0.212896
O O11 0.788437 0.170070 0.223524
O O12 0.383555 0.301937 0.500000
O O13 0.290398 0.364881 0.717387
O O14 0.771292 0.500000 0.719721
O O15 0.852837 0.376123 0.718708
O O16 0.776868 0.413303 0.000000
O O17 0.090821 0.239620 0.287163
O O18 0.000000 0.353153 0.275360
O O19 0.082305 0.324025 0.000000
O O20 0.102625 0.838717 0.000000
#
# Coordination Sequence:
#
# PCOD9383444 Si02
#       8
#     4   4   4   8   8   8   8   8
#     4   8  14  24  38  62  93 119 145 180 222 266
#     4   9  18  32  49  70  96 124 153 187 229 279
#     4   8  14  22  37  62  87 113 148 186 224 267
#     4   9  16  26  44  68  92 119 151 186 224 268
#     4  10  19  32  52  74  95 122 156 190 227 274
#     4  10  20  33  50  71  93 119 154 196 238 278
#     4   9  17  29  45  65  91 123 155 189 231 276
#     4   9  15  26  43  63  89 119 151 188 228 270
#
# _framework density 21.694904000000001
#
# number of rings (size 3 to 8) (size 9 to 14) (size 15 to 20)
#    0.000    2.846    1.538    0.462    0.000    1.231 
#    0.000    2.308    0.000    6.000    0.000    4.308 
#    0.000    6.154    0.000   12.692    0.000    9.385 
#
# Total GULP energy -290101.789909 kJ/mol
# GULP energy per Si atom -5578.880575 kJ/mol
# Density = 2.164553 g / cm^3
# Si number density = 21.694904 Si / 1000 Ang^3
#
#
#
# Elastic Constant Matrix: (Units=GPa)
#
#
# Indices 1 2 3 4 5 6 
#
# 1 110.1009 64.0275 -9.9865 0.0000 0.0000 0.0000
# 2 64.0275 176.9853 -4.8507 0.0000 0.0000 0.0000
# 3 -9.9865 -4.8507 83.4208 0.0000 0.0000 0.0000
# 4 0.0000 0.0000 0.0000 3.1181 0.0000 0.0000
# 5 0.0000 0.0000 0.0000 0.0000 3.7693 0.0000
# 6 0.0000 0.0000 0.0000 0.0000 0.0000 -17.2358
#
#
#
# Elastic Compliance Matrix: (Units=1/GPa)
#
#
# Indices 1 2 3 4 5 6 
#
# 1 0.011611 -0.004169 0.001148 0.000000 0.000000 0.000000
# 2 -0.004169 0.007156 -0.000083 0.000000 0.000000 0.000000
# 3 0.001148 -0.000083 0.012120 0.000000 0.000000 0.000000
# 4 0.000000 0.000000 0.000000 0.320712 0.000000 0.000000
# 5 0.000000 0.000000 0.000000 0.000000 0.265300 0.000000
# 6 0.000000 0.000000 0.000000 0.000000 0.000000 -0.058019
#
#
# Mechanical properties :
#
#
# Convention : Reuss Voigt Hill
#
# Bulk Modulus (GPa) = 40.52145 52.09862 46.31003
# Shear Modulus (GPa) = 8.72120 19.35142 14.03631
#
# Velocity S-wave (km/s) = 2.00715 2.98984 2.54635
# Velocity P-wave (km/s) = 4.90815 5.99877 5.48066
#
# Compressibility (1/GPa) = 0.02467829
#
# Stress axis : x y z
#
# Youngs Moduli (GPa) = 86.12429 139.74000 82.50842
#
# Poissons Ratio (x) = 0.58259 -0.09468
# Poissons Ratio (y) = 0.35906 0.00685
# Poissons Ratio (z) = -0.09883 0.01160
#
# Static dielectric constant tensor:
#      x y z
#    x 1.733660 0.000000 0.000000 
#    y 0.000000 1.810120 0.000000 
#    z 0.000000 0.000000 1.864750 
# 
# From -- ./inp_files/9617.got.cif
#   From: 2010.05.17/outbox.cif.g08.bks.cpg/sg47_5_cif.got.tgz:9617.got - 2010.06.03 20:15:42.
