data_PCOD9383445
_publ_section_title
;
Structure prediction by ZEFSAII (Michael W. Deem and Ramdas Pophale) SiO2 
 PCOD9383445
Probable space group: P M M M
;
_chemical_formula_sum "Si O2"
_cell_formula_units_Z 56
_cell_length_a 14.314680
_cell_length_b 7.294951
_cell_length_c 22.214747
_cell_angle_alpha 90.000000
_cell_angle_beta 90.000000
_cell_angle_gamma 90.000000
_cell_volume 2319.772494
_symmetry_space_group_name_H-M "P M M M"
_symmetry_group_IT_number 47
_symmetry_cell_setting 'orthorhombic'
loop_
_space_group_symop_operation_xyz
x,y,z
-x,-y,z
x,-y,-z
-x,y,-z
-x,-y,-z
x,y,-z
-x,y,z
x,-y,z
loop_
_atom_site_type_symbol
_atom_site_label
_atom_site_fract_x
_atom_site_fract_y
_atom_site_fract_z
Si Si1 0.807381 0.219899 0.628815
Si Si2 0.394537 0.224037 0.633329
Si Si3 0.101822 0.284340 0.749571
Si Si4 0.895032 0.778923 0.930738
Si Si5 0.389435 0.799060 0.500000
Si Si6 0.255882 0.296546 0.164876
Si Si7 0.890451 0.223130 0.500000
Si Si8 0.390808 0.277096 0.933537
O O1 0.706846 0.279323 0.657961
O O2 0.884144 0.267205 0.678338
O O3 0.837727 0.282163 0.561672
O O4 0.802053 0.000000 0.624561
O O5 0.500000 0.283216 0.652210
O O6 0.376014 0.286422 0.564404
O O7 0.399148 0.000000 0.633715
O O8 0.101546 0.500000 0.764914
O O9 0.193484 0.206427 0.782940
O O10 0.000000 0.209104 0.766988
O O11 0.820090 0.691816 0.888171
O O12 0.000000 0.728010 0.913294
O O13 0.887422 0.000000 0.926573
O O14 0.881387 0.728324 0.000000
O O15 0.500000 0.826862 0.500000
O O16 0.341650 0.000000 0.500000
O O17 0.286395 0.500000 0.185300
O O18 0.340550 0.209684 0.127118
O O19 0.000000 0.278735 0.500000
O O20 0.890775 0.000000 0.500000
O O21 0.500000 0.231916 0.931849
O O22 0.382856 0.500000 0.932721
O O23 0.354210 0.217784 0.000000
#
# Coordination Sequence:
#
# PCOD9383445 Si02
#       8
#     8   8   8   8   4   8   4   8
#     4  10  19  32  53  77  98 126 165 206 253 311
#     4   8  13  22  39  66  97 122 146 183 231 282
#     4  10  22  38  51  67  98 134 166 208 259 304
#     4   9  18  31  46  69 103 135 159 192 243 294
#     4   7   9  15  31  58  92 123 143 166 214 278
#     4  10  19  32  52  74  95 127 172 212 242 280
#     4   9  17  29  47  74 102 121 152 213 269 302
#     4   8  14  26  47  77 108 132 159 202 251 291
#
# _framework density 24.140297
#
# number of rings (size 3 to 8) (size 9 to 14) (size 15 to 20)
#    0.000    3.000    0.000    3.429    0.000    4.857 
#    0.000    1.786    0.000    3.000    0.000    2.000 
#    0.000    2.857    0.000    0.000    0.000    0.000 
#
# Total GULP energy -312047.292862 kJ/mol
# GULP energy per Si atom -5572.273087 kJ/mol
# Density = 2.408535 g / cm^3
# Si number density = 24.140297 Si / 1000 Ang^3
#
#
#
# Elastic Constant Matrix: (Units=GPa)
#
#
# Indices 1 2 3 4 5 6 
#
# 1 147.8063 1.5614 49.6927 0.0000 0.0000 0.0000
# 2 1.5614 99.1986 -1.9324 0.0000 0.0000 0.0000
# 3 49.6927 -1.9324 103.3612 0.0000 0.0000 0.0000
# 4 0.0000 0.0000 0.0000 2.6295 0.0000 0.0000
# 5 0.0000 0.0000 0.0000 0.0000 55.0650 0.0000
# 6 0.0000 0.0000 0.0000 0.0000 0.0000 2.4880
#
#
#
# Elastic Compliance Matrix: (Units=1/GPa)
#
#
# Indices 1 2 3 4 5 6 
#
# 1 0.008074 -0.000203 -0.003886 0.000000 0.000000 0.000000
# 2 -0.000203 0.010090 0.000286 0.000000 0.000000 0.000000
# 3 -0.003886 0.000286 0.011548 0.000000 0.000000 0.000000
# 4 0.000000 0.000000 0.000000 0.380294 0.000000 0.000000
# 5 0.000000 0.000000 0.000000 0.000000 0.018160 0.000000
# 6 0.000000 0.000000 0.000000 0.000000 0.000000 0.401925
#
#
# Mechanical properties :
#
#
# Convention : Reuss Voigt Hill
#
# Bulk Modulus (GPa) = 45.23366 49.88994 47.56180
# Shear Modulus (GPa) = 5.91671 32.10614 19.01142
#
# Velocity S-wave (km/s) = 1.56725 3.65085 2.80936
# Velocity P-wave (km/s) = 4.69612 6.20348 5.50167
#
# Compressibility (1/GPa) = 0.02210743
#
# Stress axis : x y z
#
# Youngs Moduli (GPa) = 123.85312 99.11241 86.59354
#
# Poissons Ratio (x) = 0.02010 0.33646
# Poissons Ratio (y) = 0.02511 -0.02478
# Poissons Ratio (z) = 0.48124 -0.02836
#
# Static dielectric constant tensor:
#      x y z
#    x 1.975670 0.000000 0.000000 
#    y 0.000000 2.016080 0.000000 
#    z 0.000000 0.000000 1.988800 
# 
# From -- ./inp_files/31024.got.cif
#   From: 2010.05.17/outbox.cif.g08.bks.cpg/sg47_16_cif.got.tgz:31024.got - 2010.06.03 20:15:42.
