data_PCOD9383798
_publ_section_title
;
Structure prediction by ZEFSAII (Michael W. Deem and Ramdas Pophale) SiO2 
 PCOD9383798
Probable space group: P M M M
;
_chemical_formula_sum "Si O2"
_cell_formula_units_Z 48
_cell_length_a 14.356564
_cell_length_b 8.816232
_cell_length_c 21.019282
_cell_angle_alpha 90.000000
_cell_angle_beta 90.000000
_cell_angle_gamma 90.000000
_cell_volume 2660.427316
_symmetry_space_group_name_H-M "P M M M"
_symmetry_group_IT_number 47
_symmetry_cell_setting 'orthorhombic'
loop_
_space_group_symop_operation_xyz
x,y,z
-x,-y,z
x,-y,-z
-x,y,-z
-x,-y,-z
x,y,-z
-x,y,z
x,-y,z
loop_
_atom_site_type_symbol
_atom_site_label
_atom_site_fract_x
_atom_site_fract_y
_atom_site_fract_z
Si Si1 0.787914 0.819945 0.121653
Si Si2 0.606987 0.180603 0.685114
Si Si3 0.892620 0.685107 0.500000
Si Si4 0.109083 0.317979 0.000000
Si Si5 0.216298 0.682592 0.626723
Si Si6 0.607397 0.681118 0.825484
Si Si7 0.110286 0.319278 0.757357
O O1 0.683176 0.757652 0.129501
O O2 0.841280 0.770417 0.185845
O O3 0.787398 0.000000 0.115467
O O4 0.840412 0.746062 0.062248
O O5 0.500000 0.213032 0.666403
O O6 0.683235 0.242930 0.636611
O O7 0.623059 0.259012 0.753626
O O8 0.616970 0.000000 0.692830
O O9 0.894643 0.500000 0.500000
O O10 0.837877 0.731785 0.436541
O O11 0.000000 0.735944 0.500000
O O12 0.114358 0.500000 0.000000
O O13 0.000000 0.274668 0.000000
O O14 0.226573 0.500000 0.624524
O O15 0.155918 0.718965 0.689563
O O16 0.500000 0.716244 0.842084
O O17 0.619538 0.500000 0.825943
O O18 0.124810 0.500000 0.768185
O O19 0.000000 0.291529 0.756088
#
# Coordination Sequence:
#
# PCOD9383798 Si02
#       7
#     8   8   4   4   8   8   8
#     4  12  24  38  59  88 121 154 190 237 291 345
#     4  10  20  34  54  82 115 149 186 234 293 349
#     4   9  18  34  56  83 114 150 193 241 292 343
#     4  11  25  45  66  85 114 159 203 242 286 339
#     4  10  19  33  56  83 112 149 193 240 290 343
#     4  10  20  36  60  88 117 151 192 237 286 343
#     4  10  20  34  54  81 112 148 193 241 287 341
#
# _framework density 18.042214000000001
#
# number of rings (size 3 to 8) (size 9 to 14) (size 15 to 20)
#    0.000    1.667    1.667    3.750    0.000    7.000 
#    0.000    1.250    0.000    7.000    0.000    0.000 
#    0.000    0.000    0.000    0.000    0.000    0.000 
#
# Total GULP energy -268193.381943 kJ/mol
# GULP energy per Si atom -5587.362124 kJ/mol
# Density = 1.800115 g / cm^3
# Si number density = 18.042214 Si / 1000 Ang^3
#
#
#
# Elastic Constant Matrix: (Units=GPa)
#
#
# Indices 1 2 3 4 5 6 
#
# 1 167.6199 66.5930 89.9678 0.0000 0.0000 0.0000
# 2 66.5930 63.0760 56.2341 0.0000 0.0000 0.0000
# 3 89.9678 56.2341 134.3748 0.0000 0.0000 0.0000
# 4 0.0000 0.0000 0.0000 -42.5344 0.0000 0.0000
# 5 0.0000 0.0000 0.0000 0.0000 33.8574 0.0000
# 6 0.0000 0.0000 0.0000 0.0000 0.0000 15.9242
#
#
#
# Elastic Compliance Matrix: (Units=1/GPa)
#
#
# Indices 1 2 3 4 5 6 
#
# 1 0.011601 -0.008491 -0.004214 0.000000 0.000000 0.000000
# 2 -0.008491 0.031504 -0.007499 0.000000 0.000000 0.000000
# 3 -0.004214 -0.007499 0.013401 0.000000 0.000000 0.000000
# 4 0.000000 0.000000 0.000000 -0.023510 0.000000 0.000000
# 5 0.000000 0.000000 0.000000 0.000000 0.029536 0.000000
# 6 0.000000 0.000000 0.000000 0.000000 0.000000 0.062797
#
#
# Mechanical properties :
#
#
# Convention : Reuss Voigt Hill
#
# Bulk Modulus (GPa) = 62.11715 87.85116 74.98415
# Shear Modulus (GPa) = 29.22217 11.60117 20.41167
#
# Velocity S-wave (km/s) = 4.02886 2.53850 3.36717
# Velocity P-wave (km/s) = 7.49305 7.57560 7.53444
#
# Compressibility (1/GPa) = 0.01609861
#
# Stress axis : x y z
#
# Youngs Moduli (GPa) = 86.19987 31.74195 74.61943
#
# Poissons Ratio (x) = 0.26952 0.31443
# Poissons Ratio (y) = 0.73193 0.55957
# Poissons Ratio (z) = 0.36322 0.23803
#
# Static dielectric constant tensor:
#      x y z
#    x 1.623100 0.000000 0.000000 
#    y 0.000000 1.602270 0.000000 
#    z 0.000000 0.000000 1.584600 
# 
# From -- ./inp_files/9204.got.cif
#   From: 2010.05.17/outbox.cif.g08.bks.cpg/sg47_5_cif.got.tgz:9204.got - 2010.06.03 20:15:42.
