data_PCOD9383151
_publ_section_title
;
Structure prediction by ZEFSAII (Michael W. Deem and Ramdas Pophale) SiO2 
 PCOD9383151
Probable space group: P M M M
;
_chemical_formula_sum "Si O2"
_cell_formula_units_Z 56
_cell_length_a 21.260951
_cell_length_b 15.995683
_cell_length_c 7.438225
_cell_angle_alpha 90.000000
_cell_angle_beta 90.000000
_cell_angle_gamma 90.000000
_cell_volume 2529.617090
_symmetry_space_group_name_H-M "P M M M"
_symmetry_group_IT_number 47
_symmetry_cell_setting 'orthorhombic'
loop_
_space_group_symop_operation_xyz
x,y,z
-x,-y,z
x,-y,-z
-x,y,-z
-x,-y,-z
x,y,-z
-x,y,z
x,-y,z
loop_
_atom_site_type_symbol
_atom_site_label
_atom_site_fract_x
_atom_site_fract_y
_atom_site_fract_z
Si Si1 0.814523 0.405602 0.706990
Si Si2 0.931087 0.882153 0.713629
Si Si3 0.327158 0.592928 0.796743
Si Si4 0.066732 0.316665 0.285351
Si Si5 0.211168 0.091529 0.716030
Si Si6 0.571067 0.095401 0.219115
Si Si7 0.321578 0.779353 0.215221
O O1 0.801334 0.378945 0.500000
O O2 0.838787 0.500000 0.701137
O O3 0.748573 0.406208 0.804126
O O4 0.868985 0.351088 0.790299
O O5 0.931207 0.902267 0.500000
O O6 0.932628 0.782426 0.731499
O O7 0.861599 0.905893 0.782362
O O8 0.000000 0.910673 0.783823
O O9 0.343377 0.500000 0.717353
O O10 0.336598 0.685500 0.713856
O O11 0.353117 0.592722 0.000000
O O12 0.068199 0.335900 0.500000
O O13 0.000000 0.348901 0.214963
O O14 0.207587 0.091276 0.500000
O O15 0.254875 0.172057 0.757451
O O16 0.238000 0.000000 0.773206
O O17 0.500000 0.118795 0.272283
O O18 0.624885 0.157502 0.281748
O O19 0.582719 0.000000 0.275889
O O20 0.572423 0.095839 0.000000
O O21 0.326401 0.770985 0.000000
#
# Coordination Sequence:
#
# PCOD9383151 Si02
#       7
#     8   8   8   8   8   8   8
#     4   9  16  25  39  59  81 107 141 180 223 273
#     4   8  14  25  40  57  80 114 153 187 221 267
#     4   9  18  31  45  63  89 119 149 183 225 270
#     4   8  13  21  34  53  76 101 132 175 224 267
#     4  10  20  31  45  69  98 124 152 192 239 279
#     4   8  14  26  46  72  98 122 152 189 223 261
#     4  10  19  31  50  72  94 124 158 191 229 274
#
# _framework density 22.137739
#
# number of rings (size 3 to 8) (size 9 to 14) (size 15 to 20)
#    0.000    3.143    0.000    2.571    0.000    3.143 
#    0.000    2.857    0.000    1.714    0.000   12.000 
#    0.000    0.000    0.000    4.857    0.000    5.286 
#
# Total GULP energy -311774.115927 kJ/mol
# GULP energy per Si atom -5567.394927 kJ/mol
# Density = 2.208735 g / cm^3
# Si number density = 22.137739 Si / 1000 Ang^3
#
#
#
# Elastic Constant Matrix: (Units=GPa)
#
#
# Indices 1 2 3 4 5 6 
#
# 1 98.1232 67.3341 -0.9456 0.0000 0.0000 0.0000
# 2 67.3341 122.6727 7.3733 0.0000 0.0000 0.0000
# 3 -0.9456 7.3733 70.9136 0.0000 0.0000 0.0000
# 4 0.0000 0.0000 0.0000 2.7535 0.0000 0.0000
# 5 0.0000 0.0000 0.0000 0.0000 1.6939 0.0000
# 6 0.0000 0.0000 0.0000 0.0000 0.0000 32.9567
#
#
#
# Elastic Compliance Matrix: (Units=1/GPa)
#
#
# Indices 1 2 3 4 5 6 
#
# 1 0.016445 -0.009096 0.001165 0.000000 0.000000 0.000000
# 2 -0.009096 0.013235 -0.001497 0.000000 0.000000 0.000000
# 3 0.001165 -0.001497 0.014273 0.000000 0.000000 0.000000
# 4 0.000000 0.000000 0.000000 0.363174 0.000000 0.000000
# 5 0.000000 0.000000 0.000000 0.000000 0.590363 0.000000
# 6 0.000000 0.000000 0.000000 0.000000 0.000000 0.030343
#
#
# Mechanical properties :
#
#
# Convention : Reuss Voigt Hill
#
# Bulk Modulus (GPa) = 39.84878 48.80369 44.32624
# Shear Modulus (GPa) = 4.73909 22.01066 13.37487
#
# Velocity S-wave (km/s) = 1.46471 3.15661 2.46065
# Velocity P-wave (km/s) = 4.57165 5.94802 5.30466
#
# Compressibility (1/GPa) = 0.02509487
#
# Stress axis : x y z
#
# Youngs Moduli (GPa) = 60.81037 75.55913 70.06291
#
# Poissons Ratio (x) = 0.68731 -0.08163
# Poissons Ratio (y) = 0.55315 0.10491
# Poissons Ratio (z) = -0.07085 0.11314
#
# Static dielectric constant tensor:
#      x y z
#    x 1.804030 0.000000 0.000000 
#    y 0.000000 1.851070 0.000000 
#    z 0.000000 0.000000 1.921410 
# 
# From -- ./inp_files/11200.got.cif
#   From: 2010.05.17/outbox.cif.g08.bks.cpg/sg47_6_cif.got.tgz:11200.got - 2010.06.03 20:15:42.
