data_PCOD9383078
_publ_section_title
;
Structure prediction by ZEFSAII (Michael W. Deem and Ramdas Pophale) SiO2 
 PCOD9383078
Probable space group: P M M M
;
_chemical_formula_sum "Si O2"
_cell_formula_units_Z 52
_cell_length_a 21.077700
_cell_length_b 8.763109
_cell_length_c 16.850181
_cell_angle_alpha 90.000000
_cell_angle_beta 90.000000
_cell_angle_gamma 90.000000
_cell_volume 3112.332608
_symmetry_space_group_name_H-M "P M M M"
_symmetry_group_IT_number 47
_symmetry_cell_setting 'orthorhombic'
loop_
_space_group_symop_operation_xyz
x,y,z
-x,-y,z
x,-y,-z
-x,y,-z
-x,-y,-z
x,y,-z
-x,y,z
x,-y,z
loop_
_atom_site_type_symbol
_atom_site_label
_atom_site_fract_x
_atom_site_fract_y
_atom_site_fract_z
Si Si1 0.204263 0.320053 0.500000
Si Si2 0.868045 0.818047 0.350097
Si Si3 0.357729 0.818012 0.332861
Si Si4 0.571602 0.816828 0.171470
Si Si5 0.306820 0.316202 0.911137
Si Si6 0.000000 0.316743 0.405969
Si Si7 0.764492 0.316718 0.753494
Si Si8 0.356700 0.321370 0.500000
O O1 0.187781 0.500000 0.500000
O O2 0.174034 0.240905 0.423792
O O3 0.279954 0.306404 0.500000
O O4 0.937382 0.748873 0.364495
O O5 0.830328 0.756205 0.273827
O O6 0.870862 0.000000 0.349569
O O7 0.407323 0.784684 0.262236
O O8 0.291990 0.740321 0.304530
O O9 0.378401 0.756086 0.418297
O O10 0.348118 0.000000 0.336962
O O11 0.500000 0.764480 0.156307
O O12 0.624377 0.743713 0.115293
O O13 0.573845 0.000000 0.161720
O O14 0.308535 0.500000 0.910703
O O15 0.257982 0.270630 0.841745
O O16 0.290916 0.264238 0.000000
O O17 0.000000 0.500000 0.402162
O O18 0.000000 0.273845 0.500000
O O19 0.768192 0.500000 0.747906
O O20 0.372489 0.500000 0.500000
#
# Coordination Sequence:
#
# PCOD9383078 Si02
#       8
#     4   8   8   8   8   4   8   4
#     4  11  21  32  48  70  99 136 173 209 254 301
#     4  12  23  34  51  75 104 137 176 215 251 294
#     4  10  19  31  49  70  93 125 168 213 253 296
#     4   9  19  35  52  72 100 133 166 202 250 307
#     4   9  19  35  55  80 106 131 163 204 249 301
#     4  11  23  37  53  71 103 146 183 216 250 293
#     4  10  19  33  52  73 101 133 165 205 254 303
#     4  11  21  31  47  69  96 127 166 213 259 301
#
# _framework density 16.707726000000001
#
# number of rings (size 3 to 8) (size 9 to 14) (size 15 to 20)
#    0.000    1.769    2.308    3.000    0.000    3.077 
#    0.000    1.923    0.000    2.308    0.000    0.538 
#    0.000    4.308    0.000    0.000    0.000    0.000 
#
# Total GULP energy -290303.488022 kJ/mol
# GULP energy per Si atom -5582.759385 kJ/mol
# Density = 1.666970 g / cm^3
# Si number density = 16.707726 Si / 1000 Ang^3
#
#
#
# Elastic Constant Matrix: (Units=GPa)
#
#
# Indices 1 2 3 4 5 6 
#
# 1 88.3312 30.0911 41.4658 0.0000 0.0000 0.0000
# 2 30.0911 60.4848 29.4584 0.0000 0.0000 0.0000
# 3 41.4658 29.4584 122.8768 0.0000 0.0000 0.0000
# 4 0.0000 0.0000 0.0000 19.8756 0.0000 0.0000
# 5 0.0000 0.0000 0.0000 0.0000 14.1448 0.0000
# 6 0.0000 0.0000 0.0000 0.0000 0.0000 24.2919
#
#
#
# Elastic Compliance Matrix: (Units=1/GPa)
#
#
# Indices 1 2 3 4 5 6 
#
# 1 0.014984 -0.005652 -0.003702 0.000000 0.000000 0.000000
# 2 -0.005652 0.020850 -0.003091 0.000000 0.000000 0.000000
# 3 -0.003702 -0.003091 0.010128 0.000000 0.000000 0.000000
# 4 0.000000 0.000000 0.000000 0.050313 0.000000 0.000000
# 5 0.000000 0.000000 0.000000 0.000000 0.070697 0.000000
# 6 0.000000 0.000000 0.000000 0.000000 0.000000 0.041166
#
#
# Mechanical properties :
#
#
# Convention : Reuss Voigt Hill
#
# Bulk Modulus (GPa) = 47.45292 52.63593 50.04443
# Shear Modulus (GPa) = 20.82871 23.04096 21.93484
#
# Velocity S-wave (km/s) = 3.53463 3.71760 3.62727
# Velocity P-wave (km/s) = 6.71726 7.07105 6.89642
#
# Compressibility (1/GPa) = 0.02107352
#
# Stress axis : x y z
#
# Youngs Moduli (GPa) = 66.73792 47.96053 98.73150
#
# Poissons Ratio (x) = 0.27106 0.36546
# Poissons Ratio (y) = 0.37719 0.30522
# Poissons Ratio (z) = 0.24703 0.14827
#
# Static dielectric constant tensor:
#      x y z
#    x 1.549430 0.000000 0.000000 
#    y 0.000000 1.559350 0.000000 
#    z 0.000000 0.000000 1.584350 
# 
# From -- ./inp_files/25057.got.cif
#   From: 2010.05.17/outbox.cif.g08.bks.cpg/sg47_13_cif.got.tgz:25057.got - 2010.06.03 20:15:42.
