data_PCOD9383858
_publ_section_title
;
Structure prediction by ZEFSAII (Michael W. Deem and Ramdas Pophale) SiO2 
 PCOD9383858
Probable space group: P M M M
;
_chemical_formula_sum "Si O2"
_cell_formula_units_Z 52
_cell_length_a 28.504214
_cell_length_b 9.736334
_cell_length_c 10.890914
_cell_angle_alpha 90.000000
_cell_angle_beta 90.000000
_cell_angle_gamma 90.000000
_cell_volume 3022.517766
_symmetry_space_group_name_H-M "P M M M"
_symmetry_group_IT_number 47
_symmetry_cell_setting 'orthorhombic'
loop_
_space_group_symop_operation_xyz
x,y,z
-x,-y,z
x,-y,-z
-x,y,-z
-x,-y,-z
x,y,-z
-x,y,z
x,-y,z
loop_
_atom_site_type_symbol
_atom_site_label
_atom_site_fract_x
_atom_site_fract_y
_atom_site_fract_z
Si Si1 0.703642 0.658762 0.647504
Si Si2 0.055740 0.838463 0.500000
Si Si3 0.054344 0.500000 0.145568
Si Si4 0.443423 0.338933 0.857176
Si Si5 0.105314 0.754291 0.742567
Si Si6 0.608992 0.833413 0.353045
Si Si7 0.205926 0.836556 0.351290
Si Si8 0.948084 0.000000 0.142638
O O1 0.707104 0.648015 0.500000
O O2 0.700416 0.500000 0.693903
O O3 0.658274 0.754349 0.669353
O O4 0.749564 0.744265 0.686806
O O5 0.078134 0.765790 0.615087
O O6 0.000000 0.831336 0.500000
O O7 0.069695 0.000000 0.500000
O O8 0.086128 0.376345 0.189819
O O9 0.000000 0.500000 0.193313
O O10 0.050348 0.500000 0.000000
O O11 0.500000 0.333040 0.854385
O O12 0.430039 0.500000 0.834413
O O13 0.424136 0.238927 0.749682
O O14 0.429291 0.305547 0.000000
O O15 0.159684 0.778313 0.714481
O O16 0.083292 0.874522 0.820898
O O17 0.596720 0.811173 0.500000
O O18 0.611724 0.000000 0.336876
O O19 0.200094 0.825225 0.500000
O O20 0.211857 0.000000 0.325699
O O21 0.000000 0.000000 0.204292
O O22 0.955192 0.000000 0.000000
#
# Coordination Sequence:
#
# PCOD9383858 Si02
#       8
#     8   4   4   8   8   8   8   4
#     4   9  18  32  54  81 112 148 188 230 275 334
#     4  11  20  33  55  85 117 139 165 213 274 333
#     4  11  26  45  59  75 105 146 189 227 264 315
#     4   9  19  36  57  82 116 160 206 248 294 349
#     4  12  22  37  58  83 111 142 175 220 275 329
#     4  10  20  34  54  85 120 155 197 245 295 341
#     4  10  19  34  54  83 116 143 171 214 278 344
#     4  11  22  37  59  81 101 140 193 227 256 313
#
# _framework density 17.204198999999999
#
# number of rings (size 3 to 8) (size 9 to 14) (size 15 to 20)
#    0.000    1.769    2.308    3.231    1.077    5.231 
#    0.000    3.077    0.000    1.846    0.000    0.000 
#    0.000    0.000    0.000    0.000    0.000    0.000 
#
# Total GULP energy -289538.040980 kJ/mol
# GULP energy per Si atom -5568.039250 kJ/mol
# Density = 1.716504 g / cm^3
# Si number density = 17.204199 Si / 1000 Ang^3
#
#
#
# Elastic Constant Matrix: (Units=GPa)
#
#
# Indices 1 2 3 4 5 6 
#
# 1 100.2369 62.8200 45.8052 0.0000 0.0000 0.0000
# 2 62.8200 160.5119 56.2890 0.0000 0.0000 0.0000
# 3 45.8052 56.2890 88.9675 0.0000 0.0000 0.0000
# 4 0.0000 0.0000 0.0000 30.4904 0.0000 0.0000
# 5 0.0000 0.0000 0.0000 0.0000 27.1155 0.0000
# 6 0.0000 0.0000 0.0000 0.0000 0.0000 30.6800
#
#
#
# Elastic Compliance Matrix: (Units=1/GPa)
#
#
# Indices 1 2 3 4 5 6 
#
# 1 0.014818 -0.004015 -0.005089 0.000000 0.000000 0.000000
# 2 -0.004015 0.009094 -0.003687 0.000000 0.000000 0.000000
# 3 -0.005089 -0.003687 0.016193 0.000000 0.000000 0.000000
# 4 0.000000 0.000000 0.000000 0.032797 0.000000 0.000000
# 5 0.000000 0.000000 0.000000 0.000000 0.036879 0.000000
# 6 0.000000 0.000000 0.000000 0.000000 0.000000 0.032595
#
#
# Mechanical properties :
#
#
# Convention : Reuss Voigt Hill
#
# Bulk Modulus (GPa) = 68.85229 75.50497 72.17863
# Shear Modulus (GPa) = 28.93544 29.97732 29.45638
#
# Velocity S-wave (km/s) = 4.10553 4.17879 4.14232
# Velocity P-wave (km/s) = 7.91083 8.20157 8.05751
#
# Compressibility (1/GPa) = 0.01452384
#
# Stress axis : x y z
#
# Youngs Moduli (GPa) = 67.48564 109.95963 61.75586
#
# Poissons Ratio (x) = 0.44146 0.31428
# Poissons Ratio (y) = 0.27094 0.22769
# Poissons Ratio (z) = 0.34343 0.40541
#
# Static dielectric constant tensor:
#      x y z
#    x 1.568850 0.000000 0.000000 
#    y 0.000000 1.548910 0.000000 
#    z 0.000000 0.000000 1.567970 
# 
# From -- ./inp_files/19828.got.cif
#   From: 2010.05.17/outbox.cif.g08.bks.cpg/sg47_10_cif.got.tgz:19828.got - 2010.06.03 20:15:42.
