data_PCOD9383054
_publ_section_title
;
Structure prediction by ZEFSAII (Michael W. Deem and Ramdas Pophale) SiO2 
 PCOD9383054
Probable space group: P M M M
;
_chemical_formula_sum "Si O2"
_cell_formula_units_Z 64
_cell_length_a 7.653610
_cell_length_b 15.920419
_cell_length_c 25.306135
_cell_angle_alpha 90.000000
_cell_angle_beta 90.000000
_cell_angle_gamma 90.000000
_cell_volume 3083.519097
_symmetry_space_group_name_H-M "P M M M"
_symmetry_group_IT_number 47
_symmetry_cell_setting 'orthorhombic'
loop_
_space_group_symop_operation_xyz
x,y,z
-x,-y,z
x,-y,-z
-x,y,-z
-x,-y,-z
x,y,-z
-x,y,z
x,-y,z
loop_
_atom_site_type_symbol
_atom_site_label
_atom_site_fract_x
_atom_site_fract_y
_atom_site_fract_z
Si Si1 0.792812 0.727312 0.851007
Si Si2 0.792958 0.590346 0.771582
Si Si3 0.704419 0.276484 0.557174
Si Si4 0.289055 0.321444 0.329618
Si Si5 0.205716 0.091454 0.824068
Si Si6 0.710931 0.406324 0.061222
Si Si7 0.710296 0.136641 0.705280
Si Si8 0.795142 0.909615 0.411964
O O1 0.717468 0.668050 0.804588
O O2 0.720600 0.822185 0.849098
O O3 0.771067 0.671004 0.903127
O O4 0.000000 0.736967 0.841229
O O5 0.718197 0.500000 0.786968
O O6 0.769108 0.606294 0.709572
O O7 0.000000 0.588495 0.782494
O O8 0.782940 0.296445 0.500000
O O9 0.500000 0.299180 0.555413
O O10 0.778088 0.318594 0.610290
O O11 0.712978 0.175784 0.566285
O O12 0.500000 0.321419 0.331573
O O13 0.235179 0.233595 0.302414
O O14 0.222706 0.102135 0.760654
O O15 0.000000 0.088171 0.837147
O O16 0.281696 0.000000 0.838627
O O17 0.500000 0.406866 0.062699
O O18 0.770296 0.500000 0.079270
O O19 0.763997 0.396941 0.000000
O O20 0.500000 0.131514 0.705855
O O21 0.773998 0.093405 0.651593
O O22 0.000000 0.905665 0.424931
O O23 0.725757 0.000000 0.430599
#
# Coordination Sequence:
#
# PCOD9383054 Si02
#       8
#     8   8   8   8   8   8   8   8
#     4  10  20  34  53  79 112 145 179 220 262 309
#     4  10  20  33  51  77 107 137 167 203 254 313
#     4   9  19  35  52  69  90 120 162 211 259 308
#     4   9  18  32  50  72  97 127 163 203 251 310
#     4  10  20  33  50  73 104 143 183 221 263 308
#     4   9  19  36  57  82 112 145 181 222 268 316
#     4  10  19  31  48  70  97 131 173 215 255 304
#     4  10  20  31  44  65  94 126 162 206 255 310
#
# _framework density 20.755506
#
# number of rings (size 3 to 8) (size 9 to 14) (size 15 to 20)
#    0.000    2.375    1.250    2.625    0.000    7.500 
#    0.000    1.875    0.000    0.750    0.000    5.250 
#    0.000    0.000    0.000    0.000    0.000    0.000 
#
# Total GULP energy -357036.464448 kJ/mol
# GULP energy per Si atom -5578.694757 kJ/mol
# Density = 2.070827 g / cm^3
# Si number density = 20.755506 Si / 1000 Ang^3
#
#
#
# Elastic Constant Matrix: (Units=GPa)
#
#
# Indices 1 2 3 4 5 6 
#
# 1 39.9740 8.0446 -8.8556 0.0000 0.0000 0.0000
# 2 8.0446 151.4988 61.3137 0.0000 0.0000 0.0000
# 3 -8.8556 61.3137 93.3052 0.0000 0.0000 0.0000
# 4 0.0000 0.0000 0.0000 -1.5466 0.0000 0.0000
# 5 0.0000 0.0000 0.0000 0.0000 18.9545 0.0000
# 6 0.0000 0.0000 0.0000 0.0000 0.0000 15.1070
#
#
#
# Elastic Compliance Matrix: (Units=1/GPa)
#
#
# Indices 1 2 3 4 5 6 
#
# 1 0.026734 -0.003333 0.004727 0.000000 0.000000 0.000000
# 2 -0.003333 0.009408 -0.006498 0.000000 0.000000 0.000000
# 3 0.004727 -0.006498 0.015436 0.000000 0.000000 0.000000
# 4 0.000000 0.000000 0.000000 -0.646572 0.000000 0.000000
# 5 0.000000 0.000000 0.000000 0.000000 0.052758 0.000000
# 6 0.000000 0.000000 0.000000 0.000000 0.000000 0.066195
#
#
# Mechanical properties :
#
#
# Convention : Reuss Voigt Hill
#
# Bulk Modulus (GPa) = 24.17160 45.08705 34.62932
# Shear Modulus (GPa) = -11.06088 21.45467 5.19689
#
# Velocity S-wave (km/s) = -2.31100 3.21859 1.58408
# Velocity P-wave (km/s) = 2.13312 5.96511 4.47955
#
# Compressibility (1/GPa) = 0.04137087
#
# Stress axis : x y z
#
# Youngs Moduli (GPa) = 37.40517 106.29607 64.78156
#
# Poissons Ratio (x) = 0.35427 -0.30625
# Poissons Ratio (y) = 0.12467 0.42098
# Poissons Ratio (z) = -0.17683 0.69075
#
# Static dielectric constant tensor:
#      x y z
#    x 1.759650 0.000000 0.000000 
#    y 0.000000 1.783770 0.000000 
#    z 0.000000 0.000000 1.747860 
# 
# From -- ./inp_files/12715.got.cif
#   From: 2010.05.17/outbox.cif.g08.bks.cpg/sg47_7_cif.got.tgz:12715.got - 2010.06.03 20:15:42.
