data_PCOD9383649
_publ_section_title
;
Structure prediction by ZEFSAII (Michael W. Deem and Ramdas Pophale) SiO2 
 PCOD9383649
Probable space group: P M M M
;
_chemical_formula_sum "Si O2"
_cell_formula_units_Z 64
_cell_length_a 7.601299
_cell_length_b 20.862796
_cell_length_c 20.312869
_cell_angle_alpha 90.000000
_cell_angle_beta 90.000000
_cell_angle_gamma 90.000000
_cell_volume 3221.303135
_symmetry_space_group_name_H-M "P M M M"
_symmetry_group_IT_number 47
_symmetry_cell_setting 'orthorhombic'
loop_
_space_group_symop_operation_xyz
x,y,z
-x,-y,z
x,-y,-z
-x,y,-z
-x,-y,-z
x,y,-z
-x,y,z
x,-y,z
loop_
_atom_site_type_symbol
_atom_site_label
_atom_site_fract_x
_atom_site_fract_y
_atom_site_fract_z
Si Si1 0.709616 0.429669 0.274610
Si Si2 0.714126 0.783181 0.926081
Si Si3 0.299588 0.692770 0.192917
Si Si4 0.201718 0.202446 0.707006
Si Si5 0.213373 0.932333 0.750650
Si Si6 0.795699 0.594870 0.572650
Si Si7 0.294025 0.929172 0.095818
Si Si8 0.289077 0.744484 0.571070
O O1 0.500000 0.428862 0.264666
O O2 0.778859 0.500000 0.255521
O O3 0.779122 0.370706 0.229259
O O4 0.731161 0.423978 0.354296
O O5 0.500000 0.786864 0.918668
O O6 0.776529 0.733457 0.869395
O O7 0.776756 0.858006 0.921994
O O8 0.753727 0.760258 0.000000
O O9 0.500000 0.676262 0.173328
O O10 0.302257 0.744750 0.251294
O O11 0.275648 0.131993 0.717226
O O12 0.207332 0.219155 0.631248
O O13 0.000000 0.204838 0.730990
O O14 0.276122 0.930191 0.825595
O O15 0.000000 0.931695 0.750881
O O16 0.270651 0.000000 0.721028
O O17 0.720975 0.574189 0.500000
O O18 0.774430 0.671395 0.572677
O O19 0.000000 0.577160 0.571517
O O20 0.500000 0.929187 0.077065
O O21 0.222363 0.000000 0.074325
O O22 0.243776 0.772104 0.500000
O O23 0.500000 0.743405 0.578072
#
# Coordination Sequence:
#
# PCOD9383649 Si02
#       8
#     8   8   8   8   8   8   8   8
#     4  10  21  35  51  72  99 135 174 210 253 304
#     4   9  17  29  47  72 100 131 167 208 255 300
#     4  10  19  33  52  72  97 129 166 210 253 299
#     4  11  20  30  51  77  99 128 167 213 253 291
#     4   9  18  31  46  68 100 134 165 201 248 298
#     4  10  20  33  50  75 106 136 167 204 245 292
#     4   9  16  26  43  69  99 130 165 202 241 293
#     4  10  20  33  50  73 102 135 168 203 248 300
#
# _framework density 19.867737000000002
#
# number of rings (size 3 to 8) (size 9 to 14) (size 15 to 20)
#    0.000    2.250    2.500    1.125    0.000    2.750 
#    0.000    2.500    0.000    2.250    0.000    7.000 
#    0.000    0.000    0.000    2.250    0.000    2.500 
#
# Total GULP energy -356411.002841 kJ/mol
# GULP energy per Si atom -5568.921919 kJ/mol
# Density = 1.982252 g / cm^3
# Si number density = 19.867737 Si / 1000 Ang^3
#
#
#
# Elastic Constant Matrix: (Units=GPa)
#
#
# Indices 1 2 3 4 5 6 
#
# 1 43.0404 6.4877 -1.2858 0.0000 0.0000 0.0000
# 2 6.4877 167.7340 86.3271 0.0000 0.0000 0.0000
# 3 -1.2858 86.3271 124.7847 0.0000 0.0000 0.0000
# 4 0.0000 0.0000 0.0000 14.9313 0.0000 0.0000
# 5 0.0000 0.0000 0.0000 0.0000 28.2357 0.0000
# 6 0.0000 0.0000 0.0000 0.0000 0.0000 -3.4490
#
#
#
# Elastic Compliance Matrix: (Units=1/GPa)
#
#
# Indices 1 2 3 4 5 6 
#
# 1 0.023517 -0.001606 0.001353 0.000000 0.000000 0.000000
# 2 -0.001606 0.009368 -0.006497 0.000000 0.000000 0.000000
# 3 0.001353 -0.006497 0.012523 0.000000 0.000000 0.000000
# 4 0.000000 0.000000 0.000000 0.066974 0.000000 0.000000
# 5 0.000000 0.000000 0.000000 0.000000 0.035416 0.000000
# 6 0.000000 0.000000 0.000000 0.000000 0.000000 -0.289941
#
#
# Mechanical properties :
#
#
# Convention : Reuss Voigt Hill
#
# Bulk Modulus (GPa) = 31.34104 57.62412 44.48258
# Shear Modulus (GPa) = -42.36973 24.21227 -9.07873
#
# Velocity S-wave (km/s) = -4.62301 3.49474 -2.13998
# Velocity P-wave (km/s) = 3.56191 6.73432 4.04128
#
# Compressibility (1/GPa) = 0.03190704
#
# Stress axis : x y z
#
# Youngs Moduli (GPa) = 42.52326 106.74726 79.85511
#
# Poissons Ratio (x) = 0.17146 -0.10808
# Poissons Ratio (y) = 0.06830 0.51885
# Poissons Ratio (z) = -0.05755 0.69358
#
# Static dielectric constant tensor:
#      x y z
#    x 1.779730 0.000000 0.000000 
#    y 0.000000 1.737320 0.000000 
#    z 0.000000 0.000000 1.688440 
# 
# From -- ./inp_files/11890.got.cif
#   From: 2010.05.17/outbox.cif.g08.bks.cpg/sg47_6_cif.got.tgz:11890.got - 2010.06.03 20:15:42.
