data_PCOD9383894
_publ_section_title
;
Structure prediction by ZEFSAII (Michael W. Deem and Ramdas Pophale) SiO2 
 PCOD9383894
Probable space group: P M M M
;
_chemical_formula_sum "Si O2"
_cell_formula_units_Z 52
_cell_length_a 21.462957
_cell_length_b 7.657700
_cell_length_c 15.257299
_cell_angle_alpha 90.000000
_cell_angle_beta 90.000000
_cell_angle_gamma 90.000000
_cell_volume 2507.642150
_symmetry_space_group_name_H-M "P M M M"
_symmetry_group_IT_number 47
_symmetry_cell_setting 'orthorhombic'
loop_
_space_group_symop_operation_xyz
x,y,z
-x,-y,z
x,-y,-z
-x,y,-z
-x,-y,-z
x,y,-z
-x,y,z
x,-y,z
loop_
_atom_site_type_symbol
_atom_site_label
_atom_site_fract_x
_atom_site_fract_y
_atom_site_fract_z
Si Si1 0.571222 0.200570 0.767430
Si Si2 0.067750 0.789174 0.285765
Si Si3 0.697696 0.712010 0.282951
Si Si4 0.251717 0.710858 0.095843
Si Si5 0.811751 0.708794 0.401229
Si Si6 0.104629 0.791241 0.095276
Si Si7 0.574407 0.500000 0.096380
O O1 0.500000 0.243364 0.739105
O O2 0.627128 0.228415 0.699140
O O3 0.588430 0.330245 0.846672
O O4 0.571158 0.000000 0.795653
O O5 0.126196 0.739775 0.344992
O O6 0.076169 0.723917 0.185777
O O7 0.000000 0.731900 0.319575
O O8 0.067754 0.000000 0.282299
O O9 0.698200 0.500000 0.282624
O O10 0.716767 0.774755 0.185141
O O11 0.750813 0.774136 0.349490
O O12 0.256707 0.500000 0.096667
O O13 0.178681 0.757867 0.100598
O O14 0.274648 0.773138 0.000000
O O15 0.816853 0.778237 0.500000
O O16 0.804483 0.500000 0.406696
O O17 0.094017 0.000000 0.094117
O O18 0.083257 0.722849 0.000000
O O19 0.500000 0.500000 0.087334
O O20 0.602869 0.500000 0.000000
#
# Coordination Sequence:
#
# PCOD9383894 Si02
#       7
#     8   8   8   8   8   8   4
#     4  10  21  36  56  84 116 155 202 246 294 355
#     4  10  21  36  55  80 111 148 188 231 283 343
#     4  10  19  34  56  82 110 148 186 233 294 355
#     4   9  17  29  48  75 105 137 176 223 275 329
#     4  10  22  40  61  85 111 141 184 237 293 356
#     4   9  17  30  49  74 106 143 183 226 272 326
#     4   9  18  34  54  78 117 165 206 247 293 341
#
# _framework density 20.736612000000001
#
# number of rings (size 3 to 8) (size 9 to 14) (size 15 to 20)
#    0.000    2.385    2.308    0.000    0.000    3.385 
#    0.000    4.615    0.000    0.462    0.000    6.462 
#    0.000    0.000    0.000    0.000    0.000    0.000 
#
# Total GULP energy -290108.485828 kJ/mol
# GULP energy per Si atom -5579.009343 kJ/mol
# Density = 2.068941 g / cm^3
# Si number density = 20.736612 Si / 1000 Ang^3
#
#
#
# Elastic Constant Matrix: (Units=GPa)
#
#
# Indices 1 2 3 4 5 6 
#
# 1 160.2721 12.6437 83.4382 0.0000 0.0000 0.0000
# 2 12.6437 54.1528 17.1354 0.0000 0.0000 0.0000
# 3 83.4382 17.1354 134.5322 0.0000 0.0000 0.0000
# 4 0.0000 0.0000 0.0000 6.3207 0.0000 0.0000
# 5 0.0000 0.0000 0.0000 0.0000 1.7517 0.0000
# 6 0.0000 0.0000 0.0000 0.0000 0.0000 20.5146
#
#
#
# Elastic Compliance Matrix: (Units=1/GPa)
#
#
# Indices 1 2 3 4 5 6 
#
# 1 0.009221 -0.000358 -0.005674 0.000000 0.000000 0.000000
# 2 -0.000358 0.019256 -0.002231 0.000000 0.000000 0.000000
# 3 -0.005674 -0.002231 0.011236 0.000000 0.000000 0.000000
# 4 0.000000 0.000000 0.000000 0.158210 0.000000 0.000000
# 5 0.000000 0.000000 0.000000 0.000000 0.570877 0.000000
# 6 0.000000 0.000000 0.000000 0.000000 0.000000 0.048746
#
#
# Mechanical properties :
#
#
# Convention : Reuss Voigt Hill
#
# Bulk Modulus (GPa) = 43.12395 63.93243 53.52819
# Shear Modulus (GPa) = 5.93966 21.43339 13.68652
#
# Velocity S-wave (km/s) = 1.69427 3.21846 2.57187
# Velocity P-wave (km/s) = 4.96675 6.68647 5.88972
#
# Compressibility (1/GPa) = 0.02318897
#
# Stress axis : x y z
#
# Youngs Moduli (GPa) = 108.44468 51.93281 88.99890
#
# Poissons Ratio (x) = 0.01858 0.50494
# Poissons Ratio (y) = 0.03880 0.19853
# Poissons Ratio (z) = 0.61527 0.11585
#
# Static dielectric constant tensor:
#      x y z
#    x 1.764610 0.000000 0.000000 
#    y 0.000000 1.774070 0.000000 
#    z 0.000000 0.000000 1.769620 
# 
# From -- ./inp_files/24974.got.cif
#   From: 2010.05.17/outbox.cif.g08.bks.cpg/sg47_13_cif.got.tgz:24974.got - 2010.06.03 20:15:42.
