data_PCOD9383602
_publ_section_title
;
Structure prediction by ZEFSAII (Michael W. Deem and Ramdas Pophale) SiO2 
 PCOD9383602
Probable space group: P M M M
;
_chemical_formula_sum "Si O2"
_cell_formula_units_Z 56
_cell_length_a 20.500768
_cell_length_b 9.080880
_cell_length_c 15.279910
_cell_angle_alpha 90.000000
_cell_angle_beta 90.000000
_cell_angle_gamma 90.000000
_cell_volume 2844.584661
_symmetry_space_group_name_H-M "P M M M"
_symmetry_group_IT_number 47
_symmetry_cell_setting 'orthorhombic'
loop_
_space_group_symop_operation_xyz
x,y,z
-x,-y,z
x,-y,-z
-x,y,-z
-x,-y,-z
x,y,-z
-x,y,z
x,-y,z
loop_
_atom_site_type_symbol
_atom_site_label
_atom_site_fract_x
_atom_site_fract_y
_atom_site_fract_z
Si Si1 0.572044 0.324037 0.849819
Si Si2 0.923600 0.824273 0.247547
Si Si3 0.843746 0.672595 0.399386
Si Si4 0.162012 0.327342 0.099780
Si Si5 0.703811 0.828714 0.142411
Si Si6 0.570644 0.175796 0.340511
Si Si7 0.711774 0.170174 0.644850
O O1 0.500000 0.287882 0.886979
O O2 0.580328 0.500000 0.853942
O O3 0.635617 0.243444 0.886869
O O4 0.569911 0.269214 0.748831
O O5 0.889087 0.763017 0.334141
O O6 0.885676 0.753726 0.166294
O O7 0.000000 0.786944 0.246094
O O8 0.916483 0.000000 0.244383
O O9 0.863161 0.693585 0.500000
O O10 0.847459 0.500000 0.377865
O O11 0.769627 0.728033 0.387626
O O12 0.165750 0.500000 0.121735
O O13 0.233768 0.257454 0.107586
O O14 0.139173 0.311943 0.000000
O O15 0.708401 0.821067 0.248943
O O16 0.706166 0.000000 0.118112
O O17 0.500000 0.198224 0.384486
O O18 0.638838 0.209203 0.387435
O O19 0.574669 0.000000 0.318270
O O20 0.725797 0.000000 0.621581
#
# Coordination Sequence:
#
# PCOD9383602 Si02
#       7
#     8   8   8   8   8   8   8
#     4   9  16  25  41  70 108 150 197 248 302 357
#     4  11  25  45  69  96 125 158 196 239 291 353
#     4  11  24  40  61  90 123 161 203 248 300 357
#     4  11  24  41  64  94 126 161 200 243 293 351
#     4  10  19  32  54  82 114 155 201 249 301 355
#     4   8  14  25  42  68 104 145 192 246 301 356
#     4   9  17  30  52  81 112 151 198 248 301 356
#
# _framework density 19.686529
#
# number of rings (size 3 to 8) (size 9 to 14) (size 15 to 20)
#    0.000    2.143    1.429    3.000    0.000    7.143 
#    0.000    2.857    0.000    0.857    0.000    6.000 
#    0.000    0.000    0.000    0.000    0.000    0.000 
#
# Total GULP energy -312646.386796 kJ/mol
# GULP energy per Si atom -5582.971193 kJ/mol
# Density = 1.964172 g / cm^3
# Si number density = 19.686529 Si / 1000 Ang^3
#
#
#
# Elastic Constant Matrix: (Units=GPa)
#
#
# Indices 1 2 3 4 5 6 
#
# 1 178.4492 85.5313 52.5845 0.0000 0.0000 0.0000
# 2 85.5313 87.0952 38.5694 0.0000 0.0000 0.0000
# 3 52.5845 38.5694 57.8200 0.0000 0.0000 0.0000
# 4 0.0000 0.0000 0.0000 106.4773 0.0000 0.0000
# 5 0.0000 0.0000 0.0000 0.0000 -19.4136 0.0000
# 6 0.0000 0.0000 0.0000 0.0000 0.0000 20.5382
#
#
#
# Elastic Compliance Matrix: (Units=1/GPa)
#
#
# Indices 1 2 3 4 5 6 
#
# 1 0.011218 -0.009223 -0.004050 0.000000 0.000000 0.000000
# 2 -0.009223 0.023878 -0.007540 0.000000 0.000000 0.000000
# 3 -0.004050 -0.007540 0.026008 0.000000 0.000000 0.000000
# 4 0.000000 0.000000 0.000000 0.009392 0.000000 0.000000
# 5 0.000000 0.000000 0.000000 0.000000 -0.051510 0.000000
# 6 0.000000 0.000000 0.000000 0.000000 0.000000 0.048690
#
#
# Mechanical properties :
#
#
# Convention : Reuss Voigt Hill
#
# Bulk Modulus (GPa) = 51.34044 75.19276 63.26660
# Shear Modulus (GPa) = 43.18017 31.29900 37.23959
#
# Velocity S-wave (km/s) = 4.68844 3.99164 4.35400
# Velocity P-wave (km/s) = 7.44609 7.71506 7.58177
#
# Compressibility (1/GPa) = 0.01947782
#
# Stress axis : x y z
#
# Youngs Moduli (GPa) = 89.14401 41.87913 38.44973
#
# Poissons Ratio (x) = 0.38625 0.15571
# Poissons Ratio (y) = 0.82217 0.28992
# Poissons Ratio (z) = 0.36101 0.31578
#
# Static dielectric constant tensor:
#      x y z
#    x 1.701240 0.000000 0.000000 
#    y 0.000000 1.654160 0.000000 
#    z 0.000000 0.000000 1.725690 
# 
# From -- ./inp_files/11477.got.cif
#   From: 2010.05.17/outbox.cif.g08.bks.cpg/sg47_6_cif.got.tgz:11477.got - 2010.06.03 20:15:42.
