data_PCOD9383888
_publ_section_title
;
Structure prediction by ZEFSAII (Michael W. Deem and Ramdas Pophale) SiO2 
 PCOD9383888
Probable space group: P M M M
;
_chemical_formula_sum "Si O2"
_cell_formula_units_Z 52
_cell_length_a 14.084282
_cell_length_b 12.863508
_cell_length_c 15.412403
_cell_angle_alpha 90.000000
_cell_angle_beta 90.000000
_cell_angle_gamma 90.000000
_cell_volume 2792.315515
_symmetry_space_group_name_H-M "P M M M"
_symmetry_group_IT_number 47
_symmetry_cell_setting 'orthorhombic'
loop_
_space_group_symop_operation_xyz
x,y,z
-x,-y,z
x,-y,-z
-x,y,-z
-x,-y,-z
x,y,-z
-x,y,z
x,-y,z
loop_
_atom_site_type_symbol
_atom_site_label
_atom_site_fract_x
_atom_site_fract_y
_atom_site_fract_z
Si Si1 0.392970 0.120168 0.177600
Si Si2 0.384835 0.500000 0.601292
Si Si3 0.610914 0.270994 0.657424
Si Si4 0.887701 0.200961 0.727685
Si Si5 0.807865 0.122387 0.902007
Si Si6 0.115268 0.617734 0.402297
Si Si7 0.754846 0.888168 0.592717
O O1 0.500000 0.130404 0.141734
O O2 0.381275 0.209306 0.250798
O O3 0.305679 0.130770 0.112051
O O4 0.386413 0.000000 0.212030
O O5 0.500000 0.500000 0.599327
O O6 0.353416 0.500000 0.500000
O O7 0.359303 0.608195 0.649139
O O8 0.500000 0.265362 0.632263
O O9 0.678637 0.202433 0.598120
O O10 0.856694 0.189410 0.826875
O O11 0.860610 0.306991 0.676913
O O12 0.827718 0.119725 0.671440
O O13 0.000000 0.185842 0.720187
O O14 0.832611 0.000000 0.889441
O O15 0.833631 0.151584 0.000000
O O16 0.145200 0.650352 0.500000
O O17 0.148642 0.500000 0.388793
O O18 0.000000 0.615807 0.404402
O O19 0.806228 0.882853 0.500000
O O20 0.705683 0.000000 0.597158
#
# Coordination Sequence:
#
# PCOD9383888 Si02
#       7
#     8   4   8   8   8   8   8
#     4   9  17  32  57  85 110 138 174 220 280 344
#     4   9  18  32  50  76 112 150 187 224 262 316
#     4  10  19  34  56  80 110 148 184 224 273 326
#     4  11  22  37  56  77 108 149 189 232 283 331
#     4  10  21  37  57  82 110 138 177 230 282 338
#     4   8  15  31  56  83 108 136 177 230 282 330
#     4  11  23  36  51  76 110 147 189 230 272 331
#
# _framework density 18.622537000000001
#
# number of rings (size 3 to 8) (size 9 to 14) (size 15 to 20)
#    0.000    2.231    1.538    2.308    0.000    4.615 
#    1.385    3.846    0.000    0.462    0.000    2.154 
#    0.000    3.077    0.000    0.000    0.000    0.000 
#
# Total GULP energy -289868.150996 kJ/mol
# GULP energy per Si atom -5574.387519 kJ/mol
# Density = 1.858015 g / cm^3
# Si number density = 18.622537 Si / 1000 Ang^3
#
#
#
# Elastic Constant Matrix: (Units=GPa)
#
#
# Indices 1 2 3 4 5 6 
#
# 1 64.8648 32.5837 30.3496 0.0000 0.0000 0.0000
# 2 32.5837 147.7769 54.6627 0.0000 0.0000 0.0000
# 3 30.3496 54.6627 130.4413 0.0000 0.0000 0.0000
# 4 0.0000 0.0000 0.0000 22.3180 0.0000 0.0000
# 5 0.0000 0.0000 0.0000 0.0000 12.7814 0.0000
# 6 0.0000 0.0000 0.0000 0.0000 0.0000 26.1318
#
#
#
# Elastic Compliance Matrix: (Units=1/GPa)
#
#
# Indices 1 2 3 4 5 6 
#
# 1 0.018301 -0.002911 -0.003038 0.000000 0.000000 0.000000
# 2 -0.002911 0.008472 -0.002873 0.000000 0.000000 0.000000
# 3 -0.003038 -0.002873 0.009577 0.000000 0.000000 0.000000
# 4 0.000000 0.000000 0.000000 0.044807 0.000000 0.000000
# 5 0.000000 0.000000 0.000000 0.000000 0.078239 0.000000
# 6 0.000000 0.000000 0.000000 0.000000 0.000000 0.038268
#
#
# Mechanical properties :
#
#
# Convention : Reuss Voigt Hill
#
# Bulk Modulus (GPa) = 53.46159 64.25278 58.85718
# Shear Modulus (GPa) = 22.56915 27.27870 24.92392
#
# Velocity S-wave (km/s) = 3.48505 3.83145 3.66235
# Velocity P-wave (km/s) = 6.70555 7.35873 7.03972
#
# Compressibility (1/GPa) = 0.01870502
#
# Stress axis : x y z
#
# Youngs Moduli (GPa) = 54.64298 118.04278 104.41757
#
# Poissons Ratio (x) = 0.34367 0.31721
# Poissons Ratio (y) = 0.15909 0.29996
# Poissons Ratio (z) = 0.16600 0.33910
#
# Static dielectric constant tensor:
#      x y z
#    x 1.686590 0.000000 0.000000 
#    y 0.000000 1.673720 0.000000 
#    z 0.000000 0.000000 1.637920 
# 
# From -- ./inp_files/23661.got.cif
#   From: 2010.05.17/outbox.cif.g08.bks.cpg/sg47_12_cif.got.tgz:23661.got - 2010.06.03 20:15:42.
