data_PCOD9383837
_publ_section_title
;
Structure prediction by ZEFSAII (Michael W. Deem and Ramdas Pophale) SiO2 
 PCOD9383837
Probable space group: P M M M
;
_chemical_formula_sum "Si O2"
_cell_formula_units_Z 56
_cell_length_a 7.464454
_cell_length_b 15.190648
_cell_length_c 21.812394
_cell_angle_alpha 90.000000
_cell_angle_beta 90.000000
_cell_angle_gamma 90.000000
_cell_volume 2473.305027
_symmetry_space_group_name_H-M "P M M M"
_symmetry_group_IT_number 47
_symmetry_cell_setting 'orthorhombic'
loop_
_space_group_symop_operation_xyz
x,y,z
-x,-y,z
x,-y,-z
-x,y,-z
-x,-y,-z
x,y,-z
-x,y,z
x,-y,z
loop_
_atom_site_type_symbol
_atom_site_label
_atom_site_fract_x
_atom_site_fract_y
_atom_site_fract_z
Si Si1 0.707724 0.397491 0.164063
Si Si2 0.702407 0.823434 0.634524
Si Si3 0.785847 0.000000 0.428460
Si Si4 0.787673 0.403345 0.703649
Si Si5 0.719272 0.896609 0.759914
Si Si6 0.280949 0.212619 0.119742
Si Si7 0.285067 0.340268 0.566963
Si Si8 0.718652 0.102752 0.000000
O O1 0.500000 0.406114 0.147481
O O2 0.781441 0.500000 0.160755
O O3 0.715150 0.359913 0.234446
O O4 0.781874 0.314615 0.125194
O O5 0.500000 0.790412 0.645980
O O6 0.701918 0.916640 0.603262
O O7 0.785492 0.840689 0.700935
O O8 0.779369 0.758155 0.583411
O O9 0.750668 0.000000 0.500000
O O10 0.000000 0.000000 0.418497
O O11 0.709948 0.500000 0.710254
O O12 0.757802 0.382512 0.632531
O O13 0.000000 0.402227 0.711938
O O14 0.500000 0.897850 0.756520
O O15 0.771470 0.846120 0.821419
O O16 0.774062 0.000000 0.757539
O O17 0.500000 0.215818 0.119970
O O18 0.226218 0.158255 0.059719
O O19 0.215831 0.370182 0.500000
O O20 0.500000 0.344845 0.561489
O O21 0.500000 0.100281 0.000000
O O22 0.776477 0.000000 0.000000
#
# Coordination Sequence:
#
# PCOD9383837 Si02
#       8
#     8   8   4   8   8   8   8   4
#     4   9  17  31  51  74 101 135 173 213 258 306
#     4  10  19  34  53  71  92 124 168 212 253 302
#     4  11  23  35  47  67  97 130 161 200 258 317
#     4  10  21  36  54  76 102 133 169 213 266 319
#     4   9  15  24  42  68  92 118 158 207 253 295
#     4   9  16  26  43  69 103 139 171 206 252 307
#     4  10  21  35  52  75 100 130 171 216 262 316
#     4   9  16  26  41  69 112 151 175 203 252 310
#
# _framework density 22.641767999999999
#
# number of rings (size 3 to 8) (size 9 to 14) (size 15 to 20)
#    0.000    2.429    0.714    2.357    0.000    7.143 
#    0.000    1.786    0.000    2.143    0.000    0.500 
#    0.000    2.857    0.000    0.000    0.000    0.000 
#
# Total GULP energy -311883.353530 kJ/mol
# GULP energy per Si atom -5569.345599 kJ/mol
# Density = 2.259023 g / cm^3
# Si number density = 22.641768 Si / 1000 Ang^3
#
#
#
# Elastic Constant Matrix: (Units=GPa)
#
#
# Indices 1 2 3 4 5 6 
#
# 1 67.1399 0.4184 10.4968 0.0000 0.0000 0.0000
# 2 0.4184 93.0955 40.1005 0.0000 0.0000 0.0000
# 3 10.4968 40.1005 132.6650 0.0000 0.0000 0.0000
# 4 0.0000 0.0000 0.0000 55.6041 0.0000 0.0000
# 5 0.0000 0.0000 0.0000 0.0000 108.2632 0.0000
# 6 0.0000 0.0000 0.0000 0.0000 0.0000 30.0289
#
#
#
# Elastic Compliance Matrix: (Units=1/GPa)
#
#
# Indices 1 2 3 4 5 6 
#
# 1 0.015102 0.000514 -0.001350 0.000000 0.000000 0.000000
# 2 0.000514 0.012367 -0.003779 0.000000 0.000000 0.000000
# 3 -0.001350 -0.003779 0.008787 0.000000 0.000000 0.000000
# 4 0.000000 0.000000 0.000000 0.017984 0.000000 0.000000
# 5 0.000000 0.000000 0.000000 0.000000 0.009237 0.000000
# 6 0.000000 0.000000 0.000000 0.000000 0.000000 0.033301
#
#
# Mechanical properties :
#
#
# Convention : Reuss Voigt Hill
#
# Bulk Modulus (GPa) = 37.00215 43.88130 40.44173
# Shear Modulus (GPa) = 43.47167 54.90489 49.18828
#
# Velocity S-wave (km/s) = 4.38651 4.92971 4.66602
# Velocity P-wave (km/s) = 6.48330 7.19899 6.85050
#
# Compressibility (1/GPa) = 0.02702546
#
# Stress axis : x y z
#
# Youngs Moduli (GPa) = 66.21563 80.85997 113.80664
#
# Poissons Ratio (x) = -0.04154 0.15366
# Poissons Ratio (y) = -0.03402 0.43006
# Poissons Ratio (z) = 0.08940 0.30556
#
# Static dielectric constant tensor:
#      x y z
#    x 1.932310 0.000000 0.000000 
#    y 0.000000 1.904660 0.000000 
#    z 0.000000 0.000000 1.848090 
# 
# From -- ./inp_files/29777.got.cif
#   From: 2010.05.17/outbox.cif.g08.bks.cpg/sg47_15_cif.got.tgz:29777.got - 2010.06.03 20:15:42.
