data_PCOD9383383
_publ_section_title
;
Structure prediction by ZEFSAII (Michael W. Deem and Ramdas Pophale) SiO2 
 PCOD9383383
Probable space group: P M M M
;
_chemical_formula_sum "Si O2"
_cell_formula_units_Z 52
_cell_length_a 30.234564
_cell_length_b 8.035927
_cell_length_c 12.021639
_cell_angle_alpha 90.000000
_cell_angle_beta 90.000000
_cell_angle_gamma 90.000000
_cell_volume 2920.810461
_symmetry_space_group_name_H-M "P M M M"
_symmetry_group_IT_number 47
_symmetry_cell_setting 'orthorhombic'
loop_
_space_group_symop_operation_xyz
x,y,z
-x,-y,z
x,-y,-z
-x,y,-z
-x,-y,-z
x,y,-z
-x,y,z
x,-y,z
loop_
_atom_site_type_symbol
_atom_site_label
_atom_site_fract_x
_atom_site_fract_y
_atom_site_fract_z
Si Si1 0.725401 0.197897 0.500000
Si Si2 0.449568 0.500000 0.865115
Si Si3 0.050225 0.296892 0.872319
Si Si4 0.780156 0.800630 0.128190
Si Si5 0.133917 0.298958 0.735403
Si Si6 0.610520 0.186715 0.131991
Si Si7 0.171369 0.298245 0.500000
Si Si8 0.693975 0.692074 0.739671
O O1 0.777388 0.245268 0.500000
O O2 0.702687 0.265720 0.388660
O O3 0.722349 0.000000 0.500000
O O4 0.500000 0.500000 0.824248
O O5 0.422936 0.333224 0.833930
O O6 0.451176 0.500000 0.000000
O O7 0.050432 0.500000 0.871029
O O8 0.087685 0.238886 0.787187
O O9 0.000000 0.244294 0.846262
O O10 0.060406 0.247486 0.000000
O O11 0.826312 0.750375 0.183279
O O12 0.739970 0.723761 0.196998
O O13 0.775771 0.000000 0.132888
O O14 0.778429 0.747244 0.000000
O O15 0.131986 0.500000 0.731266
O O16 0.146920 0.240135 0.611998
O O17 0.655340 0.203921 0.202099
O O18 0.592185 0.000000 0.145472
O O19 0.620681 0.208910 0.000000
O O20 0.171194 0.500000 0.500000
O O21 0.681553 0.500000 0.751442
#
# Coordination Sequence:
#
# PCOD9383383 Si02
#       8
#     4   4   8   8   8   8   4   8
#     4  12  24  38  56  77 105 146 190 230 277 330
#     4   9  18  34  56  85 121 161 203 244 292 347
#     4   8  14  26  46  72  99 128 168 219 272 326
#     4  11  23  35  49  74 106 139 177 222 272 332
#     4  10  19  32  51  72  99 134 175 219 270 325
#     4  10  20  35  56  85 121 158 196 241 293 345
#     4  10  20  34  49  72 102 136 176 226 270 319
#     4  12  23  37  56  79 110 147 189 233 280 336
#
# _framework density 17.803277999999999
#
# number of rings (size 3 to 8) (size 9 to 14) (size 15 to 20)
#    0.000    1.769    2.308    3.923    0.000    4.000 
#    0.000    1.923    0.000    2.769    0.000    3.231 
#    0.000    3.692    0.000    0.000    0.000    0.000 
#
# Total GULP energy -290343.961525 kJ/mol
# GULP energy per Si atom -5583.537722 kJ/mol
# Density = 1.776276 g / cm^3
# Si number density = 17.803278 Si / 1000 Ang^3
#
#
#
# Elastic Constant Matrix: (Units=GPa)
#
#
# Indices 1 2 3 4 5 6 
#
# 1 112.0875 28.8711 48.7292 0.0000 0.0000 0.0000
# 2 28.8711 63.6115 25.0523 0.0000 0.0000 0.0000
# 3 48.7292 25.0523 108.5181 0.0000 0.0000 0.0000
# 4 0.0000 0.0000 0.0000 17.2777 0.0000 0.0000
# 5 0.0000 0.0000 0.0000 0.0000 0.1764 0.0000
# 6 0.0000 0.0000 0.0000 0.0000 0.0000 -4.3009
#
#
#
# Elastic Compliance Matrix: (Units=1/GPa)
#
#
# Indices 1 2 3 4 5 6 
#
# 1 0.011787 -0.003592 -0.004464 0.000000 0.000000 0.000000
# 2 -0.003592 0.018387 -0.002632 0.000000 0.000000 0.000000
# 3 -0.004464 -0.002632 0.011827 0.000000 0.000000 0.000000
# 4 0.000000 0.000000 0.000000 0.057878 0.000000 0.000000
# 5 0.000000 0.000000 0.000000 0.000000 5.669507 0.000000
# 6 0.000000 0.000000 0.000000 0.000000 0.000000 -0.232507
#
#
# Mechanical properties :
#
#
# Convention : Reuss Voigt Hill
#
# Bulk Modulus (GPa) = 48.48151 54.39136 51.43643
# Shear Modulus (GPa) = 0.89845 14.73492 7.81669
#
# Velocity S-wave (km/s) = 0.71116 2.88002 2.09765
# Velocity P-wave (km/s) = 5.28822 6.45577 5.90094
#
# Compressibility (1/GPa) = 0.02062642
#
# Stress axis : x y z
#
# Youngs Moduli (GPa) = 84.83639 54.38562 84.55166
#
# Poissons Ratio (x) = 0.19535 0.37742
# Poissons Ratio (y) = 0.30472 0.22253
# Poissons Ratio (z) = 0.37869 0.14314
#
# Static dielectric constant tensor:
#      x y z
#    x 1.578460 0.000000 0.000000 
#    y 0.000000 1.640990 0.000000 
#    z 0.000000 0.000000 1.557900 
# 
# From -- ./inp_files/19915.got.cif
#   From: 2010.05.17/outbox.cif.g08.bks.cpg/sg47_10_cif.got.tgz:19915.got - 2010.06.03 20:15:42.
