data_PCOD9383544
_publ_section_title
;
Structure prediction by ZEFSAII (Michael W. Deem and Ramdas Pophale) SiO2 
 PCOD9383544
Probable space group: P M M M
;
_chemical_formula_sum "Si O2"
_cell_formula_units_Z 44
_cell_length_a 7.469302
_cell_length_b 30.299963
_cell_length_c 8.629082
_cell_angle_alpha 90.000000
_cell_angle_beta 90.000000
_cell_angle_gamma 90.000000
_cell_volume 1952.930164
_symmetry_space_group_name_H-M "P M M M"
_symmetry_group_IT_number 47
_symmetry_cell_setting 'orthorhombic'
loop_
_space_group_symop_operation_xyz
x,y,z
-x,-y,z
x,-y,-z
-x,y,-z
-x,-y,-z
x,y,-z
-x,y,z
x,-y,z
loop_
_atom_site_type_symbol
_atom_site_label
_atom_site_fract_x
_atom_site_fract_y
_atom_site_fract_z
Si Si1 0.284052 0.552083 0.500000
Si Si2 0.212688 0.858496 0.672001
Si Si3 0.284713 0.047851 0.178318
Si Si4 0.708469 0.408691 0.172881
Si Si5 0.216709 0.320193 0.673755
Si Si6 0.218698 0.230511 0.174345
O O1 0.252218 0.500000 0.500000
O O2 0.500000 0.559930 0.500000
O O3 0.215724 0.571243 0.334578
O O4 0.288387 0.855526 0.500000
O O5 0.235968 0.907606 0.735664
O O6 0.281139 0.817961 0.774485
O O7 0.000000 0.851625 0.662957
O O8 0.500000 0.046607 0.176646
O O9 0.223560 0.000000 0.241515
O O10 0.223513 0.050884 0.000000
O O11 0.500000 0.422187 0.168371
O O12 0.719721 0.356276 0.203682
O O13 0.782770 0.418989 0.000000
O O14 0.276540 0.332162 0.500000
O O15 0.273482 0.270641 0.715720
O O16 0.000000 0.321112 0.675606
O O17 0.000000 0.230197 0.175230
O O18 0.275751 0.239931 0.000000
#
# Coordination Sequence:
#
# PCOD9383544 Si02
#       6
#     4   8   8   8   8   8
#     4   9  18  34  55  79 109 143 179 223 272 319
#     4  10  20  33  50  74 103 131 162 204 251 299
#     4   9  19  36  55  73  95 126 164 205 250 302
#     4  10  20  34  54  80 109 141 178 222 270 317
#     4  10  19  32  53  79 107 141 178 215 260 315
#     4   9  17  30  49  73 101 134 171 210 252 301
#
# _framework density 22.530248
#
# number of rings (size 3 to 8) (size 9 to 14) (size 15 to 20)
#    0.000    2.455    0.909    2.182    0.000    5.818 
#    0.000    5.455    0.000    6.545    0.000    1.273 
#    0.000    0.000    0.000    0.000    0.000    0.000 
#
# Total GULP energy -245557.579189 kJ/mol
# GULP energy per Si atom -5580.854072 kJ/mol
# Density = 2.247897 g / cm^3
# Si number density = 22.530248 Si / 1000 Ang^3
#
#
#
# Elastic Constant Matrix: (Units=GPa)
#
#
# Indices 1 2 3 4 5 6 
#
# 1 64.0174 -4.4459 6.2956 0.0000 0.0000 0.0000
# 2 -4.4459 104.7294 54.4857 0.0000 0.0000 0.0000
# 3 6.2956 54.4857 157.5287 0.0000 0.0000 0.0000
# 4 0.0000 0.0000 0.0000 31.8652 0.0000 0.0000
# 5 0.0000 0.0000 0.0000 0.0000 18.1921 0.0000
# 6 0.0000 0.0000 0.0000 0.0000 0.0000 8.9308
#
#
#
# Elastic Compliance Matrix: (Units=1/GPa)
#
#
# Indices 1 2 3 4 5 6 
#
# 1 0.015809 0.001219 -0.001053 0.000000 0.000000 0.000000
# 2 0.001219 0.011738 -0.004109 0.000000 0.000000 0.000000
# 3 -0.001053 -0.004109 0.007811 0.000000 0.000000 0.000000
# 4 0.000000 0.000000 0.000000 0.031382 0.000000 0.000000
# 5 0.000000 0.000000 0.000000 0.000000 0.054969 0.000000
# 6 0.000000 0.000000 0.000000 0.000000 0.000000 0.111973
#
#
# Mechanical properties :
#
#
# Convention : Reuss Voigt Hill
#
# Bulk Modulus (GPa) = 36.40040 48.77181 42.58610
# Shear Modulus (GPa) = 19.94220 29.79361 24.86790
#
# Velocity S-wave (km/s) = 2.97834 3.64040 3.32589
# Velocity P-wave (km/s) = 5.29327 6.27410 5.80444
#
# Compressibility (1/GPa) = 0.02747223
#
# Stress axis : x y z
#
# Youngs Moduli (GPa) = 63.25500 85.19600 128.02131
#
# Poissons Ratio (x) = -0.10387 0.13487
# Poissons Ratio (y) = -0.07712 0.52598
# Poissons Ratio (z) = 0.06664 0.35003
#
# Static dielectric constant tensor:
#      x y z
#    x 1.876530 0.000000 0.000000 
#    y 0.000000 1.806970 0.000000 
#    z 0.000000 0.000000 1.831250 
# 
# From -- ./inp_files/2190.got.cif
#   From: 2010.05.17/outbox.cif.g08.bks.cpg/sg47_2_cif.got.tgz:2190.got - 2010.06.03 20:15:42.
