data_PCOD9383759
_publ_section_title
;
Structure prediction by ZEFSAII (Michael W. Deem and Ramdas Pophale) SiO2 
 PCOD9383759
Probable space group: P M M M
;
_chemical_formula_sum "Si O2"
_cell_formula_units_Z 52
_cell_length_a 22.956061
_cell_length_b 9.559504
_cell_length_c 13.839613
_cell_angle_alpha 90.000000
_cell_angle_beta 90.000000
_cell_angle_gamma 90.000000
_cell_volume 3037.083102
_symmetry_space_group_name_H-M "P M M M"
_symmetry_group_IT_number 47
_symmetry_cell_setting 'orthorhombic'
loop_
_space_group_symop_operation_xyz
x,y,z
-x,-y,z
x,-y,-z
-x,y,-z
-x,-y,-z
x,y,-z
-x,y,z
x,-y,z
loop_
_atom_site_type_symbol
_atom_site_label
_atom_site_fract_x
_atom_site_fract_y
_atom_site_fract_z
Si Si1 0.613686 0.833938 0.000000
Si Si2 0.748623 0.169624 0.000000
Si Si3 0.933023 0.333634 0.884978
Si Si4 0.175408 0.167701 0.189128
Si Si5 0.757999 0.166102 0.388709
Si Si6 0.359529 0.337914 0.645529
Si Si7 0.565798 0.343336 0.832140
Si Si8 0.569020 0.840331 0.500000
O O1 0.579738 0.773828 0.091046
O O2 0.681274 0.783878 0.000000
O O3 0.614445 0.000000 0.000000
O O4 0.781894 0.211116 0.099440
O O5 0.748165 0.000000 0.000000
O O6 0.924940 0.500000 0.870107
O O7 0.885219 0.245832 0.828463
O O8 0.000000 0.299198 0.859765
O O9 0.925969 0.307240 0.000000
O O10 0.200575 0.195984 0.296548
O O11 0.168031 0.000000 0.181129
O O12 0.779367 0.189315 0.500000
O O13 0.701339 0.261347 0.372541
O O14 0.743229 0.000000 0.382382
O O15 0.357232 0.500000 0.614291
O O16 0.383186 0.337057 0.753877
O O17 0.406673 0.246585 0.589117
O O18 0.500000 0.326687 0.791526
O O19 0.567486 0.500000 0.875505
O O20 0.500000 0.843842 0.500000
O O21 0.591270 0.000000 0.500000
#
# Coordination Sequence:
#
# PCOD9383759 Si02
#       8
#     4   4   8   8   8   8   8   4
#     4  11  22  36  55  77 103 138 180 221 262 321
#     4   9  18  32  49  76 110 137 168 219 276 317
#     4   9  18  33  53  81 118 152 180 220 276 328
#     4  10  19  33  55  81 111 147 186 225 266 322
#     4  10  21  37  56  79 112 150 184 224 279 334
#     4  11  22  37  58  81 104 134 178 228 277 334
#     4  10  22  39  55  73 102 137 171 216 276 333
#     4  11  23  37  55  79 107 137 170 219 284 343
#
# _framework density 17.121690999999998
#
# number of rings (size 3 to 8) (size 9 to 14) (size 15 to 20)
#    0.000    1.923    1.538    3.000    0.000    5.846 
#    0.000    2.308    0.000    0.462    0.000    3.231 
#    0.000    0.000    0.000    0.000    0.000    0.000 
#
# Total GULP energy -289858.624532 kJ/mol
# GULP energy per Si atom -5574.204318 kJ/mol
# Density = 1.708272 g / cm^3
# Si number density = 17.121691 Si / 1000 Ang^3
#
#
#
# Elastic Constant Matrix: (Units=GPa)
#
#
# Indices 1 2 3 4 5 6 
#
# 1 95.4894 46.7861 45.8034 0.0000 0.0000 0.0000
# 2 46.7861 77.4702 45.4818 0.0000 0.0000 0.0000
# 3 45.8034 45.4818 103.5942 0.0000 0.0000 0.0000
# 4 0.0000 0.0000 0.0000 -16.7490 0.0000 0.0000
# 5 0.0000 0.0000 0.0000 0.0000 27.9461 0.0000
# 6 0.0000 0.0000 0.0000 0.0000 0.0000 26.7821
#
#
#
# Elastic Compliance Matrix: (Units=1/GPa)
#
#
# Indices 1 2 3 4 5 6 
#
# 1 0.015908 -0.007380 -0.003793 0.000000 0.000000 0.000000
# 2 -0.007380 0.020815 -0.005875 0.000000 0.000000 0.000000
# 3 -0.003793 -0.005875 0.013910 0.000000 0.000000 0.000000
# 4 0.000000 0.000000 0.000000 -0.059705 0.000000 0.000000
# 5 0.000000 0.000000 0.000000 0.000000 0.035783 0.000000
# 6 0.000000 0.000000 0.000000 0.000000 0.000000 0.037338
#
#
# Mechanical properties :
#
#
# Convention : Reuss Voigt Hill
#
# Bulk Modulus (GPa) = 60.47944 61.41072 60.94508
# Shear Modulus (GPa) = 48.23562 16.82801 32.53181
#
# Velocity S-wave (km/s) = 5.31351 3.13844 4.36367
# Velocity P-wave (km/s) = 8.54661 7.00558 7.81417
#
# Compressibility (1/GPa) = 0.01653455
#
# Stress axis : x y z
#
# Youngs Moduli (GPa) = 62.86175 48.04337 71.89194
#
# Poissons Ratio (x) = 0.35456 0.27272
# Poissons Ratio (y) = 0.46393 0.42239
# Poissons Ratio (z) = 0.23846 0.28227
#
# Static dielectric constant tensor:
#      x y z
#    x 1.565000 0.000000 0.000000 
#    y 0.000000 1.565480 0.000000 
#    z 0.000000 0.000000 1.603920 
# 
# From -- ./inp_files/25072.got.cif
#   From: 2010.05.17/outbox.cif.g08.bks.cpg/sg47_13_cif.got.tgz:25072.got - 2010.06.03 20:15:42.
