data_PCOD9383348
_publ_section_title
;
Structure prediction by ZEFSAII (Michael W. Deem and Ramdas Pophale) SiO2 
 PCOD9383348
Probable space group: P M M M
;
_chemical_formula_sum "Si O2"
_cell_formula_units_Z 48
_cell_length_a 14.287275
_cell_length_b 14.214418
_cell_length_c 15.874261
_cell_angle_alpha 90.000000
_cell_angle_beta 90.000000
_cell_angle_gamma 90.000000
_cell_volume 3223.829040
_symmetry_space_group_name_H-M "P M M M"
_symmetry_group_IT_number 47
_symmetry_cell_setting 'orthorhombic'
loop_
_space_group_symop_operation_xyz
x,y,z
-x,-y,z
x,-y,-z
-x,y,-z
-x,-y,-z
x,y,-z
-x,y,z
x,-y,z
loop_
_atom_site_type_symbol
_atom_site_label
_atom_site_fract_x
_atom_site_fract_y
_atom_site_fract_z
Si Si1 0.298207 0.112075 0.324582
Si Si2 0.891393 0.259341 0.096060
Si Si3 0.107249 0.890574 0.242553
Si Si4 0.391804 0.885834 0.500000
Si Si5 0.717130 0.390558 0.099564
Si Si6 0.611871 0.219505 0.167777
Si Si7 0.385886 0.892131 0.000000
O O1 0.186903 0.125189 0.312287
O O2 0.338298 0.142139 0.414854
O O3 0.347280 0.169201 0.249791
O O4 0.317745 0.000000 0.314209
O O5 0.874076 0.177983 0.164048
O O6 0.819895 0.344732 0.109116
O O7 0.000000 0.288432 0.104071
O O8 0.877881 0.224783 0.000000
O O9 0.000000 0.874990 0.270922
O O10 0.114647 0.000000 0.216210
O O11 0.500000 0.854322 0.500000
O O12 0.392956 0.000000 0.500000
O O13 0.715204 0.500000 0.122193
O O14 0.649110 0.324671 0.153545
O O15 0.691917 0.382827 0.000000
O O16 0.500000 0.217643 0.171095
O O17 0.643529 0.161888 0.084366
O O18 0.500000 0.892584 0.000000
O O19 0.354190 0.000000 0.000000
#
# Coordination Sequence:
#
# PCOD9383348 Si02
#       7
#     8   8   8   4   8   8   4
#     4  10  19  32  50  72  98 129 161 197 240 285
#     4   9  17  30  47  67  94 127 163 201 239 281
#     4   9  17  29  46  70 100 130 158 192 236 289
#     4   9  18  32  49  71  98 128 164 201 235 279
#     4  10  20  33  47  65  92 126 166 207 245 284
#     4  11  20  31  46  67  94 126 164 200 239 285
#     4   9  18  30  43  63  92 123 157 195 233 279
#
# _framework density 14.889127
#
# number of rings (size 3 to 8) (size 9 to 14) (size 15 to 20)
#    0.000    2.333    2.500    1.000    0.000    2.667 
#    0.000    4.583    0.000    2.500    0.000    0.583 
#    0.000    2.000    0.000    3.667    0.000    0.167 
#
# Total GULP energy -267542.692427 kJ/mol
# GULP energy per Si atom -5573.806092 kJ/mol
# Density = 1.485524 g / cm^3
# Si number density = 14.889127 Si / 1000 Ang^3
#
#
#
# Elastic Constant Matrix: (Units=GPa)
#
#
# Indices 1 2 3 4 5 6 
#
# 1 93.4403 45.1440 60.2272 0.0000 0.0000 0.0000
# 2 45.1440 79.0288 52.8403 0.0000 0.0000 0.0000
# 3 60.2272 52.8403 112.6272 0.0000 0.0000 0.0000
# 4 0.0000 0.0000 0.0000 8.9758 0.0000 0.0000
# 5 0.0000 0.0000 0.0000 0.0000 22.9517 0.0000
# 6 0.0000 0.0000 0.0000 0.0000 0.0000 16.5029
#
#
#
# Elastic Compliance Matrix: (Units=1/GPa)
#
#
# Indices 1 2 3 4 5 6 
#
# 1 0.017865 -0.005562 -0.006944 0.000000 0.000000 0.000000
# 2 -0.005562 0.020169 -0.006488 0.000000 0.000000 0.000000
# 3 -0.006944 -0.006488 0.015636 0.000000 0.000000 0.000000
# 4 0.000000 0.000000 0.000000 0.111410 0.000000 0.000000
# 5 0.000000 0.000000 0.000000 0.000000 0.043570 0.000000
# 6 0.000000 0.000000 0.000000 0.000000 0.000000 0.060595
#
#
# Mechanical properties :
#
#
# Convention : Reuss Voigt Hill
#
# Bulk Modulus (GPa) = 63.76831 66.83546 65.30188
# Shear Modulus (GPa) = 16.00200 18.14507 17.07354
#
# Velocity S-wave (km/s) = 3.28189 3.49475 3.38999
# Velocity P-wave (km/s) = 7.56854 7.82755 7.69913
#
# Compressibility (1/GPa) = 0.01568177
#
# Stress axis : x y z
#
# Youngs Moduli (GPa) = 55.97570 49.58076 63.95560
#
# Poissons Ratio (x) = 0.27579 0.44408
# Poissons Ratio (y) = 0.31136 0.41495
# Poissons Ratio (z) = 0.38867 0.32168
#
# Static dielectric constant tensor:
#      x y z
#    x 1.527090 0.000000 0.000000 
#    y 0.000000 1.470580 0.000000 
#    z 0.000000 0.000000 1.468630 
# 
# From -- ./inp_files/22731.got.cif
#   From: 2010.05.17/outbox.cif.g08.bks.cpg/sg47_12_cif.got.tgz:22731.got - 2010.06.03 20:15:42.
