data_PCOD9383156
_publ_section_title
;
Structure prediction by ZEFSAII (Michael W. Deem and Ramdas Pophale) SiO2 
 PCOD9383156
Probable space group: P M M M
;
_chemical_formula_sum "Si O2"
_cell_formula_units_Z 52
_cell_length_a 14.825144
_cell_length_b 26.060394
_cell_length_c 7.587924
_cell_angle_alpha 90.000000
_cell_angle_beta 90.000000
_cell_angle_gamma 90.000000
_cell_volume 2931.587561
_symmetry_space_group_name_H-M "P M M M"
_symmetry_group_IT_number 47
_symmetry_cell_setting 'orthorhombic'
loop_
_space_group_symop_operation_xyz
x,y,z
-x,-y,z
x,-y,-z
-x,y,-z
-x,-y,-z
x,y,-z
-x,y,z
x,-y,z
loop_
_atom_site_type_symbol
_atom_site_label
_atom_site_fract_x
_atom_site_fract_y
_atom_site_fract_z
Si Si1 0.897873 0.157958 0.211182
Si Si2 0.600201 0.101808 0.284961
Si Si3 0.786831 0.943780 0.712121
Si Si4 0.890784 0.558234 0.500000
Si Si5 0.400137 0.779291 0.287848
Si Si6 0.207269 0.742360 0.791424
Si Si7 0.107762 0.360011 0.791107
O O1 0.850988 0.103606 0.244659
O O2 0.838604 0.205607 0.280881
O O3 0.000000 0.159629 0.279487
O O4 0.902037 0.163407 0.000000
O O5 0.600356 0.100994 0.500000
O O6 0.500000 0.085031 0.229163
O O7 0.685583 0.069349 0.224564
O O8 0.612836 0.161324 0.231068
O O9 0.782958 0.945726 0.500000
O O10 0.815976 0.000000 0.775780
O O11 0.856316 0.500000 0.500000
O O12 0.866363 0.591317 0.672393
O O13 0.000000 0.555516 0.500000
O O14 0.401484 0.779936 0.500000
O O15 0.500000 0.762732 0.227392
O O16 0.314282 0.746449 0.233559
O O17 0.161098 0.690342 0.726421
O O18 0.189550 0.742015 0.000000
O O19 0.000000 0.350982 0.770989
O O20 0.124475 0.368355 0.000000
#
# Coordination Sequence:
#
# PCOD9383156 Si02
#       7
#     8   8   8   4   8   8   8
#     4  10  21  36  51  66  87 120 159 196 242 299
#     4   8  14  27  46  67  90 114 144 184 235 296
#     4  10  20  33  49  69  90 112 148 198 243 289
#     4   9  18  32  50  76 109 147 190 220 246 295
#     4   9  17  29  47  70  96 126 156 190 239 300
#     4  10  19  31  50  73  97 127 162 204 251 296
#     4   9  18  32  49  74 109 143 177 220 261 294
#
# _framework density 17.737828
#
# number of rings (size 3 to 8) (size 9 to 14) (size 15 to 20)
#    0.000    2.692    1.538    1.385    1.077    3.692 
#    0.000    4.615    0.000    0.462    0.000    1.077 
#    0.000    1.231    0.000    3.385    0.000    0.154 
#
# Total GULP energy -289974.206720 kJ/mol
# GULP energy per Si atom -5576.427052 kJ/mol
# Density = 1.769746 g / cm^3
# Si number density = 17.737828 Si / 1000 Ang^3
#
#
#
# Elastic Constant Matrix: (Units=GPa)
#
#
# Indices 1 2 3 4 5 6 
#
# 1 100.3990 69.0716 14.3452 0.0000 0.0000 0.0000
# 2 69.0716 146.1744 31.2761 0.0000 0.0000 0.0000
# 3 14.3452 31.2761 49.9681 0.0000 0.0000 0.0000
# 4 0.0000 0.0000 0.0000 16.6309 0.0000 0.0000
# 5 0.0000 0.0000 0.0000 0.0000 20.5230 0.0000
# 6 0.0000 0.0000 0.0000 0.0000 0.0000 14.1404
#
#
#
# Elastic Compliance Matrix: (Units=1/GPa)
#
#
# Indices 1 2 3 4 5 6 
#
# 1 0.014759 -0.007006 0.000148 0.000000 0.000000 0.000000
# 2 -0.007006 0.011224 -0.005014 0.000000 0.000000 0.000000
# 3 0.000148 -0.005014 0.023109 0.000000 0.000000 0.000000
# 4 0.000000 0.000000 0.000000 0.060129 0.000000 0.000000
# 5 0.000000 0.000000 0.000000 0.000000 0.048726 0.000000
# 6 0.000000 0.000000 0.000000 0.000000 0.000000 0.070720
#
#
# Mechanical properties :
#
#
# Convention : Reuss Voigt Hill
#
# Bulk Modulus (GPa) = 39.45093 58.43636 48.94365
# Shear Modulus (GPa) = 19.16739 22.38211 20.77475
#
# Velocity S-wave (km/s) = 3.29080 3.55608 3.42601
# Velocity P-wave (km/s) = 6.06041 7.06236 6.58048
#
# Compressibility (1/GPa) = 0.02534794
#
# Stress axis : x y z
#
# Youngs Moduli (GPa) = 67.75636 89.09179 43.27339
#
# Poissons Ratio (x) = 0.62414 -0.00640
# Poissons Ratio (y) = 0.47467 0.21699
# Poissons Ratio (z) = -0.01002 0.44674
#
# Static dielectric constant tensor:
#      x y z
#    x 1.609660 0.000000 0.000000 
#    y 0.000000 1.593810 0.000000 
#    z 0.000000 0.000000 1.668470 
# 
# From -- ./inp_files/7011.got.cif
#   From: 2010.05.17/outbox.cif.g08.bks.cpg/sg47_4_cif.got.tgz:7011.got - 2010.06.03 20:15:42.
