data_PCOD9383053
_publ_section_title
;
Structure prediction by ZEFSAII (Michael W. Deem and Ramdas Pophale) SiO2 
 PCOD9383053
Probable space group: P M M M
;
_chemical_formula_sum "Si O2"
_cell_formula_units_Z 56
_cell_length_a 8.229012
_cell_length_b 19.813371
_cell_length_c 19.427283
_cell_angle_alpha 90.000000
_cell_angle_beta 90.000000
_cell_angle_gamma 90.000000
_cell_volume 3167.511016
_symmetry_space_group_name_H-M "P M M M"
_symmetry_group_IT_number 47
_symmetry_cell_setting 'orthorhombic'
loop_
_space_group_symop_operation_xyz
x,y,z
-x,-y,z
x,-y,-z
-x,y,-z
-x,-y,-z
x,y,-z
-x,y,z
x,-y,z
loop_
_atom_site_type_symbol
_atom_site_label
_atom_site_fract_x
_atom_site_fract_y
_atom_site_fract_z
Si Si1 0.194188 0.782182 0.783323
Si Si2 0.301861 0.575230 0.146198
Si Si3 0.187992 0.075050 0.221836
Si Si4 0.684734 0.919078 0.074949
Si Si5 0.804010 0.577920 0.423284
Si Si6 0.696216 0.285789 0.922794
Si Si7 0.306355 0.646159 0.284978
O O1 0.260471 0.853637 0.753735
O O2 0.252301 0.763044 0.860554
O O3 0.241540 0.719341 0.735987
O O4 0.000000 0.787448 0.785540
O O5 0.500000 0.574291 0.144134
O O6 0.245725 0.500000 0.127543
O O7 0.250905 0.638160 0.098705
O O8 0.252191 0.594892 0.224151
O O9 0.199315 0.088238 0.139626
O O10 0.000000 0.071211 0.243028
O O11 0.260842 0.000000 0.234945
O O12 0.500000 0.893932 0.088712
O O13 0.671391 0.000000 0.068989
O O14 0.737008 0.893133 0.000000
O O15 0.750760 0.599700 0.500000
O O16 0.751414 0.500000 0.413769
O O17 0.744788 0.621734 0.359793
O O18 0.000000 0.578413 0.422931
O O19 0.500000 0.285458 0.923544
O O20 0.753005 0.269434 0.000000
O O21 0.500000 0.648547 0.281210
#
# Coordination Sequence:
#
# PCOD9383053 Si02
#       7
#     8   8   8   8   8   8   8
#     4  10  20  33  48  64  85 117 154 191 237 291
#     4   8  14  25  42  64  86 109 143 187 231 269
#     4   9  18  31  45  61  80 103 137 184 233 280
#     4   8  14  24  37  54  76 101 129 164 213 274
#     4   9  18  32  50  75 108 141 167 191 222 259
#     4   9  18  31  45  62  85 113 147 191 241 289
#     4  10  19  31  48  70  97 127 160 195 228 268
#
# _framework density 17.679494999999999
#
# number of rings (size 3 to 8) (size 9 to 14) (size 15 to 20)
#    0.000    3.000    0.000    3.000    0.000    3.714 
#    0.000    6.429    0.000    3.857    0.000    4.000 
#    0.000    0.571    0.000    6.571    0.000    1.857 
#
# Total GULP energy -311777.827691 kJ/mol
# GULP energy per Si atom -5567.461209 kJ/mol
# Density = 1.763926 g / cm^3
# Si number density = 17.679495 Si / 1000 Ang^3
#
#
#
# Elastic Constant Matrix: (Units=GPa)
#
#
# Indices 1 2 3 4 5 6 
#
# 1 15.6654 9.6244 10.9105 0.0000 0.0000 0.0000
# 2 9.6244 145.0935 40.8619 0.0000 0.0000 0.0000
# 3 10.9105 40.8619 79.8750 0.0000 0.0000 0.0000
# 4 0.0000 0.0000 0.0000 6.0102 0.0000 0.0000
# 5 0.0000 0.0000 0.0000 0.0000 20.0736 0.0000
# 6 0.0000 0.0000 0.0000 0.0000 0.0000 11.6845
#
#
#
# Elastic Compliance Matrix: (Units=1/GPa)
#
#
# Indices 1 2 3 4 5 6 
#
# 1 0.071207 -0.002318 -0.008541 0.000000 0.000000 0.000000
# 2 -0.002318 0.008128 -0.003841 0.000000 0.000000 0.000000
# 3 -0.008541 -0.003841 0.015651 0.000000 0.000000 0.000000
# 4 0.000000 0.000000 0.000000 0.166385 0.000000 0.000000
# 5 0.000000 0.000000 0.000000 0.000000 0.049817 0.000000
# 6 0.000000 0.000000 0.000000 0.000000 0.000000 0.085583
#
#
# Mechanical properties :
#
#
# Convention : Reuss Voigt Hill
#
# Bulk Modulus (GPa) = 15.24708 40.38082 27.81395
# Shear Modulus (GPa) = 11.15988 19.50279 15.33133
#
# Velocity S-wave (km/s) = 2.51516 3.32494 2.94799
# Velocity P-wave (km/s) = 4.13250 6.13436 5.23011
#
# Compressibility (1/GPa) = 0.06558631
#
# Stress axis : x y z
#
# Youngs Moduli (GPa) = 14.04349 123.03651 63.89263
#
# Poissons Ratio (x) = 0.28521 0.54568
# Poissons Ratio (y) = 0.03255 0.24543
# Poissons Ratio (z) = 0.11994 0.47262
#
# Static dielectric constant tensor:
#      x y z
#    x 1.630990 0.000000 0.000000 
#    y 0.000000 1.676810 0.000000 
#    z 0.000000 0.000000 1.593370 
# 
# From -- ./inp_files/11739.got.cif
#   From: 2010.05.17/outbox.cif.g08.bks.cpg/sg47_6_cif.got.tgz:11739.got - 2010.06.03 20:15:42.
