data_PCOD9383912
_publ_section_title
;
Structure prediction by ZEFSAII (Michael W. Deem and Ramdas Pophale) SiO2 
 PCOD9383912
Probable space group: P M M M
;
_chemical_formula_sum "Si O2"
_cell_formula_units_Z 56
_cell_length_a 8.217441
_cell_length_b 16.081570
_cell_length_c 20.669562
_cell_angle_alpha 90.000000
_cell_angle_beta 90.000000
_cell_angle_gamma 90.000000
_cell_volume 2731.469238
_symmetry_space_group_name_H-M "P M M M"
_symmetry_group_IT_number 47
_symmetry_cell_setting 'orthorhombic'
loop_
_space_group_symop_operation_xyz
x,y,z
-x,-y,z
x,-y,-z
-x,y,-z
-x,-y,-z
x,y,-z
-x,y,z
x,-y,z
loop_
_atom_site_type_symbol
_atom_site_label
_atom_site_fract_x
_atom_site_fract_y
_atom_site_fract_z
Si Si1 0.809253 0.173137 0.134603
Si Si2 0.198640 0.903580 0.000000
Si Si3 0.676679 0.098029 0.264442
Si Si4 0.694877 0.722184 0.570586
Si Si5 0.698504 0.403714 0.316587
Si Si6 0.697573 0.353042 0.830095
Si Si7 0.813541 0.904808 0.399468
Si Si8 0.302416 0.500000 0.926336
O O1 0.723007 0.132291 0.195594
O O2 0.779711 0.269600 0.145590
O O3 0.000000 0.152470 0.137940
O O4 0.746164 0.141088 0.065602
O O5 0.000000 0.900554 0.000000
O O6 0.246570 0.000000 0.000000
O O7 0.500000 0.132629 0.285405
O O8 0.801758 0.110322 0.322305
O O9 0.664110 0.000000 0.257500
O O10 0.754799 0.692549 0.500000
O O11 0.500000 0.714288 0.571596
O O12 0.754963 0.664346 0.630124
O O13 0.732359 0.820980 0.574355
O O14 0.500000 0.403624 0.317627
O O15 0.748754 0.500000 0.329017
O O16 0.744982 0.377415 0.243339
O O17 0.500000 0.343920 0.830027
O O18 0.743258 0.421908 0.882597
O O19 0.000000 0.906157 0.420575
O O20 0.746888 0.000000 0.411643
O O21 0.500000 0.500000 0.929743
O O22 0.241177 0.500000 0.000000
#
# Coordination Sequence:
#
# PCOD9383912 Si02
#       8
#     8   4   8   8   8   8   8   4
#     4  11  22  35  54  79 109 146 189 233 283 341
#     4   9  20  38  55  72 103 150 196 235 279 335
#     4  10  20  35  56  82 110 140 179 230 283 333
#     4  10  21  35  54  83 116 149 188 239 293 339
#     4   9  17  33  57  82 109 144 189 235 282 343
#     4  10  19  34  57  82 108 143 187 235 288 341
#     4  10  21  37  58  83 112 149 190 231 281 345
#     4   9  18  32  53  81 110 142 182 233 291 348
#
# _framework density 20.501787
#
# number of rings (size 3 to 8) (size 9 to 14) (size 15 to 20)
#    0.000    2.143    0.714    2.571    1.000    4.286 
#    0.000    4.286    0.000    4.286    0.000    1.000 
#    0.000    0.000    0.000    0.000    0.000    0.000 
#
# Total GULP energy -312318.848267 kJ/mol
# GULP energy per Si atom -5577.122290 kJ/mol
# Density = 2.045512 g / cm^3
# Si number density = 20.501787 Si / 1000 Ang^3
#
#
#
# Elastic Constant Matrix: (Units=GPa)
#
#
# Indices 1 2 3 4 5 6 
#
# 1 13.4099 7.1558 3.4220 0.0000 0.0000 0.0000
# 2 7.1558 93.0027 84.9842 0.0000 0.0000 0.0000
# 3 3.4220 84.9842 162.0325 0.0000 0.0000 0.0000
# 4 0.0000 0.0000 0.0000 30.6028 0.0000 0.0000
# 5 0.0000 0.0000 0.0000 0.0000 8.2057 0.0000
# 6 0.0000 0.0000 0.0000 0.0000 0.0000 13.2112
#
#
#
# Elastic Compliance Matrix: (Units=1/GPa)
#
#
# Indices 1 2 3 4 5 6 
#
# 1 0.078467 -0.008686 0.002899 0.000000 0.000000 0.000000
# 2 -0.008686 0.021610 -0.011151 0.000000 0.000000 0.000000
# 3 0.002899 -0.011151 0.011959 0.000000 0.000000 0.000000
# 4 0.000000 0.000000 0.000000 0.032677 0.000000 0.000000
# 5 0.000000 0.000000 0.000000 0.000000 0.121867 0.000000
# 6 0.000000 0.000000 0.000000 0.000000 0.000000 0.075694
#
#
# Mechanical properties :
#
#
# Convention : Reuss Voigt Hill
#
# Bulk Modulus (GPa) = 12.79439 51.06323 31.92881
# Shear Modulus (GPa) = 12.43155 21.92947 17.18051
#
# Velocity S-wave (km/s) = 2.46512 3.27408 2.89796
# Velocity P-wave (km/s) = 3.78901 6.26527 5.17736
#
# Compressibility (1/GPa) = 0.07815925
#
# Stress axis : x y z
#
# Youngs Moduli (GPa) = 12.74424 46.27464 83.61997
#
# Poissons Ratio (x) = 0.40194 -0.24237
# Poissons Ratio (y) = 0.11070 0.93243
# Poissons Ratio (z) = -0.03694 0.51600
#
# Static dielectric constant tensor:
#      x y z
#    x 1.746080 0.000000 0.000000 
#    y 0.000000 1.527540 0.000000 
#    z 0.000000 0.000000 2.076960 
# 
# From -- ./inp_files/11335.got.cif
#   From: 2010.05.17/outbox.cif.g08.bks.cpg/sg47_6_cif.got.tgz:11335.got - 2010.06.03 20:15:42.
