data_PCOD9383438
_publ_section_title
;
Structure prediction by ZEFSAII (Michael W. Deem and Ramdas Pophale) SiO2 
 PCOD9383438
Probable space group: P M M M
;
_chemical_formula_sum "Si O2"
_cell_formula_units_Z 52
_cell_length_a 25.432463
_cell_length_b 7.470115
_cell_length_c 13.086965
_cell_angle_alpha 90.000000
_cell_angle_beta 90.000000
_cell_angle_gamma 90.000000
_cell_volume 2486.306412
_symmetry_space_group_name_H-M "P M M M"
_symmetry_group_IT_number 47
_symmetry_cell_setting 'orthorhombic'
loop_
_space_group_symop_operation_xyz
x,y,z
-x,-y,z
x,-y,-z
-x,y,-z
-x,-y,-z
x,y,-z
-x,y,z
x,-y,z
loop_
_atom_site_type_symbol
_atom_site_label
_atom_site_fract_x
_atom_site_fract_y
_atom_site_fract_z
Si Si1 0.000000 0.698871 0.877712
Si Si2 0.559736 0.281760 0.115609
Si Si3 0.628769 0.719177 0.302860
Si Si4 0.737546 0.283081 0.383154
Si Si5 0.061097 0.281337 0.500000
Si Si6 0.147035 0.706004 0.337890
Si Si7 0.560888 0.281567 0.500000
Si Si8 0.883227 0.204118 0.116184
O O1 0.054713 0.792230 0.856985
O O2 0.000000 0.500000 0.830508
O O3 0.000000 0.680902 0.000000
O O4 0.500000 0.228354 0.141648
O O5 0.560143 0.500000 0.115972
O O6 0.600890 0.221284 0.199490
O O7 0.571221 0.224686 0.000000
O O8 0.629285 0.500000 0.303601
O O9 0.688918 0.779334 0.315040
O O10 0.593090 0.773309 0.399420
O O11 0.722937 0.246372 0.500000
O O12 0.739998 0.500000 0.371506
O O13 0.796240 0.212616 0.363986
O O14 0.057615 0.500000 0.500000
O O15 0.096478 0.223891 0.598696
O O16 0.000000 0.219640 0.500000
O O17 0.149585 0.500000 0.371522
O O18 0.141818 0.708597 0.215453
O O19 0.560135 0.500000 0.500000
O O20 0.500000 0.223527 0.500000
O O21 0.865220 0.000000 0.112532
O O22 0.876894 0.279118 0.000000
#
# Coordination Sequence:
#
# PCOD9383438 Si02
#       8
#     4   8   8   8   4   8   4   8
#     4   9  17  31  53  78 101 128 163 197 231 283
#     4   8  13  20  28  39  61  96 136 177 222 273
#     4   9  14  20  31  47  68  98 138 184 232 277
#     4   9  15  26  41  58  81 112 150 192 243 295
#     4   9  18  31  48  72  97 121 155 199 246 292
#     4  10  19  32  52  73  95 126 166 207 246 296
#     4   9  14  17  25  45  70  96 134 186 232 270
#     4  10  21  36  52  73 104 136 162 196 247 297
#
# _framework density 20.914556999999999
#
# number of rings (size 3 to 8) (size 9 to 14) (size 15 to 20)
#    0.000    2.846    1.538    1.615    1.077    3.692 
#    0.000    1.154    0.000    3.231    0.000    0.000 
#    0.000    0.000    0.000    0.000    0.000    3.846 
#
# Total GULP energy -289853.796895 kJ/mol
# GULP energy per Si atom -5574.111479 kJ/mol
# Density = 2.086695 g / cm^3
# Si number density = 20.914557 Si / 1000 Ang^3
#
#
#
# Elastic Constant Matrix: (Units=GPa)
#
#
# Indices 1 2 3 4 5 6 
#
# 1 180.0524 5.5590 93.6664 0.0000 0.0000 0.0000
# 2 5.5590 58.3325 4.1779 0.0000 0.0000 0.0000
# 3 93.6664 4.1779 130.3840 0.0000 0.0000 0.0000
# 4 0.0000 0.0000 0.0000 -122.6757 0.0000 0.0000
# 5 0.0000 0.0000 0.0000 0.0000 27.9533 0.0000
# 6 0.0000 0.0000 0.0000 0.0000 0.0000 -9.5812
#
#
#
# Elastic Compliance Matrix: (Units=1/GPa)
#
#
# Indices 1 2 3 4 5 6 
#
# 1 0.008877 -0.000390 -0.006365 0.000000 0.000000 0.000000
# 2 -0.000390 0.017200 -0.000271 0.000000 0.000000 0.000000
# 3 -0.006365 -0.000271 0.012251 0.000000 0.000000 0.000000
# 4 0.000000 0.000000 0.000000 -0.008152 0.000000 0.000000
# 5 0.000000 0.000000 0.000000 0.000000 0.035774 0.000000
# 6 0.000000 0.000000 0.000000 0.000000 0.000000 -0.104371
#
#
# Mechanical properties :
#
#
# Convention : Reuss Voigt Hill
#
# Bulk Modulus (GPa) = 41.19290 63.95284 52.57287
# Shear Modulus (GPa) = -307.16223 -3.16969 -155.16596
#
# Velocity S-wave (km/s) = -12.13195 -1.23241 -8.62273
# Velocity P-wave (km/s) = 13.28559 5.34971 8.59906
#
# Compressibility (1/GPa) = 0.02427603
#
# Stress axis : x y z
#
# Youngs Moduli (GPa) = 112.65102 58.14066 81.62862
#
# Poissons Ratio (x) = 0.02268 0.51954
# Poissons Ratio (y) = 0.04395 0.02211
# Poissons Ratio (z) = 0.71698 0.01575
#
# Static dielectric constant tensor:
#      x y z
#    x 1.742080 0.000000 0.000000 
#    y 0.000000 1.801040 0.000000 
#    z 0.000000 0.000000 1.731670 
# 
# From -- ./inp_files/19845.got.cif
#   From: 2010.05.17/outbox.cif.g08.bks.cpg/sg47_10_cif.got.tgz:19845.got - 2010.06.03 20:15:42.
