data_PCOD9383651
_publ_section_title
;
Structure prediction by ZEFSAII (Michael W. Deem and Ramdas Pophale) SiO2 
 PCOD9383651
Probable space group: P M M M
;
_chemical_formula_sum "Si O2"
_cell_formula_units_Z 44
_cell_length_a 7.542178
_cell_length_b 15.837963
_cell_length_c 17.155984
_cell_angle_alpha 90.000000
_cell_angle_beta 90.000000
_cell_angle_gamma 90.000000
_cell_volume 2049.329229
_symmetry_space_group_name_H-M "P M M M"
_symmetry_group_IT_number 47
_symmetry_cell_setting 'orthorhombic'
loop_
_space_group_symop_operation_xyz
x,y,z
-x,-y,z
x,-y,-z
-x,y,-z
-x,-y,-z
x,y,-z
-x,y,z
x,-y,z
loop_
_atom_site_type_symbol
_atom_site_label
_atom_site_fract_x
_atom_site_fract_y
_atom_site_fract_z
Si Si1 0.789887 0.256075 0.805542
Si Si2 0.283161 0.597358 0.500000
Si Si3 0.293410 0.910342 0.406463
Si Si4 0.705387 0.270613 0.371154
Si Si5 0.216146 0.408185 0.910423
Si Si6 0.713331 0.903397 0.911249
O O1 0.710997 0.277262 0.721458
O O2 0.721137 0.327421 0.864156
O O3 0.760990 0.164931 0.845562
O O4 0.000000 0.265756 0.796375
O O5 0.221546 0.500000 0.500000
O O6 0.500000 0.592679 0.500000
O O7 0.226264 0.652363 0.424055
O O8 0.295719 0.912454 0.500000
O O9 0.500000 0.909726 0.379595
O O10 0.209324 0.821241 0.385538
O O11 0.216061 0.000000 0.378870
O O12 0.500000 0.262880 0.396700
O O13 0.269483 0.500000 0.878403
O O14 0.000000 0.406452 0.910141
O O15 0.271839 0.403436 0.000000
O O16 0.500000 0.905352 0.913466
O O17 0.773377 0.000000 0.895563
O O18 0.773521 0.880088 0.000000
#
# Coordination Sequence:
#
# PCOD9383651 Si02
#       6
#     8   4   8   8   8   8
#     4  11  22  33  50  80 113 143 175 219 271 322
#     4   9  18  34  56  78 100 133 181 234 282 327
#     4   8  13  24  46  72  91 112 153 207 251 290
#     4  10  19  33  52  74 101 135 175 220 268 322
#     4   8  15  30  51  72  96 130 172 214 255 305
#     4   9  19  37  59  81 108 146 189 226 261 309
#
# _framework density 21.470441000000001
#
# number of rings (size 3 to 8) (size 9 to 14) (size 15 to 20)
#    0.000    2.818    0.909    2.727    0.000    2.909 
#    0.000    3.182    0.000    2.182    0.000    7.636 
#    0.000    0.000    0.000    0.000    0.000    0.000 
#
# Total GULP energy -245194.058890 kJ/mol
# GULP energy per Si atom -5572.592248 kJ/mol
# Density = 2.142157 g / cm^3
# Si number density = 21.470441 Si / 1000 Ang^3
#
#
#
# Elastic Constant Matrix: (Units=GPa)
#
#
# Indices 1 2 3 4 5 6 
#
# 1 57.3635 4.4523 -4.0512 0.0000 0.0000 0.0000
# 2 4.4523 207.7967 89.3339 0.0000 0.0000 0.0000
# 3 -4.0512 89.3339 106.0155 0.0000 0.0000 0.0000
# 4 0.0000 0.0000 0.0000 -7.0519 0.0000 0.0000
# 5 0.0000 0.0000 0.0000 0.0000 -64.3560 0.0000
# 6 0.0000 0.0000 0.0000 0.0000 0.0000 17.9453
#
#
#
# Elastic Compliance Matrix: (Units=1/GPa)
#
#
# Indices 1 2 3 4 5 6 
#
# 1 0.017624 -0.001046 0.001555 0.000000 0.000000 0.000000
# 2 -0.001046 0.007608 -0.006451 0.000000 0.000000 0.000000
# 3 0.001555 -0.006451 0.014928 0.000000 0.000000 0.000000
# 4 0.000000 0.000000 0.000000 -0.141806 0.000000 0.000000
# 5 0.000000 0.000000 0.000000 0.000000 -0.015539 0.000000
# 6 0.000000 0.000000 0.000000 0.000000 0.000000 0.055725
#
#
# Mechanical properties :
#
#
# Convention : Reuss Voigt Hill
#
# Bulk Modulus (GPa) = 35.36630 61.18286 48.27458
# Shear Modulus (GPa) = -124.53093 8.07020 -58.23036
#
# Velocity S-wave (km/s) = -7.62411 1.94085 -5.21345
# Velocity P-wave (km/s) = 7.80992 5.79489 3.70230
#
# Compressibility (1/GPa) = 0.02827551
#
# Stress axis : x y z
#
# Youngs Moduli (GPa) = 56.74178 131.43805 66.98861
#
# Poissons Ratio (x) = 0.13750 -0.10416
# Poissons Ratio (y) = 0.05936 0.43214
# Poissons Ratio (z) = -0.08823 0.84790
#
# Static dielectric constant tensor:
#      x y z
#    x 1.819080 0.000000 0.000000 
#    y 0.000000 1.826880 0.000000 
#    z 0.000000 0.000000 1.660310 
# 
# From -- ./inp_files/26392.got.cif
#   From: 2010.05.17/outbox.cif.g08.bks.cpg/sg47_14_cif.got.tgz:26392.got - 2010.06.03 20:15:42.
