data_PCOD9383357
_publ_section_title
;
Structure prediction by ZEFSAII (Michael W. Deem and Ramdas Pophale) SiO2 
 PCOD9383357
Probable space group: P M M M
;
_chemical_formula_sum "Si O2"
_cell_formula_units_Z 45
_cell_length_a 7.617450
_cell_length_b 23.503069
_cell_length_c 12.531268
_cell_angle_alpha 90.000000
_cell_angle_beta 90.000000
_cell_angle_gamma 90.000000
_cell_volume 2243.516180
_symmetry_space_group_name_H-M "P M M M"
_symmetry_group_IT_number 47
_symmetry_cell_setting 'orthorhombic'
loop_
_space_group_symop_operation_xyz
x,y,z
-x,-y,z
x,-y,-z
-x,y,-z
-x,-y,-z
x,y,-z
-x,y,z
x,-y,z
loop_
_atom_site_type_symbol
_atom_site_label
_atom_site_fract_x
_atom_site_fract_y
_atom_site_fract_z
Si Si1 0.285654 0.064844 0.621818
Si Si2 0.794336 0.374529 0.226066
Si Si3 0.710593 0.167282 0.767657
Si Si4 0.792208 0.335770 0.000000
Si Si5 0.308637 0.500000 0.720083
Si Si6 0.788630 0.723439 0.378788
Si Si7 0.500000 0.500000 0.500000
Si Si8 0.286684 0.797361 0.000000
O O1 0.232659 0.078624 0.500000
O O2 0.500000 0.065472 0.622748
O O3 0.222635 0.111945 0.704804
O O4 0.231845 0.000000 0.645630
O O5 0.716713 0.359690 0.110450
O O6 0.779497 0.440857 0.250386
O O7 0.722017 0.333642 0.319334
O O8 0.000000 0.359683 0.220455
O O9 0.500000 0.161857 0.774321
O O10 0.747157 0.222978 0.696394
O O11 0.775185 0.175089 0.888786
O O12 0.770255 0.268155 0.000000
O O13 0.000000 0.349973 0.000000
O O14 0.500000 0.500000 0.775114
O O15 0.350465 0.500000 0.594621
O O16 0.720910 0.729391 0.500000
O O17 0.000000 0.720330 0.386575
O O18 0.500000 0.798551 0.000000
#
# Coordination Sequence:
#
# PCOD9383357 Si02
#       8
#     8   8   8   4   4   8   1   4
#     4   8  14  26  46  71 100 135 177 221 263 311
#     4  10  21  38  59  82 106 138 179 221 264 313
#     4  10  19  32  50  75 104 139 177 218 265 318
#     4  10  20  37  61  81 104 139 181 216 259 320
#     4  10  23  40  58  80 108 144 174 215 261 316
#     4  10  21  34  52  79 107 134 171 220 267 315
#     4   8  24  44  58  78 116 148 182 208 260 332
#     4  10  20  32  48  75 110 140 174 218 269 314
#
# _framework density 20.0578
#
# number of rings (size 3 to 8) (size 9 to 14) (size 15 to 20)
#    0.267    2.133    1.778    1.333    1.244    2.844 
#    0.000    2.667    0.000    3.200    0.000    2.489 
#    0.000    2.133    0.000    0.000    0.000    0.000 
#
# Total GULP energy -250723.427868 kJ/mol
# GULP energy per Si atom -5571.631730 kJ/mol
# Density = 2.001215 g / cm^3
# Si number density = 20.057800 Si / 1000 Ang^3
#
#
#
# Elastic Constant Matrix: (Units=GPa)
#
#
# Indices 1 2 3 4 5 6 
#
# 1 34.1492 -16.2877 4.9268 0.0000 0.0000 0.0000
# 2 -16.2877 140.6168 109.8185 0.0000 0.0000 0.0000
# 3 4.9268 109.8185 215.6239 0.0000 0.0000 0.0000
# 4 0.0000 0.0000 0.0000 -0.1179 0.0000 0.0000
# 5 0.0000 0.0000 0.0000 0.0000 0.4435 0.0000
# 6 0.0000 0.0000 0.0000 0.0000 0.0000 18.8059
#
#
#
# Elastic Compliance Matrix: (Units=1/GPa)
#
#
# Indices 1 2 3 4 5 6 
#
# 1 0.033485 0.007432 -0.004550 0.000000 0.000000 0.000000
# 2 0.007432 0.013458 -0.007024 0.000000 0.000000 0.000000
# 3 -0.004550 -0.007024 0.008319 0.000000 0.000000 0.000000
# 4 0.000000 0.000000 0.000000 -8.481518 0.000000 0.000000
# 5 0.000000 0.000000 0.000000 0.000000 2.254971 0.000000
# 6 0.000000 0.000000 0.000000 0.000000 0.000000 0.053175
#
#
# Mechanical properties :
#
#
# Convention : Reuss Voigt Hill
#
# Bulk Modulus (GPa) = 21.28682 65.25613 43.27148
# Shear Modulus (GPa) = -0.82046 23.28844 11.23399
#
# Velocity S-wave (km/s) = -0.64026 3.41114 2.36917
# Velocity P-wave (km/s) = 3.17635 6.93680 5.39483
#
# Compressibility (1/GPa) = 0.04697742
#
# Stress axis : x y z
#
# Youngs Moduli (GPa) = 29.86442 74.30482 120.20538
#
# Poissons Ratio (x) = -0.55226 0.54699
# Poissons Ratio (y) = -0.22196 0.84433
# Poissons Ratio (z) = 0.13590 0.52192
#
# Static dielectric constant tensor:
#      x y z
#    x 1.765310 0.000000 0.000000 
#    y 0.000000 1.683750 0.000000 
#    z 0.000000 0.000000 1.720640 
# 
# From -- ./inp_files/15364.got.cif
#   From: 2010.05.17/outbox.cif.g08.bks.cpg/sg47_8_cif.got.tgz:15364.got - 2010.06.03 20:15:42.
