data_PCOD9383173
_publ_section_title
;
Structure prediction by ZEFSAII (Michael W. Deem and Ramdas Pophale) SiO2 
 PCOD9383173
Probable space group: P M M M
;
_chemical_formula_sum "Si O2"
_cell_formula_units_Z 64
_cell_length_a 7.829184
_cell_length_b 16.672729
_cell_length_c 23.305228
_cell_angle_alpha 90.000000
_cell_angle_beta 90.000000
_cell_angle_gamma 90.000000
_cell_volume 3042.121442
_symmetry_space_group_name_H-M "P M M M"
_symmetry_group_IT_number 47
_symmetry_cell_setting 'orthorhombic'
loop_
_space_group_symop_operation_xyz
x,y,z
-x,-y,z
x,-y,-z
-x,y,-z
-x,-y,-z
x,y,-z
-x,y,z
x,-y,z
loop_
_atom_site_type_symbol
_atom_site_label
_atom_site_fract_x
_atom_site_fract_y
_atom_site_fract_z
Si Si1 0.208616 0.760822 0.061895
Si Si2 0.198868 0.788732 0.186440
Si Si3 0.294286 0.411071 0.650322
Si Si4 0.304032 0.618987 0.221042
Si Si5 0.198189 0.090195 0.409860
Si Si6 0.305556 0.093005 0.719108
Si Si7 0.794387 0.731755 0.563275
Si Si8 0.199736 0.415190 0.094222
O O1 0.258070 0.803635 0.121179
O O2 0.268057 0.668455 0.070092
O O3 0.000000 0.761189 0.060686
O O4 0.267227 0.791468 0.000000
O O5 0.297828 0.714599 0.213915
O O6 0.219616 0.861323 0.229151
O O7 0.000000 0.764317 0.183645
O O8 0.500000 0.411633 0.653088
O O9 0.239084 0.500000 0.628902
O O10 0.232512 0.402157 0.716353
O O11 0.249682 0.334117 0.611455
O O12 0.500000 0.591589 0.218321
O O13 0.213440 0.588749 0.163441
O O14 0.209297 0.099124 0.341138
O O15 0.271466 0.175918 0.430637
O O16 0.000000 0.087315 0.428019
O O17 0.270857 0.000000 0.423584
O O18 0.500000 0.122569 0.710514
O O19 0.312822 0.000000 0.733530
O O20 0.742098 0.702307 0.500000
O O21 0.000000 0.738450 0.564934
O O22 0.276290 0.500000 0.075137
O O23 0.000000 0.415766 0.078653
#
# Coordination Sequence:
#
# PCOD9383173 Si02
#       8
#     8   8   8   8   8   8   8   8
#     4   8  15  28  45  66  92 124 164 207 247 286
#     4  10  19  31  50  75 101 129 163 204 249 298
#     4  10  22  38  54  73  98 133 177 219 259 304
#     4  10  19  32  51  73  98 128 163 205 255 307
#     4   9  18  34  57  83 110 139 168 201 246 302
#     4  10  20  33  51  77 107 134 160 194 239 293
#     4  10  22  38  55  78 106 135 170 211 254 301
#     4   9  17  28  44  69  98 126 159 201 248 297
#
# _framework density 21.037951
#
# number of rings (size 3 to 8) (size 9 to 14) (size 15 to 20)
#    0.000    2.500    0.000    3.000    0.000    6.250 
#    0.000    3.750    0.000    9.750    0.000    8.750 
#    0.000    0.000    0.000    0.000    0.000    0.000 
#
# Total GULP energy -356715.439650 kJ/mol
# GULP energy per Si atom -5573.678745 kJ/mol
# Density = 2.099007 g / cm^3
# Si number density = 21.037951 Si / 1000 Ang^3
#
#
#
# Elastic Constant Matrix: (Units=GPa)
#
#
# Indices 1 2 3 4 5 6 
#
# 1 37.4298 5.6421 2.1219 0.0000 0.0000 0.0000
# 2 5.6421 73.2328 50.7339 0.0000 0.0000 0.0000
# 3 2.1219 50.7339 110.6209 0.0000 0.0000 0.0000
# 4 0.0000 0.0000 0.0000 -11.8721 0.0000 0.0000
# 5 0.0000 0.0000 0.0000 0.0000 49.8038 0.0000
# 6 0.0000 0.0000 0.0000 0.0000 0.0000 1.0534
#
#
#
# Elastic Compliance Matrix: (Units=1/GPa)
#
#
# Indices 1 2 3 4 5 6 
#
# 1 0.027062 -0.002529 0.000641 0.000000 0.000000 0.000000
# 2 -0.002529 0.020250 -0.009239 0.000000 0.000000 0.000000
# 3 0.000641 -0.009239 0.013265 0.000000 0.000000 0.000000
# 4 0.000000 0.000000 0.000000 -0.084231 0.000000 0.000000
# 5 0.000000 0.000000 0.000000 0.000000 0.020079 0.000000
# 6 0.000000 0.000000 0.000000 0.000000 0.000000 0.949345
#
#
# Mechanical properties :
#
#
# Convention : Reuss Voigt Hill
#
# Bulk Modulus (GPa) = 26.09411 37.58657 31.84034
# Shear Modulus (GPa) = 5.09789 18.64939 11.87364
#
# Velocity S-wave (km/s) = 1.55835 2.98058 2.37827
# Velocity P-wave (km/s) = 3.95831 5.45436 4.76541
#
# Compressibility (1/GPa) = 0.03832282
#
# Stress axis : x y z
#
# Youngs Moduli (GPa) = 36.95277 49.38182 75.38748
#
# Poissons Ratio (x) = 0.12487 -0.04830
# Poissons Ratio (y) = 0.09344 0.69650
# Poissons Ratio (z) = -0.02368 0.45623
#
# Static dielectric constant tensor:
#      x y z
#    x 1.810200 0.000000 0.000000 
#    y 0.000000 1.779160 0.000000 
#    z 0.000000 0.000000 1.762330 
# 
# From -- ./inp_files/29950.got.cif
#   From: 2010.05.17/outbox.cif.g08.bks.cpg/sg47_15_cif.got.tgz:29950.got - 2010.06.03 20:15:42.
