data_PCOD9383767
_publ_section_title
;
Structure prediction by ZEFSAII (Michael W. Deem and Ramdas Pophale) SiO2 
 PCOD9383767
Probable space group: P M M M
;
_chemical_formula_sum "Si O2"
_cell_formula_units_Z 56
_cell_length_a 19.595898
_cell_length_b 8.370094
_cell_length_c 18.066706
_cell_angle_alpha 90.000000
_cell_angle_beta 90.000000
_cell_angle_gamma 90.000000
_cell_volume 2963.292234
_symmetry_space_group_name_H-M "P M M M"
_symmetry_group_IT_number 47
_symmetry_cell_setting 'orthorhombic'
loop_
_space_group_symop_operation_xyz
x,y,z
-x,-y,z
x,-y,-z
-x,y,-z
-x,-y,-z
x,y,-z
-x,y,z
x,-y,z
loop_
_atom_site_type_symbol
_atom_site_label
_atom_site_fract_x
_atom_site_fract_y
_atom_site_fract_z
Si Si1 0.816981 0.808727 0.915747
Si Si2 0.308219 0.809756 0.302329
Si Si3 0.672344 0.311708 0.135669
Si Si4 0.578056 0.692949 0.584666
Si Si5 0.920280 0.308922 0.500000
Si Si6 0.579057 0.304456 0.000000
Si Si7 0.157858 0.193425 0.353865
Si Si8 0.923083 0.194857 0.207843
O O1 0.746147 0.723179 0.899124
O O2 0.874151 0.754609 0.858467
O O3 0.806069 0.000000 0.905280
O O4 0.838181 0.782619 0.000000
O O5 0.325216 0.756657 0.218688
O O6 0.367748 0.757592 0.357629
O O7 0.234756 0.750411 0.333684
O O8 0.303446 0.000000 0.301000
O O9 0.660848 0.500000 0.142953
O O10 0.617737 0.249948 0.074937
O O11 0.593669 0.742366 0.500000
O O12 0.500000 0.742221 0.601348
O O13 0.579734 0.500000 0.586595
O O14 0.923051 0.500000 0.500000
O O15 0.877463 0.253445 0.571527
O O16 0.000000 0.250451 0.500000
O O17 0.582222 0.500000 0.000000
O O18 0.500000 0.257818 0.000000
O O19 0.110285 0.242015 0.285254
O O20 0.159641 0.000000 0.357350
O O21 0.000000 0.252501 0.200323
O O22 0.924433 0.000000 0.206649
#
# Coordination Sequence:
#
# PCOD9383767 Si02
#       8
#     8   8   8   8   4   4   8   8
#     4  10  19  33  55  82 115 149 183 234 288 333
#     4  11  23  38  59  89 121 150 192 242 292 342
#     4  11  21  36  59  84 112 151 194 235 285 345
#     4   9  20  40  63  87 117 153 191 230 279 340
#     4  11  25  41  57  83 118 151 190 245 301 350
#     4   9  20  38  59  85 114 147 192 238 277 331
#     4  10  21  38  59  82 113 154 196 237 283 345
#     4   9  17  32  55  82 111 146 189 233 277 330
#
# _framework density 18.8979
#
# number of rings (size 3 to 8) (size 9 to 14) (size 15 to 20)
#    0.000    2.000    2.143    1.929    1.000    3.714 
#    0.000    3.571    0.000    3.429    0.000    1.000 
#    0.000    0.000    0.000    0.000    0.000    0.000 
#
# Total GULP energy -312548.040033 kJ/mol
# GULP energy per Si atom -5581.215001 kJ/mol
# Density = 1.885489 g / cm^3
# Si number density = 18.897900 Si / 1000 Ang^3
#
#
#
# Elastic Constant Matrix: (Units=GPa)
#
#
# Indices 1 2 3 4 5 6 
#
# 1 166.5283 18.2991 98.4583 0.0000 0.0000 0.0000
# 2 18.2991 16.3017 23.0590 0.0000 0.0000 0.0000
# 3 98.4583 23.0590 148.5897 0.0000 0.0000 0.0000
# 4 0.0000 0.0000 0.0000 23.8572 0.0000 0.0000
# 5 0.0000 0.0000 0.0000 0.0000 27.0290 0.0000
# 6 0.0000 0.0000 0.0000 0.0000 0.0000 -569.8337
#
#
#
# Elastic Compliance Matrix: (Units=1/GPa)
#
#
# Indices 1 2 3 4 5 6 
#
# 1 0.009943 -0.002360 -0.006222 0.000000 0.000000 0.000000
# 2 -0.002360 0.079156 -0.010720 0.000000 0.000000 0.000000
# 3 -0.006222 -0.010720 0.012517 0.000000 0.000000 0.000000
# 4 0.000000 0.000000 0.000000 0.041916 0.000000 0.000000
# 5 0.000000 0.000000 0.000000 0.000000 0.036997 0.000000
# 6 0.000000 0.000000 0.000000 0.000000 0.000000 -0.001755
#
#
# Mechanical properties :
#
#
# Convention : Reuss Voigt Hill
#
# Bulk Modulus (GPa) = 15.87023 67.89472 41.88248
# Shear Modulus (GPa) = 20.97466 -91.01595 -35.02064
#
# Velocity S-wave (km/s) = 3.33512 -6.94741 -4.30949
# Velocity P-wave (km/s) = 4.82150 5.32449 1.59740
#
# Compressibility (1/GPa) = 0.06301104
#
# Stress axis : x y z
#
# Youngs Moduli (GPa) = 100.57129 12.63326 79.89401
#
# Poissons Ratio (x) = 0.02981 0.49713
# Poissons Ratio (y) = 0.23734 0.85648
# Poissons Ratio (z) = 0.62579 0.13543
#
# Static dielectric constant tensor:
#      x y z
#    x 1.639280 0.000000 0.000000 
#    y 0.000000 1.665010 0.000000 
#    z 0.000000 0.000000 1.639160 
# 
# From -- ./inp_files/25241.got.cif
#   From: 2010.05.17/outbox.cif.g08.bks.cpg/sg47_13_cif.got.tgz:25241.got - 2010.06.03 20:15:42.
