data_PCOD9383201
_publ_section_title
;
Structure prediction by ZEFSAII (Michael W. Deem and Ramdas Pophale) SiO2 
 PCOD9383201
Probable space group: P M M M
;
_chemical_formula_sum "Si O2"
_cell_formula_units_Z 40
_cell_length_a 17.076582
_cell_length_b 8.851393
_cell_length_c 13.718850
_cell_angle_alpha 90.000000
_cell_angle_beta 90.000000
_cell_angle_gamma 90.000000
_cell_volume 2073.625282
_symmetry_space_group_name_H-M "P M M M"
_symmetry_group_IT_number 47
_symmetry_cell_setting 'orthorhombic'
loop_
_space_group_symop_operation_xyz
x,y,z
-x,-y,z
x,-y,-z
-x,y,-z
-x,-y,-z
x,y,-z
-x,y,z
x,-y,z
loop_
_atom_site_type_symbol
_atom_site_label
_atom_site_fract_x
_atom_site_fract_y
_atom_site_fract_z
Si Si1 0.905203 0.673725 0.891750
Si Si2 0.091954 0.821893 0.310206
Si Si3 0.500000 0.328444 0.614234
Si Si4 0.240094 0.679729 0.609171
Si Si5 0.368998 0.820030 0.735266
Si Si6 0.500000 0.183937 0.888514
O O1 0.880031 0.500000 0.873299
O O2 0.886168 0.779951 0.801500
O O3 0.000000 0.671367 0.895980
O O4 0.877354 0.719436 0.000000
O O5 0.150209 0.728175 0.377375
O O6 0.000000 0.784753 0.323929
O O7 0.102035 0.000000 0.326814
O O8 0.500000 0.500000 0.655352
O O9 0.500000 0.340922 0.500000
O O10 0.574146 0.235440 0.649595
O O11 0.266414 0.729533 0.500000
O O12 0.249088 0.500000 0.613245
O O13 0.287405 0.749762 0.700367
O O14 0.420643 0.771039 0.829994
O O15 0.361196 0.000000 0.739731
O O16 0.500000 0.000000 0.887522
O O17 0.500000 0.235373 0.000000
#
# Coordination Sequence:
#
# PCOD9383201 Si02
#       6
#     8   8   4   8   8   4
#     4   8  14  27  49  75 102 133 169 212 265 325
#     4  10  21  36  55  80 109 143 187 242 300 353
#     4  10  19  31  50  77 110 145 177 212 260 320
#     4  11  24  40  57  77 106 147 191 237 291 349
#     4  10  20  34  56  84 111 143 182 225 273 322
#     4   8  16  34  60  89 120 151 181 214 258 318
#
# _framework density 19.289887
#
# number of rings (size 3 to 8) (size 9 to 14) (size 15 to 20)
#    0.000    2.400    0.000    3.900    0.000    6.800 
#    0.000    5.000    0.000   14.400    0.000    0.000 
#    0.000    0.000    0.000    0.000    0.000    0.000 
#
# Total GULP energy -222825.880278 kJ/mol
# GULP energy per Si atom -5570.647007 kJ/mol
# Density = 1.924598 g / cm^3
# Si number density = 19.289887 Si / 1000 Ang^3
#
#
#
# Elastic Constant Matrix: (Units=GPa)
#
#
# Indices 1 2 3 4 5 6 
#
# 1 75.6717 23.2345 36.1008 0.0000 0.0000 0.0000
# 2 23.2345 40.2944 27.0574 0.0000 0.0000 0.0000
# 3 36.1008 27.0574 107.5051 0.0000 0.0000 0.0000
# 4 0.0000 0.0000 0.0000 23.7324 0.0000 0.0000
# 5 0.0000 0.0000 0.0000 0.0000 17.9216 0.0000
# 6 0.0000 0.0000 0.0000 0.0000 0.0000 70.5303
#
#
#
# Elastic Compliance Matrix: (Units=1/GPa)
#
#
# Indices 1 2 3 4 5 6 
#
# 1 0.017370 -0.007339 -0.003986 0.000000 0.000000 0.000000
# 2 -0.007339 0.032966 -0.005832 0.000000 0.000000 0.000000
# 3 -0.003986 -0.005832 0.012108 0.000000 0.000000 0.000000
# 4 0.000000 0.000000 0.000000 0.042136 0.000000 0.000000
# 5 0.000000 0.000000 0.000000 0.000000 0.055799 0.000000
# 6 0.000000 0.000000 0.000000 0.000000 0.000000 0.014178
#
#
# Mechanical properties :
#
#
# Convention : Reuss Voigt Hill
#
# Bulk Modulus (GPa) = 35.55055 44.02848 39.78952
# Shear Modulus (GPa) = 22.90965 31.57544 27.24254
#
# Velocity S-wave (km/s) = 3.44997 4.05024 3.76210
# Velocity P-wave (km/s) = 5.85998 6.68930 6.28833
#
# Compressibility (1/GPa) = 0.02812896
#
# Stress axis : x y z
#
# Youngs Moduli (GPa) = 57.57056 30.33447 82.58857
#
# Poissons Ratio (x) = 0.22264 0.32917
# Poissons Ratio (y) = 0.42254 0.48168
# Poissons Ratio (z) = 0.22946 0.17692
#
# Static dielectric constant tensor:
#      x y z
#    x 1.702250 0.000000 0.000000 
#    y 0.000000 1.653470 0.000000 
#    z 0.000000 0.000000 1.702790 
# 
# From -- ./inp_files/23388.got.cif
#   From: 2010.05.17/outbox.cif.g08.bks.cpg/sg47_12_cif.got.tgz:23388.got - 2010.06.03 20:15:42.
