data_PCOD9383266
_publ_section_title
;
Structure prediction by ZEFSAII (Michael W. Deem and Ramdas Pophale) SiO2 
 PCOD9383266
Probable space group: P M M M
;
_chemical_formula_sum "Si O2"
_cell_formula_units_Z 25
_cell_length_a 7.794024
_cell_length_b 7.793063
_cell_length_c 21.403613
_cell_angle_alpha 90.000000
_cell_angle_beta 90.000000
_cell_angle_gamma 90.000000
_cell_volume 1300.040900
_symmetry_space_group_name_H-M "P M M M"
_symmetry_group_IT_number 47
_symmetry_cell_setting 'orthorhombic'
loop_
_space_group_symop_operation_xyz
x,y,z
-x,-y,z
x,-y,-z
-x,y,-z
-x,-y,-z
x,y,-z
-x,y,z
x,-y,z
loop_
_atom_site_type_symbol
_atom_site_label
_atom_site_fract_x
_atom_site_fract_y
_atom_site_fract_z
Si Si1 0.311280 0.792615 0.158134
Si Si2 0.791222 0.000000 0.609689
Si Si3 0.500000 0.000000 0.500000
Si Si4 0.794584 0.309549 0.704072
Si Si5 0.000000 0.210326 0.071597
O O1 0.500000 0.744385 0.135860
O O2 0.284325 0.727316 0.228358
O O3 0.165118 0.733472 0.110950
O O4 0.300718 0.000000 0.161512
O O5 0.756412 0.165477 0.653207
O O6 0.654681 0.000000 0.554052
O O7 0.000000 0.000000 0.593873
O O8 0.745075 0.500000 0.682690
O O9 0.000000 0.304686 0.713352
O O10 0.000000 0.000000 0.070832
O O11 0.000000 0.267148 0.000000
#
# Coordination Sequence:
#
# PCOD9383266 Si02
#       5
#     8   4   1   8   4
#     4  10  19  31  54  84 117 154 201 254 302 354
#     4  10  23  43  65  90 127 158 193 245 290 348
#     4  12  26  44  70  94 124 166 204 224 298 370
#     4  10  20  36  62  92 120 156 200 247 300 349
#     4   9  18  32  51  79 121 166 202 247 309 364
#
# _framework density 19.230163000000001
#
# number of rings (size 3 to 8) (size 9 to 14) (size 15 to 20)
#    0.000    2.080    3.200    0.240    2.240    1.280 
#    0.000    4.800    0.000    5.760    0.000    2.240 
#    0.000    0.000    0.000    0.000    0.000    0.000 
#
# Total GULP energy -139293.783752 kJ/mol
# GULP energy per Si atom -5571.751350 kJ/mol
# Density = 1.918639 g / cm^3
# Si number density = 19.230163 Si / 1000 Ang^3
#
#
#
# Elastic Constant Matrix: (Units=GPa)
#
#
# Indices 1 2 3 4 5 6 
#
# 1 143.4046 57.7016 105.2412 0.0000 0.0000 0.0000
# 2 57.7016 79.8033 50.2756 0.0000 0.0000 0.0000
# 3 105.2412 50.2756 151.1944 0.0000 0.0000 0.0000
# 4 0.0000 0.0000 0.0000 -4.7737 0.0000 0.0000
# 5 0.0000 0.0000 0.0000 0.0000 -23.7090 0.0000
# 6 0.0000 0.0000 0.0000 0.0000 0.0000 5.5763
#
#
#
# Elastic Compliance Matrix: (Units=1/GPa)
#
#
# Indices 1 2 3 4 5 6 
#
# 1 0.016135 -0.005808 -0.009300 0.000000 0.000000 0.000000
# 2 -0.005808 0.017942 -0.001924 0.000000 0.000000 0.000000
# 3 -0.009300 -0.001924 0.013727 0.000000 0.000000 0.000000
# 4 0.000000 0.000000 0.000000 -0.209483 0.000000 0.000000
# 5 0.000000 0.000000 0.000000 0.000000 -0.042178 0.000000
# 6 0.000000 0.000000 0.000000 0.000000 0.000000 0.179331
#
#
# Mechanical properties :
#
#
# Convention : Reuss Voigt Hill
#
# Bulk Modulus (GPa) = 72.77121 88.98212 80.87667
# Shear Modulus (GPa) = 354.20785 6.16433 180.18609
#
# Velocity S-wave (km/s) = 13.58653 1.79235 9.69036
# Velocity P-wave (km/s) = 16.85376 7.11730 12.93649
#
# Compressibility (1/GPa) = 0.01374170
#
# Stress axis : x y z
#
# Youngs Moduli (GPa) = 61.97703 55.73576 72.84919
#
# Poissons Ratio (x) = 0.32369 0.67749
# Poissons Ratio (y) = 0.35993 0.14014
# Poissons Ratio (z) = 0.57638 0.10722
#
# Static dielectric constant tensor:
#      x y z
#    x 1.696150 0.000000 0.000000 
#    y 0.000000 1.697720 0.000000 
#    z 0.000000 0.000000 1.604430 
# 
# From -- ./inp_files/25964.got.cif
#   From: 2010.05.17/outbox.cif.g08.bks.cpg/sg47_13_cif.got.tgz:25964.got - 2010.06.03 20:15:42.
