data_PCOD9383943
_publ_section_title
;
Structure prediction by ZEFSAII (Michael W. Deem and Ramdas Pophale) SiO2 
 PCOD9383943
Probable space group: P M M M
;
_chemical_formula_sum "Si O2"
_cell_formula_units_Z 56
_cell_length_a 14.225384
_cell_length_b 21.034727
_cell_length_c 9.875840
_cell_angle_alpha 90.000000
_cell_angle_beta 90.000000
_cell_angle_gamma 90.000000
_cell_volume 2955.118656
_symmetry_space_group_name_H-M "P M M M"
_symmetry_group_IT_number 47
_symmetry_cell_setting 'orthorhombic'
loop_
_space_group_symop_operation_xyz
x,y,z
-x,-y,z
x,-y,-z
-x,y,-z
-x,-y,-z
x,y,-z
-x,y,z
x,-y,z
loop_
_atom_site_type_symbol
_atom_site_label
_atom_site_fract_x
_atom_site_fract_y
_atom_site_fract_z
Si Si1 0.106464 0.900487 0.152679
Si Si2 0.303445 0.426536 0.658983
Si Si3 0.315273 0.793101 0.650713
Si Si4 0.612446 0.682821 0.843720
Si Si5 0.103939 0.630227 0.340359
Si Si6 0.279544 0.931047 0.660647
Si Si7 0.894470 0.229711 0.720364
O O1 0.183176 0.926099 0.255776
O O2 0.107911 0.823292 0.162667
O O3 0.000000 0.920085 0.186568
O O4 0.127761 0.920063 0.000000
O O5 0.322773 0.411198 0.500000
O O6 0.327746 0.500000 0.681375
O O7 0.354836 0.378710 0.759470
O O8 0.191766 0.415339 0.680324
O O9 0.353043 0.779196 0.500000
O O10 0.349556 0.743587 0.761684
O O11 0.335803 0.866213 0.689866
O O12 0.201576 0.786704 0.643181
O O13 0.500000 0.685145 0.844486
O O14 0.645450 0.681607 0.000000
O O15 0.107957 0.650179 0.500000
O O16 0.113048 0.694932 0.253852
O O17 0.000000 0.602570 0.317925
O O18 0.259714 0.928267 0.500000
O O19 0.323925 0.000000 0.689190
O O20 0.000000 0.221913 0.658487
#
# Coordination Sequence:
#
# PCOD9383943 Si02
#       7
#     8   8   8   8   8   8   8
#     4   9  18  30  43  65 101 144 191 238 277 317
#     4  10  21  38  61  89 119 150 187 230 274 322
#     4  10  19  34  59  86 112 144 185 232 276 323
#     4  11  25  43  62  84 111 144 182 228 285 344
#     4   9  16  28  49  80 117 152 185 222 266 317
#     4   9  19  34  51  75 108 144 180 221 275 336
#     4   9  16  27  47  77 112 146 180 224 276 325
#
# _framework density 18.95017
#
# number of rings (size 3 to 8) (size 9 to 14) (size 15 to 20)
#    0.000    2.429    1.429    0.857    0.000    6.571 
#    0.000    8.571    0.000    0.857    0.000    4.000 
#    0.000    0.000    0.000    0.000    0.000    0.000 
#
# Total GULP energy -311817.771724 kJ/mol
# GULP energy per Si atom -5568.174495 kJ/mol
# Density = 1.890704 g / cm^3
# Si number density = 18.950170 Si / 1000 Ang^3
#
#
#
# Elastic Constant Matrix: (Units=GPa)
#
#
# Indices 1 2 3 4 5 6 
#
# 1 40.4851 28.0040 30.0314 0.0000 0.0000 0.0000
# 2 28.0040 134.9130 74.1379 0.0000 0.0000 0.0000
# 3 30.0314 74.1379 89.0278 0.0000 0.0000 0.0000
# 4 0.0000 0.0000 0.0000 3.3387 0.0000 0.0000
# 5 0.0000 0.0000 0.0000 0.0000 16.4822 0.0000
# 6 0.0000 0.0000 0.0000 0.0000 0.0000 2.3039
#
#
#
# Elastic Compliance Matrix: (Units=1/GPa)
#
#
# Indices 1 2 3 4 5 6 
#
# 1 0.033077 -0.001354 -0.010030 0.000000 0.000000 0.000000
# 2 -0.001354 0.013721 -0.010970 0.000000 0.000000 0.000000
# 3 -0.010030 -0.010970 0.023751 0.000000 0.000000 0.000000
# 4 0.000000 0.000000 0.000000 0.299517 0.000000 0.000000
# 5 0.000000 0.000000 0.000000 0.000000 0.060671 0.000000
# 6 0.000000 0.000000 0.000000 0.000000 0.000000 0.434049
#
#
# Mechanical properties :
#
#
# Convention : Reuss Voigt Hill
#
# Bulk Modulus (GPa) = 38.69728 58.75254 48.72491
# Shear Modulus (GPa) = 5.44597 13.24181 9.34389
#
# Velocity S-wave (km/s) = 1.69708 2.64629 2.22294
# Velocity P-wave (km/s) = 4.93001 6.35674 5.68828
#
# Compressibility (1/GPa) = 0.02584161
#
# Stress axis : x y z
#
# Youngs Moduli (GPa) = 30.23214 72.87912 42.10357
#
# Poissons Ratio (x) = 0.09868 0.42231
# Poissons Ratio (y) = 0.04093 0.46186
# Poissons Ratio (z) = 0.30324 0.79946
#
# Static dielectric constant tensor:
#      x y z
#    x 1.658460 0.000000 0.000000 
#    y 0.000000 1.699620 0.000000 
#    z 0.000000 0.000000 1.639530 
# 
# From -- ./inp_files/7240.got.cif
#   From: 2010.05.17/outbox.cif.g08.bks.cpg/sg47_4_cif.got.tgz:7240.got - 2010.06.03 20:15:42.
