data_PCOD9383928
_publ_section_title
;
Structure prediction by ZEFSAII (Michael W. Deem and Ramdas Pophale) SiO2 
 PCOD9383928
Probable space group: P M M M
;
_chemical_formula_sum "Si O2"
_cell_formula_units_Z 48
_cell_length_a 30.192658
_cell_length_b 10.321674
_cell_length_c 7.511225
_cell_angle_alpha 90.000000
_cell_angle_beta 90.000000
_cell_angle_gamma 90.000000
_cell_volume 2340.788943
_symmetry_space_group_name_H-M "P M M M"
_symmetry_group_IT_number 47
_symmetry_cell_setting 'orthorhombic'
loop_
_space_group_symop_operation_xyz
x,y,z
-x,-y,z
x,-y,-z
-x,y,-z
-x,-y,-z
x,y,-z
-x,y,z
x,-y,z
loop_
_atom_site_type_symbol
_atom_site_label
_atom_site_fract_x
_atom_site_fract_y
_atom_site_fract_z
Si Si1 0.449647 0.351995 0.217320
Si Si2 0.106159 0.256978 0.712144
Si Si3 0.201878 0.348636 0.281929
Si Si4 0.949274 0.000000 0.210532
Si Si5 0.622194 0.146261 0.213964
Si Si6 0.949683 0.500000 0.281585
Si Si7 0.724432 0.147168 0.712671
O O1 0.500000 0.319022 0.270580
O O2 0.440354 0.500000 0.272139
O O3 0.413127 0.250478 0.280442
O O4 0.449057 0.351196 0.000000
O O5 0.109329 0.272006 0.500000
O O6 0.156208 0.279281 0.776671
O O7 0.075957 0.373546 0.780052
O O8 0.080168 0.124525 0.742586
O O9 0.202567 0.350919 0.500000
O O10 0.203309 0.500000 0.226638
O O11 0.242576 0.258595 0.221425
O O12 0.000000 0.000000 0.285243
O O13 0.953979 0.000000 0.000000
O O14 0.673117 0.179640 0.253909
O O15 0.614137 0.000000 0.280733
O O16 0.618023 0.142707 0.000000
O O17 0.949734 0.500000 0.500000
O O18 0.000000 0.500000 0.223361
O O19 0.730674 0.140901 0.500000
O O20 0.732564 0.000000 0.781594
#
# Coordination Sequence:
#
# PCOD9383928 Si02
#       7
#     8   8   8   4   8   4   8
#     4   8  14  25  42  65  92 121 154 194 240 288
#     4  10  19  34  58  83 104 129 167 213 253 295
#     4   9  17  31  52  79 104 125 157 205 253 294
#     4  11  25  41  53  73 109 145 173 203 244 297
#     4   9  17  29  45  67  94 121 155 200 243 280
#     4   9  16  28  51  83 109 125 153 205 260 297
#     4   9  18  31  48  69  96 131 165 194 234 292
#
# _framework density 20.505908000000002
#
# number of rings (size 3 to 8) (size 9 to 14) (size 15 to 20)
#    0.000    2.833    0.833    1.250    1.167    2.333 
#    0.000    2.917    0.000    3.000    0.000    3.500 
#    0.000    0.000    0.000    0.000    0.000    0.000 
#
# Total GULP energy -267784.023984 kJ/mol
# GULP energy per Si atom -5578.833833 kJ/mol
# Density = 2.045924 g / cm^3
# Si number density = 20.505908 Si / 1000 Ang^3
#
#
#
# Elastic Constant Matrix: (Units=GPa)
#
#
# Indices 1 2 3 4 5 6 
#
# 1 214.9210 160.5740 2.9367 0.0000 0.0000 0.0000
# 2 160.5740 199.4844 0.2091 0.0000 0.0000 0.0000
# 3 2.9367 0.2091 51.4005 0.0000 0.0000 0.0000
# 4 0.0000 0.0000 0.0000 15.1520 0.0000 0.0000
# 5 0.0000 0.0000 0.0000 0.0000 18.0684 0.0000
# 6 0.0000 0.0000 0.0000 0.0000 0.0000 42.5486
#
#
#
# Elastic Compliance Matrix: (Units=1/GPa)
#
#
# Indices 1 2 3 4 5 6 
#
# 1 0.011693 -0.009412 -0.000630 0.000000 0.000000 0.000000
# 2 -0.009412 0.012588 0.000487 0.000000 0.000000 0.000000
# 3 -0.000630 0.000487 0.019489 0.000000 0.000000 0.000000
# 4 0.000000 0.000000 0.000000 0.065998 0.000000 0.000000
# 5 0.000000 0.000000 0.000000 0.000000 0.055345 0.000000
# 6 0.000000 0.000000 0.000000 0.000000 0.000000 0.023503
#
#
# Mechanical properties :
#
#
# Convention : Reuss Voigt Hill
#
# Bulk Modulus (GPa) = 40.55048 88.13839 64.34444
# Shear Modulus (GPa) = 23.15379 35.29285 29.22332
#
# Velocity S-wave (km/s) = 3.36390 4.15312 3.77917
# Velocity P-wave (km/s) = 5.90810 8.12854 7.10559
#
# Compressibility (1/GPa) = 0.02466062
#
# Stress axis : x y z
#
# Youngs Moduli (GPa) = 85.51865 79.43798 51.31080
#
# Poissons Ratio (x) = 0.74766 0.03232
# Poissons Ratio (y) = 0.80489 -0.02496
# Poissons Ratio (z) = 0.05386 -0.03865
#
# Static dielectric constant tensor:
#      x y z
#    x 1.704130 0.000000 0.000000 
#    y 0.000000 0.539100 0.000000 
#    z 0.000000 0.000000 1.804450 
# 
# From -- ./inp_files/14001.got.cif
#   From: 2010.05.17/outbox.cif.g08.bks.cpg/sg47_8_cif.got.tgz:14001.got - 2010.06.03 20:15:42.
