data_PCOD9383052
_publ_section_title
;
Structure prediction by ZEFSAII (Michael W. Deem and Ramdas Pophale) SiO2 
 PCOD9383052
Probable space group: P M M M
;
_chemical_formula_sum "Si O2"
_cell_formula_units_Z 52
_cell_length_a 7.835701
_cell_length_b 29.049207
_cell_length_c 12.206844
_cell_angle_alpha 90.000000
_cell_angle_beta 90.000000
_cell_angle_gamma 90.000000
_cell_volume 2778.532822
_symmetry_space_group_name_H-M "P M M M"
_symmetry_group_IT_number 47
_symmetry_cell_setting 'orthorhombic'
loop_
_space_group_symop_operation_xyz
x,y,z
-x,-y,z
x,-y,-z
-x,y,-z
-x,-y,-z
x,y,-z
-x,y,z
x,-y,z
loop_
_atom_site_type_symbol
_atom_site_label
_atom_site_fract_x
_atom_site_fract_y
_atom_site_fract_z
Si Si1 0.208543 0.447340 0.875068
Si Si2 0.295199 0.215954 0.500000
Si Si3 0.706970 0.276248 0.125336
Si Si4 0.703268 0.000000 0.124838
Si Si5 0.296041 0.811333 0.736585
Si Si6 0.202053 0.899925 0.125454
Si Si7 0.207425 0.324082 0.500000
Si Si8 0.796398 0.363933 0.729610
O O1 0.260417 0.500000 0.852756
O O2 0.270667 0.410127 0.787425
O O3 0.000000 0.446639 0.874234
O O4 0.260040 0.435405 0.000000
O O5 0.500000 0.209880 0.500000
O O6 0.228212 0.193977 0.387068
O O7 0.260594 0.270645 0.500000
O O8 0.500000 0.275644 0.124721
O O9 0.768878 0.230958 0.189402
O O10 0.764109 0.321446 0.189332
O O11 0.765788 0.276274 0.000000
O O12 0.757988 0.049155 0.171376
O O13 0.500000 0.000000 0.120708
O O14 0.773869 0.000000 0.000000
O O15 0.500000 0.805507 0.730179
O O16 0.264176 0.859247 0.797048
O O17 0.000000 0.895656 0.117474
O O18 0.273285 0.896409 0.000000
O O19 0.269490 0.349358 0.389893
O O20 0.000000 0.324461 0.500000
O O21 0.000000 0.369896 0.717929
#
# Coordination Sequence:
#
# PCOD9383052 Si02
#       8
#     8   4   8   4   8   8   4   8
#     4   8  14  26  45  68  93 123 161 203 247 298
#     4  10  20  36  56  72  92 131 178 210 242 296
#     4  10  20  32  48  72 100 128 160 202 250 300
#     4   9  17  31  53  78 105 140 177 211 251 299
#     4  10  20  34  52  73  98 130 170 210 249 297
#     4  10  20  33  51  78 110 140 170 207 253 303
#     4  10  20  32  47  70  99 127 162 208 251 292
#     4  10  19  31  48  70  96 128 164 203 247 297
#
# _framework density 18.714912999999999
#
# number of rings (size 3 to 8) (size 9 to 14) (size 15 to 20)
#    0.000    2.385    1.538    2.077    0.000    4.615 
#    0.000    0.385    0.000    3.231    0.000    5.385 
#    0.000    1.846    0.000    0.000    0.000    0.000 
#
# Total GULP energy -290081.840100 kJ/mol
# GULP energy per Si atom -5578.496925 kJ/mol
# Density = 1.867232 g / cm^3
# Si number density = 18.714913 Si / 1000 Ang^3
#
#
#
# Elastic Constant Matrix: (Units=GPa)
#
#
# Indices 1 2 3 4 5 6 
#
# 1 15.1858 -11.6874 5.2729 0.0000 0.0000 0.0000
# 2 -11.6874 147.5914 95.1804 0.0000 0.0000 0.0000
# 3 5.2729 95.1804 166.0952 0.0000 0.0000 0.0000
# 4 0.0000 0.0000 0.0000 7.2515 0.0000 0.0000
# 5 0.0000 0.0000 0.0000 0.0000 11.3405 0.0000
# 6 0.0000 0.0000 0.0000 0.0000 0.0000 26.7371
#
#
#
# Elastic Compliance Matrix: (Units=1/GPa)
#
#
# Indices 1 2 3 4 5 6 
#
# 1 0.078782 0.012454 -0.009638 0.000000 0.000000 0.000000
# 2 0.012454 0.012716 -0.007682 0.000000 0.000000 0.000000
# 3 -0.009638 -0.007682 0.010729 0.000000 0.000000 0.000000
# 4 0.000000 0.000000 0.000000 0.137903 0.000000 0.000000
# 5 0.000000 0.000000 0.000000 0.000000 0.088179 0.000000
# 6 0.000000 0.000000 0.000000 0.000000 0.000000 0.037401
#
#
# Mechanical properties :
#
#
# Convention : Reuss Voigt Hill
#
# Bulk Modulus (GPa) = 10.81137 56.26713 33.53925
# Shear Modulus (GPa) = 12.30694 25.07290 18.68992
#
# Velocity S-wave (km/s) = 2.56715 3.66420 3.16359
# Velocity P-wave (km/s) = 3.81791 6.93055 5.59504
#
# Compressibility (1/GPa) = 0.09249521
#
# Stress axis : x y z
#
# Youngs Moduli (GPa) = 12.69317 78.64240 93.20688
#
# Poissons Ratio (x) = -0.97940 0.89830
# Poissons Ratio (y) = -0.15808 0.71603
# Poissons Ratio (z) = 0.12233 0.60414
#
# Static dielectric constant tensor:
#      x y z
#    x 1.682140 0.000000 0.000000 
#    y 0.000000 1.630390 0.000000 
#    z 0.000000 0.000000 1.659100 
# 
# From -- ./inp_files/15507.got.cif
#   From: 2010.05.17/outbox.cif.g08.bks.cpg/sg47_8_cif.got.tgz:15507.got - 2010.06.03 20:15:42.
