data_PCOD9383088
_publ_section_title
;
Structure prediction by ZEFSAII (Michael W. Deem and Ramdas Pophale) SiO2 
 PCOD9383088
Probable space group: P M M M
;
_chemical_formula_sum "Si O2"
_cell_formula_units_Z 56
_cell_length_a 8.017378
_cell_length_b 15.062296
_cell_length_c 22.812609
_cell_angle_alpha 90.000000
_cell_angle_beta 90.000000
_cell_angle_gamma 90.000000
_cell_volume 2754.853414
_symmetry_space_group_name_H-M "P M M M"
_symmetry_group_IT_number 47
_symmetry_cell_setting 'orthorhombic'
loop_
_space_group_symop_operation_xyz
x,y,z
-x,-y,z
x,-y,-z
-x,y,-z
-x,-y,-z
x,y,-z
-x,y,z
x,-y,z
loop_
_atom_site_type_symbol
_atom_site_label
_atom_site_fract_x
_atom_site_fract_y
_atom_site_fract_z
Si Si1 0.204726 0.602053 0.000000
Si Si2 0.801903 0.212559 0.387269
Si Si3 0.800403 0.283645 0.889718
Si Si4 0.298737 0.600572 0.780876
Si Si5 0.197125 0.098054 0.145396
Si Si6 0.795637 0.102616 0.500000
Si Si7 0.696806 0.100162 0.722894
Si Si8 0.701362 0.400468 0.354046
O O1 0.261867 0.654718 0.942309
O O2 0.259410 0.500000 0.000000
O O3 0.000000 0.601030 0.000000
O O4 0.739044 0.155222 0.442216
O O5 0.734368 0.170896 0.327090
O O6 0.759371 0.316470 0.391015
O O7 0.000000 0.203369 0.385568
O O8 0.766659 0.330230 0.827698
O O9 0.731970 0.183405 0.887897
O O10 0.000000 0.277656 0.896828
O O11 0.500000 0.604737 0.781039
O O12 0.249349 0.500000 0.797743
O O13 0.244157 0.614597 0.713673
O O14 0.215471 0.115541 0.215009
O O15 0.000000 0.093730 0.132471
O O16 0.269519 0.000000 0.133725
O O17 0.000000 0.103082 0.500000
O O18 0.742838 0.000000 0.500000
O O19 0.500000 0.101632 0.734783
O O20 0.743138 0.000000 0.702586
O O21 0.500000 0.400892 0.354110
O O22 0.756482 0.500000 0.371573
#
# Coordination Sequence:
#
# PCOD9383088 Si02
#       8
#     4   8   8   8   8   4   8   8
#     4   9  18  32  48  68  96 127 161 205 252 295
#     4  11  21  34  55  79 103 135 174 215 256 298
#     4  10  19  31  49  71  95 129 169 204 244 295
#     4   9  18  32  50  73 101 131 161 198 247 297
#     4   9  18  32  49  72 101 129 162 207 253 297
#     4   9  20  38  56  75 102 136 171 207 252 303
#     4  10  20  33  51  77 107 137 168 204 252 310
#     4   9  19  36  55  76 106 140 170 206 256 310
#
# _framework density 20.327760000000001
#
# number of rings (size 3 to 8) (size 9 to 14) (size 15 to 20)
#    0.000    2.429    0.000    3.429    0.000    6.000 
#    0.000    3.929    0.000    8.143    0.000    0.000 
#    0.000    3.429    0.000    0.000    0.000    0.000 
#
# Total GULP energy -312564.997346 kJ/mol
# GULP energy per Si atom -5581.517810 kJ/mol
# Density = 2.028149 g / cm^3
# Si number density = 20.327760 Si / 1000 Ang^3
#
#
#
# Elastic Constant Matrix: (Units=GPa)
#
#
# Indices 1 2 3 4 5 6 
#
# 1 15.5674 5.6320 -0.2240 0.0000 0.0000 0.0000
# 2 5.6320 190.6305 70.0395 0.0000 0.0000 0.0000
# 3 -0.2240 70.0395 44.4303 0.0000 0.0000 0.0000
# 4 0.0000 0.0000 0.0000 34.8737 0.0000 0.0000
# 5 0.0000 0.0000 0.0000 0.0000 10.1316 0.0000
# 6 0.0000 0.0000 0.0000 0.0000 0.0000 22.5040
#
#
#
# Elastic Compliance Matrix: (Units=1/GPa)
#
#
# Indices 1 2 3 4 5 6 
#
# 1 0.066139 -0.004934 0.008112 0.000000 0.000000 0.000000
# 2 -0.004934 0.012834 -0.020256 0.000000 0.000000 0.000000
# 3 0.008112 -0.020256 0.054479 0.000000 0.000000 0.000000
# 4 0.000000 0.000000 0.000000 0.028675 0.000000 0.000000
# 5 0.000000 0.000000 0.000000 0.000000 0.098702 0.000000
# 6 0.000000 0.000000 0.000000 0.000000 0.000000 0.044437
#
#
# Mechanical properties :
#
#
# Convention : Reuss Voigt Hill
#
# Bulk Modulus (GPa) = 10.07098 44.61368 27.34233
# Shear Modulus (GPa) = 13.42211 25.18056 19.30133
#
# Velocity S-wave (km/s) = 2.57239 3.52337 3.08475
# Velocity P-wave (km/s) = 3.71321 6.20863 5.11542
#
# Compressibility (1/GPa) = 0.09929517
#
# Stress axis : x y z
#
# Youngs Moduli (GPa) = 15.11972 77.91967 18.35562
#
# Poissons Ratio (x) = 0.38449 -0.14890
# Poissons Ratio (y) = 0.07461 0.37181
# Poissons Ratio (z) = -0.12265 1.57833
#
# Static dielectric constant tensor:
#      x y z
#    x 1.720440 0.000000 0.000000 
#    y 0.000000 1.755290 0.000000 
#    z 0.000000 0.000000 1.690610 
# 
# From -- ./inp_files/29803.got.cif
#   From: 2010.05.17/outbox.cif.g08.bks.cpg/sg47_15_cif.got.tgz:29803.got - 2010.06.03 20:15:42.
