data_PCOD9383379
_publ_section_title
;
Structure prediction by ZEFSAII (Michael W. Deem and Ramdas Pophale) SiO2 
 PCOD9383379
Probable space group: P M M M
;
_chemical_formula_sum "Si O2"
_cell_formula_units_Z 56
_cell_length_a 23.372472
_cell_length_b 14.909620
_cell_length_c 7.839524
_cell_angle_alpha 90.000000
_cell_angle_beta 90.000000
_cell_angle_gamma 90.000000
_cell_volume 2731.875586
_symmetry_space_group_name_H-M "P M M M"
_symmetry_group_IT_number 47
_symmetry_cell_setting 'orthorhombic'
loop_
_space_group_symop_operation_xyz
x,y,z
-x,-y,z
x,-y,-z
-x,y,-z
-x,-y,-z
x,y,-z
-x,y,z
x,-y,z
loop_
_atom_site_type_symbol
_atom_site_label
_atom_site_fract_x
_atom_site_fract_y
_atom_site_fract_z
Si Si1 0.345390 0.898762 0.203483
Si Si2 0.000000 0.896996 0.209730
Si Si3 0.850027 0.599797 0.796978
Si Si4 0.280549 0.396581 0.705750
Si Si5 0.214892 0.897843 0.297090
Si Si6 0.388908 0.713541 0.704399
Si Si7 0.500000 0.604238 0.290732
Si Si8 0.892607 0.782620 0.201277
O O1 0.280811 0.874636 0.260645
O O2 0.387156 0.819125 0.258296
O O3 0.357762 0.000000 0.268355
O O4 0.345576 0.902194 0.000000
O O5 0.056390 0.844167 0.269095
O O6 0.000000 0.000000 0.265807
O O7 0.000000 0.898841 0.000000
O O8 0.860190 0.500000 0.725280
O O9 0.782851 0.621335 0.773210
O O10 0.886012 0.682690 0.724985
O O11 0.860343 0.595433 0.000000
O O12 0.277393 0.389248 0.500000
O O13 0.295194 0.500000 0.746902
O O14 0.330274 0.331594 0.769972
O O15 0.207154 0.896670 0.500000
O O16 0.167863 0.832641 0.220605
O O17 0.206110 0.000000 0.234030
O O18 0.388195 0.703210 0.500000
O O19 0.443777 0.658393 0.766388
O O20 0.500000 0.500000 0.238029
O O21 0.500000 0.603950 0.500000
O O22 0.904015 0.772697 0.000000
#
# Coordination Sequence:
#
# PCOD9383379 Si02
#       8
#     8   4   8   8   8   8   4   8
#     4  10  21  36  53  74 102 136 171 208 254 307
#     4   9  18  32  50  72  96 125 167 213 250 293
#     4   9  18  31  46  68  98 128 160 201 247 293
#     4   9  17  29  47  73 102 130 161 198 244 298
#     4  10  20  33  51  77 106 132 161 204 256 305
#     4  10  19  32  53  78 103 134 172 213 253 293
#     4   9  18  34  56  81 108 138 173 211 252 303
#     4  10  19  32  51  72  97 133 172 207 247 297
#
# _framework density 20.498736999999998
#
# number of rings (size 3 to 8) (size 9 to 14) (size 15 to 20)
#    0.000    2.429    0.000    2.571    0.000    7.429 
#    0.000    1.429    0.000    7.286    0.000    0.000 
#    0.000    3.429    0.000    0.000    0.000    0.000 
#
# Total GULP energy -312581.220261 kJ/mol
# GULP energy per Si atom -5581.807505 kJ/mol
# Density = 2.045208 g / cm^3
# Si number density = 20.498737 Si / 1000 Ang^3
#
#
#
# Elastic Constant Matrix: (Units=GPa)
#
#
# Indices 1 2 3 4 5 6 
#
# 1 74.5972 106.2433 2.8265 0.0000 0.0000 0.0000
# 2 106.2433 185.0889 3.4170 0.0000 0.0000 0.0000
# 3 2.8265 3.4170 21.4242 0.0000 0.0000 0.0000
# 4 0.0000 0.0000 0.0000 15.4573 0.0000 0.0000
# 5 0.0000 0.0000 0.0000 0.0000 7.0647 0.0000
# 6 0.0000 0.0000 0.0000 0.0000 0.0000 36.0690
#
#
#
# Elastic Compliance Matrix: (Units=1/GPa)
#
#
# Indices 1 2 3 4 5 6 
#
# 1 0.073652 -0.042222 -0.002983 0.000000 0.000000 0.000000
# 2 -0.042222 0.029623 0.000846 0.000000 0.000000 0.000000
# 3 -0.002983 0.000846 0.046935 0.000000 0.000000 0.000000
# 4 0.000000 0.000000 0.000000 0.064694 0.000000 0.000000
# 5 0.000000 0.000000 0.000000 0.000000 0.141548 0.000000
# 6 0.000000 0.000000 0.000000 0.000000 0.000000 0.027725
#
#
# Mechanical properties :
#
#
# Convention : Reuss Voigt Hill
#
# Bulk Modulus (GPa) = 16.26236 56.23154 36.24695
# Shear Modulus (GPa) = 10.13389 22.95978 16.54684
#
# Velocity S-wave (km/s) = 2.22585 3.35036 2.84423
# Velocity P-wave (km/s) = 3.81529 6.51596 5.33921
#
# Compressibility (1/GPa) = 0.06149168
#
# Stress axis : x y z
#
# Youngs Moduli (GPa) = 13.57727 33.75716 21.30619
#
# Poissons Ratio (x) = 1.42531 0.06355
# Poissons Ratio (y) = 0.57326 -0.01802
# Poissons Ratio (z) = 0.04050 -0.02855
#
# Static dielectric constant tensor:
#      x y z
#    x 1.696400 0.000000 0.000000 
#    y 0.000000 1.756050 0.000000 
#    z 0.000000 0.000000 1.754910 
# 
# From -- ./inp_files/11329.got.cif
#   From: 2010.05.17/outbox.cif.g08.bks.cpg/sg47_6_cif.got.tgz:11329.got - 2010.06.03 20:15:42.
