data_PCOD9383064
_publ_section_title
;
Structure prediction by ZEFSAII (Michael W. Deem and Ramdas Pophale) SiO2 
 PCOD9383064
Probable space group: P M M M
;
_chemical_formula_sum "Si O2"
_cell_formula_units_Z 58
_cell_length_a 7.472275
_cell_length_b 15.052655
_cell_length_c 28.336276
_cell_angle_alpha 90.000000
_cell_angle_beta 90.000000
_cell_angle_gamma 90.000000
_cell_volume 3187.195684
_symmetry_space_group_name_H-M "P M M M"
_symmetry_group_IT_number 47
_symmetry_cell_setting 'orthorhombic'
loop_
_space_group_symop_operation_xyz
x,y,z
-x,-y,z
x,-y,-z
-x,y,-z
-x,-y,-z
x,y,-z
-x,y,z
x,-y,z
loop_
_atom_site_type_symbol
_atom_site_label
_atom_site_fract_x
_atom_site_fract_y
_atom_site_fract_z
Si Si1 0.285178 0.399238 0.731623
Si Si2 0.213272 0.603740 0.085280
Si Si3 0.287803 0.715565 0.643691
Si Si4 0.712353 0.902311 0.674226
Si Si5 0.213396 0.283185 0.175576
Si Si6 0.216134 0.901045 0.785395
Si Si7 0.500000 0.623195 0.000000
Si Si8 0.784638 0.399511 0.446776
O O1 0.500000 0.404761 0.727192
O O2 0.216467 0.500000 0.734553
O O3 0.215830 0.347038 0.685612
O O4 0.248183 0.343078 0.778491
O O5 0.229050 0.500000 0.099487
O O6 0.272384 0.666603 0.128473
O O7 0.000000 0.618902 0.075027
O O8 0.342408 0.618812 0.041113
O O9 0.500000 0.722925 0.652480
O O10 0.214471 0.815429 0.648220
O O11 0.265461 0.669246 0.593499
O O12 0.500000 0.906833 0.664981
O O13 0.736134 0.888174 0.730389
O O14 0.787754 0.000000 0.662805
O O15 0.283228 0.183627 0.185334
O O16 0.000000 0.275549 0.171066
O O17 0.000000 0.901611 0.788084
O O18 0.278711 0.000000 0.799519
O O19 0.723188 0.377913 0.500000
O O20 0.722725 0.500000 0.435170
O O21 0.000000 0.402071 0.447999
#
# Coordination Sequence:
#
# PCOD9383064 Si02
#       8
#     8   8   8   8   8   8   2   8
#     4  10  20  31  44  67 102 137 167 200 241 301
#     4  10  21  36  54  79 109 139 180 227 265 315
#     4  10  19  31  48  72  99 129 166 205 249 301
#     4   9  17  30  48  70  98 131 165 203 247 294
#     4  10  20  33  49  73 105 137 168 208 256 307
#     4   9  17  30  49  73 101 133 170 209 249 300
#     4  12  23  38  60  82 103 144 187 224 276 312
#     4   9  19  35  52  70  93 123 164 213 258 301
#
# _framework density 18.197816
#
# number of rings (size 3 to 8) (size 9 to 14) (size 15 to 20)
#    0.000    2.345    1.379    2.069    0.966    3.586 
#    0.000    0.690    0.000    0.414    0.000    3.862 
#    0.000    3.310    0.000    0.000    0.000    0.000 
#
# Total GULP energy -322974.176881 kJ/mol
# GULP energy per Si atom -5568.520291 kJ/mol
# Density = 1.815640 g / cm^3
# Si number density = 18.197816 Si / 1000 Ang^3
#
#
#
# Elastic Constant Matrix: (Units=GPa)
#
#
# Indices 1 2 3 4 5 6 
#
# 1 59.0810 20.6731 11.3145 0.0000 0.0000 0.0000
# 2 20.6731 186.6196 106.1902 0.0000 0.0000 0.0000
# 3 11.3145 106.1902 122.2656 0.0000 0.0000 0.0000
# 4 0.0000 0.0000 0.0000 -1.5777 0.0000 0.0000
# 5 0.0000 0.0000 0.0000 0.0000 25.3890 0.0000
# 6 0.0000 0.0000 0.0000 0.0000 0.0000 8.7284
#
#
#
# Elastic Compliance Matrix: (Units=1/GPa)
#
#
# Indices 1 2 3 4 5 6 
#
# 1 0.017609 -0.002023 0.000128 0.000000 0.000000 0.000000
# 2 -0.002023 0.010827 -0.009216 0.000000 0.000000 0.000000
# 3 0.000128 -0.009216 0.016171 0.000000 0.000000 0.000000
# 4 0.000000 0.000000 0.000000 -0.633819 0.000000 0.000000
# 5 0.000000 0.000000 0.000000 0.000000 0.039387 0.000000
# 6 0.000000 0.000000 0.000000 0.000000 0.000000 0.114568
#
#
# Mechanical properties :
#
#
# Convention : Reuss Voigt Hill
#
# Bulk Modulus (GPa) = 44.67409 71.59130 58.13269
# Shear Modulus (GPa) = -12.32827 21.82717 4.74945
#
# Velocity S-wave (km/s) = -2.60563 3.46705 1.61727
# Velocity P-wave (km/s) = 3.94336 7.44669 5.95833
#
# Compressibility (1/GPa) = 0.02238434
#
# Stress axis : x y z
#
# Youngs Moduli (GPa) = 56.78760 92.36414 61.83779
#
# Poissons Ratio (x) = 0.18689 -0.00790
# Poissons Ratio (y) = 0.11491 0.56990
# Poissons Ratio (z) = -0.00726 0.85123
#
# Static dielectric constant tensor:
#      x y z
#    x 1.689440 0.000000 0.000000 
#    y 0.000000 1.665710 0.000000 
#    z 0.000000 0.000000 1.581540 
# 
# From -- ./inp_files/33456.got.cif
#   From: 2010.05.17/outbox.cif.g08.bks.cpg/sg47_17_cif.got.tgz:33456.got - 2010.06.03 20:15:42.
