data_PCOD9383123
_publ_section_title
;
Structure prediction by ZEFSAII (Michael W. Deem and Ramdas Pophale) SiO2 
 PCOD9383123
Probable space group: P M M M
;
_chemical_formula_sum "Si O2"
_cell_formula_units_Z 56
_cell_length_a 15.796895
_cell_length_b 7.601162
_cell_length_c 20.982323
_cell_angle_alpha 90.000000
_cell_angle_beta 90.000000
_cell_angle_gamma 90.000000
_cell_volume 2519.447356
_symmetry_space_group_name_H-M "P M M M"
_symmetry_group_IT_number 47
_symmetry_cell_setting 'orthorhombic'
loop_
_space_group_symop_operation_xyz
x,y,z
-x,-y,z
x,-y,-z
-x,y,-z
-x,-y,-z
x,y,-z
-x,y,z
x,-y,z
loop_
_atom_site_type_symbol
_atom_site_label
_atom_site_fract_x
_atom_site_fract_y
_atom_site_fract_z
Si Si1 0.650112 0.283380 0.333060
Si Si2 0.172259 0.306964 0.638592
Si Si3 0.093768 0.704584 0.909746
Si Si4 0.500000 0.285692 0.426830
Si Si5 0.283824 0.285254 0.929851
Si Si6 0.000000 0.794126 0.430164
Si Si7 0.598816 0.285331 0.810633
Si Si8 0.902713 0.204952 0.236353
O O1 0.653391 0.500000 0.330552
O O2 0.738101 0.213469 0.361755
O O3 0.579156 0.233326 0.383527
O O4 0.630254 0.229400 0.260019
O O5 0.185528 0.500000 0.611513
O O6 0.086893 0.243174 0.606325
O O7 0.152781 0.308160 0.713887
O O8 0.091876 0.500000 0.928723
O O9 0.185466 0.777404 0.929453
O O10 0.098626 0.717282 0.833574
O O11 0.000000 0.779687 0.927163
O O12 0.500000 0.500000 0.429214
O O13 0.500000 0.224173 0.500000
O O14 0.280290 0.500000 0.926137
O O15 0.339624 0.227724 0.868895
O O16 0.319719 0.240216 0.000000
O O17 0.000000 0.708676 0.500000
O O18 0.000000 0.000000 0.437657
O O19 0.500000 0.233399 0.819407
O O20 0.600119 0.500000 0.811032
O O21 0.000000 0.211949 0.258492
O O22 0.877713 0.000000 0.234483
#
# Coordination Sequence:
#
# PCOD9383123 Si02
#       8
#     8   8   8   4   8   4   8   8
#     4   9  17  29  47  75 106 140 176 215 270 328
#     4  11  21  33  55  82 109 140 179 227 273 319
#     4   9  17  29  46  68  97 133 171 214 267 323
#     4   9  16  28  46  70 106 144 172 207 263 329
#     4   9  17  27  40  64  97 132 175 225 270 319
#     4  11  25  43  57  73 107 153 192 223 264 321
#     4   9  15  25  42  62  95 140 175 206 262 335
#     4  10  19  31  49  73 103 135 172 216 263 317
#
# _framework density 22.227097000000001
#
# number of rings (size 3 to 8) (size 9 to 14) (size 15 to 20)
#    0.000    2.429    1.429    1.929    0.000    4.571 
#    0.000    4.286    0.000    0.429    0.000    4.000 
#    0.000    3.429    0.000    3.714    0.000    4.286 
#
# Total GULP energy -312211.361919 kJ/mol
# GULP energy per Si atom -5575.202891 kJ/mol
# Density = 2.217651 g / cm^3
# Si number density = 22.227097 Si / 1000 Ang^3
#
#
#
# Elastic Constant Matrix: (Units=GPa)
#
#
# Indices 1 2 3 4 5 6 
#
# 1 207.3567 14.5509 111.9940 0.0000 0.0000 0.0000
# 2 14.5509 48.6930 2.1023 0.0000 0.0000 0.0000
# 3 111.9940 2.1023 176.5666 0.0000 0.0000 0.0000
# 4 0.0000 0.0000 0.0000 -63.4654 0.0000 0.0000
# 5 0.0000 0.0000 0.0000 0.0000 -38.1348 0.0000
# 6 0.0000 0.0000 0.0000 0.0000 0.0000 50.6762
#
#
#
# Elastic Compliance Matrix: (Units=1/GPa)
#
#
# Indices 1 2 3 4 5 6 
#
# 1 0.007534 -0.002046 -0.004754 0.000000 0.000000 0.000000
# 2 -0.002046 0.021103 0.001047 0.000000 0.000000 0.000000
# 3 -0.004754 0.001047 0.008667 0.000000 0.000000 0.000000
# 4 0.000000 0.000000 0.000000 -0.015757 0.000000 0.000000
# 5 0.000000 0.000000 0.000000 0.000000 -0.026223 0.000000
# 6 0.000000 0.000000 0.000000 0.000000 0.000000 0.019733
#
#
# Mechanical properties :
#
#
# Convention : Reuss Voigt Hill
#
# Bulk Modulus (GPa) = 38.76565 76.65673 57.71119
# Shear Modulus (GPa) = 142.18994 10.07982 76.13488
#
# Velocity S-wave (km/s) = 8.00689 2.13185 5.85897
# Velocity P-wave (km/s) = 10.14687 6.37358 8.47294
#
# Compressibility (1/GPa) = 0.02579603
#
# Stress axis : x y z
#
# Youngs Moduli (GPa) = 132.73075 47.38639 115.38322
#
# Poissons Ratio (x) = 0.09696 0.54858
# Poissons Ratio (y) = 0.27158 -0.12076
# Poissons Ratio (z) = 0.63105 -0.04959
#
# Static dielectric constant tensor:
#      x y z
#    x 1.902910 0.000000 0.000000 
#    y 0.000000 1.824070 0.000000 
#    z 0.000000 0.000000 1.818540 
# 
# From -- ./inp_files/31090.got.cif
#   From: 2010.05.17/outbox.cif.g08.bks.cpg/sg47_16_cif.got.tgz:31090.got - 2010.06.03 20:15:42.
