data_PCOD9383757
_publ_section_title
;
Structure prediction by ZEFSAII (Michael W. Deem and Ramdas Pophale) SiO2 
 PCOD9383757
Probable space group: P M M M
;
_chemical_formula_sum "Si O2"
_cell_formula_units_Z 52
_cell_length_a 19.760330
_cell_length_b 16.232933
_cell_length_c 7.614419
_cell_angle_alpha 90.000000
_cell_angle_beta 90.000000
_cell_angle_gamma 90.000000
_cell_volume 2442.462814
_symmetry_space_group_name_H-M "P M M M"
_symmetry_group_IT_number 47
_symmetry_cell_setting 'orthorhombic'
loop_
_space_group_symop_operation_xyz
x,y,z
-x,-y,z
x,-y,-z
-x,y,-z
-x,-y,-z
x,y,-z
-x,y,z
x,-y,z
loop_
_atom_site_type_symbol
_atom_site_label
_atom_site_fract_x
_atom_site_fract_y
_atom_site_fract_z
Si Si1 0.664950 0.405745 0.214699
Si Si2 0.422227 0.748889 0.214518
Si Si3 0.074738 0.403372 0.711696
Si Si4 0.194168 0.878756 0.298804
Si Si5 0.078120 0.000000 0.285869
Si Si6 0.204686 0.305801 0.800675
Si Si7 0.345255 0.910960 0.203678
O O1 0.656799 0.500000 0.275266
O O2 0.609080 0.338789 0.269562
O O3 0.736263 0.364866 0.269982
O O4 0.664888 0.409093 0.000000
O O5 0.500000 0.757780 0.267116
O O6 0.377968 0.827145 0.277174
O O7 0.419653 0.748276 0.000000
O O8 0.080114 0.395657 0.500000
O O9 0.079398 0.500000 0.753552
O O10 0.135358 0.355181 0.797097
O O11 0.000000 0.373947 0.763377
O O12 0.201582 0.904924 0.500000
O O13 0.125381 0.922104 0.232773
O O14 0.192511 0.780395 0.292399
O O15 0.263990 0.904392 0.208419
O O16 0.073661 0.000000 0.500000
O O17 0.000000 0.000000 0.223179
O O18 0.224945 0.284195 0.000000
O O19 0.364610 0.000000 0.282402
O O20 0.366381 0.912908 0.000000
#
# Coordination Sequence:
#
# PCOD9383757 Si02
#       7
#     8   8   8   8   4   8   8
#     4   9  17  29  47  74 108 144 180 224 276 324
#     4   9  17  30  49  77 112 146 181 222 270 328
#     4   9  19  36  55  76 106 143 182 225 273 326
#     4  11  21  35  57  81 104 140 184 222 269 331
#     4   9  20  38  57  79 106 135 174 224 271 323
#     4  11  21  34  53  79 111 142 181 230 280 330
#     4  10  19  33  55  81 111 143 175 220 277 330
#
# _framework density 21.289988000000001
#
# number of rings (size 3 to 8) (size 9 to 14) (size 15 to 20)
#    0.000    2.231    2.308    1.846    0.000    2.462 
#    0.000    5.385    0.000    3.692    0.000    1.077 
#    0.000    1.231    0.000    0.000    0.000    0.000 
#
# Total GULP energy -290198.034182 kJ/mol
# GULP energy per Si atom -5580.731427 kJ/mol
# Density = 2.124153 g / cm^3
# Si number density = 21.289988 Si / 1000 Ang^3
#
#
#
# Elastic Constant Matrix: (Units=GPa)
#
#
# Indices 1 2 3 4 5 6 
#
# 1 152.2543 96.0224 -0.3600 0.0000 0.0000 0.0000
# 2 96.0224 186.8518 11.7601 0.0000 0.0000 0.0000
# 3 -0.3600 11.7601 40.8581 0.0000 0.0000 0.0000
# 4 0.0000 0.0000 0.0000 5.9036 0.0000 0.0000
# 5 0.0000 0.0000 0.0000 0.0000 36.9442 0.0000
# 6 0.0000 0.0000 0.0000 0.0000 0.0000 52.4599
#
#
#
# Elastic Compliance Matrix: (Units=1/GPa)
#
#
# Indices 1 2 3 4 5 6 
#
# 1 0.009815 -0.005142 0.001567 0.000000 0.000000 0.000000
# 2 -0.005142 0.008145 -0.002390 0.000000 0.000000 0.000000
# 3 0.001567 -0.002390 0.025177 0.000000 0.000000 0.000000
# 4 0.000000 0.000000 0.000000 0.169389 0.000000 0.000000
# 5 0.000000 0.000000 0.000000 0.000000 0.027068 0.000000
# 6 0.000000 0.000000 0.000000 0.000000 0.000000 0.019062
#
#
# Mechanical properties :
#
#
# Convention : Reuss Voigt Hill
#
# Bulk Modulus (GPa) = 32.04573 66.08990 49.06781
# Shear Modulus (GPa) = 17.79433 37.23098 27.51266
#
# Velocity S-wave (km/s) = 2.89417 4.18635 3.59873
# Velocity P-wave (km/s) = 5.12377 7.38088 6.35336
#
# Compressibility (1/GPa) = 0.03120541
#
# Stress axis : x y z
#
# Youngs Moduli (GPa) = 101.88672 122.77640 39.71952
#
# Poissons Ratio (x) = 0.63136 -0.06222
# Poissons Ratio (y) = 0.52394 0.09492
# Poissons Ratio (z) = -0.15962 0.29339
#
# Static dielectric constant tensor:
#      x y z
#    x 1.735830 0.000000 0.000000 
#    y 0.000000 1.763750 0.000000 
#    z 0.000000 0.000000 1.844150 
# 
# From -- ./inp_files/11036.got.cif
#   From: 2010.05.17/outbox.cif.g08.bks.cpg/sg47_6_cif.got.tgz:11036.got - 2010.06.03 20:15:42.
