data_PCOD9383113
_publ_section_title
;
Structure prediction by ZEFSAII (Michael W. Deem and Ramdas Pophale) SiO2 
 PCOD9383113
Probable space group: P M M M
;
_chemical_formula_sum "Si O2"
_cell_formula_units_Z 64
_cell_length_a 14.929347
_cell_length_b 8.699361
_cell_length_c 25.177571
_cell_angle_alpha 90.000000
_cell_angle_beta 90.000000
_cell_angle_gamma 90.000000
_cell_volume 3269.956648
_symmetry_space_group_name_H-M "P M M M"
_symmetry_group_IT_number 47
_symmetry_cell_setting 'orthorhombic'
loop_
_space_group_symop_operation_xyz
x,y,z
-x,-y,z
x,-y,-z
-x,y,-z
-x,-y,-z
x,y,-z
-x,y,z
x,-y,z
loop_
_atom_site_type_symbol
_atom_site_label
_atom_site_fract_x
_atom_site_fract_y
_atom_site_fract_z
Si Si1 0.264507 0.179272 0.651179
Si Si2 0.645072 0.682664 0.941717
Si Si3 0.099895 0.683045 0.287419
Si Si4 0.146055 0.822787 0.173826
Si Si5 0.398646 0.673899 0.726935
Si Si6 0.398435 0.187359 0.438453
Si Si7 0.363024 0.174776 0.833475
Si Si8 0.845858 0.186026 0.058180
O O1 0.173786 0.255099 0.671795
O O2 0.334557 0.205370 0.698935
O O3 0.319502 0.242310 0.600319
O O4 0.247520 0.000000 0.642664
O O5 0.636133 0.500000 0.933629
O O6 0.607850 0.774272 0.891851
O O7 0.750354 0.728498 0.943194
O O8 0.608486 0.721611 0.000000
O O9 0.102087 0.500000 0.289304
O O10 0.119675 0.732353 0.226544
O O11 0.000000 0.738116 0.301017
O O12 0.254369 0.818689 0.169254
O O13 0.111629 0.771635 0.115292
O O14 0.118788 0.000000 0.181715
O O15 0.500000 0.687666 0.707338
O O16 0.366290 0.500000 0.716973
O O17 0.397344 0.709903 0.789087
O O18 0.383907 0.229161 0.500000
O O19 0.500000 0.236576 0.423489
O O20 0.398549 0.000000 0.435581
O O21 0.389984 0.000000 0.821985
O O22 0.831233 0.000000 0.061224
O O23 0.889035 0.214967 0.000000
#
# Coordination Sequence:
#
# PCOD9383113 Si02
#       8
#     8   8   8   8   8   8   8   8
#     4  11  21  35  59  88 116 149 189 232 277 325
#     4   9  16  25  40  64  93 127 168 213 265 327
#     4  11  24  39  55  76 106 148 194 240 291 342
#     4   9  17  30  50  75 100 131 174 226 283 339
#     4  11  23  36  52  77 111 149 183 219 268 327
#     4   8  15  30  55  90 129 162 190 223 266 318
#     4  10  19  31  49  72  99 133 173 221 275 328
#     4   8  14  25  42  66  96 127 163 212 271 338
#
# _framework density 19.572126000000001
#
# number of rings (size 3 to 8) (size 9 to 14) (size 15 to 20)
#    0.000    2.375    1.250    3.375    0.000    5.250 
#    0.000    0.000    0.000    2.625    0.000   12.250 
#    0.000    0.000    0.000    0.000    0.000    0.000 
#
# Total GULP energy -356911.161643 kJ/mol
# GULP energy per Si atom -5576.736901 kJ/mol
# Density = 1.952758 g / cm^3
# Si number density = 19.572126 Si / 1000 Ang^3
#
#
#
# Elastic Constant Matrix: (Units=GPa)
#
#
# Indices 1 2 3 4 5 6 
#
# 1 102.5697 20.9519 56.3541 0.0000 0.0000 0.0000
# 2 20.9519 28.9213 17.4861 0.0000 0.0000 0.0000
# 3 56.3541 17.4861 128.1879 0.0000 0.0000 0.0000
# 4 0.0000 0.0000 0.0000 0.8558 0.0000 0.0000
# 5 0.0000 0.0000 0.0000 0.0000 9.3745 0.0000
# 6 0.0000 0.0000 0.0000 0.0000 0.0000 28.2658
#
#
#
# Elastic Compliance Matrix: (Units=1/GPa)
#
#
# Indices 1 2 3 4 5 6 
#
# 1 0.014052 -0.007024 -0.005219 0.000000 0.000000 0.000000
# 2 -0.007024 0.041196 -0.002532 0.000000 0.000000 0.000000
# 3 -0.005219 -0.002532 0.010441 0.000000 0.000000 0.000000
# 4 0.000000 0.000000 0.000000 1.168515 0.000000 0.000000
# 5 0.000000 0.000000 0.000000 0.000000 0.106672 0.000000
# 6 0.000000 0.000000 0.000000 0.000000 0.000000 0.035378
#
#
# Mechanical properties :
#
#
# Convention : Reuss Voigt Hill
#
# Bulk Modulus (GPa) = 27.67132 49.91813 38.79472
# Shear Modulus (GPa) = 3.52647 18.69168 11.10907
#
# Velocity S-wave (km/s) = 1.34376 3.09368 2.38501
# Velocity P-wave (km/s) = 4.07141 6.19042 5.23916
#
# Compressibility (1/GPa) = 0.03613851
#
# Stress axis : x y z
#
# Youngs Moduli (GPa) = 71.16463 24.27433 95.77703
#
# Poissons Ratio (x) = 0.17051 0.49989
# Poissons Ratio (y) = 0.49987 0.24246
# Poissons Ratio (z) = 0.37143 0.06145
#
# Static dielectric constant tensor:
#      x y z
#    x 1.731500 0.000000 0.000000 
#    y 0.000000 1.660490 0.000000 
#    z 0.000000 0.000000 1.712680 
# 
# From -- ./inp_files/32807.got.cif
#   From: 2010.05.17/outbox.cif.g08.bks.cpg/sg47_17_cif.got.tgz:32807.got - 2010.06.03 20:15:42.
