data_PCOD9383961
_publ_section_title
;
Structure prediction by ZEFSAII (Michael W. Deem and Ramdas Pophale) SiO2 
 PCOD9383961
Probable space group: P M M M
;
_chemical_formula_sum "Si O2"
_cell_formula_units_Z 56
_cell_length_a 15.223813
_cell_length_b 9.311186
_cell_length_c 22.772660
_cell_angle_alpha 90.000000
_cell_angle_beta 90.000000
_cell_angle_gamma 90.000000
_cell_volume 3228.064509
_symmetry_space_group_name_H-M "P M M M"
_symmetry_group_IT_number 47
_symmetry_cell_setting 'orthorhombic'
loop_
_space_group_symop_operation_xyz
x,y,z
-x,-y,z
x,-y,-z
-x,y,-z
-x,-y,-z
x,y,-z
-x,y,z
x,-y,z
loop_
_atom_site_type_symbol
_atom_site_label
_atom_site_fract_x
_atom_site_fract_y
_atom_site_fract_z
Si Si1 0.353554 0.337697 0.068662
Si Si2 0.594573 0.171242 0.178822
Si Si3 0.725434 0.174279 0.281578
Si Si4 0.102876 0.672537 0.243156
Si Si5 0.897576 0.152215 0.000000
Si Si6 0.605157 0.672666 0.379124
Si Si7 0.847338 0.339450 0.890685
Si Si8 0.605886 0.165654 0.500000
O O1 0.389598 0.500000 0.070230
O O2 0.401637 0.235146 0.113824
O O3 0.256370 0.344795 0.096648
O O4 0.350050 0.294003 0.000000
O O5 0.500000 0.212828 0.205848
O O6 0.674860 0.213771 0.220769
O O7 0.597924 0.000000 0.174871
O O8 0.823514 0.239899 0.279008
O O9 0.665632 0.247989 0.331371
O O10 0.726744 0.000000 0.287202
O O11 0.114744 0.500000 0.251385
O O12 0.124437 0.703439 0.174541
O O13 0.000000 0.706077 0.254953
O O14 0.878660 0.235408 0.059097
O O15 0.000000 0.133047 0.000000
O O16 0.849126 0.000000 0.000000
O O17 0.500000 0.696638 0.368848
O O18 0.618946 0.500000 0.379358
O O19 0.628564 0.744839 0.441721
O O20 0.882868 0.500000 0.900374
O O21 0.500000 0.156681 0.500000
O O22 0.638833 0.000000 0.500000
#
# Coordination Sequence:
#
# PCOD9383961 Si02
#       8
#     8   8   8   8   4   8   8   4
#     4  10  20  35  54  74  95 123 166 217 267 323
#     4  10  22  38  54  74 101 135 174 217 269 326
#     4  11  22  36  56  81 112 147 183 227 276 330
#     4  10  21  37  57  79 103 134 175 224 276 332
#     4  11  23  33  45  71 100 123 156 205 261 326
#     4  10  20  34  55  85 121 160 199 235 271 315
#     4  10  19  35  55  72  94 127 165 208 264 329
#     4   9  17  31  53  83 122 163 198 233 273 317
#
# _framework density 17.347856
#
# number of rings (size 3 to 8) (size 9 to 14) (size 15 to 20)
#    0.000    1.857    2.143    2.143    0.000    6.286 
#    0.000    1.429    0.000    0.000    0.000    0.500 
#    0.000    4.000    0.000    0.000    0.000    0.000 
#
# Total GULP energy -312097.471979 kJ/mol
# GULP energy per Si atom -5573.169142 kJ/mol
# Density = 1.730837 g / cm^3
# Si number density = 17.347856 Si / 1000 Ang^3
#
#
#
# Elastic Constant Matrix: (Units=GPa)
#
#
# Indices 1 2 3 4 5 6 
#
# 1 111.3634 49.7896 46.8538 0.0000 0.0000 0.0000
# 2 49.7896 76.4752 57.4871 0.0000 0.0000 0.0000
# 3 46.8538 57.4871 111.3671 0.0000 0.0000 0.0000
# 4 0.0000 0.0000 0.0000 22.7017 0.0000 0.0000
# 5 0.0000 0.0000 0.0000 0.0000 18.8936 0.0000
# 6 0.0000 0.0000 0.0000 0.0000 0.0000 23.2657
#
#
#
# Elastic Compliance Matrix: (Units=1/GPa)
#
#
# Indices 1 2 3 4 5 6 
#
# 1 0.012879 -0.007046 -0.001781 0.000000 0.000000 0.000000
# 2 -0.007046 0.025222 -0.010055 0.000000 0.000000 0.000000
# 3 -0.001781 -0.010055 0.014919 0.000000 0.000000 0.000000
# 4 0.000000 0.000000 0.000000 0.044050 0.000000 0.000000
# 5 0.000000 0.000000 0.000000 0.000000 0.052928 0.000000
# 6 0.000000 0.000000 0.000000 0.000000 0.000000 0.042982
#
#
# Mechanical properties :
#
#
# Convention : Reuss Voigt Hill
#
# Bulk Modulus (GPa) = 65.55049 67.49629 66.52339
# Shear Modulus (GPa) = 21.20170 22.64387 21.92278
#
# Velocity S-wave (km/s) = 3.49972 3.61679 3.55874
# Velocity P-wave (km/s) = 7.36198 7.51223 7.43748
#
# Compressibility (1/GPa) = 0.01525542
#
# Stress axis : x y z
#
# Youngs Moduli (GPa) = 77.64381 39.64786 67.02800
#
# Poissons Ratio (x) = 0.27936 0.11940
# Poissons Ratio (y) = 0.54709 0.67397
# Poissons Ratio (z) = 0.13831 0.39866
#
# Static dielectric constant tensor:
#      x y z
#    x 1.630620 0.000000 0.000000 
#    y 0.000000 1.047090 0.000000 
#    z 0.000000 0.000000 1.549810 
# 
# From -- ./inp_files/25160.got.cif
#   From: 2010.05.17/outbox.cif.g08.bks.cpg/sg47_13_cif.got.tgz:25160.got - 2010.06.03 20:15:42.
