data_PCOD9383880
_publ_section_title
;
Structure prediction by ZEFSAII (Michael W. Deem and Ramdas Pophale) SiO2 
 PCOD9383880
Probable space group: P M M M
;
_chemical_formula_sum "Si O2"
_cell_formula_units_Z 40
_cell_length_a 17.732477
_cell_length_b 7.680105
_cell_length_c 14.685476
_cell_angle_alpha 90.000000
_cell_angle_beta 90.000000
_cell_angle_gamma 90.000000
_cell_volume 1999.975109
_symmetry_space_group_name_H-M "P M M M"
_symmetry_group_IT_number 47
_symmetry_cell_setting 'orthorhombic'
loop_
_space_group_symop_operation_xyz
x,y,z
-x,-y,z
x,-y,-z
-x,y,-z
-x,-y,-z
x,y,-z
-x,y,z
x,-y,z
loop_
_atom_site_type_symbol
_atom_site_label
_atom_site_fract_x
_atom_site_fract_y
_atom_site_fract_z
Si Si1 0.910610 0.198468 0.239949
Si Si2 0.202585 0.711354 0.604284
Si Si3 0.091963 0.500000 0.103853
Si Si4 0.348449 0.293877 0.712278
Si Si5 0.587884 0.712662 0.101625
Si Si6 0.500000 0.790943 0.604576
O O1 0.866970 0.232870 0.333324
O O2 0.884404 0.332606 0.162469
O O3 0.000000 0.225970 0.253567
O O4 0.898844 0.000000 0.210888
O O5 0.198908 0.771472 0.500000
O O6 0.204132 0.500000 0.602295
O O7 0.278165 0.775892 0.655065
O O8 0.000000 0.500000 0.100370
O O9 0.119249 0.500000 0.000000
O O10 0.334844 0.500000 0.722291
O O11 0.362720 0.223394 0.813849
O O12 0.425425 0.270382 0.656403
O O13 0.500000 0.762101 0.115703
O O14 0.589083 0.500000 0.102714
O O15 0.610639 0.767896 0.000000
O O16 0.500000 0.730016 0.500000
O O17 0.500000 0.000000 0.604809
#
# Coordination Sequence:
#
# PCOD9383880 Si02
#       6
#     8   8   4   8   8   4
#     4  10  21  38  62  91 121 157 202 247 296 358
#     4  10  21  36  55  81 117 156 196 247 305 361
#     4   9  18  36  63  93 125 158 194 241 296 352
#     4  10  19  34  56  79 106 143 189 237 284 342
#     4   8  13  24  47  78 105 131 170 220 274 329
#     4  11  23  35  48  71 104 142 185 233 288 347
#
# _framework density 20.000250000000001
#
# number of rings (size 3 to 8) (size 9 to 14) (size 15 to 20)
#    0.000    2.400    2.000    1.500    0.000    3.600 
#    0.000    5.000    0.000    1.200    0.000    0.000 
#    0.000    0.000    0.000    0.000    0.000    0.000 
#
# Total GULP energy -223297.687993 kJ/mol
# GULP energy per Si atom -5582.442200 kJ/mol
# Density = 1.995473 g / cm^3
# Si number density = 20.000250 Si / 1000 Ang^3
#
#
#
# Elastic Constant Matrix: (Units=GPa)
#
#
# Indices 1 2 3 4 5 6 
#
# 1 54.6294 35.7451 67.5136 0.0000 0.0000 0.0000
# 2 35.7451 59.1133 54.4269 0.0000 0.0000 0.0000
# 3 67.5136 54.4269 222.6501 0.0000 0.0000 0.0000
# 4 0.0000 0.0000 0.0000 -4.7921 0.0000 0.0000
# 5 0.0000 0.0000 0.0000 0.0000 38.1865 0.0000
# 6 0.0000 0.0000 0.0000 0.0000 0.0000 -8.6960
#
#
#
# Elastic Compliance Matrix: (Units=1/GPa)
#
#
# Indices 1 2 3 4 5 6 
#
# 1 0.038351 -0.016109 -0.007691 0.000000 0.000000 0.000000
# 2 -0.016109 0.028596 -0.002106 0.000000 0.000000 0.000000
# 3 -0.007691 -0.002106 0.007338 0.000000 0.000000 0.000000
# 4 0.000000 0.000000 0.000000 -0.208677 0.000000 0.000000
# 5 0.000000 0.000000 0.000000 0.000000 0.026187 0.000000
# 6 0.000000 0.000000 0.000000 0.000000 0.000000 -0.114995
#
#
# Mechanical properties :
#
#
# Convention : Reuss Voigt Hill
#
# Bulk Modulus (GPa) = 44.49625 72.41823 58.45724
# Shear Modulus (GPa) = -30.50687 16.85348 -6.82670
#
# Velocity S-wave (km/s) = -3.90978 2.90602 -1.84952
# Velocity P-wave (km/s) = 1.38360 6.89545 4.97300
#
# Compressibility (1/GPa) = 0.02247380
#
# Stress axis : x y z
#
# Youngs Moduli (GPa) = 26.07525 34.96962 136.27178
#
# Poissons Ratio (x) = 0.56332 1.04809
# Poissons Ratio (y) = 0.42004 0.28696
# Poissons Ratio (z) = 0.20055 0.07364
#
# Static dielectric constant tensor:
#      x y z
#    x 1.611610 0.000000 0.000000 
#    y 0.000000 1.742490 0.000000 
#    z 0.000000 0.000000 1.694940 
# 
# From -- ./inp_files/23358.got.cif
#   From: 2010.05.17/outbox.cif.g08.bks.cpg/sg47_12_cif.got.tgz:23358.got - 2010.06.03 20:15:42.
