data_PCOD9383412
_publ_section_title
;
Structure prediction by ZEFSAII (Michael W. Deem and Ramdas Pophale) SiO2 
 PCOD9383412
Probable space group: P M M M
;
_chemical_formula_sum "Si O2"
_cell_formula_units_Z 48
_cell_length_a 19.069261
_cell_length_b 7.720870
_cell_length_c 14.660921
_cell_angle_alpha 90.000000
_cell_angle_beta 90.000000
_cell_angle_gamma 90.000000
_cell_volume 2158.546241
_symmetry_space_group_name_H-M "P M M M"
_symmetry_group_IT_number 47
_symmetry_cell_setting 'orthorhombic'
loop_
_space_group_symop_operation_xyz
x,y,z
-x,-y,z
x,-y,-z
-x,y,-z
-x,-y,-z
x,y,-z
-x,y,z
x,-y,z
loop_
_atom_site_type_symbol
_atom_site_label
_atom_site_fract_x
_atom_site_fract_y
_atom_site_fract_z
Si Si1 0.386402 0.701703 0.597618
Si Si2 0.779397 0.792796 0.895363
Si Si3 0.218274 0.298932 0.402288
Si Si4 0.877949 0.194103 0.743812
Si Si5 0.000000 0.212319 0.607416
Si Si6 0.635601 0.300549 0.207176
Si Si7 0.500000 0.198303 0.107607
O O1 0.411377 0.776215 0.500000
O O2 0.410523 0.500000 0.598752
O O3 0.301756 0.703643 0.593006
O O4 0.395076 0.779471 0.698181
O O5 0.845884 0.723615 0.835928
O O6 0.706002 0.765834 0.841655
O O7 0.789230 0.000000 0.899313
O O8 0.775638 0.728068 0.000000
O O9 0.189800 0.237925 0.500000
O O10 0.198263 0.500000 0.389339
O O11 0.190556 0.188926 0.319872
O O12 0.934437 0.268195 0.671667
O O13 0.903213 0.000000 0.766051
O O14 0.000000 0.269643 0.500000
O O15 0.000000 0.000000 0.602915
O O16 0.652305 0.500000 0.229726
O O17 0.570641 0.288371 0.139913
O O18 0.500000 0.000000 0.141311
O O19 0.500000 0.193885 0.000000
#
# Coordination Sequence:
#
# PCOD9383412 Si02
#       7
#     8   8   8   8   4   8   4
#     4   8  15  29  50  78 110 139 167 206 262 319
#     4  10  21  36  53  76 108 143 180 228 285 333
#     4   9  16  28  48  74 105 137 168 208 259 314
#     4  10  19  32  51  74 103 141 184 224 268 325
#     4   9  18  32  50  76 110 143 177 225 280 327
#     4  11  21  36  61  88 111 140 184 231 269 320
#     4  11  25  43  60  79 112 154 185 221 280 333
#
# _framework density 22.237189999999998
#
# number of rings (size 3 to 8) (size 9 to 14) (size 15 to 20)
#    0.000    2.333    1.667    2.750    0.000    4.000 
#    0.000    1.250    0.000    8.500    0.000    0.000 
#    0.000    2.667    0.000    0.000    0.000    0.000 
#
# Total GULP energy -267205.029871 kJ/mol
# GULP energy per Si atom -5566.771456 kJ/mol
# Density = 2.218658 g / cm^3
# Si number density = 22.237190 Si / 1000 Ang^3
#
#
#
# Elastic Constant Matrix: (Units=GPa)
#
#
# Indices 1 2 3 4 5 6 
#
# 1 97.5398 -2.1208 57.8564 0.0000 0.0000 0.0000
# 2 -2.1208 35.9285 14.9278 0.0000 0.0000 0.0000
# 3 57.8564 14.9278 190.6222 0.0000 0.0000 0.0000
# 4 0.0000 0.0000 0.0000 -61.8396 0.0000 0.0000
# 5 0.0000 0.0000 0.0000 0.0000 4.5059 0.0000
# 6 0.0000 0.0000 0.0000 0.0000 0.0000 15.1095
#
#
#
# Elastic Compliance Matrix: (Units=1/GPa)
#
#
# Indices 1 2 3 4 5 6 
#
# 1 0.012705 0.002431 -0.004047 0.000000 0.000000 0.000000
# 2 0.002431 0.029234 -0.003027 0.000000 0.000000 0.000000
# 3 -0.004047 -0.003027 0.006711 0.000000 0.000000 0.000000
# 4 0.000000 0.000000 0.000000 -0.016171 0.000000 0.000000
# 5 0.000000 0.000000 0.000000 0.000000 0.221932 0.000000
# 6 0.000000 0.000000 0.000000 0.000000 0.000000 0.066183
#
#
# Mechanical properties :
#
#
# Convention : Reuss Voigt Hill
#
# Bulk Modulus (GPa) = 25.40283 51.71303 38.55793
# Shear Modulus (GPa) = 14.57712 8.45031 11.51372
#
# Velocity S-wave (km/s) = 2.56311 1.95149 2.27792
# Velocity P-wave (km/s) = 4.49530 5.32761 4.92906
#
# Compressibility (1/GPa) = 0.03936570
#
# Stress axis : x y z
#
# Youngs Moduli (GPa) = 78.70682 34.20635 149.00334
#
# Poissons Ratio (x) = -0.08317 0.60296
# Poissons Ratio (y) = -0.19136 0.45108
# Poissons Ratio (z) = 0.31850 0.10355
#
# Static dielectric constant tensor:
#      x y z
#    x 1.833390 0.000000 0.000000 
#    y 0.000000 1.892810 0.000000 
#    z 0.000000 0.000000 1.922200 
# 
# From -- ./inp_files/24478.got.cif
#   From: 2010.05.17/outbox.cif.g08.bks.cpg/sg47_13_cif.got.tgz:24478.got - 2010.06.03 20:15:42.
