data_PCOD9383393
_publ_section_title
;
Structure prediction by ZEFSAII (Michael W. Deem and Ramdas Pophale) SiO2 
 PCOD9383393
Probable space group: P M M M
;
_chemical_formula_sum "Si O2"
_cell_formula_units_Z 40
_cell_length_a 8.107305
_cell_length_b 9.594076
_cell_length_c 28.202033
_cell_angle_alpha 90.000000
_cell_angle_beta 90.000000
_cell_angle_gamma 90.000000
_cell_volume 2193.613360
_symmetry_space_group_name_H-M "P M M M"
_symmetry_group_IT_number 47
_symmetry_cell_setting 'orthorhombic'
loop_
_space_group_symop_operation_xyz
x,y,z
-x,-y,z
x,-y,-z
-x,y,-z
-x,-y,-z
x,y,-z
-x,y,z
x,-y,z
loop_
_atom_site_type_symbol
_atom_site_label
_atom_site_fract_x
_atom_site_fract_y
_atom_site_fract_z
Si Si1 0.694491 0.660978 0.216461
Si Si2 0.699226 0.839297 0.590194
Si Si3 0.196949 0.839089 0.305323
Si Si4 0.817109 0.330131 0.885119
Si Si5 0.297997 0.339660 0.500000
Si Si6 0.500000 0.329798 0.054772
O O1 0.500000 0.662636 0.205379
O O2 0.743311 0.500000 0.224944
O O3 0.728618 0.749436 0.263080
O O4 0.787063 0.712713 0.169395
O O5 0.500000 0.840492 0.589661
O O6 0.755050 0.789820 0.642009
O O7 0.755576 0.742854 0.547025
O O8 0.755364 0.000000 0.583915
O O9 0.000000 0.836184 0.301063
O O10 0.253692 0.000000 0.301721
O O11 0.812532 0.500000 0.884947
O O12 0.665240 0.284041 0.917791
O O13 0.000000 0.287654 0.901078
O O14 0.244944 0.500000 0.500000
O O15 0.500000 0.338822 0.500000
O O16 0.500000 0.500000 0.055604
O O17 0.500000 0.286825 0.000000
#
# Coordination Sequence:
#
# PCOD9383393 Si02
#       6
#     8   8   8   8   4   4
#     4  10  19  32  51  73  98 131 170 210 255 311
#     4   9  17  31  50  69  91 123 160 197 244 300
#     4  10  21  35  50  72 102 132 165 208 254 303
#     4   9  16  27  43  64  94 131 170 213 261 311
#     4   9  17  29  48  73  96 118 154 205 250 291
#     4   9  16  26  40  62  95 133 175 218 257 306
#
# _framework density 18.234755
#
# number of rings (size 3 to 8) (size 9 to 14) (size 15 to 20)
#    0.000    2.600    1.000    1.500    0.000    4.800 
#    0.000    4.500    0.000    3.000    0.000    0.000 
#    0.000    1.600    0.000    4.200    0.000    4.000 
#
# Total GULP energy -223082.057768 kJ/mol
# GULP energy per Si atom -5577.051444 kJ/mol
# Density = 1.819325 g / cm^3
# Si number density = 18.234755 Si / 1000 Ang^3
#
#
#
# Elastic Constant Matrix: (Units=GPa)
#
#
# Indices 1 2 3 4 5 6 
#
# 1 76.5297 18.9006 54.2224 0.0000 0.0000 0.0000
# 2 18.9006 35.0566 46.7538 0.0000 0.0000 0.0000
# 3 54.2224 46.7538 149.7647 0.0000 0.0000 0.0000
# 4 0.0000 0.0000 0.0000 -200.2732 0.0000 0.0000
# 5 0.0000 0.0000 0.0000 0.0000 0.0155 0.0000
# 6 0.0000 0.0000 0.0000 0.0000 0.0000 12.0885
#
#
#
# Elastic Compliance Matrix: (Units=1/GPa)
#
#
# Indices 1 2 3 4 5 6 
#
# 1 0.017634 -0.001701 -0.005854 0.000000 0.000000 0.000000
# 2 -0.001701 0.049038 -0.014693 0.000000 0.000000 0.000000
# 3 -0.005854 -0.014693 0.013383 0.000000 0.000000 0.000000
# 4 0.000000 0.000000 0.000000 -0.004993 0.000000 0.000000
# 5 0.000000 0.000000 0.000000 0.000000 64.360560 0.000000
# 6 0.000000 0.000000 0.000000 0.000000 0.000000 0.082724
#
#
# Mechanical properties :
#
#
# Convention : Reuss Voigt Hill
#
# Bulk Modulus (GPa) = 28.12080 55.67827 41.89953
# Shear Modulus (GPa) = 0.07743 -28.20224 -14.06240
#
# Velocity S-wave (km/s) = 0.20629 -3.93698 -2.78004
# Velocity P-wave (km/s) = 3.93850 3.15184 3.56692
#
# Compressibility (1/GPa) = 0.03556087
#
# Stress axis : x y z
#
# Youngs Moduli (GPa) = 56.70812 20.39242 74.72000
#
# Poissons Ratio (x) = 0.03468 0.43738
# Poissons Ratio (y) = 0.09644 1.09786
# Poissons Ratio (z) = 0.33194 0.29963
#
# Static dielectric constant tensor:
#      x y z
#    x 1.648840 0.000000 0.000000 
#    y 0.000000 1.610260 0.000000 
#    z 0.000000 0.000000 1.604760 
# 
# From -- ./inp_files/33087.got.cif
#   From: 2010.05.17/outbox.cif.g08.bks.cpg/sg47_17_cif.got.tgz:33087.got - 2010.06.03 20:15:42.
