data_PCOD9383097
_publ_section_title
;
Structure prediction by ZEFSAII (Michael W. Deem and Ramdas Pophale) SiO2 
 PCOD9383097
Probable space group: P M M M
;
_chemical_formula_sum "Si O2"
_cell_formula_units_Z 52
_cell_length_a 8.736131
_cell_length_b 12.001246
_cell_length_c 28.545962
_cell_angle_alpha 90.000000
_cell_angle_beta 90.000000
_cell_angle_gamma 90.000000
_cell_volume 2992.885892
_symmetry_space_group_name_H-M "P M M M"
_symmetry_group_IT_number 47
_symmetry_cell_setting 'orthorhombic'
loop_
_space_group_symop_operation_xyz
x,y,z
-x,-y,z
x,-y,-z
-x,y,-z
-x,-y,-z
x,y,-z
-x,y,z
x,-y,z
loop_
_atom_site_type_symbol
_atom_site_label
_atom_site_fract_x
_atom_site_fract_y
_atom_site_fract_z
Si Si1 0.816873 0.631400 0.599451
Si Si2 0.324369 0.365024 0.500000
Si Si3 0.181831 0.270805 0.136810
Si Si4 0.818374 0.500000 0.739921
Si Si5 0.682381 0.720158 0.307714
Si Si6 0.318632 0.867073 0.053485
Si Si7 0.680351 0.500000 0.157941
Si Si8 0.815432 0.129004 0.770981
O O1 0.772290 0.500000 0.606933
O O2 0.760126 0.666067 0.547968
O O3 0.744617 0.707759 0.639618
O O4 0.000000 0.635848 0.602042
O O5 0.325650 0.500000 0.500000
O O6 0.500000 0.326599 0.500000
O O7 0.221716 0.194956 0.092511
O O8 0.271579 0.386620 0.132577
O O9 0.228988 0.205607 0.184509
O O10 0.000000 0.291409 0.139780
O O11 0.745623 0.390615 0.717520
O O12 0.777830 0.500000 0.794328
O O13 0.000000 0.500000 0.732183
O O14 0.500000 0.720596 0.307770
O O15 0.744519 0.821634 0.276443
O O16 0.500000 0.844926 0.060496
O O17 0.297215 0.000000 0.057491
O O18 0.279675 0.834947 0.000000
O O19 0.500000 0.500000 0.168277
O O20 0.000000 0.134737 0.767446
O O21 0.772461 0.000000 0.778663
#
# Coordination Sequence:
#
# PCOD9383097 Si02
#       8
#     8   4   8   4   8   8   4   8
#     4  10  19  31  49  72 104 144 183 223 270 326
#     4   9  17  29  45  69 104 139 178 225 270 323
#     4  11  22  37  59  85 114 147 182 225 274 327
#     4  12  22  36  54  76 108 146 184 224 267 323
#     4  12  23  34  53  80 109 144 185 228 273 322
#     4   9  19  37  60  85 114 148 186 230 278 325
#     4  12  24  38  57  83 111 147 186 223 267 326
#     4  10  22  39  57  78 109 147 182 221 273 328
#
# _framework density 17.374535000000002
#
# number of rings (size 3 to 8) (size 9 to 14) (size 15 to 20)
#    0.000    1.462    2.308    4.846    0.000    3.692 
#    0.000    1.154    0.000    2.308    0.000    0.538 
#    0.000    4.308    0.000    0.000    0.000    0.000 
#
# Total GULP energy -290432.558854 kJ/mol
# GULP energy per Si atom -5585.241516 kJ/mol
# Density = 1.733499 g / cm^3
# Si number density = 17.374535 Si / 1000 Ang^3
#
#
#
# Elastic Constant Matrix: (Units=GPa)
#
#
# Indices 1 2 3 4 5 6 
#
# 1 64.2909 34.6363 31.8873 0.0000 0.0000 0.0000
# 2 34.6363 75.0715 32.3714 0.0000 0.0000 0.0000
# 3 31.8873 32.3714 101.2198 0.0000 0.0000 0.0000
# 4 0.0000 0.0000 0.0000 18.0644 0.0000 0.0000
# 5 0.0000 0.0000 0.0000 0.0000 36.5346 0.0000
# 6 0.0000 0.0000 0.0000 0.0000 0.0000 20.3432
#
#
#
# Elastic Compliance Matrix: (Units=1/GPa)
#
#
# Indices 1 2 3 4 5 6 
#
# 1 0.022214 -0.008388 -0.004315 0.000000 0.000000 0.000000
# 2 -0.008388 0.018619 -0.003312 0.000000 0.000000 0.000000
# 3 -0.004315 -0.003312 0.012298 0.000000 0.000000 0.000000
# 4 0.000000 0.000000 0.000000 0.055357 0.000000 0.000000
# 5 0.000000 0.000000 0.000000 0.000000 0.027371 0.000000
# 6 0.000000 0.000000 0.000000 0.000000 0.000000 0.049156
#
#
# Mechanical properties :
#
#
# Convention : Reuss Voigt Hill
#
# Bulk Modulus (GPa) = 47.39389 48.70801 48.05095
# Shear Modulus (GPa) = 22.31344 24.43426 23.37385
#
# Velocity S-wave (km/s) = 3.58755 3.75417 3.67180
# Velocity P-wave (km/s) = 6.67066 6.84739 6.75960
#
# Compressibility (1/GPa) = 0.02109977
#
# Stress axis : x y z
#
# Youngs Moduli (GPa) = 45.01732 53.70885 81.31276
#
# Poissons Ratio (x) = 0.45051 0.35089
# Poissons Ratio (y) = 0.37761 0.26931
# Poissons Ratio (z) = 0.19427 0.17789
#
# Static dielectric constant tensor:
#      x y z
#    x 1.582090 0.000000 0.000000 
#    y 0.000000 1.572750 0.000000 
#    z 0.000000 0.000000 1.590640 
# 
# From -- ./inp_files/33297.got.cif
#   From: 2010.05.17/outbox.cif.g08.bks.cpg/sg47_17_cif.got.tgz:33297.got - 2010.06.03 20:15:42.
