data_PCOD9383557
_publ_section_title
;
Structure prediction by ZEFSAII (Michael W. Deem and Ramdas Pophale) SiO2 
 PCOD9383557
Probable space group: P M M M
;
_chemical_formula_sum "Si O2"
_cell_formula_units_Z 56
_cell_length_a 8.696231
_cell_length_b 15.396377
_cell_length_c 20.992587
_cell_angle_alpha 90.000000
_cell_angle_beta 90.000000
_cell_angle_gamma 90.000000
_cell_volume 2810.706940
_symmetry_space_group_name_H-M "P M M M"
_symmetry_group_IT_number 47
_symmetry_cell_setting 'orthorhombic'
loop_
_space_group_symop_operation_xyz
x,y,z
-x,-y,z
x,-y,-z
-x,y,-z
-x,-y,-z
x,y,-z
-x,y,z
x,-y,z
loop_
_atom_site_type_symbol
_atom_site_label
_atom_site_fract_x
_atom_site_fract_y
_atom_site_fract_z
Si Si1 0.179233 0.657348 0.152933
Si Si2 0.181569 0.148483 0.168307
Si Si3 0.314244 0.102046 0.693421
Si Si4 0.319651 0.500000 0.924226
Si Si5 0.314982 0.786394 0.430479
Si Si6 0.179565 0.597947 0.409223
Si Si7 0.329229 0.599884 0.722336
Si Si8 0.811700 0.000000 0.926839
O O1 0.194433 0.757523 0.135618
O O2 0.242559 0.585844 0.104937
O O3 0.275596 0.652157 0.217658
O O4 0.000000 0.638181 0.165849
O O5 0.258016 0.137149 0.237866
O O6 0.238957 0.080890 0.116027
O O7 0.000000 0.132791 0.179663
O O8 0.500000 0.104760 0.693344
O O9 0.261232 0.160827 0.632614
O O10 0.268488 0.000000 0.686773
O O11 0.500000 0.500000 0.907331
O O12 0.304018 0.500000 0.000000
O O13 0.268113 0.824125 0.500000
O O14 0.500000 0.787375 0.428141
O O15 0.261308 0.685820 0.431240
O O16 0.236883 0.500000 0.427483
O O17 0.207289 0.603286 0.333718
O O18 0.000000 0.601402 0.425132
O O19 0.500000 0.625381 0.699022
O O20 0.336962 0.500000 0.743481
O O21 0.000000 0.000000 0.928740
O O22 0.759464 0.000000 0.000000
#
# Coordination Sequence:
#
# PCOD9383557 Si02
#       8
#     8   8   8   4   8   8   8   4
#     4  11  22  35  57  87 117 151 196 249 299 348
#     4  10  21  37  61  92 120 153 195 243 299 357
#     4  10  21  38  62  90 119 154 195 244 303 363
#     4  11  25  43  59  79 115 165 210 245 292 355
#     4  10  22  39  58  83 116 155 201 250 301 361
#     4  10  21  36  55  81 115 154 196 243 295 353
#     4  10  19  32  53  80 111 147 189 236 288 345
#     4   9  18  36  61  87 118 153 190 234 287 353
#
# _framework density 19.923812999999999
#
# number of rings (size 3 to 8) (size 9 to 14) (size 15 to 20)
#    0.000    1.857    1.429    2.357    0.000    7.429 
#    0.000    4.286    0.000    0.857    0.000    2.000 
#    0.000    0.000    0.000    0.000    0.000    0.000 
#
# Total GULP energy -312280.392923 kJ/mol
# GULP energy per Si atom -5576.435588 kJ/mol
# Density = 1.987847 g / cm^3
# Si number density = 19.923813 Si / 1000 Ang^3
#
#
#
# Elastic Constant Matrix: (Units=GPa)
#
#
# Indices 1 2 3 4 5 6 
#
# 1 32.6991 26.3255 21.5242 0.0000 0.0000 0.0000
# 2 26.3255 110.7914 65.9501 0.0000 0.0000 0.0000
# 3 21.5242 65.9501 130.2371 0.0000 0.0000 0.0000
# 4 0.0000 0.0000 0.0000 -7.5677 0.0000 0.0000
# 5 0.0000 0.0000 0.0000 0.0000 41.0974 0.0000
# 6 0.0000 0.0000 0.0000 0.0000 0.0000 22.3510
#
#
#
# Elastic Compliance Matrix: (Units=1/GPa)
#
#
# Indices 1 2 3 4 5 6 
#
# 1 0.038362 -0.007646 -0.002468 0.000000 0.000000 0.000000
# 2 -0.007646 0.014445 -0.006051 0.000000 0.000000 0.000000
# 3 -0.002468 -0.006051 0.011150 0.000000 0.000000 0.000000
# 4 0.000000 0.000000 0.000000 -0.132141 0.000000 0.000000
# 5 0.000000 0.000000 0.000000 0.000000 0.024332 0.000000
# 6 0.000000 0.000000 0.000000 0.000000 0.000000 0.044741
#
#
# Mechanical properties :
#
#
# Convention : Reuss Voigt Hill
#
# Bulk Modulus (GPa) = 31.61870 55.70302 43.66086
# Shear Modulus (GPa) = 114.25340 21.83800 68.04570
#
# Velocity S-wave (km/s) = 7.58087 3.31429 5.85039
# Velocity P-wave (km/s) = 9.61927 6.53183 8.22178
#
# Compressibility (1/GPa) = 0.03162685
#
# Stress axis : x y z
#
# Youngs Moduli (GPa) = 26.06716 69.22965 89.68361
#
# Poissons Ratio (x) = 0.52934 0.22136
# Poissons Ratio (y) = 0.19931 0.54267
# Poissons Ratio (z) = 0.06434 0.41890
#
# Static dielectric constant tensor:
#      x y z
#    x 1.701560 0.000000 0.000000 
#    y 0.000000 1.744110 0.000000 
#    z 0.000000 0.000000 1.720000 
# 
# From -- ./inp_files/11338.got.cif
#   From: 2010.05.17/outbox.cif.g08.bks.cpg/sg47_6_cif.got.tgz:11338.got - 2010.06.03 20:15:42.
