data_PCOD9383256
_publ_section_title
;
Structure prediction by ZEFSAII (Michael W. Deem and Ramdas Pophale) SiO2 
 PCOD9383256
Probable space group: P M M M
;
_chemical_formula_sum "Si O2"
_cell_formula_units_Z 40
_cell_length_a 22.400393
_cell_length_b 12.129530
_cell_length_c 8.223366
_cell_angle_alpha 90.000000
_cell_angle_beta 90.000000
_cell_angle_gamma 90.000000
_cell_volume 2234.339847
_symmetry_space_group_name_H-M "P M M M"
_symmetry_group_IT_number 47
_symmetry_cell_setting 'orthorhombic'
loop_
_space_group_symop_operation_xyz
x,y,z
-x,-y,z
x,-y,-z
-x,y,-z
-x,-y,-z
x,y,-z
-x,y,z
x,-y,z
loop_
_atom_site_type_symbol
_atom_site_label
_atom_site_fract_x
_atom_site_fract_y
_atom_site_fract_z
Si Si1 0.429033 0.734470 0.500000
Si Si2 0.234098 0.633515 0.190761
Si Si3 0.887194 0.764837 0.193022
Si Si4 0.309913 0.626979 0.500000
Si Si5 0.068967 0.000000 0.693471
Si Si6 0.427713 0.126359 0.178430
Si Si7 0.000000 0.375607 0.693922
O O1 0.500000 0.707930 0.500000
O O2 0.381091 0.638104 0.500000
O O3 0.414409 0.804173 0.662048
O O4 0.224012 0.500000 0.199418
O O5 0.174229 0.701602 0.232141
O O6 0.281714 0.668413 0.329458
O O7 0.250305 0.655806 0.000000
O O8 0.941831 0.690887 0.253726
O O9 0.896869 0.888675 0.256812
O O10 0.890389 0.771030 0.000000
O O11 0.293408 0.500000 0.500000
O O12 0.064454 0.000000 0.500000
O O13 0.000000 0.000000 0.758593
O O14 0.500000 0.123053 0.173345
O O15 0.407061 0.000000 0.195838
O O16 0.407784 0.168270 0.000000
O O17 0.000000 0.500000 0.760783
O O18 0.000000 0.381286 0.500000
#
# Coordination Sequence:
#
# PCOD9383256 Si02
#       7
#     4   8   8   4   4   8   4
#     4  10  19  31  52  83 114 144 179 220 273 336
#     4   9  20  39  62  85 107 139 189 244 290 333
#     4  11  22  37  59  82 109 146 189 235 281 332
#     4  10  22  38  59  81 107 146 184 227 280 336
#     4  11  23  37  55  81 116 156 190 221 270 341
#     4   8  14  26  47  76 108 141 175 211 255 310
#     4  11  23  34  51  84 119 145 177 231 288 331
#
# _framework density 17.902380000000001
#
# number of rings (size 3 to 8) (size 9 to 14) (size 15 to 20)
#    0.000    2.200    1.000    2.700    2.800    4.200 
#    0.000    0.000    4.400    0.000    0.000    5.600 
#    0.000    0.000    0.000    0.000    0.000    0.000 
#
# Total GULP energy -222771.358430 kJ/mol
# GULP energy per Si atom -5569.283961 kJ/mol
# Density = 1.786163 g / cm^3
# Si number density = 17.902380 Si / 1000 Ang^3
#
#
#
# Elastic Constant Matrix: (Units=GPa)
#
#
# Indices 1 2 3 4 5 6 
#
# 1 83.6218 31.3462 50.8972 0.0000 0.0000 0.0000
# 2 31.3462 73.6098 26.8503 0.0000 0.0000 0.0000
# 3 50.8972 26.8503 95.9037 0.0000 0.0000 0.0000
# 4 0.0000 0.0000 0.0000 115.8923 0.0000 0.0000
# 5 0.0000 0.0000 0.0000 0.0000 -11.6068 0.0000
# 6 0.0000 0.0000 0.0000 0.0000 0.0000 -3.0444
#
#
#
# Elastic Compliance Matrix: (Units=1/GPa)
#
#
# Indices 1 2 3 4 5 6 
#
# 1 0.019162 -0.004957 -0.008782 0.000000 0.000000 0.000000
# 2 -0.004957 0.016412 -0.001964 0.000000 0.000000 0.000000
# 3 -0.008782 -0.001964 0.015638 0.000000 0.000000 0.000000
# 4 0.000000 0.000000 0.000000 0.008629 0.000000 0.000000
# 5 0.000000 0.000000 0.000000 0.000000 -0.086156 0.000000
# 6 0.000000 0.000000 0.000000 0.000000 0.000000 -0.328473
#
#
# Mechanical properties :
#
#
# Convention : Reuss Voigt Hill
#
# Bulk Modulus (GPa) = 50.48892 52.36918 51.42905
# Shear Modulus (GPa) = -15.78376 29.85100 7.03362
#
# Velocity S-wave (km/s) = -2.97249 4.08785 1.98429
# Velocity P-wave (km/s) = 4.05988 7.18309 5.83436
#
# Compressibility (1/GPa) = 0.01980633
#
# Stress axis : x y z
#
# Youngs Moduli (GPa) = 52.18766 60.92935 63.94841
#
# Poissons Ratio (x) = 0.30200 0.56157
# Poissons Ratio (y) = 0.25867 0.12563
# Poissons Ratio (z) = 0.45829 0.11969
#
# Static dielectric constant tensor:
#      x y z
#    x 1.592200 0.000000 0.000000 
#    y 0.000000 1.643210 0.000000 
#    z 0.000000 0.000000 1.648450 
# 
# From -- ./inp_files/10773.got.cif
#   From: 2010.05.17/outbox.cif.g08.bks.cpg/sg47_6_cif.got.tgz:10773.got - 2010.06.03 20:15:42.
