data_PCOD9383101
_publ_section_title
;
Structure prediction by ZEFSAII (Michael W. Deem and Ramdas Pophale) SiO2 
 PCOD9383101
Probable space group: P M M M
;
_chemical_formula_sum "Si O2"
_cell_formula_units_Z 52
_cell_length_a 22.845217
_cell_length_b 15.938384
_cell_length_c 8.803935
_cell_angle_alpha 90.000000
_cell_angle_beta 90.000000
_cell_angle_gamma 90.000000
_cell_volume 3205.652198
_symmetry_space_group_name_H-M "P M M M"
_symmetry_group_IT_number 47
_symmetry_cell_setting 'orthorhombic'
loop_
_space_group_symop_operation_xyz
x,y,z
-x,-y,z
x,-y,-z
-x,y,-z
-x,-y,-z
x,y,-z
-x,y,z
x,-y,z
loop_
_atom_site_type_symbol
_atom_site_label
_atom_site_fract_x
_atom_site_fract_y
_atom_site_fract_z
Si Si1 0.647399 0.589445 0.821150
Si Si2 0.785989 0.768996 0.680914
Si Si3 0.000000 0.101586 0.674076
Si Si4 0.123891 0.901360 0.818088
Si Si5 0.656032 0.229256 0.182803
Si Si6 0.432761 0.901678 0.682023
Si Si7 0.210665 0.592804 0.821545
O O1 0.627553 0.500000 0.753535
O O2 0.630157 0.680684 0.761373
O O3 0.718314 0.590605 0.812867
O O4 0.631994 0.587779 0.000000
O O5 0.783738 0.772728 0.500000
O O6 0.827933 0.841065 0.745479
O O7 0.720758 0.780793 0.748311
O O8 0.807482 0.676249 0.733108
O O9 0.940289 0.125099 0.758724
O O10 0.000000 0.131302 0.500000
O O11 0.000000 0.000000 0.671635
O O12 0.132923 0.000000 0.777251
O O13 0.125902 0.895351 0.000000
O O14 0.613451 0.155766 0.233341
O O15 0.661468 0.232695 0.000000
O O16 0.426564 0.891458 0.500000
O O17 0.500000 0.880639 0.722109
O O18 0.423724 0.000000 0.715980
O O19 0.190272 0.500000 0.769586
O O20 0.195963 0.601682 0.000000
#
# Coordination Sequence:
#
# PCOD9383101 Si02
#       7
#     8   8   4   8   8   8   8
#     4   7  11  22  41  64  89 117 147 179 219 268
#     4  11  21  31  46  71 103 133 161 197 243 291
#     4   9  17  31  51  73  96 123 158 199 243 289
#     4  10  20  34  51  70  95 129 168 205 239 281
#     4  10  19  31  49  72  96 122 155 195 238 283
#     4   9  19  36  54  69  88 118 155 194 239 290
#     4   8  14  27  46  66  92 126 161 197 236 280
#
# _framework density 16.221347999999999
#
# number of rings (size 3 to 8) (size 9 to 14) (size 15 to 20)
#    0.000    2.846    0.000    4.846    0.000    3.385 
#    0.000    0.769    0.000    1.846    0.000    3.769 
#    0.000    4.308    0.000    0.000    0.000    0.000 
#
# Total GULP energy -289496.495578 kJ/mol
# GULP energy per Si atom -5567.240300 kJ/mol
# Density = 1.618443 g / cm^3
# Si number density = 16.221348 Si / 1000 Ang^3
#
#
#
# Elastic Constant Matrix: (Units=GPa)
#
#
# Indices 1 2 3 4 5 6 
#
# 1 72.4379 72.1026 41.9494 0.0000 0.0000 0.0000
# 2 72.1026 123.9443 60.8522 0.0000 0.0000 0.0000
# 3 41.9494 60.8522 71.2031 0.0000 0.0000 0.0000
# 4 0.0000 0.0000 0.0000 17.5770 0.0000 0.0000
# 5 0.0000 0.0000 0.0000 0.0000 17.8338 0.0000
# 6 0.0000 0.0000 0.0000 0.0000 0.0000 -4.8413
#
#
#
# Elastic Compliance Matrix: (Units=1/GPa)
#
#
# Indices 1 2 3 4 5 6 
#
# 1 0.033950 -0.017108 -0.005380 0.000000 0.000000 0.000000
# 2 -0.017108 0.022522 -0.009169 0.000000 0.000000 0.000000
# 3 -0.005380 -0.009169 0.025050 0.000000 0.000000 0.000000
# 4 0.000000 0.000000 0.000000 0.056892 0.000000 0.000000
# 5 0.000000 0.000000 0.000000 0.000000 0.056073 0.000000
# 6 0.000000 0.000000 0.000000 0.000000 0.000000 -0.206555
#
#
# Mechanical properties :
#
#
# Convention : Reuss Voigt Hill
#
# Bulk Modulus (GPa) = 54.92307 68.59930 61.76119
# Shear Modulus (GPa) = 87.23676 12.29265 49.76470
#
# Velocity S-wave (km/s) = 7.34137 2.75582 5.54483
# Velocity P-wave (km/s) = 10.28557 7.24620 8.89664
#
# Compressibility (1/GPa) = 0.01820728
#
# Stress axis : x y z
#
# Youngs Moduli (GPa) = 29.45540 44.40115 39.92005
#
# Poissons Ratio (x) = 0.75962 0.21479
# Poissons Ratio (y) = 0.50392 0.36601
# Poissons Ratio (z) = 0.15848 0.40710
#
# Static dielectric constant tensor:
#      x y z
#    x 1.511380 0.000000 0.000000 
#    y 0.000000 1.582910 0.000000 
#    z 0.000000 0.000000 1.542090 
# 
# From -- ./inp_files/10938.got.cif
#   From: 2010.05.17/outbox.cif.g08.bks.cpg/sg47_6_cif.got.tgz:10938.got - 2010.06.03 20:15:42.
