data_PCOD9383958
_publ_section_title
;
Structure prediction by ZEFSAII (Michael W. Deem and Ramdas Pophale) SiO2 
 PCOD9383958
Probable space group: P M M M
;
_chemical_formula_sum "Si O2"
_cell_formula_units_Z 56
_cell_length_a 7.560028
_cell_length_b 20.839057
_cell_length_c 16.213631
_cell_angle_alpha 90.000000
_cell_angle_beta 90.000000
_cell_angle_gamma 90.000000
_cell_volume 2554.357922
_symmetry_space_group_name_H-M "P M M M"
_symmetry_group_IT_number 47
_symmetry_cell_setting 'orthorhombic'
loop_
_space_group_symop_operation_xyz
x,y,z
-x,-y,z
x,-y,-z
-x,y,-z
-x,-y,-z
x,y,-z
-x,y,z
x,-y,z
loop_
_atom_site_type_symbol
_atom_site_label
_atom_site_fract_x
_atom_site_fract_y
_atom_site_fract_z
Si Si1 0.786873 0.706193 0.590828
Si Si2 0.794107 0.807335 0.727808
Si Si3 0.285331 0.756280 0.908796
Si Si4 0.698393 0.629091 0.831933
Si Si5 0.711169 0.425854 0.335469
Si Si6 0.788252 0.926960 0.185296
Si Si7 0.800652 0.500000 0.903722
Si Si8 0.289388 0.073145 0.000000
O O1 0.731397 0.729322 0.500000
O O2 0.720936 0.754301 0.663719
O O3 0.736170 0.630977 0.598992
O O4 0.000000 0.707119 0.594792
O O5 0.783833 0.782102 0.821691
O O6 0.717622 0.878746 0.744346
O O7 0.000000 0.815011 0.704782
O O8 0.500000 0.764659 0.909768
O O9 0.233720 0.681642 0.895399
O O10 0.223879 0.777583 0.000000
O O11 0.500000 0.651814 0.811186
O O12 0.788433 0.610080 0.745738
O O13 0.697669 0.562001 0.876542
O O14 0.500000 0.432632 0.323151
O O15 0.775426 0.500000 0.347986
O O16 0.000000 0.929579 0.194896
O O17 0.718954 0.000000 0.189329
O O18 0.758493 0.901770 0.091142
O O19 0.000000 0.500000 0.867520
O O20 0.817452 0.500000 0.000000
O O21 0.500000 0.071939 0.000000
O O22 0.217000 0.000000 0.000000
#
# Coordination Sequence:
#
# PCOD9383958 Si02
#       8
#     8   8   8   8   8   8   4   4
#     4  10  22  40  60  82 108 138 174 221 279 335
#     4  10  21  36  56  80 107 143 183 224 269 319
#     4  10  21  35  52  76 106 141 180 222 267 316
#     4  10  19  35  54  71  98 138 179 219 268 323
#     4  10  20  36  58  82 106 134 173 220 268 323
#     4   9  18  33  52  75 108 149 188 222 261 314
#     4  11  23  33  45  71 102 135 180 227 267 310
#     4   9  17  29  47  75 111 149 188 227 264 303
#
# _framework density 21.923318999999999
#
# number of rings (size 3 to 8) (size 9 to 14) (size 15 to 20)
#    0.000    2.143    2.143    0.857    1.000    4.857 
#    0.000    1.429    0.000    0.429    0.000    3.000 
#    0.000    0.000    0.000    6.143    0.000    6.571 
#
# Total GULP energy -311817.030022 kJ/mol
# GULP energy per Si atom -5568.161250 kJ/mol
# Density = 2.187342 g / cm^3
# Si number density = 21.923319 Si / 1000 Ang^3
#
#
#
# Elastic Constant Matrix: (Units=GPa)
#
#
# Indices 1 2 3 4 5 6 
#
# 1 60.9728 -3.1121 3.1107 0.0000 0.0000 0.0000
# 2 -3.1121 119.9258 62.8782 0.0000 0.0000 0.0000
# 3 3.1107 62.8782 128.2410 0.0000 0.0000 0.0000
# 4 0.0000 0.0000 0.0000 27.7965 0.0000 0.0000
# 5 0.0000 0.0000 0.0000 0.0000 17.4250 0.0000
# 6 0.0000 0.0000 0.0000 0.0000 0.0000 11.9860
#
#
#
# Elastic Compliance Matrix: (Units=1/GPa)
#
#
# Indices 1 2 3 4 5 6 
#
# 1 0.016486 0.000858 -0.000821 0.000000 0.000000 0.000000
# 2 0.000858 0.011269 -0.005546 0.000000 0.000000 0.000000
# 3 -0.000821 -0.005546 0.010537 0.000000 0.000000 0.000000
# 4 0.000000 0.000000 0.000000 0.035976 0.000000 0.000000
# 5 0.000000 0.000000 0.000000 0.000000 0.057389 0.000000
# 6 0.000000 0.000000 0.000000 0.000000 0.000000 0.083430
#
#
# Mechanical properties :
#
#
# Convention : Reuss Voigt Hill
#
# Bulk Modulus (GPa) = 36.66362 48.32146 42.49254
# Shear Modulus (GPa) = 21.25892 27.85903 24.55897
#
# Velocity S-wave (km/s) = 3.11737 3.56862 3.35060
# Velocity P-wave (km/s) = 5.45135 6.25053 5.86457
#
# Compressibility (1/GPa) = 0.02727499
#
# Stress axis : x y z
#
# Youngs Moduli (GPa) = 60.65595 88.74268 94.90408
#
# Poissons Ratio (x) = -0.07615 0.07788
# Poissons Ratio (y) = -0.05205 0.52633
# Poissons Ratio (z) = 0.04978 0.49216
#
# Static dielectric constant tensor:
#      x y z
#    x 1.882590 0.000000 0.000000 
#    y 0.000000 1.903410 0.000000 
#    z 0.000000 0.000000 1.841390 
# 
# From -- ./inp_files/21613.got.cif
#   From: 2010.05.17/outbox.cif.g08.bks.cpg/sg47_11_cif.got.tgz:21613.got - 2010.06.03 20:15:42.
