data_PCOD9383261
_publ_section_title
;
Structure prediction by ZEFSAII (Michael W. Deem and Ramdas Pophale) SiO2 
 PCOD9383261
Probable space group: P M M M
;
_chemical_formula_sum "Si O2"
_cell_formula_units_Z 64
_cell_length_a 25.383026
_cell_length_b 8.611958
_cell_length_c 14.844534
_cell_angle_alpha 90.000000
_cell_angle_beta 90.000000
_cell_angle_gamma 90.000000
_cell_volume 3244.978820
_symmetry_space_group_name_H-M "P M M M"
_symmetry_group_IT_number 47
_symmetry_cell_setting 'orthorhombic'
loop_
_space_group_symop_operation_xyz
x,y,z
-x,-y,z
x,-y,-z
-x,y,-z
-x,-y,-z
x,y,-z
-x,y,z
x,-y,z
loop_
_atom_site_type_symbol
_atom_site_label
_atom_site_fract_x
_atom_site_fract_y
_atom_site_fract_z
Si Si1 0.166608 0.174474 0.107148
Si Si2 0.832798 0.668710 0.604881
Si Si3 0.350754 0.681418 0.733918
Si Si4 0.057215 0.818098 0.361135
Si Si5 0.057553 0.316619 0.165054
Si Si6 0.561321 0.310516 0.398635
Si Si7 0.721144 0.687804 0.894590
Si Si8 0.730104 0.826303 0.608459
O O1 0.112778 0.269797 0.121136
O O2 0.221549 0.251190 0.137332
O O3 0.160676 0.000000 0.144894
O O4 0.172505 0.162881 0.000000
O O5 0.819747 0.652034 0.500000
O O6 0.827321 0.500000 0.649692
O O7 0.892242 0.725419 0.607843
O O8 0.790245 0.792152 0.637421
O O9 0.361247 0.500000 0.750807
O O10 0.402303 0.747437 0.683244
O O11 0.324621 0.743772 0.826194
O O12 0.305967 0.702453 0.658031
O O13 0.055857 0.786292 0.254739
O O14 0.000000 0.766754 0.396274
O O15 0.063336 0.000000 0.380889
O O16 0.059609 0.500000 0.187372
O O17 0.000000 0.292101 0.118237
O O18 0.578640 0.261144 0.500000
O O19 0.500000 0.268523 0.388035
O O20 0.564028 0.500000 0.398511
O O21 0.722794 0.500000 0.891095
O O22 0.712649 0.731449 0.000000
O O23 0.725038 0.817663 0.500000
O O24 0.714653 0.000000 0.636088
#
# Coordination Sequence:
#
# PCOD9383261 Si02
#       8
#     8   8   8   8   8   8   8   8
#     4  10  21  36  54  75  99 129 166 211 265 325
#     4  10  21  36  53  72  96 128 166 208 254 309
#     4  10  19  31  53  80 104 140 185 225 265 314
#     4  10  21  36  53  72  95 125 162 206 255 308
#     4  10  21  36  54  75  99 128 163 206 258 321
#     4   8  14  26  47  78 114 147 181 224 269 314
#     4   9  19  35  52  73 104 140 179 225 275 325
#     4  10  21  35  50  73 107 140 170 211 265 323
#
# _framework density 19.722778999999999
#
# number of rings (size 3 to 8) (size 9 to 14) (size 15 to 20)
#    0.000    2.375    0.000    2.625    1.750    5.250 
#    0.000    2.500    0.000    0.750    0.000    4.375 
#    0.000    0.000    0.000    4.250    0.000    4.625 
#
# Total GULP energy -356547.443520 kJ/mol
# GULP energy per Si atom -5571.053805 kJ/mol
# Density = 1.967789 g / cm^3
# Si number density = 19.722779 Si / 1000 Ang^3
#
#
#
# Elastic Constant Matrix: (Units=GPa)
#
#
# Indices 1 2 3 4 5 6 
#
# 1 112.1233 8.1107 45.9995 0.0000 0.0000 0.0000
# 2 8.1107 27.5370 9.3091 0.0000 0.0000 0.0000
# 3 45.9995 9.3091 75.8726 0.0000 0.0000 0.0000
# 4 0.0000 0.0000 0.0000 14.2340 0.0000 0.0000
# 5 0.0000 0.0000 0.0000 0.0000 19.0319 0.0000
# 6 0.0000 0.0000 0.0000 0.0000 0.0000 0.1826
#
#
#
# Elastic Compliance Matrix: (Units=1/GPa)
#
#
# Indices 1 2 3 4 5 6 
#
# 1 0.011904 -0.001113 -0.007081 0.000000 0.000000 0.000000
# 2 -0.001113 0.037990 -0.003987 0.000000 0.000000 0.000000
# 3 -0.007081 -0.003987 0.017962 0.000000 0.000000 0.000000
# 4 0.000000 0.000000 0.000000 0.070254 0.000000 0.000000
# 5 0.000000 0.000000 0.000000 0.000000 0.052543 0.000000
# 6 0.000000 0.000000 0.000000 0.000000 0.000000 5.476701
#
#
# Mechanical properties :
#
#
# Convention : Reuss Voigt Hill
#
# Bulk Modulus (GPa) = 22.99035 38.04129 30.51582
# Shear Modulus (GPa) = 0.87624 16.83061 8.85342
#
# Velocity S-wave (km/s) = 0.66726 2.92440 2.12101
# Velocity P-wave (km/s) = 3.50367 5.54371 4.63726
#
# Compressibility (1/GPa) = 0.04349651
#
# Stress axis : x y z
#
# Youngs Moduli (GPa) = 84.00447 26.32261 55.67331
#
# Poissons Ratio (x) = 0.02929 0.39420
# Poissons Ratio (y) = 0.09346 0.22195
# Poissons Ratio (z) = 0.59481 0.10494
#
# Static dielectric constant tensor:
#      x y z
#    x 1.711450 0.000000 0.000000 
#    y 0.000000 1.701230 0.000000 
#    z 0.000000 0.000000 1.733180 
# 
# From -- ./inp_files/7890.got.cif
#   From: 2010.05.17/outbox.cif.g08.bks.cpg/sg47_4_cif.got.tgz:7890.got - 2010.06.03 20:15:42.
