data_PCOD9383098
_publ_section_title
;
Structure prediction by ZEFSAII (Michael W. Deem and Ramdas Pophale) SiO2 
 PCOD9383098
Probable space group: P M M M
;
_chemical_formula_sum "Si O2"
_cell_formula_units_Z 64
_cell_length_a 14.679412
_cell_length_b 31.756787
_cell_length_c 9.131265
_cell_angle_alpha 90.000000
_cell_angle_beta 90.000000
_cell_angle_gamma 90.000000
_cell_volume 4256.730573
_symmetry_space_group_name_H-M "P M M M"
_symmetry_group_IT_number 47
_symmetry_cell_setting 'orthorhombic'
loop_
_space_group_symop_operation_xyz
x,y,z
-x,-y,z
x,-y,-z
-x,y,-z
-x,-y,-z
x,y,-z
-x,y,z
x,-y,z
loop_
_atom_site_type_symbol
_atom_site_label
_atom_site_fract_x
_atom_site_fract_y
_atom_site_fract_z
Si Si1 0.891362 0.867757 0.326037
Si Si2 0.397618 0.336360 0.675894
Si Si3 0.106114 0.548107 0.823856
Si Si4 0.793739 0.789471 0.175517
Si Si5 0.889524 0.953249 0.170564
Si Si6 0.397908 0.754444 0.175589
Si Si7 0.211011 0.623660 0.675736
Si Si8 0.891881 0.710601 0.325324
O O1 0.879059 0.865268 0.500000
O O2 0.838055 0.830519 0.246574
O O3 0.861189 0.913377 0.265911
O O4 0.000000 0.863158 0.295879
O O5 0.392481 0.331034 0.500000
O O6 0.500000 0.351044 0.712670
O O7 0.384357 0.290808 0.748865
O O8 0.315358 0.366822 0.718912
O O9 0.129389 0.500000 0.781711
O O10 0.168446 0.583154 0.751293
O O11 0.000000 0.555352 0.783918
O O12 0.112122 0.550796 0.000000
O O13 0.686892 0.783994 0.214033
O O14 0.845108 0.748337 0.237559
O O15 0.802633 0.791051 0.000000
O O16 0.000000 0.953943 0.175536
O O17 0.858667 0.000000 0.218164
O O18 0.864199 0.947420 0.000000
O O19 0.500000 0.769513 0.214678
O O20 0.395414 0.748492 0.000000
O O21 0.206774 0.618533 0.500000
O O22 0.153551 0.665811 0.712308
O O23 0.877815 0.717496 0.500000
O O24 0.000000 0.709576 0.298246
#
# Coordination Sequence:
#
# PCOD9383098 Si02
#       8
#     8   8   8   8   8   8   8   8
#     4  10  20  31  43  61  89 126 161 192 228 269
#     4   9  17  30  49  71  93 117 146 182 224 268
#     4   9  19  35  52  70  93 120 150 186 226 266
#     4  11  21  31  45  64  88 120 156 190 224 268
#     4   8  14  26  44  64  86 114 151 195 236 271
#     4   9  18  32  48  66  88 114 148 191 234 271
#     4  10  19  31  49  72  95 118 149 186 223 268
#     4  10  20  32  44  62  92 124 151 183 221 260
#
# _framework density 15.035012
#
# number of rings (size 3 to 8) (size 9 to 14) (size 15 to 20)
#    0.000    2.500    1.250    2.250    0.000    5.250 
#    0.000    1.875    0.000    0.375    0.000    2.625 
#    0.000    0.500    0.000    5.750    0.000    1.875 
#
# Total GULP energy -356723.645631 kJ/mol
# GULP energy per Si atom -5573.806963 kJ/mol
# Density = 1.500079 g / cm^3
# Si number density = 15.035012 Si / 1000 Ang^3
#
#
#
# Elastic Constant Matrix: (Units=GPa)
#
#
# Indices 1 2 3 4 5 6 
#
# 1 106.8613 79.8872 48.1591 0.0000 0.0000 0.0000
# 2 79.8872 132.5851 53.9555 0.0000 0.0000 0.0000
# 3 48.1591 53.9555 34.6220 0.0000 0.0000 0.0000
# 4 0.0000 0.0000 0.0000 37.5642 0.0000 0.0000
# 5 0.0000 0.0000 0.0000 0.0000 18.2504 0.0000
# 6 0.0000 0.0000 0.0000 0.0000 0.0000 6.9370
#
#
#
# Elastic Compliance Matrix: (Units=1/GPa)
#
#
# Indices 1 2 3 4 5 6 
#
# 1 0.025387 -0.002531 -0.031369 0.000000 0.000000 0.000000
# 2 -0.002531 0.020871 -0.029005 0.000000 0.000000 0.000000
# 3 -0.031369 -0.029005 0.117719 0.000000 0.000000 0.000000
# 4 0.000000 0.000000 0.000000 0.026621 0.000000 0.000000
# 5 0.000000 0.000000 0.000000 0.000000 0.054793 0.000000
# 6 0.000000 0.000000 0.000000 0.000000 0.000000 0.144154
#
#
# Mechanical properties :
#
#
# Convention : Reuss Voigt Hill
#
# Bulk Modulus (GPa) = 26.20040 70.89687 48.54863
# Shear Modulus (GPa) = 9.46831 18.68809 14.07820
#
# Velocity S-wave (km/s) = 2.51221 3.52940 3.06332
# Velocity P-wave (km/s) = 5.08714 7.99161 6.69869
#
# Compressibility (1/GPa) = 0.03816736
#
# Stress axis : x y z
#
# Youngs Moduli (GPa) = 39.39013 47.91365 8.49480
#
# Poissons Ratio (x) = 0.12127 0.26647
# Poissons Ratio (y) = 0.09970 0.24639
# Poissons Ratio (z) = 1.23563 1.38973
#
# Static dielectric constant tensor:
#      x y z
#    x 1.506160 0.000000 0.000000 
#    y 0.000000 1.475500 0.000000 
#    z 0.000000 0.000000 1.500710 
# 
# From -- ./inp_files/8289.got.cif
#   From: 2010.05.17/outbox.cif.g08.bks.cpg/sg47_5_cif.got.tgz:8289.got - 2010.06.03 20:15:42.
