data_PCOD9383395
_publ_section_title
;
Structure prediction by ZEFSAII (Michael W. Deem and Ramdas Pophale) SiO2 
 PCOD9383395
Probable space group: P M M M
;
_chemical_formula_sum "Si O2"
_cell_formula_units_Z 48
_cell_length_a 7.922238
_cell_length_b 20.679049
_cell_length_c 15.410993
_cell_angle_alpha 90.000000
_cell_angle_beta 90.000000
_cell_angle_gamma 90.000000
_cell_volume 2524.695877
_symmetry_space_group_name_H-M "P M M M"
_symmetry_group_IT_number 47
_symmetry_cell_setting 'orthorhombic'
loop_
_space_group_symop_operation_xyz
x,y,z
-x,-y,z
x,-y,-z
-x,y,-z
-x,-y,-z
x,y,-z
-x,y,z
x,-y,z
loop_
_atom_site_type_symbol
_atom_site_label
_atom_site_fract_x
_atom_site_fract_y
_atom_site_fract_z
Si Si1 0.798096 0.424622 0.500000
Si Si2 0.301602 0.224386 0.904953
Si Si3 0.297821 0.193926 0.713309
Si Si4 0.803910 0.363335 0.851861
Si Si5 0.796659 0.072715 0.401325
Si Si6 0.297900 0.333953 0.338699
Si Si7 0.191903 0.500000 0.897718
O O1 0.735805 0.500000 0.500000
O O2 0.743900 0.381628 0.582723
O O3 0.000000 0.428040 0.500000
O O4 0.500000 0.207736 0.906734
O O5 0.230182 0.198159 0.812825
O O6 0.284048 0.301723 0.894244
O O7 0.229889 0.205737 0.000000
O O8 0.500000 0.197550 0.720527
O O9 0.254084 0.128444 0.664466
O O10 0.247332 0.257717 0.657430
O O11 0.791425 0.356697 0.748808
O O12 0.725972 0.432575 0.873137
O O13 0.000000 0.362399 0.880465
O O14 0.738009 0.086526 0.500000
O O15 0.000000 0.071324 0.403439
O O16 0.738736 0.000000 0.377966
O O17 0.500000 0.335803 0.326039
O O18 0.000000 0.500000 0.858707
O O19 0.175555 0.500000 0.000000
#
# Coordination Sequence:
#
# PCOD9383395 Si02
#       7
#     4   8   8   8   8   8   4
#     4  11  25  41  57  77 102 135 182 229 273 322
#     4   9  18  34  53  74 104 139 175 219 269 318
#     4   9  19  34  54  81 109 138 176 220 261 311
#     4  10  19  32  51  73  99 130 171 218 265 318
#     4   9  19  35  54  79 111 144 176 212 260 317
#     4  10  22  39  55  76 105 138 176 219 270 319
#     4   9  18  30  45  68  97 126 157 205 266 315
#
# _framework density 19.012191999999999
#
# number of rings (size 3 to 8) (size 9 to 14) (size 15 to 20)
#    0.000    2.500    0.000    3.250    2.333    5.667 
#    0.000    2.083    0.000    3.500    0.000    3.500 
#    0.000    0.000    0.000    0.000    0.000    0.000 
#
# Total GULP energy -267433.454291 kJ/mol
# GULP energy per Si atom -5571.530298 kJ/mol
# Density = 1.896892 g / cm^3
# Si number density = 19.012192 Si / 1000 Ang^3
#
#
#
# Elastic Constant Matrix: (Units=GPa)
#
#
# Indices 1 2 3 4 5 6 
#
# 1 27.9245 4.2918 4.3133 0.0000 0.0000 0.0000
# 2 4.2918 149.7004 89.6151 0.0000 0.0000 0.0000
# 3 4.3133 89.6151 125.1743 0.0000 0.0000 0.0000
# 4 0.0000 0.0000 0.0000 13.4292 0.0000 0.0000
# 5 0.0000 0.0000 0.0000 0.0000 31.3498 0.0000
# 6 0.0000 0.0000 0.0000 0.0000 0.0000 42.1140
#
#
#
# Elastic Compliance Matrix: (Units=1/GPa)
#
#
# Indices 1 2 3 4 5 6 
#
# 1 0.036024 -0.000507 -0.000878 0.000000 0.000000 0.000000
# 2 -0.000507 0.011697 -0.008357 0.000000 0.000000 0.000000
# 3 -0.000878 -0.008357 0.014002 0.000000 0.000000 0.000000
# 4 0.000000 0.000000 0.000000 0.074464 0.000000 0.000000
# 5 0.000000 0.000000 0.000000 0.000000 0.031898 0.000000
# 6 0.000000 0.000000 0.000000 0.000000 0.000000 0.023745
#
#
# Mechanical properties :
#
#
# Convention : Reuss Voigt Hill
#
# Bulk Modulus (GPa) = 23.67465 55.47107 39.57286
# Shear Modulus (GPa) = 22.18325 31.01720 26.60023
#
# Velocity S-wave (km/s) = 3.41954 4.04349 3.74453
# Velocity P-wave (km/s) = 5.29815 7.14420 6.28928
#
# Compressibility (1/GPa) = 0.04223927
#
# Stress axis : x y z
#
# Youngs Moduli (GPa) = 27.75889 85.49073 71.41863
#
# Poissons Ratio (x) = 0.04334 0.06274
# Poissons Ratio (y) = 0.01407 0.59683
# Poissons Ratio (z) = 0.02438 0.71443
#
# Static dielectric constant tensor:
#      x y z
#    x 1.701060 0.000000 0.000000 
#    y 0.000000 1.679700 0.000000 
#    z 0.000000 0.000000 1.676570 
# 
# From -- ./inp_files/21151.got.cif
#   From: 2010.05.17/outbox.cif.g08.bks.cpg/sg47_11_cif.got.tgz:21151.got - 2010.06.03 20:15:42.
