data_PCOD9383330
_publ_section_title
;
Structure prediction by ZEFSAII (Michael W. Deem and Ramdas Pophale) SiO2 
 PCOD9383330
Probable space group: P M M M
;
_chemical_formula_sum "Si O2"
_cell_formula_units_Z 64
_cell_length_a 7.964628
_cell_length_b 21.432670
_cell_length_c 18.141119
_cell_angle_alpha 90.000000
_cell_angle_beta 90.000000
_cell_angle_gamma 90.000000
_cell_volume 3096.747856
_symmetry_space_group_name_H-M "P M M M"
_symmetry_group_IT_number 47
_symmetry_cell_setting 'orthorhombic'
loop_
_space_group_symop_operation_xyz
x,y,z
-x,-y,z
x,-y,-z
-x,y,-z
-x,-y,-z
x,y,-z
-x,y,z
x,-y,z
loop_
_atom_site_type_symbol
_atom_site_label
_atom_site_fract_x
_atom_site_fract_y
_atom_site_fract_z
Si Si1 0.196642 0.726047 0.118282
Si Si2 0.202596 0.137311 0.921465
Si Si3 0.807469 0.929806 0.614819
Si Si4 0.695074 0.407912 0.919922
Si Si5 0.314157 0.926861 0.773042
Si Si6 0.203124 0.792784 0.581065
Si Si7 0.299502 0.294713 0.282319
Si Si8 0.295003 0.567607 0.244764
O O1 0.251816 0.790489 0.083045
O O2 0.294204 0.666685 0.088221
O O3 0.220413 0.730728 0.206521
O O4 0.000000 0.716152 0.102169
O O5 0.266655 0.106046 0.847870
O O6 0.000000 0.134682 0.919480
O O7 0.258922 0.110112 0.000000
O O8 0.804335 0.919341 0.702991
O O9 0.733268 0.864763 0.585745
O O10 0.000000 0.932949 0.589154
O O11 0.733571 0.000000 0.601204
O O12 0.500000 0.426866 0.920978
O O13 0.764983 0.429697 0.840850
O O14 0.768561 0.425610 0.000000
O O15 0.500000 0.906323 0.748830
O O16 0.317627 0.000000 0.788906
O O17 0.249783 0.767983 0.500000
O O18 0.258289 0.748210 0.647735
O O19 0.000000 0.796217 0.585224
O O20 0.500000 0.294153 0.272315
O O21 0.244724 0.368015 0.284990
O O22 0.500000 0.568659 0.242931
O O23 0.244145 0.500000 0.275873
#
# Coordination Sequence:
#
# PCOD9383330 Si02
#       8
#     8   8   8   8   8   8   8   8
#     4  10  19  32  50  70  95 129 168 207 250 301
#     4  10  21  34  47  65  89 121 164 210 253 297
#     4   9  18  34  56  79 103 134 170 203 236 283
#     4   9  17  28  44  70 102 133 167 209 256 303
#     4  10  21  35  50  69  93 122 158 201 249 299
#     4  10  21  36  55  81 111 139 165 197 242 295
#     4  10  20  34  54  79 104 132 169 211 253 300
#     4   8  15  29  49  73 100 132 173 219 262 301
#
# _framework density 20.666843
#
# number of rings (size 3 to 8) (size 9 to 14) (size 15 to 20)
#    0.000    2.500    0.000    3.000    0.000    7.250 
#    0.000    3.750    0.000    9.750    0.000    8.750 
#    0.000    0.000    0.000    0.000    0.000    0.000 
#
# Total GULP energy -356840.437680 kJ/mol
# GULP energy per Si atom -5575.631839 kJ/mol
# Density = 2.061980 g / cm^3
# Si number density = 20.666843 Si / 1000 Ang^3
#
#
#
# Elastic Constant Matrix: (Units=GPa)
#
#
# Indices 1 2 3 4 5 6 
#
# 1 26.6594 10.6604 4.0842 0.0000 0.0000 0.0000
# 2 10.6604 79.1323 68.4623 0.0000 0.0000 0.0000
# 3 4.0842 68.4623 101.6264 0.0000 0.0000 0.0000
# 4 0.0000 0.0000 0.0000 -3.2778 0.0000 0.0000
# 5 0.0000 0.0000 0.0000 0.0000 -5.7124 0.0000
# 6 0.0000 0.0000 0.0000 0.0000 0.0000 13.2190
#
#
#
# Elastic Compliance Matrix: (Units=1/GPa)
#
#
# Indices 1 2 3 4 5 6 
#
# 1 0.040650 -0.009739 0.004927 0.000000 0.000000 0.000000
# 2 -0.009739 0.032626 -0.021587 0.000000 0.000000 0.000000
# 3 0.004927 -0.021587 0.024185 0.000000 0.000000 0.000000
# 4 0.000000 0.000000 0.000000 -0.305086 0.000000 0.000000
# 5 0.000000 0.000000 0.000000 0.000000 -0.175057 0.000000
# 6 0.000000 0.000000 0.000000 0.000000 0.000000 0.075649
#
#
# Mechanical properties :
#
#
# Convention : Reuss Voigt Hill
#
# Bulk Modulus (GPa) = 22.39056 41.53687 31.96372
# Shear Modulus (GPa) = -20.89008 9.12650 -5.88179
#
# Velocity S-wave (km/s) = -3.18276 2.10371 -1.68884
# Velocity P-wave (km/s) = 1.62759 5.10321 3.42007
#
# Compressibility (1/GPa) = 0.04466168
#
# Stress axis : x y z
#
# Youngs Moduli (GPa) = 24.60036 30.65065 41.34847
#
# Poissons Ratio (x) = 0.29851 -0.20373
# Poissons Ratio (y) = 0.23958 0.89261
# Poissons Ratio (z) = -0.12121 0.66167
#
# Static dielectric constant tensor:
#      x y z
#    x 1.779050 0.000000 0.000000 
#    y 0.000000 1.762820 0.000000 
#    z 0.000000 0.000000 1.706210 
# 
# From -- ./inp_files/27027.got.cif
#   From: 2010.05.17/outbox.cif.g08.bks.cpg/sg47_14_cif.got.tgz:27027.got - 2010.06.03 20:15:42.
