data_PCOD9383392
_publ_section_title
;
Structure prediction by ZEFSAII (Michael W. Deem and Ramdas Pophale) SiO2 
 PCOD9383392
Probable space group: P M M M
;
_chemical_formula_sum "Si O2"
_cell_formula_units_Z 64
_cell_length_a 8.092632
_cell_length_b 16.689045
_cell_length_c 23.364360
_cell_angle_alpha 90.000000
_cell_angle_beta 90.000000
_cell_angle_gamma 90.000000
_cell_volume 3155.550733
_symmetry_space_group_name_H-M "P M M M"
_symmetry_group_IT_number 47
_symmetry_cell_setting 'orthorhombic'
loop_
_space_group_symop_operation_xyz
x,y,z
-x,-y,z
x,-y,-z
-x,y,-z
-x,-y,-z
x,y,-z
-x,y,z
x,-y,z
loop_
_atom_site_type_symbol
_atom_site_label
_atom_site_fract_x
_atom_site_fract_y
_atom_site_fract_z
Si Si1 0.698469 0.589091 0.146203
Si Si2 0.199179 0.413750 0.400010
Si Si3 0.801962 0.365321 0.727276
Si Si4 0.819581 0.094360 0.213941
Si Si5 0.696845 0.758551 0.438096
Si Si6 0.695107 0.194060 0.684332
Si Si7 0.689896 0.908598 0.906775
Si Si8 0.298944 0.267052 0.064317
O O1 0.500000 0.588885 0.139667
O O2 0.758745 0.500000 0.128111
O O3 0.738112 0.599677 0.213372
O O4 0.760033 0.666572 0.110259
O O5 0.251806 0.500000 0.423064
O O6 0.238229 0.410329 0.332069
O O7 0.275254 0.336224 0.429285
O O8 0.000000 0.407640 0.405365
O O9 0.728212 0.277732 0.716278
O O10 0.000000 0.360545 0.730725
O O11 0.772942 0.129444 0.274556
O O12 0.696606 0.107819 0.161448
O O13 0.000000 0.125938 0.196127
O O14 0.828423 0.000000 0.220016
O O15 0.765146 0.783092 0.500000
O O16 0.500000 0.772620 0.438694
O O17 0.764063 0.798943 0.380176
O O18 0.500000 0.180628 0.680846
O O19 0.500000 0.913124 0.926263
O O20 0.763065 0.825385 0.930762
O O21 0.760338 0.000000 0.916387
O O22 0.500000 0.261671 0.070837
O O23 0.264299 0.295740 0.000000
#
# Coordination Sequence:
#
# PCOD9383392 Si02
#       8
#     8   8   8   8   8   8   8   8
#     4  10  20  32  48  71  97 128 169 215 259 302
#     4   9  18  31  46  67  95 125 158 197 242 293
#     4  10  19  32  51  73  98 128 162 202 252 305
#     4  10  20  33  51  77 107 134 160 194 239 293
#     4   9  19  34  49  67  92 124 163 203 242 285
#     4  10  19  32  52  75 100 130 163 202 246 292
#     4   9  17  30  51  78 104 130 162 202 249 301
#     4   9  18  32  49  70  97 129 167 211 254 296
#
# _framework density 20.281721999999998
#
# number of rings (size 3 to 8) (size 9 to 14) (size 15 to 20)
#    0.000    2.500    0.000    2.250    0.000    4.750 
#    0.000    3.750    0.000    1.875    0.000    5.250 
#    0.000    0.000    0.000    0.000    0.000    0.000 
#
# Total GULP energy -356637.353687 kJ/mol
# GULP energy per Si atom -5572.458651 kJ/mol
# Density = 2.023556 g / cm^3
# Si number density = 20.281722 Si / 1000 Ang^3
#
#
#
# Elastic Constant Matrix: (Units=GPa)
#
#
# Indices 1 2 3 4 5 6 
#
# 1 17.6755 6.0338 -1.3160 0.0000 0.0000 0.0000
# 2 6.0338 59.6940 50.4489 0.0000 0.0000 0.0000
# 3 -1.3160 50.4489 95.6034 0.0000 0.0000 0.0000
# 4 0.0000 0.0000 0.0000 -12.8049 0.0000 0.0000
# 5 0.0000 0.0000 0.0000 0.0000 -0.1618 0.0000
# 6 0.0000 0.0000 0.0000 0.0000 0.0000 12.5506
#
#
#
# Elastic Compliance Matrix: (Units=1/GPa)
#
#
# Indices 1 2 3 4 5 6 
#
# 1 0.061392 -0.012489 0.007436 0.000000 0.000000 0.000000
# 2 -0.012489 0.032777 -0.017468 0.000000 0.000000 0.000000
# 3 0.007436 -0.017468 0.019780 0.000000 0.000000 0.000000
# 4 0.000000 0.000000 0.000000 -0.078095 0.000000 0.000000
# 5 0.000000 0.000000 0.000000 0.000000 -6.179110 0.000000
# 6 0.000000 0.000000 0.000000 0.000000 0.000000 0.079677
#
#
# Mechanical properties :
#
#
# Convention : Reuss Voigt Hill
#
# Bulk Modulus (GPa) = 14.51260 31.47849 22.99554
# Shear Modulus (GPa) = -0.83395 7.77052 3.46829
#
# Velocity S-wave (km/s) = -0.64193 1.95949 1.30911
# Velocity P-wave (km/s) = 2.57325 4.54684 3.69428
#
# Compressibility (1/GPa) = 0.06890565
#
# Stress axis : x y z
#
# Youngs Moduli (GPa) = 16.28866 30.50894 50.55619
#
# Poissons Ratio (x) = 0.38104 -0.37592
# Poissons Ratio (y) = 0.20344 0.88312
# Poissons Ratio (z) = -0.12112 0.53293
#
# Static dielectric constant tensor:
#      x y z
#    x 1.740440 0.000000 0.000000 
#    y 0.000000 1.737440 0.000000 
#    z 0.000000 0.000000 1.729620 
# 
# From -- ./inp_files/9949.got.cif
#   From: 2010.05.17/outbox.cif.g08.bks.cpg/sg47_5_cif.got.tgz:9949.got - 2010.06.03 20:15:42.
