data_PCOD9383224
_publ_section_title
;
Structure prediction by ZEFSAII (Michael W. Deem and Ramdas Pophale) SiO2 
 PCOD9383224
Probable space group: P M M M
;
_chemical_formula_sum "Si O2"
_cell_formula_units_Z 44
_cell_length_a 31.192423
_cell_length_b 7.738268
_cell_length_c 9.677566
_cell_angle_alpha 90.000000
_cell_angle_beta 90.000000
_cell_angle_gamma 90.000000
_cell_volume 2335.925675
_symmetry_space_group_name_H-M "P M M M"
_symmetry_group_IT_number 47
_symmetry_cell_setting 'orthorhombic'
loop_
_space_group_symop_operation_xyz
x,y,z
-x,-y,z
x,-y,-z
-x,y,-z
-x,-y,-z
x,y,-z
-x,y,z
x,-y,z
loop_
_atom_site_type_symbol
_atom_site_label
_atom_site_fract_x
_atom_site_fract_y
_atom_site_fract_z
Si Si1 0.951339 0.000000 0.167506
Si Si2 0.803833 0.789958 0.340054
Si Si3 0.113192 0.698473 0.837483
Si Si4 0.627753 0.207166 0.844094
Si Si5 0.547037 0.707655 0.657610
Si Si6 0.276826 0.789229 0.839730
O O1 0.923781 0.168315 0.206019
O O2 0.000000 0.000000 0.220061
O O3 0.953614 0.000000 0.000000
O O4 0.804703 0.735589 0.500000
O O5 0.844924 0.727258 0.254876
O O6 0.760822 0.731144 0.261151
O O7 0.804461 0.000000 0.337581
O O8 0.099048 0.500000 0.826889
O O9 0.123527 0.732849 0.000000
O O10 0.587771 0.247141 0.748396
O O11 0.675129 0.267673 0.798432
O O12 0.630689 0.000000 0.851055
O O13 0.620460 0.272422 0.000000
O O14 0.552179 0.770153 0.500000
O O15 0.500000 0.767925 0.708772
O O16 0.545381 0.500000 0.653104
O O17 0.276233 0.000000 0.837642
O O18 0.269560 0.738510 0.000000
#
# Coordination Sequence:
#
# PCOD9383224 Si02
#       6
#     4   8   8   8   8   8
#     4   9  18  34  57  85 115 145 181 229 278 321
#     4  10  19  31  51  78 106 139 179 220 263 312
#     4  10  20  34  55  82 111 146 185 224 271 324
#     4   9  18  32  50  75 103 128 160 205 256 308
#     4   9  19  35  51  67  91 126 167 208 252 305
#     4   8  15  29  49  72 101 137 172 208 254 309
#
# _framework density 18.836214999999999
#
# number of rings (size 3 to 8) (size 9 to 14) (size 15 to 20)
#    0.000    2.818    0.909    2.182    0.000    3.636 
#    0.000    7.273    0.000    2.182    0.000    1.273 
#    0.000    0.000    0.000    0.000    0.000    0.000 
#
# Total GULP energy -245340.929479 kJ/mol
# GULP energy per Si atom -5575.930215 kJ/mol
# Density = 1.879334 g / cm^3
# Si number density = 18.836215 Si / 1000 Ang^3
#
#
#
# Elastic Constant Matrix: (Units=GPa)
#
#
# Indices 1 2 3 4 5 6 
#
# 1 212.4817 46.8130 102.0225 0.0000 0.0000 0.0000
# 2 46.8130 53.8762 30.8423 0.0000 0.0000 0.0000
# 3 102.0225 30.8423 88.9527 0.0000 0.0000 0.0000
# 4 0.0000 0.0000 0.0000 18.7571 0.0000 0.0000
# 5 0.0000 0.0000 0.0000 0.0000 -19.5798 0.0000
# 6 0.0000 0.0000 0.0000 0.0000 0.0000-1694.1047
#
#
#
# Elastic Compliance Matrix: (Units=1/GPa)
#
#
# Indices 1 2 3 4 5 6 
#
# 1 0.010818 -0.002866 -0.011414 0.000000 0.000000 0.000000
# 2 -0.002866 0.023917 -0.005006 0.000000 0.000000 0.000000
# 3 -0.011414 -0.005006 0.026068 0.000000 0.000000 0.000000
# 4 0.000000 0.000000 0.000000 0.053313 0.000000 0.000000
# 5 0.000000 0.000000 0.000000 0.000000 -0.051073 0.000000
# 6 0.000000 0.000000 0.000000 0.000000 0.000000 -0.000590
#
#
# Mechanical properties :
#
#
# Convention : Reuss Voigt Hill
#
# Bulk Modulus (GPa) = 44.97935 79.40736 62.19336
# Shear Modulus (GPa) = 46.11089 -327.27661 -140.58286
#
# Velocity S-wave (km/s) = 4.95309 -13.19567 -8.64849
# Velocity P-wave (km/s) = 7.52607 13.78113 8.16326
#
# Compressibility (1/GPa) = 0.02223242
#
# Stress axis : x y z
#
# Youngs Moduli (GPa) = 92.43900 41.81171 38.36061
#
# Poissons Ratio (x) = 0.11982 0.43784
# Poissons Ratio (y) = 0.26490 0.19203
# Poissons Ratio (z) = 1.05508 0.20930
#
# Static dielectric constant tensor:
#      x y z
#    x 1.641310 0.000000 0.000000 
#    y 0.000000 1.694010 0.000000 
#    z 0.000000 0.000000 1.634530 
# 
# From -- ./inp_files/2040.got.cif
#   From: 2010.05.17/outbox.cif.g08.bks.cpg/sg47_2_cif.got.tgz:2040.got - 2010.06.03 20:15:42.
