data_PCOD9383118
_publ_section_title
;
Structure prediction by ZEFSAII (Michael W. Deem and Ramdas Pophale) SiO2 
 PCOD9383118
Probable space group: P M M M
;
_chemical_formula_sum "Si O2"
_cell_formula_units_Z 48
_cell_length_a 14.721273
_cell_length_b 7.820575
_cell_length_c 21.220592
_cell_angle_alpha 90.000000
_cell_angle_beta 90.000000
_cell_angle_gamma 90.000000
_cell_volume 2443.101708
_symmetry_space_group_name_H-M "P M M M"
_symmetry_group_IT_number 47
_symmetry_cell_setting 'orthorhombic'
loop_
_space_group_symop_operation_xyz
x,y,z
-x,-y,z
x,-y,-z
-x,y,-z
-x,-y,-z
x,y,-z
-x,y,z
x,-y,z
loop_
_atom_site_type_symbol
_atom_site_label
_atom_site_fract_x
_atom_site_fract_y
_atom_site_fract_z
Si Si1 0.289652 0.709447 0.125480
Si Si2 0.394760 0.290690 0.000000
Si Si3 0.603356 0.293696 0.250076
Si Si4 0.287119 0.202576 0.375563
Si Si5 0.101168 0.706093 0.823863
Si Si6 0.101459 0.206391 0.322760
Si Si7 0.397558 0.701736 0.500000
O O1 0.289616 0.500000 0.125066
O O2 0.341145 0.764430 0.062533
O O3 0.343938 0.765264 0.187808
O O4 0.185380 0.766055 0.134016
O O5 0.395610 0.500000 0.000000
O O6 0.500000 0.236195 0.000000
O O7 0.500000 0.230624 0.251133
O O8 0.600833 0.500000 0.247078
O O9 0.655401 0.246491 0.313514
O O10 0.185108 0.272812 0.364469
O O11 0.340681 0.255347 0.437731
O O12 0.278292 0.000000 0.378829
O O13 0.099117 0.500000 0.828075
O O14 0.118957 0.750034 0.750600
O O15 0.000000 0.770594 0.839903
O O16 0.000000 0.269995 0.338693
O O17 0.099423 0.000000 0.327320
O O18 0.408165 0.500000 0.500000
O O19 0.500000 0.778316 0.500000
#
# Coordination Sequence:
#
# PCOD9383118 Si02
#       7
#     8   4   8   8   8   8   4
#     4   9  16  27  43  67  99 133 172 215 257 305
#     4   9  16  26  41  63  96 139 179 213 256 310
#     4  10  19  31  49  73 101 133 171 216 262 308
#     4  11  22  36  56  81 106 134 170 213 259 302
#     4   9  16  27  46  72 100 130 165 210 264 312
#     4   9  18  33  53  78 106 135 168 206 252 306
#     4  11  25  43  60  77 104 144 179 207 248 303
#
# _framework density 19.647155999999999
#
# number of rings (size 3 to 8) (size 9 to 14) (size 15 to 20)
#    0.000    2.333    1.667    1.750    0.000    5.667 
#    0.000    0.833    0.000    5.000    0.000    2.333 
#    0.000    6.667    0.000    0.000    0.000    0.000 
#
# Total GULP energy -267842.803522 kJ/mol
# GULP energy per Si atom -5580.058407 kJ/mol
# Density = 1.960244 g / cm^3
# Si number density = 19.647156 Si / 1000 Ang^3
#
#
#
# Elastic Constant Matrix: (Units=GPa)
#
#
# Indices 1 2 3 4 5 6 
#
# 1 232.8111 14.7258 122.8387 0.0000 0.0000 0.0000
# 2 14.7258 22.9637 4.5420 0.0000 0.0000 0.0000
# 3 122.8387 4.5420 169.3971 0.0000 0.0000 0.0000
# 4 0.0000 0.0000 0.0000 126.0092 0.0000 0.0000
# 5 0.0000 0.0000 0.0000 0.0000 32.2921 0.0000
# 6 0.0000 0.0000 0.0000 0.0000 0.0000 13.5742
#
#
#
# Elastic Compliance Matrix: (Units=1/GPa)
#
#
# Indices 1 2 3 4 5 6 
#
# 1 0.007246 -0.003626 -0.005157 0.000000 0.000000 0.000000
# 2 -0.003626 0.045594 0.001407 0.000000 0.000000 0.000000
# 3 -0.005157 0.001407 0.009605 0.000000 0.000000 0.000000
# 4 0.000000 0.000000 0.000000 0.007936 0.000000 0.000000
# 5 0.000000 0.000000 0.000000 0.000000 0.030967 0.000000
# 6 0.000000 0.000000 0.000000 0.000000 0.000000 0.073669
#
#
# Mechanical properties :
#
#
# Convention : Reuss Voigt Hill
#
# Bulk Modulus (GPa) = 20.96760 78.82051 49.89405
# Shear Modulus (GPa) = 24.31109 53.24614 38.77861
#
# Velocity S-wave (km/s) = 3.52146 5.21153 4.44751
# Velocity P-wave (km/s) = 5.21819 8.74177 7.19889
#
# Compressibility (1/GPa) = 0.04769263
#
# Stress axis : x y z
#
# Youngs Moduli (GPa) = 138.01266 21.93263 104.11052
#
# Poissons Ratio (x) = 0.07954 0.53690
# Poissons Ratio (y) = 0.50049 -0.14650
# Poissons Ratio (z) = 0.71173 -0.03086
#
# Static dielectric constant tensor:
#      x y z
#    x 1.731030 0.000000 0.000000 
#    y 0.000000 1.717770 0.000000 
#    z 0.000000 0.000000 1.609860 
# 
# From -- ./inp_files/9222.got.cif
#   From: 2010.05.17/outbox.cif.g08.bks.cpg/sg47_5_cif.got.tgz:9222.got - 2010.06.03 20:15:42.
