data_PCOD9383234
_publ_section_title
;
Structure prediction by ZEFSAII (Michael W. Deem and Ramdas Pophale) SiO2 
 PCOD9383234
Probable space group: P M M M
;
_chemical_formula_sum "Si O2"
_cell_formula_units_Z 58
_cell_length_a 15.767365
_cell_length_b 22.458370
_cell_length_c 7.798480
_cell_angle_alpha 90.000000
_cell_angle_beta 90.000000
_cell_angle_gamma 90.000000
_cell_volume 2761.514427
_symmetry_space_group_name_H-M "P M M M"
_symmetry_group_IT_number 47
_symmetry_cell_setting 'orthorhombic'
loop_
_space_group_symop_operation_xyz
x,y,z
-x,-y,z
x,-y,-z
-x,y,-z
-x,-y,-z
x,y,-z
-x,y,z
x,-y,z
loop_
_atom_site_type_symbol
_atom_site_label
_atom_site_fract_x
_atom_site_fract_y
_atom_site_fract_z
Si Si1 0.591479 0.905820 0.799285
Si Si2 0.226933 0.594462 0.309589
Si Si3 0.593336 0.641217 0.798473
Si Si4 0.202880 0.500000 0.000000
Si Si5 0.173610 0.807427 0.706211
Si Si6 0.780776 0.064304 0.297703
Si Si7 0.633554 0.774212 0.705584
Si Si8 0.906352 0.310426 0.798555
O O1 0.500000 0.926826 0.731130
O O2 0.678701 0.928168 0.717100
O O3 0.593551 0.834302 0.778609
O O4 0.595698 0.921030 0.000000
O O5 0.212929 0.569656 0.500000
O O6 0.325573 0.612975 0.292066
O O7 0.205171 0.551421 0.152527
O O8 0.168017 0.652972 0.291609
O O9 0.500000 0.622235 0.735860
O O10 0.599853 0.712494 0.777803
O O11 0.599323 0.626414 0.000000
O O12 0.164833 0.809295 0.500000
O O13 0.176601 0.875400 0.772369
O O14 0.266602 0.780526 0.744049
O O15 0.107691 0.760081 0.776432
O O16 0.800342 0.063252 0.500000
O O17 0.804401 0.000000 0.222933
O O18 0.622045 0.774294 0.500000
O O19 0.000000 0.327194 0.734382
O O20 0.902079 0.324137 0.000000
#
# Coordination Sequence:
#
# PCOD9383234 Si02
#       8
#     8   8   8   2   8   8   8   8
#     4  10  20  31  43  66 103 149 199 255 318 381
#     4  12  25  46  74 102 135 179 226 270 323 384
#     4  11  22  37  60  92 132 175 219 274 332 380
#     4  12  26  52  74 102 144 182 220 270 320 382
#     4   9  18  33  56  87 120 156 203 261 320 383
#     4   9  19  35  53  74 105 151 204 257 317 383
#     4  10  19  31  51  81 116 155 205 262 320 382
#     4  11  23  41  68 102 138 171 208 263 328 391
#
# _framework density 21.002969
#
# number of rings (size 3 to 8) (size 9 to 14) (size 15 to 20)
#    0.000    1.655    2.759    3.103    0.000    7.724 
#    0.000    2.759    0.000    2.069    0.000    2.897 
#    0.000    0.000    0.000    0.000    0.000    0.000 
#
# Total GULP energy -323354.235825 kJ/mol
# GULP energy per Si atom -5575.073031 kJ/mol
# Density = 2.095516 g / cm^3
# Si number density = 21.002969 Si / 1000 Ang^3
#
#
#
# Elastic Constant Matrix: (Units=GPa)
#
#
# Indices 1 2 3 4 5 6 
#
# 1 74.4664 21.4511 22.8736 0.0000 0.0000 0.0000
# 2 21.4511 107.0380 20.0383 0.0000 0.0000 0.0000
# 3 22.8736 20.0383 76.2574 0.0000 0.0000 0.0000
# 4 0.0000 0.0000 0.0000 20.5436 0.0000 0.0000
# 5 0.0000 0.0000 0.0000 0.0000 18.2396 0.0000
# 6 0.0000 0.0000 0.0000 0.0000 0.0000 -2.2811
#
#
#
# Elastic Compliance Matrix: (Units=1/GPa)
#
#
# Indices 1 2 3 4 5 6 
#
# 1 0.015323 -0.002325 -0.003985 0.000000 0.000000 0.000000
# 2 -0.002325 0.010179 -0.001977 0.000000 0.000000 0.000000
# 3 -0.003985 -0.001977 0.014828 0.000000 0.000000 0.000000
# 4 0.000000 0.000000 0.000000 0.048677 0.000000 0.000000
# 5 0.000000 0.000000 0.000000 0.000000 0.054826 0.000000
# 6 0.000000 0.000000 0.000000 0.000000 0.000000 -0.438384
#
#
# Mechanical properties :
#
#
# Convention : Reuss Voigt Hill
#
# Bulk Modulus (GPa) = 42.09611 42.94308 42.51960
# Shear Modulus (GPa) = -18.51447 20.19367 0.83960
#
# Velocity S-wave (km/s) = -2.97226 3.10412 0.63295
# Velocity P-wave (km/s) = 2.88225 5.77391 4.56319
#
# Compressibility (1/GPa) = 0.02375517
#
# Stress axis : x y z
#
# Youngs Moduli (GPa) = 65.26283 98.24598 67.43794
#
# Poissons Ratio (x) = 0.22839 0.26875
# Poissons Ratio (y) = 0.15172 0.13335
# Poissons Ratio (z) = 0.26009 0.19427
#
# Static dielectric constant tensor:
#      x y z
#    x 1.754400 0.000000 0.000000 
#    y 0.000000 1.769850 0.000000 
#    z 0.000000 0.000000 1.755810 
# 
# From -- ./inp_files/7763.got.cif
#   From: 2010.05.17/outbox.cif.g08.bks.cpg/sg47_4_cif.got.tgz:7763.got - 2010.06.03 20:15:42.
