data_PCOD9383105
_publ_section_title
;
Structure prediction by ZEFSAII (Michael W. Deem and Ramdas Pophale) SiO2 
 PCOD9383105
Probable space group: P M M M
;
_chemical_formula_sum "Si O2"
_cell_formula_units_Z 64
_cell_length_a 25.723743
_cell_length_b 15.248609
_cell_length_c 7.657251
_cell_angle_alpha 90.000000
_cell_angle_beta 90.000000
_cell_angle_gamma 90.000000
_cell_volume 3003.566652
_symmetry_space_group_name_H-M "P M M M"
_symmetry_group_IT_number 47
_symmetry_cell_setting 'orthorhombic'
loop_
_space_group_symop_operation_xyz
x,y,z
-x,-y,z
x,-y,-z
-x,y,-z
-x,-y,-z
x,y,-z
-x,y,z
x,-y,z
loop_
_atom_site_type_symbol
_atom_site_label
_atom_site_fract_x
_atom_site_fract_y
_atom_site_fract_z
Si Si1 0.867029 0.249148 0.206757
Si Si2 0.058532 0.399861 0.786725
Si Si3 0.058257 0.900097 0.786683
Si Si4 0.330988 0.398340 0.285291
Si Si5 0.443977 0.896569 0.710031
Si Si6 0.747656 0.746506 0.297696
Si Si7 0.555642 0.393305 0.705078
Si Si8 0.329287 0.100616 0.205535
O O1 0.896399 0.335317 0.275886
O O2 0.897216 0.164457 0.277351
O O3 0.805530 0.245596 0.227299
O O4 0.876938 0.249603 0.000000
O O5 0.065956 0.500000 0.729098
O O6 0.000000 0.371063 0.737220
O O7 0.059241 0.401176 0.000000
O O8 0.000000 0.870804 0.737644
O O9 0.065582 0.000000 0.728708
O O10 0.059253 0.901592 0.000000
O O11 0.332645 0.396385 0.500000
O O12 0.322844 0.500000 0.236329
O O13 0.286617 0.333024 0.221599
O O14 0.388252 0.367432 0.223595
O O15 0.444031 0.891621 0.500000
O O16 0.500000 0.859781 0.770512
O O17 0.387933 0.862942 0.768346
O O18 0.444015 0.000000 0.759474
O O19 0.754227 0.725946 0.500000
O O20 0.713460 0.834413 0.281576
O O21 0.554885 0.367830 0.500000
O O22 0.500000 0.365101 0.781505
O O23 0.556257 0.500000 0.709562
O O24 0.327409 0.000000 0.275368
O O25 0.319715 0.096132 0.000000
#
# Coordination Sequence:
#
# PCOD9383105 Si02
#       8
#     8   8   8   8   8   8   8   8
#     4  10  19  31  49  72  98 129 165 205 246 293
#     4   8  14  26  47  76 105 130 161 206 258 306
#     4   8  14  26  47  75 100 119 146 189 239 289
#     4   8  15  29  47  66  92 128 166 203 247 301
#     4   8  14  27  50  79 107 133 163 204 258 317
#     4  11  23  36  50  71 101 138 178 217 256 301
#     4   7   9  16  35  62  87 111 144 190 242 290
#     4  10  21  37  56  75  98 133 176 221 265 308
#
# _framework density 21.307998000000001
#
# number of rings (size 3 to 8) (size 9 to 14) (size 15 to 20)
#    0.000    3.250    0.000    3.375    0.000    3.500 
#    0.000    3.125    0.000    4.875    0.000    1.750 
#    0.000    0.000    0.000   13.625    0.000   11.750 
#
# Total GULP energy -356784.983442 kJ/mol
# GULP energy per Si atom -5574.765366 kJ/mol
# Density = 2.125950 g / cm^3
# Si number density = 21.307998 Si / 1000 Ang^3
#
#
#
# Elastic Constant Matrix: (Units=GPa)
#
#
# Indices 1 2 3 4 5 6 
#
# 1 199.1386 93.9199 -4.9921 0.0000 0.0000 0.0000
# 2 93.9199 98.3185 -1.5090 0.0000 0.0000 0.0000
# 3 -4.9921 -1.5090 32.7323 0.0000 0.0000 0.0000
# 4 0.0000 0.0000 0.0000 -2.4770 0.0000 0.0000
# 5 0.0000 0.0000 0.0000 0.0000 23.6011 0.0000
# 6 0.0000 0.0000 0.0000 0.0000 0.0000 -27.2732
#
#
#
# Elastic Compliance Matrix: (Units=1/GPa)
#
#
# Indices 1 2 3 4 5 6 
#
# 1 0.009171 -0.008746 0.000996 0.000000 0.000000 0.000000
# 2 -0.008746 0.018518 -0.000480 0.000000 0.000000 0.000000
# 3 0.000996 -0.000480 0.030681 0.000000 0.000000 0.000000
# 4 0.000000 0.000000 0.000000 -0.403708 0.000000 0.000000
# 5 0.000000 0.000000 0.000000 0.000000 0.042371 0.000000
# 6 0.000000 0.000000 0.000000 0.000000 0.000000 -0.036666
#
#
# Mechanical properties :
#
#
# Convention : Reuss Voigt Hill
#
# Bulk Modulus (GPa) = 23.86102 56.11411 39.98756
# Shear Modulus (GPa) = -16.17062 14.95489 -0.60787
#
# Velocity S-wave (km/s) = -2.75780 2.65211 -0.53469
# Velocity P-wave (km/s) = 1.04011 5.98082 4.29255
#
# Compressibility (1/GPa) = 0.04190936
#
# Stress axis : x y z
#
# Youngs Moduli (GPa) = 109.03520 54.00111 32.59395
#
# Poissons Ratio (x) = 0.47228 -0.03245
# Poissons Ratio (y) = 0.95360 0.01565
# Poissons Ratio (z) = -0.10855 0.02593
#
# Static dielectric constant tensor:
#      x y z
#    x 1.753630 0.000000 0.000000 
#    y 0.000000 1.787270 0.000000 
#    z 0.000000 0.000000 1.828300 
# 
# From -- ./inp_files/12708.got.cif
#   From: 2010.05.17/outbox.cif.g08.bks.cpg/sg47_7_cif.got.tgz:12708.got - 2010.06.03 20:15:42.
