data_PCOD9383745
_publ_section_title
;
Structure prediction by ZEFSAII (Michael W. Deem and Ramdas Pophale) SiO2 
 PCOD9383745
Probable space group: P M M M
;
_chemical_formula_sum "Si O2"
_cell_formula_units_Z 52
_cell_length_a 14.659011
_cell_length_b 8.272261
_cell_length_c 21.121981
_cell_angle_alpha 90.000000
_cell_angle_beta 90.000000
_cell_angle_gamma 90.000000
_cell_volume 2561.318267
_symmetry_space_group_name_H-M "P M M M"
_symmetry_group_IT_number 47
_symmetry_cell_setting 'orthorhombic'
loop_
_space_group_symop_operation_xyz
x,y,z
-x,-y,z
x,-y,-z
-x,y,-z
-x,-y,-z
x,y,-z
-x,y,z
x,-y,z
loop_
_atom_site_type_symbol
_atom_site_label
_atom_site_fract_x
_atom_site_fract_y
_atom_site_fract_z
Si Si1 0.645268 0.682028 0.238080
Si Si2 0.858150 0.315841 0.800869
Si Si3 0.605315 0.802301 0.500000
Si Si4 0.797567 0.694621 0.069366
Si Si5 0.401235 0.810848 0.106690
Si Si6 0.901315 0.303706 0.664865
Si Si7 0.702004 0.193238 0.371383
O O1 0.608888 0.500000 0.234587
O O2 0.751695 0.675120 0.218259
O O3 0.601773 0.788440 0.182934
O O4 0.647587 0.743225 0.309817
O O5 0.893267 0.500000 0.806530
O O6 0.855061 0.240000 0.870678
O O7 0.900892 0.242194 0.737879
O O8 0.500000 0.751862 0.500000
O O9 0.656553 0.748924 0.563612
O O10 0.606606 0.000000 0.500000
O O11 0.807525 0.500000 0.070877
O O12 0.690059 0.729691 0.080009
O O13 0.824645 0.754181 0.000000
O O14 0.500000 0.747639 0.084459
O O15 0.396081 0.000000 0.091344
O O16 0.895593 0.500000 0.667249
O O17 0.808221 0.244015 0.633334
O O18 0.000000 0.260795 0.636109
O O19 0.698259 0.000000 0.369358
#
# Coordination Sequence:
#
# PCOD9383745 Si02
#       7
#     8   8   4   8   8   8   8
#     4   9  17  31  50  70  94 124 159 203 255 308
#     4   7  12  25  44  65  89 118 155 197 239 291
#     4   9  20  38  56  75 104 144 183 215 254 307
#     4   9  17  29  45  63  86 123 168 211 259 313
#     4  10  20  31  43  63  91 122 161 212 265 314
#     4   9  17  31  53  79 107 140 175 214 264 315
#     4  10  19  33  55  80 106 137 174 216 259 306
#
# _framework density 20.302046000000001
#
# number of rings (size 3 to 8) (size 9 to 14) (size 15 to 20)
#    0.000    3.000    0.000    3.231    0.000    2.769 
#    0.000    5.000    0.000    6.000    0.000    3.231 
#    0.000    0.000    0.000   11.231    0.000   13.846 
#
# Total GULP energy -289623.350878 kJ/mol
# GULP energy per Si atom -5569.679825 kJ/mol
# Density = 2.025584 g / cm^3
# Si number density = 20.302046 Si / 1000 Ang^3
#
#
#
# Elastic Constant Matrix: (Units=GPa)
#
#
# Indices 1 2 3 4 5 6 
#
# 1 79.7912 -2.4922 28.5737 0.0000 0.0000 0.0000
# 2 -2.4922 19.7105 5.8705 0.0000 0.0000 0.0000
# 3 28.5737 5.8705 138.5907 0.0000 0.0000 0.0000
# 4 0.0000 0.0000 0.0000 17.2567 0.0000 0.0000
# 5 0.0000 0.0000 0.0000 0.0000 91.0783 0.0000
# 6 0.0000 0.0000 0.0000 0.0000 0.0000 11.6052
#
#
#
# Elastic Compliance Matrix: (Units=1/GPa)
#
#
# Indices 1 2 3 4 5 6 
#
# 1 0.013662 0.002599 -0.002927 0.000000 0.000000 0.000000
# 2 0.002599 0.051877 -0.002733 0.000000 0.000000 0.000000
# 3 -0.002927 -0.002733 0.007935 0.000000 0.000000 0.000000
# 4 0.000000 0.000000 0.000000 0.057949 0.000000 0.000000
# 5 0.000000 0.000000 0.000000 0.000000 0.010980 0.000000
# 6 0.000000 0.000000 0.000000 0.000000 0.000000 0.086168
#
#
# Mechanical properties :
#
#
# Convention : Reuss Voigt Hill
#
# Bulk Modulus (GPa) = 14.84742 33.55514 24.20128
# Shear Modulus (GPa) = 19.44445 37.73073 28.58759
#
# Velocity S-wave (km/s) = 3.09812 4.31567 3.75655
# Velocity P-wave (km/s) = 4.48631 6.43407 5.54636
#
# Compressibility (1/GPa) = 0.06735179
#
# Stress axis : x y z
#
# Youngs Moduli (GPa) = 73.19573 19.27635 126.02864
#
# Poissons Ratio (x) = -0.05010 0.36886
# Poissons Ratio (y) = -0.19025 0.34447
# Poissons Ratio (z) = 0.21423 0.05269
#
# Static dielectric constant tensor:
#      x y z
#    x 1.745150 0.000000 0.000000 
#    y 0.000000 1.724270 0.000000 
#    z 0.000000 0.000000 1.759750 
# 
# From -- ./inp_files/30839.got.cif
#   From: 2010.05.17/outbox.cif.g08.bks.cpg/sg47_16_cif.got.tgz:30839.got - 2010.06.03 20:15:42.
