data_PCOD9383080
_publ_section_title
;
Structure prediction by ZEFSAII (Michael W. Deem and Ramdas Pophale) SiO2 
 PCOD9383080
Probable space group: P M M M
;
_chemical_formula_sum "Si O2"
_cell_formula_units_Z 52
_cell_length_a 7.761169
_cell_length_b 12.163783
_cell_length_c 29.481071
_cell_angle_alpha 90.000000
_cell_angle_beta 90.000000
_cell_angle_gamma 90.000000
_cell_volume 2783.165683
_symmetry_space_group_name_H-M "P M M M"
_symmetry_group_IT_number 47
_symmetry_cell_setting 'orthorhombic'
loop_
_space_group_symop_operation_xyz
x,y,z
-x,-y,z
x,-y,-z
-x,y,-z
-x,-y,-z
x,y,-z
-x,y,z
x,-y,z
loop_
_atom_site_type_symbol
_atom_site_label
_atom_site_fract_x
_atom_site_fract_y
_atom_site_fract_z
Si Si1 0.701515 0.000000 0.861317
Si Si2 0.198173 0.774260 0.905748
Si Si3 0.792718 0.632070 0.451216
Si Si4 0.795257 0.239019 0.733870
Si Si5 0.787980 0.130009 0.000000
Si Si6 0.297518 0.375471 0.176928
Si Si7 0.789529 0.000000 0.756806
Si Si8 0.211326 0.627667 0.352540
O O1 0.788434 0.890928 0.880347
O O2 0.500000 0.000000 0.873898
O O3 0.722260 0.000000 0.807825
O O4 0.273919 0.684340 0.871526
O O5 0.000000 0.742951 0.912218
O O6 0.271085 0.804268 0.955307
O O7 0.725164 0.673392 0.500000
O O8 0.765493 0.500000 0.450703
O O9 0.730800 0.671664 0.401966
O O10 0.000000 0.648172 0.451825
O O11 0.771096 0.300729 0.781883
O O12 0.729839 0.114330 0.735308
O O13 0.725748 0.306978 0.691250
O O14 0.000000 0.231811 0.727171
O O15 0.000000 0.127877 0.000000
O O16 0.736466 0.000000 0.000000
O O17 0.500000 0.382826 0.185058
O O18 0.225281 0.500000 0.177328
O O19 0.000000 0.000000 0.758171
O O20 0.261060 0.500000 0.348458
O O21 0.000000 0.629337 0.352819
#
# Coordination Sequence:
#
# PCOD9383080 Si02
#       8
#     4   8   8   8   4   8   4   8
#     4  12  22  33  53  80 109 135 161 201 250 293
#     4  11  21  37  60  82 105 133 167 204 241 287
#     4   7   9  14  26  47  78 113 147 189 242 292
#     4  10  19  31  49  70  95 126 164 205 245 292
#     4   9  18  34  57  84 109 129 158 203 247 280
#     4  11  24  39  53  73 103 135 166 202 247 299
#     4  10  20  32  47  71  97 128 165 204 244 289
#     4   8  13  21  35  58  86 117 156 199 242 291
#
# _framework density 18.683759999999999
#
# number of rings (size 3 to 8) (size 9 to 14) (size 15 to 20)
#    0.000    2.385    2.308    3.462    0.000    1.846 
#    0.000    2.308    0.000    2.308    0.000    0.538 
#    0.000    4.923    0.000    5.692    0.000    7.385 
#
# Total GULP energy -289740.090891 kJ/mol
# GULP energy per Si atom -5571.924825 kJ/mol
# Density = 1.864124 g / cm^3
# Si number density = 18.683760 Si / 1000 Ang^3
#
#
#
# Elastic Constant Matrix: (Units=GPa)
#
#
# Indices 1 2 3 4 5 6 
#
# 1 22.9453 -1.6681 -2.6414 0.0000 0.0000 0.0000
# 2 -1.6681 112.9089 69.1860 0.0000 0.0000 0.0000
# 3 -2.6414 69.1860 174.4701 0.0000 0.0000 0.0000
# 4 0.0000 0.0000 0.0000 22.7910 0.0000 0.0000
# 5 0.0000 0.0000 0.0000 0.0000 -42.4615 0.0000
# 6 0.0000 0.0000 0.0000 0.0000 0.0000 7.8005
#
#
#
# Elastic Compliance Matrix: (Units=1/GPa)
#
#
# Indices 1 2 3 4 5 6 
#
# 1 0.043667 0.000317 0.000535 0.000000 0.000000 0.000000
# 2 0.000317 0.011702 -0.004636 0.000000 0.000000 0.000000
# 3 0.000535 -0.004636 0.007578 0.000000 0.000000 0.000000
# 4 0.000000 0.000000 0.000000 0.043877 0.000000 0.000000
# 5 0.000000 0.000000 0.000000 0.000000 -0.023551 0.000000
# 6 0.000000 0.000000 0.000000 0.000000 0.000000 0.128197
#
#
# Mechanical properties :
#
#
# Convention : Reuss Voigt Hill
#
# Bulk Modulus (GPa) = 18.05698 48.89747 33.47723
# Shear Modulus (GPa) = 21.05299 13.98920 17.52109
#
# Velocity S-wave (km/s) = 3.36044 2.73927 3.06563
# Velocity P-wave (km/s) = 4.97416 6.01936 5.52155
#
# Compressibility (1/GPa) = 0.05538024
#
# Stress axis : x y z
#
# Youngs Moduli (GPa) = 22.90077 85.45650 131.96141
#
# Poissons Ratio (x) = -0.02710 -0.07065
# Poissons Ratio (y) = -0.00726 0.61172
# Poissons Ratio (z) = -0.01226 0.39614
#
# Static dielectric constant tensor:
#      x y z
#    x 1.672590 0.000000 0.000000 
#    y 0.000000 1.640960 0.000000 
#    z 0.000000 0.000000 1.686000 
# 
# From -- ./inp_files/34348.got.cif
#   From: 2010.05.17/outbox.cif.g08.bks.cpg/sg47_18_cif.got.tgz:34348.got - 2010.06.03 20:15:42.
