data_PCOD9383845
_publ_section_title
;
Structure prediction by ZEFSAII (Michael W. Deem and Ramdas Pophale) SiO2 
 PCOD9383845
Probable space group: P M M M
;
_chemical_formula_sum "Si O2"
_cell_formula_units_Z 60
_cell_length_a 13.048049
_cell_length_b 11.414371
_cell_length_c 21.288020
_cell_angle_alpha 90.000000
_cell_angle_beta 90.000000
_cell_angle_gamma 90.000000
_cell_volume 3170.537051
_symmetry_space_group_name_H-M "P M M M"
_symmetry_group_IT_number 47
_symmetry_cell_setting 'orthorhombic'
loop_
_space_group_symop_operation_xyz
x,y,z
-x,-y,z
x,-y,-z
-x,y,-z
-x,-y,-z
x,y,-z
-x,y,z
x,-y,z
loop_
_atom_site_type_symbol
_atom_site_label
_atom_site_fract_x
_atom_site_fract_y
_atom_site_fract_z
Si Si1 0.384284 0.000000 0.075887
Si Si2 0.883729 0.630760 0.348933
Si Si3 0.885387 0.137680 0.185609
Si Si4 0.167594 0.865280 0.572546
Si Si5 0.613740 0.864278 0.373553
Si Si6 0.385281 0.361861 0.862593
Si Si7 0.764043 0.786070 0.927668
Si Si8 0.279755 0.266013 0.737654
O O1 0.316412 0.112103 0.092399
O O2 0.500000 0.000000 0.101332
O O3 0.391769 0.000000 0.000000
O O4 0.871654 0.500000 0.379499
O O5 0.872464 0.750120 0.390599
O O6 0.795892 0.642414 0.296360
O O7 0.000000 0.632953 0.323835
O O8 0.855954 0.204819 0.121535
O O9 0.799831 0.168900 0.236647
O O10 0.000000 0.168027 0.206845
O O11 0.882723 0.000000 0.172033
O O12 0.136258 0.858948 0.500000
O O13 0.291264 0.855233 0.578783
O O14 0.141302 0.000000 0.595210
O O15 0.500000 0.835091 0.397696
O O16 0.644401 0.785843 0.314185
O O17 0.612068 0.000000 0.353302
O O18 0.500000 0.315871 0.875873
O O19 0.390922 0.500000 0.857141
O O20 0.303992 0.327928 0.915941
O O21 0.341495 0.312799 0.797151
O O22 0.793361 0.802230 0.000000
#
# Coordination Sequence:
#
# PCOD9383845 Si02
#       8
#     4   8   8   8   8   8   8   8
#     4   9  16  28  47  69  93 121 152 190 240 297
#     4  10  21  36  55  79 106 140 182 225 269 315
#     4  10  20  33  51  76 105 136 170 211 259 310
#     4   9  19  35  54  79 111 144 179 220 265 314
#     4   9  17  30  51  79 109 141 176 214 256 306
#     4  10  21  35  52  75 101 132 170 210 254 307
#     4  10  20  34  51  72 100 130 165 207 254 307
#     4  10  19  34  53  75 104 137 173 213 262 310
#
# _framework density 18.924239
#
# number of rings (size 3 to 8) (size 9 to 14) (size 15 to 20)
#    0.000    2.333    0.667    2.000    0.000    2.933 
#    0.000    4.000    0.000    7.200    0.000    7.467 
#    0.000    0.000    0.000    0.000    0.000    0.000 
#
# Total GULP energy -334201.886652 kJ/mol
# GULP energy per Si atom -5570.031444 kJ/mol
# Density = 1.888117 g / cm^3
# Si number density = 18.924239 Si / 1000 Ang^3
#
#
#
# Elastic Constant Matrix: (Units=GPa)
#
#
# Indices 1 2 3 4 5 6 
#
# 1 68.4914 20.8693 -14.7300 0.0000 0.0000 0.0000
# 2 20.8693 71.5263 13.3961 0.0000 0.0000 0.0000
# 3 -14.7300 13.3961 28.9630 0.0000 0.0000 0.0000
# 4 0.0000 0.0000 0.0000 17.0327 0.0000 0.0000
# 5 0.0000 0.0000 0.0000 0.0000 2.9604 0.0000
# 6 0.0000 0.0000 0.0000 0.0000 0.0000 22.8030
#
#
#
# Elastic Compliance Matrix: (Units=1/GPa)
#
#
# Indices 1 2 3 4 5 6 
#
# 1 0.020296 -0.008600 0.014300 0.000000 0.000000 0.000000
# 2 -0.008600 0.018951 -0.013139 0.000000 0.000000 0.000000
# 3 0.014300 -0.013139 0.047877 0.000000 0.000000 0.000000
# 4 0.000000 0.000000 0.000000 0.058711 0.000000 0.000000
# 5 0.000000 0.000000 0.000000 0.000000 0.337793 0.000000
# 6 0.000000 0.000000 0.000000 0.000000 0.000000 0.043854
#
#
# Mechanical properties :
#
#
# Convention : Reuss Voigt Hill
#
# Bulk Modulus (GPa) = 13.84170 23.11682 18.47926
# Shear Modulus (GPa) = 8.82704 18.52224 13.67464
#
# Velocity S-wave (km/s) = 2.16207 3.13190 2.69104
# Velocity P-wave (km/s) = 3.68278 5.03194 4.40927
#
# Compressibility (1/GPa) = 0.07224548
#
# Stress axis : x y z
#
# Youngs Moduli (GPa) = 49.27024 52.76781 20.88699
#
# Poissons Ratio (x) = 0.45381 -0.29868
# Poissons Ratio (y) = 0.42373 0.27444
# Poissons Ratio (z) = -0.70456 0.69332
#
# Static dielectric constant tensor:
#      x y z
#    x 1.665690 0.000000 0.000000 
#    y 0.000000 1.687570 0.000000 
#    z 0.000000 0.000000 1.642970 
# 
# From -- ./inp_files/16603.got.cif
#   From: 2010.05.17/outbox.cif.g08.bks.cpg/sg47_9_cif.got.tgz:16603.got - 2010.06.03 20:15:42.
