data_PCOD9383480
_publ_section_title
;
Structure prediction by ZEFSAII (Michael W. Deem and Ramdas Pophale) SiO2 
 PCOD9383480
Probable space group: P M M M
;
_chemical_formula_sum "Si O2"
_cell_formula_units_Z 64
_cell_length_a 8.333412
_cell_length_b 20.389706
_cell_length_c 21.351172
_cell_angle_alpha 90.000000
_cell_angle_beta 90.000000
_cell_angle_gamma 90.000000
_cell_volume 3627.901912
_symmetry_space_group_name_H-M "P M M M"
_symmetry_group_IT_number 47
_symmetry_cell_setting 'orthorhombic'
loop_
_space_group_symop_operation_xyz
x,y,z
-x,-y,z
x,-y,-z
-x,y,-z
-x,-y,-z
x,y,-z
-x,y,z
x,-y,z
loop_
_atom_site_type_symbol
_atom_site_label
_atom_site_fract_x
_atom_site_fract_y
_atom_site_fract_z
Si Si1 0.809183 0.209538 0.811681
Si Si2 0.693306 0.927091 0.769992
Si Si3 0.305902 0.209937 0.430306
Si Si4 0.304569 0.927378 0.375957
Si Si5 0.309243 0.289400 0.931342
Si Si6 0.806349 0.426645 0.114898
Si Si7 0.804910 0.427740 0.262241
Si Si8 0.805745 0.710558 0.689319
O O1 0.754055 0.134426 0.808845
O O2 0.757926 0.247827 0.873695
O O3 0.747841 0.246781 0.749069
O O4 0.000000 0.211416 0.808494
O O5 0.500000 0.926334 0.770956
O O6 0.742205 0.918858 0.696979
O O7 0.746306 0.000000 0.790241
O O8 0.252526 0.229000 0.500000
O O9 0.500000 0.209436 0.429623
O O10 0.250907 0.135641 0.414601
O O11 0.249332 0.256998 0.374955
O O12 0.500000 0.927829 0.377611
O O13 0.251653 0.000000 0.396916
O O14 0.500000 0.282260 0.930581
O O15 0.266671 0.365655 0.921039
O O16 0.247990 0.268785 0.000000
O O17 0.757887 0.500000 0.094460
O O18 0.764646 0.419834 0.188691
O O19 0.000000 0.422928 0.110334
O O20 0.748959 0.500000 0.282852
O O21 0.749983 0.364276 0.300183
O O22 0.000000 0.428315 0.264754
O O23 0.000000 0.710674 0.690461
#
# Coordination Sequence:
#
# PCOD9383480 Si02
#       8
#     8   8   8   8   8   8   8   8
#     4  11  21  34  55  81 105 134 175 219 263 311
#     4   9  17  31  53  79 106 137 171 209 258 311
#     4  10  20  32  48  72 102 137 174 211 254 303
#     4   8  14  26  45  70  99 131 169 208 243 287
#     4  11  24  38  52  74 107 145 180 217 262 310
#     4   9  17  32  54  78 106 140 176 214 257 308
#     4   8  14  28  51  76 100 125 161 211 258 300
#     4  10  19  32  52  77 101 130 168 211 261 309
#
# _framework density 17.64105
#
# number of rings (size 3 to 8) (size 9 to 14) (size 15 to 20)
#    0.000    2.500    2.500    2.250    0.000    2.750 
#    0.000    2.500    0.000    1.500    0.000    6.125 
#    0.000    0.000    0.000    0.000    0.000    0.000 
#
# Total GULP energy -356861.159190 kJ/mol
# GULP energy per Si atom -5575.955612 kJ/mol
# Density = 1.760090 g / cm^3
# Si number density = 17.641050 Si / 1000 Ang^3
#
#
#
# Elastic Constant Matrix: (Units=GPa)
#
#
# Indices 1 2 3 4 5 6 
#
# 1 9.7594 17.6780 14.3632 0.0000 0.0000 0.0000
# 2 17.6780 139.6436 76.5262 0.0000 0.0000 0.0000
# 3 14.3632 76.5262 110.5170 0.0000 0.0000 0.0000
# 4 0.0000 0.0000 0.0000 13.8982 0.0000 0.0000
# 5 0.0000 0.0000 0.0000 0.0000 16.2208 0.0000
# 6 0.0000 0.0000 0.0000 0.0000 0.0000 24.5603
#
#
#
# Elastic Compliance Matrix: (Units=1/GPa)
#
#
# Indices 1 2 3 4 5 6 
#
# 1 0.138836 -0.012389 -0.009465 0.000000 0.000000 0.000000
# 2 -0.012389 0.012646 -0.007146 0.000000 0.000000 0.000000
# 3 -0.009465 -0.007146 0.015227 0.000000 0.000000 0.000000
# 4 0.000000 0.000000 0.000000 0.071952 0.000000 0.000000
# 5 0.000000 0.000000 0.000000 0.000000 0.061649 0.000000
# 6 0.000000 0.000000 0.000000 0.000000 0.000000 0.040716
#
#
# Mechanical properties :
#
#
# Convention : Reuss Voigt Hill
#
# Bulk Modulus (GPa) = 9.19892 53.00611 31.10251
# Shear Modulus (GPa) = 11.48732 21.02604 16.25668
#
# Velocity S-wave (km/s) = 2.55457 3.45611 3.03896
# Velocity P-wave (km/s) = 3.73188 6.78517 5.47565
#
# Compressibility (1/GPa) = 0.10870842
#
# Stress axis : x y z
#
# Youngs Moduli (GPa) = 7.20272 79.07864 65.67350
#
# Poissons Ratio (x) = 0.97969 0.62162
# Poissons Ratio (y) = 0.08923 0.46932
# Poissons Ratio (z) = 0.06818 0.56511
#
# Static dielectric constant tensor:
#      x y z
#    x 1.616560 0.000000 0.000000 
#    y 0.000000 1.616190 0.000000 
#    z 0.000000 0.000000 1.592310 
# 
# From -- ./inp_files/9950.got.cif
#   From: 2010.05.17/outbox.cif.g08.bks.cpg/sg47_5_cif.got.tgz:9950.got - 2010.06.03 20:15:42.
