data_PCOD9383359
_publ_section_title
;
Structure prediction by ZEFSAII (Michael W. Deem and Ramdas Pophale) SiO2 
 PCOD9383359
Probable space group: P M M M
;
_chemical_formula_sum "Si O2"
_cell_formula_units_Z 44
_cell_length_a 7.589424
_cell_length_b 17.430626
_cell_length_c 15.602380
_cell_angle_alpha 90.000000
_cell_angle_beta 90.000000
_cell_angle_gamma 90.000000
_cell_volume 2064.014063
_symmetry_space_group_name_H-M "P M M M"
_symmetry_group_IT_number 47
_symmetry_cell_setting 'orthorhombic'
loop_
_space_group_symop_operation_xyz
x,y,z
-x,-y,z
x,-y,-z
-x,y,-z
-x,-y,-z
x,y,-z
-x,y,z
x,-y,z
loop_
_atom_site_type_symbol
_atom_site_label
_atom_site_fract_x
_atom_site_fract_y
_atom_site_fract_z
Si Si1 0.791997 0.586668 0.818041
Si Si2 0.784865 0.410937 0.500000
Si Si3 0.784027 0.000000 0.399601
Si Si4 0.216394 0.688209 0.336293
Si Si5 0.709228 0.412273 0.000000
Si Si6 0.210709 0.855856 0.285905
Si Si7 0.711885 0.088923 0.095945
O O1 0.717186 0.500000 0.817692
O O2 0.720237 0.640274 0.745194
O O3 0.000000 0.579543 0.802832
O O4 0.767801 0.622939 0.911321
O O5 0.726156 0.500000 0.500000
O O6 0.730083 0.361116 0.418259
O O7 0.000000 0.413966 0.500000
O O8 0.724769 0.073704 0.344376
O O9 0.730247 0.000000 0.500000
O O10 0.000000 0.000000 0.400256
O O11 0.276266 0.775320 0.324095
O O12 0.000000 0.690001 0.337248
O O13 0.782113 0.500000 0.000000
O O14 0.500000 0.416058 0.000000
O O15 0.242666 0.867201 0.183961
O O16 0.000000 0.855446 0.295093
O O17 0.500000 0.088220 0.092793
O O18 0.771639 0.000000 0.105711
O O19 0.771671 0.115559 0.000000
#
# Coordination Sequence:
#
# PCOD9383359 Si02
#       7
#     8   4   4   8   4   8   8
#     4   9  16  29  48  68  93 127 162 196 243 296
#     4   9  16  28  48  75 106 137 168 205 253 307
#     4   9  18  30  48  73 102 136 167 199 244 301
#     4   9  18  29  45  72 103 131 162 207 252 291
#     4   9  17  29  47  71  95 122 161 204 242 288
#     4  10  19  32  50  76 105 133 169 210 252 297
#     4   9  18  34  55  75  98 133 173 212 257 308
#
# _framework density 21.317685000000001
#
# number of rings (size 3 to 8) (size 9 to 14) (size 15 to 20)
#    0.000    2.818    0.909    1.364    1.273    3.636 
#    1.636    1.818    0.000    1.091    0.000    1.909 
#    0.000    5.818    0.000    0.000    0.000    0.000 
#
# Total GULP energy -245317.342476 kJ/mol
# GULP energy per Si atom -5575.394147 kJ/mol
# Density = 2.126916 g / cm^3
# Si number density = 21.317685 Si / 1000 Ang^3
#
#
#
# Elastic Constant Matrix: (Units=GPa)
#
#
# Indices 1 2 3 4 5 6 
#
# 1 44.5245 8.4383 -2.7507 0.0000 0.0000 0.0000
# 2 8.4383 167.1928 126.3761 0.0000 0.0000 0.0000
# 3 -2.7507 126.3761 224.3185 0.0000 0.0000 0.0000
# 4 0.0000 0.0000 0.0000 94.8340 0.0000 0.0000
# 5 0.0000 0.0000 0.0000 0.0000 -509.3202 0.0000
# 6 0.0000 0.0000 0.0000 0.0000 0.0000 -0.7695
#
#
#
# Elastic Compliance Matrix: (Units=1/GPa)
#
#
# Indices 1 2 3 4 5 6 
#
# 1 0.023014 -0.002395 0.001631 0.000000 0.000000 0.000000
# 2 -0.002395 0.010666 -0.006039 0.000000 0.000000 0.000000
# 3 0.001631 -0.006039 0.007880 0.000000 0.000000 0.000000
# 4 0.000000 0.000000 0.000000 0.010545 0.000000 0.000000
# 5 0.000000 0.000000 0.000000 0.000000 -0.001963 0.000000
# 6 0.000000 0.000000 0.000000 0.000000 0.000000 -1.299593
#
#
# Mechanical properties :
#
#
# Convention : Reuss Voigt Hill
#
# Bulk Modulus (GPa) = 35.76960 77.79592 56.78276
# Shear Modulus (GPa) = -4.07655 -62.78633 -33.43144
#
# Velocity S-wave (km/s) = -1.38435 -5.43292 -3.96441
# Velocity P-wave (km/s) = 3.77631 1.66814 2.39560
#
# Compressibility (1/GPa) = 0.02795670
#
# Stress axis : x y z
#
# Youngs Moduli (GPa) = 43.45157 93.75301 126.90468
#
# Poissons Ratio (x) = 0.22450 -0.20701
# Poissons Ratio (y) = 0.10405 0.76632
# Poissons Ratio (z) = -0.07088 0.56613
#
# Static dielectric constant tensor:
#      x y z
#    x 1.783890 0.000000 0.000000 
#    y 0.000000 2.110110 0.000000 
#    z 0.000000 0.000000 1.774620 
# 
# From -- ./inp_files/20986.got.cif
#   From: 2010.05.17/outbox.cif.g08.bks.cpg/sg47_11_cif.got.tgz:20986.got - 2010.06.03 20:15:42.
