data_PCOD9383519
_publ_section_title
;
Structure prediction by ZEFSAII (Michael W. Deem and Ramdas Pophale) SiO2 
 PCOD9383519
Probable space group: P M M M
;
_chemical_formula_sum "Si O2"
_cell_formula_units_Z 52
_cell_length_a 20.200027
_cell_length_b 15.959451
_cell_length_c 7.520482
_cell_angle_alpha 90.000000
_cell_angle_beta 90.000000
_cell_angle_gamma 90.000000
_cell_volume 2424.463073
_symmetry_space_group_name_H-M "P M M M"
_symmetry_group_IT_number 47
_symmetry_cell_setting 'orthorhombic'
loop_
_space_group_symop_operation_xyz
x,y,z
-x,-y,z
x,-y,-z
-x,y,-z
-x,-y,-z
x,y,-z
-x,y,z
x,-y,z
loop_
_atom_site_type_symbol
_atom_site_label
_atom_site_fract_x
_atom_site_fract_y
_atom_site_fract_z
Si Si1 0.681629 0.771055 0.790555
Si Si2 0.269477 0.405234 0.793220
Si Si3 0.000000 0.597490 0.801079
Si Si4 0.576763 0.094321 0.216915
Si Si5 0.867022 0.673738 0.700667
Si Si6 0.213532 0.089215 0.714496
Si Si7 0.075426 0.849200 0.717303
O O1 0.692791 0.677111 0.716844
O O2 0.624033 0.831407 0.717299
O O3 0.747340 0.828677 0.775888
O O4 0.668383 0.760145 0.000000
O O5 0.276697 0.500000 0.717501
O O6 0.192674 0.376174 0.788655
O O7 0.288702 0.411200 0.000000
O O8 0.066413 0.620789 0.701125
O O9 0.000000 0.500000 0.822205
O O10 0.000000 0.636123 0.000000
O O11 0.500000 0.107611 0.264591
O O12 0.595760 0.000000 0.275443
O O13 0.580219 0.094000 0.000000
O O14 0.844063 0.691623 0.500000
O O15 0.894725 0.760317 0.778297
O O16 0.216706 0.091027 0.500000
O O17 0.136106 0.091110 0.764665
O O18 0.242622 0.000000 0.776575
O O19 0.071732 0.847236 0.500000
O O20 0.000000 0.864386 0.778000
#
# Coordination Sequence:
#
# PCOD9383519 Si02
#       7
#     8   8   4   8   8   8   8
#     4  10  19  32  53  76 100 134 171 207 247 298
#     4  10  21  35  49  69  99 132 165 205 257 307
#     4  11  23  35  47  67  96 125 156 204 268 328
#     4   8  14  26  47  77 108 133 162 203 247 292
#     4  11  20  33  52  71  91 121 166 215 256 302
#     4  10  20  33  51  75 101 129 162 204 254 304
#     4   9  17  31  49  68  91 120 157 203 249 293
#
# _framework density 21.448048
#
# number of rings (size 3 to 8) (size 9 to 14) (size 15 to 20)
#    0.000    2.231    2.308    2.077    0.000    4.000 
#    0.000    1.538    0.000    0.923    0.000    6.462 
#    0.000    0.000    0.000    2.769    0.000    3.231 
#
# Total GULP energy -289877.250490 kJ/mol
# GULP energy per Si atom -5574.562509 kJ/mol
# Density = 2.139923 g / cm^3
# Si number density = 21.448048 Si / 1000 Ang^3
#
#
#
# Elastic Constant Matrix: (Units=GPa)
#
#
# Indices 1 2 3 4 5 6 
#
# 1 124.7533 75.6367 -2.6694 0.0000 0.0000 0.0000
# 2 75.6367 187.3703 3.4733 0.0000 0.0000 0.0000
# 3 -2.6694 3.4733 57.7386 0.0000 0.0000 0.0000
# 4 0.0000 0.0000 0.0000 0.5589 0.0000 0.0000
# 5 0.0000 0.0000 0.0000 0.0000 29.2496 0.0000
# 6 0.0000 0.0000 0.0000 0.0000 0.0000 239.2600
#
#
#
# Elastic Compliance Matrix: (Units=1/GPa)
#
#
# Indices 1 2 3 4 5 6 
#
# 1 0.010646 -0.004311 0.000752 0.000000 0.000000 0.000000
# 2 -0.004311 0.007089 -0.000626 0.000000 0.000000 0.000000
# 3 0.000752 -0.000626 0.017392 0.000000 0.000000 0.000000
# 4 0.000000 0.000000 0.000000 1.789140 0.000000 0.000000
# 5 0.000000 0.000000 0.000000 0.000000 0.034188 0.000000
# 6 0.000000 0.000000 0.000000 0.000000 0.000000 0.004180
#
#
# Mechanical properties :
#
#
# Convention : Reuss Voigt Hill
#
# Bulk Modulus (GPa) = 37.37555 58.08259 47.72907
# Shear Modulus (GPa) = 2.65968 73.37515 38.01741
#
# Velocity S-wave (km/s) = 1.11479 5.85533 4.21472
# Velocity P-wave (km/s) = 4.37275 8.53537 6.78135
#
# Compressibility (1/GPa) = 0.02675546
#
# Stress axis : x y z
#
# Youngs Moduli (GPa) = 93.93328 141.06309 57.49827
#
# Poissons Ratio (x) = 0.60818 -0.04321
# Poissons Ratio (y) = 0.40498 0.03598
# Poissons Ratio (z) = -0.07060 0.08827
#
# Static dielectric constant tensor:
#      x y z
#    x 1.678460 0.000000 0.000000 
#    y 0.000000 1.823950 0.000000 
#    z 0.000000 0.000000 1.683160 
# 
# From -- ./inp_files/7048.got.cif
#   From: 2010.05.17/outbox.cif.g08.bks.cpg/sg47_4_cif.got.tgz:7048.got - 2010.06.03 20:15:42.
