data_PCOD9383255
_publ_section_title
;
Structure prediction by ZEFSAII (Michael W. Deem and Ramdas Pophale) SiO2 
 PCOD9383255
Probable space group: P M M M
;
_chemical_formula_sum "Si O2"
_cell_formula_units_Z 56
_cell_length_a 22.848519
_cell_length_b 9.161682
_cell_length_c 15.318902
_cell_angle_alpha 90.000000
_cell_angle_beta 90.000000
_cell_angle_gamma 90.000000
_cell_volume 3206.719010
_symmetry_space_group_name_H-M "P M M M"
_symmetry_group_IT_number 47
_symmetry_cell_setting 'orthorhombic'
loop_
_space_group_symop_operation_xyz
x,y,z
-x,-y,z
x,-y,-z
-x,y,-z
-x,-y,-z
x,y,-z
-x,y,z
x,-y,z
loop_
_atom_site_type_symbol
_atom_site_label
_atom_site_fract_x
_atom_site_fract_y
_atom_site_fract_z
Si Si1 0.215644 0.824345 0.100139
Si Si2 0.350603 0.828794 0.862515
Si Si3 0.568034 0.674661 0.000000
Si Si4 0.268640 0.672948 0.403160
Si Si5 0.500000 0.329658 0.604879
Si Si6 0.381932 0.829526 0.340873
Si Si7 0.167281 0.676341 0.267736
Si Si8 0.067594 0.677573 0.598734
O O1 0.283842 0.783704 0.116969
O O2 0.176410 0.748626 0.173796
O O3 0.211911 0.000000 0.109326
O O4 0.200758 0.786398 0.000000
O O5 0.397028 0.737493 0.917399
O O6 0.364154 0.815336 0.760488
O O7 0.355642 0.000000 0.886817
O O8 0.570178 0.500000 0.000000
O O9 0.500000 0.720189 0.000000
O O10 0.243101 0.695677 0.500000
O O11 0.280439 0.500000 0.394138
O O12 0.328795 0.758805 0.393846
O O13 0.223185 0.714855 0.328098
O O14 0.500000 0.500000 0.628789
O O15 0.500000 0.318554 0.500000
O O16 0.442075 0.252561 0.640516
O O17 0.388238 0.000000 0.361932
O O18 0.165700 0.500000 0.259085
O O19 0.111014 0.724244 0.324396
O O20 0.084615 0.724110 0.500000
O O21 0.069603 0.500000 0.597987
O O22 0.000000 0.719895 0.613204
#
# Coordination Sequence:
#
# PCOD9383255 Si02
#       8
#     8   8   4   8   4   8   8   8
#     4  10  20  37  57  76 103 140 179 220 272 330
#     4  10  21  39  58  76 101 136 173 213 266 324
#     4  11  25  39  55  83 109 131 166 215 270 327
#     4  10  20  33  50  76 111 144 171 209 268 325
#     4  11  25  43  59  74  99 136 173 213 266 321
#     4  11  23  38  57  79 101 131 176 221 260 312
#     4  10  19  31  52  83 113 141 181 229 271 315
#     4   8  14  27  50  81 117 155 190 223 264 317
#
# _framework density 17.463332000000001
#
# number of rings (size 3 to 8) (size 9 to 14) (size 15 to 20)
#    0.000    2.000    2.143    2.143    1.000    6.857 
#    0.000    0.000    0.000    2.143    0.000    4.000 
#    0.000    0.000    0.000    0.000    0.000    0.000 
#
# Total GULP energy -312566.166666 kJ/mol
# GULP energy per Si atom -5581.538690 kJ/mol
# Density = 1.742358 g / cm^3
# Si number density = 17.463332 Si / 1000 Ang^3
#
#
#
# Elastic Constant Matrix: (Units=GPa)
#
#
# Indices 1 2 3 4 5 6 
#
# 1 112.6532 36.7545 68.4717 0.0000 0.0000 0.0000
# 2 36.7545 33.0923 45.4297 0.0000 0.0000 0.0000
# 3 68.4717 45.4297 127.4413 0.0000 0.0000 0.0000
# 4 0.0000 0.0000 0.0000 25.1239 0.0000 0.0000
# 5 0.0000 0.0000 0.0000 0.0000 26.9420 0.0000
# 6 0.0000 0.0000 0.0000 0.0000 0.0000 1.9631
#
#
#
# Elastic Compliance Matrix: (Units=1/GPa)
#
#
# Indices 1 2 3 4 5 6 
#
# 1 0.014960 -0.010930 -0.004141 0.000000 0.000000 0.000000
# 2 -0.010930 0.067165 -0.018070 0.000000 0.000000 0.000000
# 3 -0.004141 -0.018070 0.016513 0.000000 0.000000 0.000000
# 4 0.000000 0.000000 0.000000 0.039803 0.000000 0.000000
# 5 0.000000 0.000000 0.000000 0.000000 0.037117 0.000000
# 6 0.000000 0.000000 0.000000 0.000000 0.000000 0.509408
#
#
# Mechanical properties :
#
#
# Convention : Reuss Voigt Hill
#
# Bulk Modulus (GPa) = 30.90696 63.83318 47.37007
# Shear Modulus (GPa) = 6.56137 18.97452 12.76795
#
# Velocity S-wave (km/s) = 1.94046 3.29984 2.70687
# Velocity P-wave (km/s) = 4.77044 7.15197 6.07897
#
# Compressibility (1/GPa) = 0.03235518
#
# Stress axis : x y z
#
# Youngs Moduli (GPa) = 66.84439 14.88864 60.55680
#
# Poissons Ratio (x) = 0.16274 0.25079
# Poissons Ratio (y) = 0.73063 1.09427
# Poissons Ratio (z) = 0.27683 0.26904
#
# Static dielectric constant tensor:
#      x y z
#    x 1.572000 0.000000 0.000000 
#    y 0.000000 1.584330 0.000000 
#    z 0.000000 0.000000 1.607220 
# 
# From -- ./inp_files/25217.got.cif
#   From: 2010.05.17/outbox.cif.g08.bks.cpg/sg47_13_cif.got.tgz:25217.got - 2010.06.03 20:15:42.
