data_PCOD9383125
_publ_section_title
;
Structure prediction by ZEFSAII (Michael W. Deem and Ramdas Pophale) SiO2 
 PCOD9383125
Probable space group: P M M M
;
_chemical_formula_sum "Si O2"
_cell_formula_units_Z 52
_cell_length_a 7.850642
_cell_length_b 28.740821
_cell_length_c 13.041109
_cell_angle_alpha 90.000000
_cell_angle_beta 90.000000
_cell_angle_gamma 90.000000
_cell_volume 2942.516238
_symmetry_space_group_name_H-M "P M M M"
_symmetry_group_IT_number 47
_symmetry_cell_setting 'orthorhombic'
loop_
_space_group_symop_operation_xyz
x,y,z
-x,-y,z
x,-y,-z
-x,y,-z
-x,-y,-z
x,y,-z
-x,y,z
x,-y,z
loop_
_atom_site_type_symbol
_atom_site_label
_atom_site_fract_x
_atom_site_fract_y
_atom_site_fract_z
Si Si1 0.205534 0.384777 0.616277
Si Si2 0.808514 0.119294 0.121827
Si Si3 0.206065 0.721016 0.382181
Si Si4 0.299485 0.782096 0.191022
Si Si5 0.296319 0.447372 0.193741
Si Si6 0.707944 0.280647 0.000000
Si Si7 0.709123 0.387456 0.000000
Si Si8 0.500000 0.946883 0.875395
O O1 0.262942 0.395018 0.500000
O O2 0.261303 0.332028 0.642844
O O3 0.262491 0.421807 0.699433
O O4 0.000000 0.384323 0.615285
O O5 0.788347 0.168136 0.179519
O O6 0.666718 0.082326 0.154737
O O7 0.000000 0.101189 0.133979
O O8 0.781410 0.129063 0.000000
O O9 0.256787 0.730635 0.500000
O O10 0.273285 0.757003 0.299207
O O11 0.000000 0.721930 0.378698
O O12 0.500000 0.790180 0.173510
O O13 0.237775 0.747394 0.101138
O O14 0.500000 0.450319 0.180875
O O15 0.228148 0.500000 0.190867
O O16 0.233081 0.415291 0.100648
O O17 0.765999 0.333973 0.000000
O O18 0.500000 0.281629 0.000000
O O19 0.500000 0.386743 0.000000
O O20 0.500000 0.000000 0.838523
O O21 0.500000 0.948567 0.000000
#
# Coordination Sequence:
#
# PCOD9383125 Si02
#       8
#     8   8   8   8   8   4   4   4
#     4   9  19  36  54  70  93 125 158 199 251 305
#     4  10  19  31  49  73 106 146 186 226 270 319
#     4   9  19  35  51  69  97 131 168 211 257 308
#     4  11  19  30  49  74 107 139 172 213 259 312
#     4  10  20  33  51  72  93 119 154 200 249 300
#     4   9  18  27  45  72  98 130 163 204 250 299
#     4   9  17  32  48  68  96 126 160 194 243 304
#     4   9  18  32  50  72 105 147 189 235 276 312
#
# _framework density 17.671949999999999
#
# number of rings (size 3 to 8) (size 9 to 14) (size 15 to 20)
#    0.000    2.385    1.538    2.538    0.000    4.308 
#    0.000    5.000    0.000    3.692    0.000    0.000 
#    0.000    1.231    0.000    3.231    0.000    0.154 
#
# Total GULP energy -290215.950080 kJ/mol
# GULP energy per Si atom -5581.075963 kJ/mol
# Density = 1.763173 g / cm^3
# Si number density = 17.671950 Si / 1000 Ang^3
#
#
#
# Elastic Constant Matrix: (Units=GPa)
#
#
# Indices 1 2 3 4 5 6 
#
# 1 47.4961 34.6370 11.8493 0.0000 0.0000 0.0000
# 2 34.6370 147.2913 57.2975 0.0000 0.0000 0.0000
# 3 11.8493 57.2975 67.0960 0.0000 0.0000 0.0000
# 4 0.0000 0.0000 0.0000 -6.2554 0.0000 0.0000
# 5 0.0000 0.0000 0.0000 0.0000 -229.0064 0.0000
# 6 0.0000 0.0000 0.0000 0.0000 0.0000 11.7909
#
#
#
# Elastic Compliance Matrix: (Units=1/GPa)
#
#
# Indices 1 2 3 4 5 6 
#
# 1 0.025450 -0.006344 0.000923 0.000000 0.000000 0.000000
# 2 -0.006344 0.011748 -0.008912 0.000000 0.000000 0.000000
# 3 0.000923 -0.008912 0.022352 0.000000 0.000000 0.000000
# 4 0.000000 0.000000 0.000000 -0.159861 0.000000 0.000000
# 5 0.000000 0.000000 0.000000 0.000000 -0.004367 0.000000
# 6 0.000000 0.000000 0.000000 0.000000 0.000000 0.084811
#
#
# Mechanical properties :
#
#
# Convention : Reuss Voigt Hill
#
# Bulk Modulus (GPa) = 32.37932 52.16121 42.27026
# Shear Modulus (GPa) = 261.86303 -34.15421 113.85441
#
# Velocity S-wave (km/s) = 12.18613 -4.40099 8.03533
# Velocity P-wave (km/s) = 14.70933 1.93790 10.49095
#
# Compressibility (1/GPa) = 0.03088391
#
# Stress axis : x y z
#
# Youngs Moduli (GPa) = 39.29198 85.12148 44.73972
#
# Poissons Ratio (x) = 0.54000 -0.04129
# Poissons Ratio (y) = 0.24927 0.39872
# Poissons Ratio (z) = -0.03626 0.75860
#
# Static dielectric constant tensor:
#      x y z
#    x 1.656870 0.000000 0.000000 
#    y 0.000000 1.579640 0.000000 
#    z 0.000000 0.000000 1.579270 
# 
# From -- ./inp_files/15528.got.cif
#   From: 2010.05.17/outbox.cif.g08.bks.cpg/sg47_8_cif.got.tgz:15528.got - 2010.06.03 20:15:42.
