data_PCOD9383624
_publ_section_title
;
Structure prediction by ZEFSAII (Michael W. Deem and Ramdas Pophale) SiO2 
 PCOD9383624
Probable space group: P M M M
;
_chemical_formula_sum "Si O2"
_cell_formula_units_Z 48
_cell_length_a 8.197081
_cell_length_b 7.903737
_cell_length_c 37.177277
_cell_angle_alpha 90.000000
_cell_angle_beta 90.000000
_cell_angle_gamma 90.000000
_cell_volume 2408.625525
_symmetry_space_group_name_H-M "P M M M"
_symmetry_group_IT_number 47
_symmetry_cell_setting 'orthorhombic'
loop_
_space_group_symop_operation_xyz
x,y,z
-x,-y,z
x,-y,-z
-x,y,-z
-x,-y,-z
x,y,-z
-x,y,z
x,-y,z
loop_
_atom_site_type_symbol
_atom_site_label
_atom_site_fract_x
_atom_site_fract_y
_atom_site_fract_z
Si Si1 0.000000 0.793267 0.041402
Si Si2 0.803168 0.000000 0.783902
Si Si3 0.694030 0.811209 0.500000
Si Si4 0.818638 0.298351 0.576940
Si Si5 0.316272 0.794719 0.086966
Si Si6 0.696901 0.000000 0.701789
Si Si7 0.694181 0.307111 0.653590
Si Si8 0.803486 0.307675 0.834978
O O1 0.834471 0.739279 0.061802
O O2 0.000000 0.000000 0.041845
O O3 0.000000 0.739013 0.000000
O O4 0.752350 0.166480 0.806220
O O5 0.739754 0.000000 0.743524
O O6 0.000000 0.000000 0.782654
O O7 0.500000 0.814176 0.500000
O O8 0.746639 0.732626 0.462321
O O9 0.761813 0.000000 0.500000
O O10 0.826918 0.500000 0.580285
O O11 0.724294 0.243823 0.612726
O O12 0.000000 0.225636 0.578172
O O13 0.500000 0.745859 0.075351
O O14 0.281070 0.727862 0.126948
O O15 0.311335 0.000000 0.088291
O O16 0.759055 0.831473 0.681476
O O17 0.500000 0.000000 0.698317
O O18 0.500000 0.317923 0.658421
O O19 0.759366 0.500000 0.658037
O O20 0.770720 0.500000 0.823272
O O21 0.000000 0.290412 0.840374
#
# Coordination Sequence:
#
# PCOD9383624 Si02
#       8
#     4   4   4   8   8   4   8   8
#     4   9  18  32  53  83 123 166 205 253 308 357
#     4  10  22  38  58  86 121 152 187 238 297 353
#     4  11  24  37  52  78 112 147 184 227 272 328
#     4  10  21  37  57  82 110 141 180 230 283 332
#     4  10  19  32  56  85 116 158 205 252 302 359
#     4  10  22  38  58  83 113 148 189 233 281 342
#     4   9  19  37  59  81 109 149 192 233 280 337
#     4  10  20  36  60  86 115 155 198 242 297 359
#
# _framework density 19.928377999999999
#
# number of rings (size 3 to 8) (size 9 to 14) (size 15 to 20)
#    0.000    2.167    1.667    1.000    1.167    5.333 
#    0.000    1.667    0.000    1.000    0.000    1.167 
#    0.000    0.000    0.000    0.000    0.000    0.000 
#
# Total GULP energy -267803.459366 kJ/mol
# GULP energy per Si atom -5579.238737 kJ/mol
# Density = 1.988302 g / cm^3
# Si number density = 19.928378 Si / 1000 Ang^3
#
#
#
# Elastic Constant Matrix: (Units=GPa)
#
#
# Indices 1 2 3 4 5 6 
#
# 1 61.5760 41.1223 44.8798 0.0000 0.0000 0.0000
# 2 41.1223 87.8587 68.5349 0.0000 0.0000 0.0000
# 3 44.8798 68.5349 164.7142 0.0000 0.0000 0.0000
# 4 0.0000 0.0000 0.0000 2.8817 0.0000 0.0000
# 5 0.0000 0.0000 0.0000 0.0000 23.8643 0.0000
# 6 0.0000 0.0000 0.0000 0.0000 0.0000 3.3566
#
#
#
# Elastic Compliance Matrix: (Units=1/GPa)
#
#
# Indices 1 2 3 4 5 6 
#
# 1 0.024476 -0.009259 -0.002817 0.000000 0.000000 0.000000
# 2 -0.009259 0.020354 -0.005946 0.000000 0.000000 0.000000
# 3 -0.002817 -0.005946 0.009313 0.000000 0.000000 0.000000
# 4 0.000000 0.000000 0.000000 0.347014 0.000000 0.000000
# 5 0.000000 0.000000 0.000000 0.000000 0.041904 0.000000
# 6 0.000000 0.000000 0.000000 0.000000 0.000000 0.297923
#
#
# Mechanical properties :
#
#
# Convention : Reuss Voigt Hill
#
# Bulk Modulus (GPa) = 55.25026 69.24700 62.24863
# Shear Modulus (GPa) = 6.38521 16.66132 11.52326
#
# Velocity S-wave (km/s) = 1.79194 2.89461 2.40726
# Velocity P-wave (km/s) = 5.66268 6.78196 6.24744
#
# Compressibility (1/GPa) = 0.01809946
#
# Stress axis : x y z
#
# Youngs Moduli (GPa) = 40.85559 49.13049 107.38109
#
# Poissons Ratio (x) = 0.45491 0.30244
# Poissons Ratio (y) = 0.37829 0.63850
# Poissons Ratio (z) = 0.11507 0.29214
#
# Static dielectric constant tensor:
#      x y z
#    x 1.719740 0.000000 0.000000 
#    y 0.000000 1.734350 0.000000 
#    z 0.000000 0.000000 1.704800 
# 
# From -- ./inp_files/34241.got.cif
#   From: 2010.05.17/outbox.cif.g08.bks.cpg/sg47_18_cif.got.tgz:34241.got - 2010.06.03 20:15:42.
