data_PCOD9383325
_publ_section_title
;
Structure prediction by ZEFSAII (Michael W. Deem and Ramdas Pophale) SiO2 
 PCOD9383325
Probable space group: P M M M
;
_chemical_formula_sum "Si O2"
_cell_formula_units_Z 40
_cell_length_a 28.441529
_cell_length_b 9.279288
_cell_length_c 7.903669
_cell_angle_alpha 90.000000
_cell_angle_beta 90.000000
_cell_angle_gamma 90.000000
_cell_volume 2085.913708
_symmetry_space_group_name_H-M "P M M M"
_symmetry_group_IT_number 47
_symmetry_cell_setting 'orthorhombic'
loop_
_space_group_symop_operation_xyz
x,y,z
-x,-y,z
x,-y,-z
-x,y,-z
-x,-y,-z
x,y,-z
-x,y,z
x,-y,z
loop_
_atom_site_type_symbol
_atom_site_label
_atom_site_fract_x
_atom_site_fract_y
_atom_site_fract_z
Si Si1 0.779954 0.665767 0.798788
Si Si2 0.313523 0.164909 0.704633
Si Si3 0.500000 0.165998 0.293026
Si Si4 0.945891 0.676245 0.000000
Si Si5 0.882456 0.675513 0.313132
Si Si6 0.593593 0.665915 0.707022
O O1 0.771632 0.500000 0.742305
O O2 0.734711 0.759979 0.758058
O O3 0.828482 0.719895 0.717533
O O4 0.787632 0.663270 0.000000
O O5 0.314780 0.163872 0.500000
O O6 0.358905 0.254738 0.762996
O O7 0.315895 0.000000 0.763471
O O8 0.500000 0.166062 0.500000
O O9 0.547038 0.248751 0.239006
O O10 0.500000 0.000000 0.238663
O O11 0.917082 0.723621 0.834788
O O12 0.945915 0.500000 0.000000
O O13 0.000000 0.722454 0.000000
O O14 0.898087 0.718652 0.500000
O O15 0.881596 0.500000 0.306134
O O16 0.593625 0.666438 0.500000
O O17 0.592546 0.500000 0.761319
#
# Coordination Sequence:
#
# PCOD9383325 Si02
#       6
#     8   8   4   4   8   8
#     4  10  19  32  50  70  94 127 169 214 259 314
#     4  10  20  32  46  68  98 128 161 206 260 317
#     4   9  15  23  37  59  90 127 164 207 262 315
#     4   9  16  26  40  64 101 139 177 220 263 314
#     4   9  16  27  44  66  95 133 175 218 265 316
#     4   9  16  26  41  62  90 125 166 209 255 312
#
# _framework density 19.176248999999999
#
# number of rings (size 3 to 8) (size 9 to 14) (size 15 to 20)
#    0.000    2.600    1.000    2.100    0.000    6.400 
#    0.000    2.000    0.000    0.000    0.000    0.700 
#    0.000    7.200    0.000    4.200    0.000    4.000 
#
# Total GULP energy -223246.283981 kJ/mol
# GULP energy per Si atom -5581.157100 kJ/mol
# Density = 1.913260 g / cm^3
# Si number density = 19.176249 Si / 1000 Ang^3
#
#
#
# Elastic Constant Matrix: (Units=GPa)
#
#
# Indices 1 2 3 4 5 6 
#
# 1 187.1464 69.5899 59.3642 0.0000 0.0000 0.0000
# 2 69.5899 98.5374 24.5601 0.0000 0.0000 0.0000
# 3 59.3642 24.5601 72.2711 0.0000 0.0000 0.0000
# 4 0.0000 0.0000 0.0000 7.0926 0.0000 0.0000
# 5 0.0000 0.0000 0.0000 0.0000 25.7690 0.0000
# 6 0.0000 0.0000 0.0000 0.0000 0.0000 -8.2452
#
#
#
# Elastic Compliance Matrix: (Units=1/GPa)
#
#
# Indices 1 2 3 4 5 6 
#
# 1 0.008984 -0.004922 -0.005707 0.000000 0.000000 0.000000
# 2 -0.004922 0.013785 -0.000641 0.000000 0.000000 0.000000
# 3 -0.005707 -0.000641 0.018742 0.000000 0.000000 0.000000
# 4 0.000000 0.000000 0.000000 0.140993 0.000000 0.000000
# 5 0.000000 0.000000 0.000000 0.000000 0.038806 0.000000
# 6 0.000000 0.000000 0.000000 0.000000 0.000000 -0.121282
#
#
# Mechanical properties :
#
#
# Convention : Reuss Voigt Hill
#
# Bulk Modulus (GPa) = 52.71418 73.88702 63.30060
# Shear Modulus (GPa) = 38.79224 18.55266 28.67245
#
# Velocity S-wave (km/s) = 4.50258 3.11381 3.87098
# Velocity P-wave (km/s) = 7.38783 7.17927 7.28429
#
# Compressibility (1/GPa) = 0.01897023
#
# Stress axis : x y z
#
# Youngs Moduli (GPa) = 111.30894 72.54493 53.35536
#
# Poissons Ratio (x) = 0.35709 0.30449
# Poissons Ratio (y) = 0.54790 0.03421
# Poissons Ratio (z) = 0.63521 0.04651
#
# Static dielectric constant tensor:
#      x y z
#    x 1.631250 0.000000 0.000000 
#    y 0.000000 1.638400 0.000000 
#    z 0.000000 0.000000 1.702020 
# 
# From -- ./inp_files/13064.got.cif
#   From: 2010.05.17/outbox.cif.g08.bks.cpg/sg47_7_cif.got.tgz:13064.got - 2010.06.03 20:15:42.
