data_PCOD9383654
_publ_section_title
;
Structure prediction by ZEFSAII (Michael W. Deem and Ramdas Pophale) SiO2 
 PCOD9383654
Probable space group: P M M M
;
_chemical_formula_sum "Si O2"
_cell_formula_units_Z 52
_cell_length_a 18.159150
_cell_length_b 17.676389
_cell_length_c 7.395751
_cell_angle_alpha 90.000000
_cell_angle_beta 90.000000
_cell_angle_gamma 90.000000
_cell_volume 2373.948796
_symmetry_space_group_name_H-M "P M M M"
_symmetry_group_IT_number 47
_symmetry_cell_setting 'orthorhombic'
loop_
_space_group_symop_operation_xyz
x,y,z
-x,-y,z
x,-y,-z
-x,y,-z
-x,-y,-z
x,y,-z
-x,y,z
x,-y,z
loop_
_atom_site_type_symbol
_atom_site_label
_atom_site_fract_x
_atom_site_fract_y
_atom_site_fract_z
Si Si1 0.290163 0.087100 0.220827
Si Si2 0.144295 0.177839 0.221417
Si Si3 0.841575 0.654059 0.793693
Si Si4 0.584360 0.500000 0.720915
Si Si5 0.583731 0.801774 0.217104
Si Si6 0.672170 0.647585 0.286376
Si Si7 0.000000 0.086565 0.220486
Si Si8 0.913925 0.500000 0.779321
O O1 0.219484 0.136344 0.277543
O O2 0.364237 0.129817 0.280242
O O3 0.285591 0.000000 0.278599
O O4 0.289846 0.086849 0.000000
O O5 0.139351 0.264196 0.286747
O O6 0.073500 0.129975 0.276405
O O7 0.146245 0.179767 0.000000
O O8 0.753112 0.650870 0.796255
O O9 0.874563 0.576936 0.714544
O O10 0.869544 0.656543 0.000000
O O11 0.500000 0.500000 0.780264
O O12 0.583607 0.500000 0.500000
O O13 0.626682 0.424793 0.779568
O O14 0.500000 0.802099 0.285973
O O15 0.625584 0.723510 0.256938
O O16 0.579960 0.807761 0.000000
O O17 0.683655 0.638588 0.500000
O O18 0.000000 0.000000 0.280226
O O19 0.000000 0.086077 0.000000
O O20 0.000000 0.500000 0.733254
O O21 0.907857 0.500000 0.000000
#
# Coordination Sequence:
#
# PCOD9383654 Si02
#       8
#     8   8   8   4   8   8   4   4
#     4   9  16  28  47  71 101 136 172 210 255 308
#     4   9  16  26  44  69 101 136 166 205 255 305
#     4  10  19  33  52  75 105 138 173 213 258 310
#     4   9  19  34  51  73  98 125 162 208 254 303
#     4  10  20  34  52  77 108 138 172 216 265 316
#     4  11  21  35  56  77 101 135 176 217 260 312
#     4   9  16  24  38  69 106 132 161 207 261 307
#     4   9  19  32  51  81 112 141 174 215 264 320
#
# _framework density 21.904432
#
# number of rings (size 3 to 8) (size 9 to 14) (size 15 to 20)
#    0.000    2.385    1.538    1.846    1.077    3.077 
#    0.000    2.692    0.000    4.154    0.000    1.077 
#    0.000    0.615    0.000    0.000    0.000    0.000 
#
# Total GULP energy -290611.532285 kJ/mol
# GULP energy per Si atom -5588.683313 kJ/mol
# Density = 2.185458 g / cm^3
# Si number density = 21.904432 Si / 1000 Ang^3
#
#
#
# Elastic Constant Matrix: (Units=GPa)
#
#
# Indices 1 2 3 4 5 6 
#
# 1 166.0286 116.2594 -3.2352 0.0000 0.0000 0.0000
# 2 116.2594 250.9322 3.7945 0.0000 0.0000 0.0000
# 3 -3.2352 3.7945 76.8548 0.0000 0.0000 0.0000
# 4 0.0000 0.0000 0.0000-6365.4528 0.0000 0.0000
# 5 0.0000 0.0000 0.0000 0.0000 -117.5039 0.0000
# 6 0.0000 0.0000 0.0000 0.0000 0.0000 1.9918
#
#
#
# Elastic Compliance Matrix: (Units=1/GPa)
#
#
# Indices 1 2 3 4 5 6 
#
# 1 0.008941 -0.004151 0.000581 0.000000 0.000000 0.000000
# 2 -0.004151 0.005916 -0.000467 0.000000 0.000000 0.000000
# 3 0.000581 -0.000467 0.013059 0.000000 0.000000 0.000000
# 4 0.000000 0.000000 0.000000 -0.000157 0.000000 0.000000
# 5 0.000000 0.000000 0.000000 0.000000 -0.008510 0.000000
# 6 0.000000 0.000000 0.000000 0.000000 0.000000 0.502065
#
#
# Mechanical properties :
#
#
# Convention : Reuss Voigt Hill
#
# Bulk Modulus (GPa) = 50.39750 80.82810 65.61280
# Shear Modulus (GPa) = 9.32833 -1271.05984 -630.86576
#
# Velocity S-wave (km/s) = 2.06589 -24.11504 -16.98922
# Velocity P-wave (km/s) = 5.36175 27.17351 18.83681
#
# Compressibility (1/GPa) = 0.01984225
#
# Stress axis : x y z
#
# Youngs Moduli (GPa) = 111.83984 169.04485 76.57517
#
# Poissons Ratio (x) = 0.70177 -0.04452
# Poissons Ratio (y) = 0.46429 0.03575
# Poissons Ratio (z) = -0.06502 0.07891
#
# Static dielectric constant tensor:
#      x y z
#    x 1.742770 0.000000 0.000000 
#    y 0.000000 1.753200 0.000000 
#    z 0.000000 0.000000 1.843170 
# 
# From -- ./inp_files/9621.got.cif
#   From: 2010.05.17/outbox.cif.g08.bks.cpg/sg47_5_cif.got.tgz:9621.got - 2010.06.03 20:15:42.
