data_PCOD9383079
_publ_section_title
;
Structure prediction by ZEFSAII (Michael W. Deem and Ramdas Pophale) SiO2 
 PCOD9383079
Probable space group: P M M M
;
_chemical_formula_sum "Si O2"
_cell_formula_units_Z 64
_cell_length_a 18.178920
_cell_length_b 21.347174
_cell_length_c 7.561328
_cell_angle_alpha 90.000000
_cell_angle_beta 90.000000
_cell_angle_gamma 90.000000
_cell_volume 2934.313732
_symmetry_space_group_name_H-M "P M M M"
_symmetry_group_IT_number 47
_symmetry_cell_setting 'orthorhombic'
loop_
_space_group_symop_operation_xyz
x,y,z
-x,-y,z
x,-y,-z
-x,y,-z
-x,-y,-z
x,y,-z
-x,y,z
x,-y,z
loop_
_atom_site_type_symbol
_atom_site_label
_atom_site_fract_x
_atom_site_fract_y
_atom_site_fract_z
Si Si1 0.624971 0.432048 0.211563
Si Si2 0.373315 0.706334 0.709241
Si Si3 0.203808 0.701904 0.716956
Si Si4 0.201542 0.566694 0.707413
Si Si5 0.708462 0.071088 0.213044
Si Si6 0.121529 0.931505 0.294580
Si Si7 0.420940 0.158087 0.793431
Si Si8 0.080204 0.797409 0.283612
O O1 0.593270 0.500000 0.270892
O O2 0.594691 0.363420 0.259291
O O3 0.709359 0.431252 0.278996
O O4 0.626048 0.433548 0.000000
O O5 0.372078 0.715068 0.500000
O O6 0.288456 0.708828 0.774836
O O7 0.412917 0.767026 0.784242
O O8 0.205156 0.701354 0.500000
O O9 0.176326 0.633485 0.778190
O O10 0.148911 0.755903 0.775313
O O11 0.182680 0.565514 0.500000
O O12 0.178122 0.500000 0.786537
O O13 0.790276 0.077786 0.288341
O O14 0.650307 0.122272 0.279763
O O15 0.682959 0.000000 0.251457
O O16 0.716333 0.076638 0.000000
O O17 0.098881 0.934149 0.500000
O O18 0.087263 0.868643 0.218781
O O19 0.105357 0.000000 0.215634
O O20 0.500000 0.140288 0.714719
O O21 0.422486 0.140408 0.000000
O O22 0.083701 0.798667 0.500000
O O23 0.000000 0.771758 0.235502
#
# Coordination Sequence:
#
# PCOD9383079 Si02
#       8
#     8   8   8   8   8   8   8   8
#     4   9  16  26  43  69  98 123 151 193 241 283
#     4  10  19  31  49  70  94 126 161 196 234 280
#     4   8  14  24  39  60  84 113 149 186 225 268
#     4   8  13  22  37  58  85 115 147 186 232 279
#     4   9  18  33  53  75  97 123 155 189 229 280
#     4   9  17  29  46  68  92 117 148 189 233 274
#     4  10  21  35  50  70  97 126 155 191 233 275
#     4   9  16  25  39  61  89 119 151 189 231 274
#
# _framework density 21.810891999999999
#
# number of rings (size 3 to 8) (size 9 to 14) (size 15 to 20)
#    0.000    3.000    0.000    2.250    0.000    3.000 
#    0.000    2.500    0.000    1.125    0.000    9.625 
#    0.000    0.000    0.000   31.500    0.000   29.000 
#
# Total GULP energy -356762.461713 kJ/mol
# GULP energy per Si atom -5574.413464 kJ/mol
# Density = 2.176125 g / cm^3
# Si number density = 21.810892 Si / 1000 Ang^3
#
#
#
# Elastic Constant Matrix: (Units=GPa)
#
#
# Indices 1 2 3 4 5 6 
#
# 1 59.6396 32.2946 -1.7651 0.0000 0.0000 0.0000
# 2 32.2946 104.5273 -4.3395 0.0000 0.0000 0.0000
# 3 -1.7651 -4.3395 55.8851 0.0000 0.0000 0.0000
# 4 0.0000 0.0000 0.0000 9.2946 0.0000 0.0000
# 5 0.0000 0.0000 0.0000 0.0000 -0.0205 0.0000
# 6 0.0000 0.0000 0.0000 0.0000 0.0000 -27.9231
#
#
#
# Elastic Compliance Matrix: (Units=1/GPa)
#
#
# Indices 1 2 3 4 5 6 
#
# 1 0.020137 -0.006215 0.000153 0.000000 0.000000 0.000000
# 2 -0.006215 0.011516 0.000698 0.000000 0.000000 0.000000
# 3 0.000153 0.000698 0.017953 0.000000 0.000000 0.000000
# 4 0.000000 0.000000 0.000000 0.107590 0.000000 0.000000
# 5 0.000000 0.000000 0.000000 0.000000-48.744605 0.000000
# 6 0.000000 0.000000 0.000000 0.000000 0.000000 -0.035813
#
#
# Mechanical properties :
#
#
# Convention : Reuss Voigt Hill
#
# Bulk Modulus (GPa) = 25.72108 30.27023 27.99566
# Shear Modulus (GPa) = -0.10288 9.19433 4.54573
#
# Velocity S-wave (km/s) = -0.21742 2.05539 1.44523
# Velocity P-wave (km/s) = 3.42861 4.42057 3.95581
#
# Compressibility (1/GPa) = 0.03887861
#
# Stress axis : x y z
#
# Youngs Moduli (GPa) = 49.65863 86.83484 55.70130
#
# Poissons Ratio (x) = 0.53970 -0.00855
# Poissons Ratio (y) = 0.30864 -0.03888
# Poissons Ratio (z) = -0.00762 -0.06060
#
# Static dielectric constant tensor:
#      x y z
#    x 1.768730 0.000000 0.000000 
#    y 0.000000 1.840250 0.000000 
#    z 0.000000 0.000000 1.812590 
# 
# From -- ./inp_files/10051.got.cif
#   From: 2010.05.17/outbox.cif.g08.bks.cpg/sg47_6_cif.got.tgz:10051.got - 2010.06.03 20:15:42.
