data_PCOD9383308
_publ_section_title
;
Structure prediction by ZEFSAII (Michael W. Deem and Ramdas Pophale) SiO2 
 PCOD9383308
Probable space group: P M M M
;
_chemical_formula_sum "Si O2"
_cell_formula_units_Z 56
_cell_length_a 28.213734
_cell_length_b 7.412841
_cell_length_c 12.900437
_cell_angle_alpha 90.000000
_cell_angle_beta 90.000000
_cell_angle_gamma 90.000000
_cell_volume 2698.048018
_symmetry_space_group_name_H-M "P M M M"
_symmetry_group_IT_number 47
_symmetry_cell_setting 'orthorhombic'
loop_
_space_group_symop_operation_xyz
x,y,z
-x,-y,z
x,-y,-z
-x,y,-z
-x,-y,-z
x,y,-z
-x,y,z
x,-y,z
loop_
_atom_site_type_symbol
_atom_site_label
_atom_site_fract_x
_atom_site_fract_y
_atom_site_fract_z
Si Si1 0.737816 0.221392 0.227799
Si Si2 0.182685 0.782452 0.385896
Si Si3 0.870891 0.718182 0.000000
Si Si4 0.072285 0.291232 0.388111
Si Si5 0.550892 0.282960 0.379089
Si Si6 0.343856 0.211490 0.618738
Si Si7 0.948390 0.279490 0.837111
Si Si8 0.240415 0.789833 0.000000
O O1 0.784450 0.276707 0.292016
O O2 0.693449 0.282618 0.297639
O O3 0.740699 0.285149 0.109273
O O4 0.737585 0.000000 0.225239
O O5 0.202513 0.732901 0.500000
O O6 0.129327 0.713174 0.380217
O O7 0.180274 0.000000 0.382942
O O8 0.902680 0.777820 0.902091
O O9 0.816890 0.780278 0.000000
O O10 0.869297 0.500000 0.000000
O O11 0.059526 0.210884 0.500000
O O12 0.057165 0.500000 0.390279
O O13 0.054137 0.213855 0.280896
O O14 0.550800 0.226358 0.500000
O O15 0.500000 0.222227 0.333963
O O16 0.550683 0.500000 0.376912
O O17 0.602271 0.226199 0.339923
O O18 0.341509 0.286210 0.500000
O O19 0.332895 0.000000 0.608747
O O20 0.946724 0.500000 0.836644
O O21 0.000000 0.229956 0.880533
O O22 0.253862 0.000000 0.000000
#
# Coordination Sequence:
#
# PCOD9383308 Si02
#       8
#     8   8   4   8   8   8   8   4
#     4   9  17  29  44  63  85 111 144 177 211 252
#     4   9  16  27  44  62  82 111 142 169 202 249
#     4  10  19  32  50  68  84 103 135 178 213 245
#     4   9  17  28  42  62  86 108 133 167 203 241
#     4   8  14  25  40  60  90 124 151 175 210 258
#     4   9  16  26  42  64  89 115 145 182 216 246
#     4   9  17  29  46  66  85 107 135 167 206 250
#     4  10  20  33  49  65  85 115 144 171 209 258
#
# _framework density 20.755745999999998
#
# number of rings (size 3 to 8) (size 9 to 14) (size 15 to 20)
#    0.000    3.000    0.000    1.929    0.000    3.143 
#    0.000    4.286    0.000    5.571    0.000    2.500 
#    0.000    4.000    0.000    0.000    0.000    0.000 
#
# Total GULP energy -312303.483395 kJ/mol
# GULP energy per Si atom -5576.847918 kJ/mol
# Density = 2.070851 g / cm^3
# Si number density = 20.755746 Si / 1000 Ang^3
#
#
#
# Elastic Constant Matrix: (Units=GPa)
#
#
# Indices 1 2 3 4 5 6 
#
# 1 129.8953 -4.1825 69.7044 0.0000 0.0000 0.0000
# 2 -4.1825 66.8282 9.0314 0.0000 0.0000 0.0000
# 3 69.7044 9.0314 150.9535 0.0000 0.0000 0.0000
# 4 0.0000 0.0000 0.0000 -3.3035 0.0000 0.0000
# 5 0.0000 0.0000 0.0000 0.0000 12.8489 0.0000
# 6 0.0000 0.0000 0.0000 0.0000 0.0000 5.5141
#
#
#
# Elastic Compliance Matrix: (Units=1/GPa)
#
#
# Indices 1 2 3 4 5 6 
#
# 1 0.010346 0.001304 -0.004855 0.000000 0.000000 0.000000
# 2 0.001304 0.015250 -0.001514 0.000000 0.000000 0.000000
# 3 -0.004855 -0.001514 0.008957 0.000000 0.000000 0.000000
# 4 0.000000 0.000000 0.000000 -0.302713 0.000000 0.000000
# 5 0.000000 0.000000 0.000000 0.000000 0.077828 0.000000
# 6 0.000000 0.000000 0.000000 0.000000 0.000000 0.181352
#
#
# Mechanical properties :
#
#
# Convention : Reuss Voigt Hill
#
# Bulk Modulus (GPa) = 40.94834 55.19820 48.07327
# Shear Modulus (GPa) = 538.07041 21.22015 279.64528
#
# Velocity S-wave (km/s) = 16.11838 3.20093 11.61998
# Velocity P-wave (km/s) = 19.13568 6.34926 14.25636
#
# Compressibility (1/GPa) = 0.02442101
#
# Stress axis : x y z
#
# Youngs Moduli (GPa) = 96.65599 65.57375 111.64226
#
# Poissons Ratio (x) = -0.08549 0.54206
# Poissons Ratio (y) = -0.12601 0.16907
# Poissons Ratio (z) = 0.46930 0.09930
#
# Static dielectric constant tensor:
#      x y z
#    x 1.741560 0.000000 0.000000 
#    y 0.000000 1.787880 0.000000 
#    z 0.000000 0.000000 1.758550 
# 
# From -- ./inp_files/19618.got.cif
#   From: 2010.05.17/outbox.cif.g08.bks.cpg/sg47_10_cif.got.tgz:19618.got - 2010.06.03 20:15:42.
