data_PCOD9383478
_publ_section_title
;
Structure prediction by ZEFSAII (Michael W. Deem and Ramdas Pophale) SiO2 
 PCOD9383478
Probable space group: P M M M
;
_chemical_formula_sum "Si O2"
_cell_formula_units_Z 56
_cell_length_a 19.340600
_cell_length_b 14.384114
_cell_length_c 10.729974
_cell_angle_alpha 90.000000
_cell_angle_beta 90.000000
_cell_angle_gamma 90.000000
_cell_volume 2985.050818
_symmetry_space_group_name_H-M "P M M M"
_symmetry_group_IT_number 47
_symmetry_cell_setting 'orthorhombic'
loop_
_space_group_symop_operation_xyz
x,y,z
-x,-y,z
x,-y,-z
-x,y,-z
-x,-y,-z
x,y,-z
-x,y,z
x,-y,z
loop_
_atom_site_type_symbol
_atom_site_label
_atom_site_fract_x
_atom_site_fract_y
_atom_site_fract_z
Si Si1 0.176618 0.309824 0.136941
Si Si2 0.073011 0.111235 0.638981
Si Si3 0.328522 0.389641 0.140748
Si Si4 0.580921 0.703444 0.355522
Si Si5 0.351709 0.102637 0.644512
Si Si6 0.790108 0.892802 0.796204
Si Si7 0.082515 0.388980 0.355477
O O1 0.248081 0.364649 0.159212
O O2 0.199269 0.201636 0.128131
O O3 0.124873 0.333039 0.250505
O O4 0.148194 0.336933 0.000000
O O5 0.074929 0.150554 0.500000
O O6 0.145987 0.121380 0.702657
O O7 0.000000 0.143324 0.699477
O O8 0.067314 0.000000 0.629940
O O9 0.336965 0.500000 0.142888
O O10 0.373536 0.346708 0.251458
O O11 0.347532 0.356305 0.000000
O O12 0.599955 0.680365 0.500000
O O13 0.500000 0.683117 0.340032
O O14 0.595853 0.813199 0.338519
O O15 0.328647 0.105713 0.500000
O O16 0.283877 0.113012 0.729022
O O17 0.381807 0.000000 0.667195
O O18 0.795884 0.000000 0.846560
O O19 0.102441 0.368382 0.500000
O O20 0.093874 0.500000 0.336729
O O21 0.000000 0.372556 0.344541
#
# Coordination Sequence:
#
# PCOD9383478 Si02
#       7
#     8   8   8   8   8   8   8
#     4  11  23  38  58  86 119 154 195 242 290 344
#     4   8  14  25  42  67 100 137 179 228 276 318
#     4  10  22  41  62  84 113 150 192 237 288 349
#     4  10  21  37  59  89 121 150 185 233 288 346
#     4   9  17  31  53  82 115 152 194 237 282 335
#     4  10  19  32  52  76 107 152 198 237 279 334
#     4   9  20  40  64  90 119 151 192 244 299 352
#
# _framework density 18.760149999999999
#
# number of rings (size 3 to 8) (size 9 to 14) (size 15 to 20)
#    0.000    2.429    1.429    1.714    0.000    6.571 
#    0.000    5.000    0.000    0.429    0.000    4.000 
#    0.000    0.000    0.000    0.000    0.000    0.000 
#
# Total GULP energy -311763.403298 kJ/mol
# GULP energy per Si atom -5567.203630 kJ/mol
# Density = 1.871745 g / cm^3
# Si number density = 18.760150 Si / 1000 Ang^3
#
#
#
# Elastic Constant Matrix: (Units=GPa)
#
#
# Indices 1 2 3 4 5 6 
#
# 1 51.8763 14.2114 53.0220 0.0000 0.0000 0.0000
# 2 14.2114 91.8485 48.1439 0.0000 0.0000 0.0000
# 3 53.0220 48.1439 122.2879 0.0000 0.0000 0.0000
# 4 0.0000 0.0000 0.0000 9.4297 0.0000 0.0000
# 5 0.0000 0.0000 0.0000 0.0000 18.2582 0.0000
# 6 0.0000 0.0000 0.0000 0.0000 0.0000 26.2788
#
#
#
# Elastic Compliance Matrix: (Units=1/GPa)
#
#
# Indices 1 2 3 4 5 6 
#
# 1 0.035363 0.003232 -0.016606 0.000000 0.000000 0.000000
# 2 0.003232 0.014014 -0.006919 0.000000 0.000000 0.000000
# 3 -0.016606 -0.006919 0.018101 0.000000 0.000000 0.000000
# 4 0.000000 0.000000 0.000000 0.106047 0.000000 0.000000
# 5 0.000000 0.000000 0.000000 0.000000 0.054770 0.000000
# 6 0.000000 0.000000 0.000000 0.000000 0.000000 0.038053
#
#
# Mechanical properties :
#
#
# Convention : Reuss Voigt Hill
#
# Bulk Modulus (GPa) = 37.18191 55.19638 46.18914
# Shear Modulus (GPa) = 15.82789 20.83570 18.33179
#
# Velocity S-wave (km/s) = 2.90780 3.33624 3.12936
# Velocity P-wave (km/s) = 5.58000 6.65783 6.14260
#
# Compressibility (1/GPa) = 0.02689480
#
# Stress axis : x y z
#
# Youngs Moduli (GPa) = 28.27775 71.35763 55.24493
#
# Poissons Ratio (x) = -0.23066 0.91738
# Poissons Ratio (y) = -0.09141 0.38222
# Poissons Ratio (z) = 0.46957 0.49370
#
# Static dielectric constant tensor:
#      x y z
#    x 1.614600 0.000000 0.000000 
#    y 0.000000 1.703830 0.000000 
#    z 0.000000 0.000000 1.654730 
# 
# From -- ./inp_files/7324.got.cif
#   From: 2010.05.17/outbox.cif.g08.bks.cpg/sg47_4_cif.got.tgz:7324.got - 2010.06.03 20:15:42.
