data_PCOD9383864
_publ_section_title
;
Structure prediction by ZEFSAII (Michael W. Deem and Ramdas Pophale) SiO2 
 PCOD9383864
Probable space group: P M M M
;
_chemical_formula_sum "Si O2"
_cell_formula_units_Z 52
_cell_length_a 7.663082
_cell_length_b 28.905650
_cell_length_c 12.405748
_cell_angle_alpha 90.000000
_cell_angle_beta 90.000000
_cell_angle_gamma 90.000000
_cell_volume 2747.952160
_symmetry_space_group_name_H-M "P M M M"
_symmetry_group_IT_number 47
_symmetry_cell_setting 'orthorhombic'
loop_
_space_group_symop_operation_xyz
x,y,z
-x,-y,z
x,-y,-z
-x,y,-z
-x,-y,-z
x,y,-z
-x,y,z
x,-y,z
loop_
_atom_site_type_symbol
_atom_site_label
_atom_site_fract_x
_atom_site_fract_y
_atom_site_fract_z
Si Si1 0.205859 0.639699 0.234649
Si Si2 0.794416 0.723886 0.378400
Si Si3 0.702381 0.000000 0.869146
Si Si4 0.795359 0.350157 0.000000
Si Si5 0.701312 0.194378 0.224717
Si Si6 0.285395 0.898731 0.125735
Si Si7 0.711062 0.552074 0.375939
Si Si8 0.796099 0.760730 0.000000
O O1 0.280468 0.682512 0.304205
O O2 0.281735 0.634730 0.114583
O O3 0.222892 0.592689 0.300718
O O4 0.000000 0.650457 0.219283
O O5 0.721574 0.725317 0.500000
O O6 0.779871 0.771978 0.314157
O O7 0.000000 0.713963 0.388782
O O8 0.776059 0.050171 0.839218
O O9 0.500000 0.000000 0.834174
O O10 0.702431 0.000000 0.000000
O O11 0.786488 0.294519 0.000000
O O12 0.000000 0.364714 0.000000
O O13 0.500000 0.188813 0.254405
O O14 0.774944 0.143308 0.200558
O O15 0.714081 0.219632 0.108826
O O16 0.500000 0.898975 0.126063
O O17 0.235927 0.890821 0.000000
O O18 0.765287 0.560011 0.500000
O O19 0.500000 0.553032 0.373872
O O20 0.766039 0.500000 0.345013
O O21 0.000000 0.773716 0.000000
#
# Coordination Sequence:
#
# PCOD9383864 Si02
#       8
#     8   8   4   4   8   8   8   4
#     4  10  19  34  55  77  98 126 164 202 235 278
#     4  10  21  36  52  71  97 131 169 204 243 296
#     4   7  10  18  34  56  87 126 157 185 234 291
#     4   9  18  33  52  72  98 129 162 196 233 278
#     4  11  20  30  47  74 103 127 161 207 249 291
#     4   8  13  22  37  62  95 125 155 194 239 287
#     4   9  19  36  55  75 101 131 162 200 247 291
#     4  11  19  33  51  67  97 139 173 198 234 289
#
# _framework density 18.923182000000001
#
# number of rings (size 3 to 8) (size 9 to 14) (size 15 to 20)
#    0.000    2.538    2.308    2.538    0.000    2.154 
#    0.000    1.538    0.000    2.308    0.000    3.231 
#    0.000    4.308    0.000    0.000    0.000    0.000 
#
# Total GULP energy -289871.013194 kJ/mol
# GULP energy per Si atom -5574.442561 kJ/mol
# Density = 1.888011 g / cm^3
# Si number density = 18.923182 Si / 1000 Ang^3
#
#
#
# Elastic Constant Matrix: (Units=GPa)
#
#
# Indices 1 2 3 4 5 6 
#
# 1 31.9349 -1.8135 4.0835 0.0000 0.0000 0.0000
# 2 -1.8135 123.7457 78.5760 0.0000 0.0000 0.0000
# 3 4.0835 78.5760 136.0421 0.0000 0.0000 0.0000
# 4 0.0000 0.0000 0.0000 9.3287 0.0000 0.0000
# 5 0.0000 0.0000 0.0000 0.0000 7.6034 0.0000
# 6 0.0000 0.0000 0.0000 0.0000 0.0000 18.6083
#
#
#
# Elastic Compliance Matrix: (Units=1/GPa)
#
#
# Indices 1 2 3 4 5 6 
#
# 1 0.031655 0.001685 -0.001924 0.000000 0.000000 0.000000
# 2 0.001685 0.012851 -0.007473 0.000000 0.000000 0.000000
# 3 -0.001924 -0.007473 0.011725 0.000000 0.000000 0.000000
# 4 0.000000 0.000000 0.000000 0.107196 0.000000 0.000000
# 5 0.000000 0.000000 0.000000 0.000000 0.131520 0.000000
# 6 0.000000 0.000000 0.000000 0.000000 0.000000 0.053739
#
#
# Mechanical properties :
#
#
# Convention : Reuss Voigt Hill
#
# Bulk Modulus (GPa) = 24.50480 50.37943 37.44212
# Shear Modulus (GPa) = 13.23757 21.16653 17.20205
#
# Velocity S-wave (km/s) = 2.64776 3.34810 3.01831
# Velocity P-wave (km/s) = 4.72496 6.45192 5.65476
#
# Compressibility (1/GPa) = 0.04080833
#
# Stress axis : x y z
#
# Youngs Moduli (GPa) = 31.59024 77.81420 85.28903
#
# Poissons Ratio (x) = -0.13115 0.16406
# Poissons Ratio (y) = -0.05324 0.63738
# Poissons Ratio (z) = 0.06077 0.58152
#
# Static dielectric constant tensor:
#      x y z
#    x 1.709610 0.000000 0.000000 
#    y 0.000000 1.670770 0.000000 
#    z 0.000000 0.000000 1.655300 
# 
# From -- ./inp_files/15711.got.cif
#   From: 2010.05.17/outbox.cif.g08.bks.cpg/sg47_8_cif.got.tgz:15711.got - 2010.06.03 20:15:42.
