data_PCOD9383802
_publ_section_title
;
Structure prediction by ZEFSAII (Michael W. Deem and Ramdas Pophale) SiO2 
 PCOD9383802
Probable space group: P M M M
;
_chemical_formula_sum "Si O2"
_cell_formula_units_Z 56
_cell_length_a 7.879751
_cell_length_b 22.029485
_cell_length_c 15.771705
_cell_angle_alpha 90.000000
_cell_angle_beta 90.000000
_cell_angle_gamma 90.000000
_cell_volume 2737.760692
_symmetry_space_group_name_H-M "P M M M"
_symmetry_group_IT_number 47
_symmetry_cell_setting 'orthorhombic'
loop_
_space_group_symop_operation_xyz
x,y,z
-x,-y,z
x,-y,-z
-x,y,-z
-x,-y,-z
x,y,-z
-x,y,z
x,-y,z
loop_
_atom_site_type_symbol
_atom_site_label
_atom_site_fract_x
_atom_site_fract_y
_atom_site_fract_z
Si Si1 0.792478 0.000000 0.596482
Si Si2 0.703819 0.330018 0.269111
Si Si3 0.200353 0.730286 0.907377
Si Si4 0.704887 0.237598 0.591176
Si Si5 0.801304 0.123602 0.677304
Si Si6 0.304160 0.000000 0.898612
Si Si7 0.707032 0.570463 0.403582
Si Si8 0.307072 0.134700 0.859528
O O1 0.738738 0.058942 0.646714
O O2 0.733587 0.000000 0.500000
O O3 0.000000 0.000000 0.594526
O O4 0.500000 0.331995 0.273331
O O5 0.742424 0.310482 0.172699
O O6 0.767615 0.275962 0.329622
O O7 0.763309 0.389359 0.322574
O O8 0.231753 0.802882 0.895725
O O9 0.000000 0.722269 0.910165
O O10 0.273262 0.713009 0.000000
O O11 0.752155 0.263798 0.500000
O O12 0.500000 0.235534 0.594610
O O13 0.776005 0.170714 0.602136
O O14 0.699372 0.144468 0.758974
O O15 0.000000 0.120600 0.700175
O O16 0.230063 0.933431 0.873465
O O17 0.500000 0.000000 0.866076
O O18 0.305802 0.000000 0.000000
O O19 0.760077 0.589327 0.500000
O O20 0.500000 0.573443 0.404701
O O21 0.754883 0.500000 0.393123
O O22 0.500000 0.130937 0.891522
#
# Coordination Sequence:
#
# PCOD9383802 Si02
#       8
#     4   8   8   8   8   4   8   8
#     4   9  19  34  49  67  94 133 180 224 267 319
#     4  10  19  33  56  84 114 149 186 225 270 322
#     4  11  24  40  57  79 109 145 187 236 286 336
#     4  10  20  33  50  76 109 141 176 220 268 318
#     4  11  21  34  52  72  99 136 178 222 269 322
#     4   9  19  34  53  77 100 125 164 218 281 347
#     4   8  14  27  52  89 128 159 186 220 266 319
#     4  11  21  36  57  79 104 135 174 224 283 343
#
# _framework density 20.454674000000001
#
# number of rings (size 3 to 8) (size 9 to 14) (size 15 to 20)
#    0.000    2.000    1.429    3.429    0.000    4.286 
#    0.000    2.143    0.000    7.286    0.000    4.000 
#    0.000    0.000    0.000    0.000    0.000    0.000 
#
# Total GULP energy -312167.821522 kJ/mol
# GULP energy per Si atom -5574.425384 kJ/mol
# Density = 2.040812 g / cm^3
# Si number density = 20.454674 Si / 1000 Ang^3
#
#
#
# Elastic Constant Matrix: (Units=GPa)
#
#
# Indices 1 2 3 4 5 6 
#
# 1 26.4419 8.5701 12.6521 0.0000 0.0000 0.0000
# 2 8.5701 128.2499 65.9570 0.0000 0.0000 0.0000
# 3 12.6521 65.9570 162.7994 0.0000 0.0000 0.0000
# 4 0.0000 0.0000 0.0000 15.1332 0.0000 0.0000
# 5 0.0000 0.0000 0.0000 0.0000 174.0698 0.0000
# 6 0.0000 0.0000 0.0000 0.0000 0.0000 -70.9525
#
#
#
# Elastic Compliance Matrix: (Units=1/GPa)
#
#
# Indices 1 2 3 4 5 6 
#
# 1 0.039461 -0.001339 -0.002524 0.000000 0.000000 0.000000
# 2 -0.001339 0.009895 -0.003905 0.000000 0.000000 0.000000
# 3 -0.002524 -0.003905 0.007921 0.000000 0.000000 0.000000
# 4 0.000000 0.000000 0.000000 0.066080 0.000000 0.000000
# 5 0.000000 0.000000 0.000000 0.000000 0.005745 0.000000
# 6 0.000000 0.000000 0.000000 0.000000 0.000000 -0.014094
#
#
# Mechanical properties :
#
#
# Convention : Reuss Voigt Hill
#
# Bulk Modulus (GPa) = 23.95754 54.64995 39.30375
# Shear Modulus (GPa) = 34.61259 39.00425 36.80842
#
# Velocity S-wave (km/s) = 4.11805 4.37150 4.24667
# Velocity P-wave (km/s) = 5.86081 7.22880 6.58045
#
# Compressibility (1/GPa) = 0.04174051
#
# Stress axis : x y z
#
# Youngs Moduli (GPa) = 25.34178 101.06200 126.25114
#
# Poissons Ratio (x) = 0.13528 0.31871
# Poissons Ratio (y) = 0.03392 0.49299
# Poissons Ratio (z) = 0.06397 0.39463
#
# Static dielectric constant tensor:
#      x y z
#    x 1.748990 0.000000 0.000000 
#    y 0.000000 1.748400 0.000000 
#    z 0.000000 0.000000 1.751510 
# 
# From -- ./inp_files/21621.got.cif
#   From: 2010.05.17/outbox.cif.g08.bks.cpg/sg47_11_cif.got.tgz:21621.got - 2010.06.03 20:15:42.
