data_PCOD9383147
_publ_section_title
;
Structure prediction by ZEFSAII (Michael W. Deem and Ramdas Pophale) SiO2 
 PCOD9383147
Probable space group: P M M M
;
_chemical_formula_sum "Si O2"
_cell_formula_units_Z 44
_cell_length_a 18.285940
_cell_length_b 7.858755
_cell_length_c 18.600300
_cell_angle_alpha 90.000000
_cell_angle_beta 90.000000
_cell_angle_gamma 90.000000
_cell_volume 2672.950948
_symmetry_space_group_name_H-M "P M M M"
_symmetry_group_IT_number 47
_symmetry_cell_setting 'orthorhombic'
loop_
_space_group_symop_operation_xyz
x,y,z
-x,-y,z
x,-y,-z
-x,y,-z
-x,-y,-z
x,y,-z
-x,y,z
x,-y,z
loop_
_atom_site_type_symbol
_atom_site_label
_atom_site_fract_x
_atom_site_fract_y
_atom_site_fract_z
Si Si1 0.588415 0.309904 0.419282
Si Si2 0.735170 0.000000 0.267288
Si Si3 0.914122 0.794456 0.919351
Si Si4 0.914293 0.697937 0.628591
Si Si5 0.586397 0.000000 0.686370
Si Si6 0.811037 0.000000 0.579918
Si Si7 0.833966 0.690506 0.223132
O O1 0.614331 0.267531 0.500000
O O2 0.500000 0.317528 0.423136
O O3 0.614894 0.500000 0.400741
O O4 0.602951 0.165894 0.361822
O O5 0.773749 0.165994 0.235388
O O6 0.648738 0.000000 0.253947
O O7 0.755436 0.000000 0.352848
O O8 0.870458 0.713202 0.854270
O O9 0.000000 0.752516 0.912825
O O10 0.907965 0.000000 0.913841
O O11 0.890221 0.745229 0.000000
O O12 0.900669 0.500000 0.608172
O O13 0.893937 0.713959 0.713304
O O14 0.000000 0.734009 0.617099
O O15 0.862641 0.833734 0.589507
O O16 0.500000 0.000000 0.705312
O O17 0.778425 0.000000 0.500000
O O18 0.804312 0.500000 0.231318
#
# Coordination Sequence:
#
# PCOD9383147 Si02
#       7
#     8   4   8   8   4   4   8
#     4   8  14  25  42  66  93 115 137 173 227 292
#     4  10  22  37  49  66  93 123 158 201 247 295
#     4   9  17  29  48  77 111 141 167 198 232 263
#     4   9  18  31  47  67  88 116 159 204 239 274
#     4  10  19  31  50  70  88 114 151 196 244 297
#     4  10  21  34  46  62  86 118 153 195 250 297
#     4  10  19  33  51  69  96 134 168 195 231 283
#
# _framework density 16.461207999999999
#
# number of rings (size 3 to 8) (size 9 to 14) (size 15 to 20)
#    0.000    2.727    0.909    2.182    0.000    5.091 
#    0.000    1.818    0.000    0.000    0.000    0.000 
#    0.000    1.455    0.000    1.636    0.000    0.000 
#
# Total GULP energy -245270.350306 kJ/mol
# GULP energy per Si atom -5574.326143 kJ/mol
# Density = 1.642374 g / cm^3
# Si number density = 16.461208 Si / 1000 Ang^3
#
#
#
# Elastic Constant Matrix: (Units=GPa)
#
#
# Indices 1 2 3 4 5 6 
#
# 1 61.6452 31.8866 12.6628 0.0000 0.0000 0.0000
# 2 31.8866 70.4758 21.0936 0.0000 0.0000 0.0000
# 3 12.6628 21.0936 69.1046 0.0000 0.0000 0.0000
# 4 0.0000 0.0000 0.0000 8.9564 0.0000 0.0000
# 5 0.0000 0.0000 0.0000 0.0000 8.3031 0.0000
# 6 0.0000 0.0000 0.0000 0.0000 0.0000 2.0312
#
#
#
# Elastic Compliance Matrix: (Units=1/GPa)
#
#
# Indices 1 2 3 4 5 6 
#
# 1 0.021248 -0.009298 -0.001055 0.000000 0.000000 0.000000
# 2 -0.009298 0.019684 -0.004305 0.000000 0.000000 0.000000
# 3 -0.001055 -0.004305 0.015978 0.000000 0.000000 0.000000
# 4 0.000000 0.000000 0.000000 0.111652 0.000000 0.000000
# 5 0.000000 0.000000 0.000000 0.000000 0.120437 0.000000
# 6 0.000000 0.000000 0.000000 0.000000 0.000000 0.492324
#
#
# Mechanical properties :
#
#
# Convention : Reuss Voigt Hill
#
# Bulk Modulus (GPa) = 36.23876 36.94571 36.59223
# Shear Modulus (GPa) = 6.09877 12.89699 9.49788
#
# Velocity S-wave (km/s) = 1.92691 2.80210 2.40466
# Velocity P-wave (km/s) = 5.19741 5.74124 5.47608
#
# Compressibility (1/GPa) = 0.02759477
#
# Stress axis : x y z
#
# Youngs Moduli (GPa) = 47.06325 50.80162 62.58522
#
# Poissons Ratio (x) = 0.47234 0.06606
# Poissons Ratio (y) = 0.43758 0.26941
# Poissons Ratio (z) = 0.04967 0.21869
#
# Static dielectric constant tensor:
#      x y z
#    x 1.532320 0.000000 0.000000 
#    y 0.000000 1.587910 0.000000 
#    z 0.000000 0.000000 1.548780 
# 
# From -- ./inp_files/24364.got.cif
#   From: 2010.05.17/outbox.cif.g08.bks.cpg/sg47_13_cif.got.tgz:24364.got - 2010.06.03 20:15:42.
