data_PCOD9383520
_publ_section_title
;
Structure prediction by ZEFSAII (Michael W. Deem and Ramdas Pophale) SiO2 
 PCOD9383520
Probable space group: P M M M
;
_chemical_formula_sum "Si O2"
_cell_formula_units_Z 64
_cell_length_a 21.087291
_cell_length_b 18.269931
_cell_length_c 8.308700
_cell_angle_alpha 90.000000
_cell_angle_beta 90.000000
_cell_angle_gamma 90.000000
_cell_volume 3201.037609
_symmetry_space_group_name_H-M "P M M M"
_symmetry_group_IT_number 47
_symmetry_cell_setting 'orthorhombic'
loop_
_space_group_symop_operation_xyz
x,y,z
-x,-y,z
x,-y,-z
-x,y,-z
-x,-y,-z
x,y,-z
-x,y,z
x,-y,z
loop_
_atom_site_type_symbol
_atom_site_label
_atom_site_fract_x
_atom_site_fract_y
_atom_site_fract_z
Si Si1 0.930637 0.615347 0.690298
Si Si2 0.794610 0.794949 0.195240
Si Si3 0.067855 0.217528 0.193978
Si Si4 0.428949 0.869956 0.688445
Si Si5 0.702718 0.920414 0.192259
Si Si6 0.427487 0.291015 0.187274
Si Si7 0.340418 0.420021 0.690816
Si Si8 0.206032 0.624139 0.807825
O O1 0.928194 0.601603 0.500000
O O2 0.931888 0.702601 0.725228
O O3 0.863345 0.592550 0.764731
O O4 0.000000 0.587965 0.749969
O O5 0.866094 0.820141 0.237487
O O6 0.742336 0.851279 0.257569
O O7 0.789388 0.709979 0.244965
O O8 0.789670 0.793348 0.000000
O O9 0.000000 0.181852 0.232319
O O10 0.069829 0.229466 0.000000
O O11 0.427086 0.887797 0.500000
O O12 0.500000 0.886412 0.750097
O O13 0.371300 0.909458 0.774167
O O14 0.418791 0.782863 0.711835
O O15 0.723184 0.000000 0.255335
O O16 0.712116 0.920766 0.000000
O O17 0.500000 0.316815 0.213217
O O18 0.377873 0.353812 0.228045
O O19 0.420611 0.270224 0.000000
O O20 0.350048 0.414791 0.500000
O O21 0.363206 0.500000 0.746719
O O22 0.265871 0.414273 0.728358
O O23 0.212866 0.621510 0.000000
#
# Coordination Sequence:
#
# PCOD9383520 Si02
#       8
#     8   8   8   8   8   8   8   8
#     4   9  16  26  43  70 103 133 163 208 266 322
#     4   8  15  28  46  70  97 126 165 210 254 300
#     4   8  13  23  41  64  91 125 165 209 256 306
#     4  10  21  37  57  79 103 132 167 211 262 313
#     4  10  20  33  50  72 101 138 176 215 260 312
#     4  10  21  38  61  86 110 137 172 214 257 306
#     4  11  24  39  55  78 110 145 178 214 257 306
#     4  10  19  32  53  76 100 135 178 223 266 312
#
# _framework density 19.993516
#
# number of rings (size 3 to 8) (size 9 to 14) (size 15 to 20)
#    0.000    2.500    0.000    3.375    0.000    5.000 
#    0.000    5.000    0.000    0.750    0.000    5.250 
#    0.000    0.000    0.000   32.625    0.000   30.250 
#
# Total GULP energy -356879.250251 kJ/mol
# GULP energy per Si atom -5576.238285 kJ/mol
# Density = 1.994801 g / cm^3
# Si number density = 19.993516 Si / 1000 Ang^3
#
#
#
# Elastic Constant Matrix: (Units=GPa)
#
#
# Indices 1 2 3 4 5 6 
#
# 1 76.8145 28.0029 -2.4451 0.0000 0.0000 0.0000
# 2 28.0029 55.5575 -0.0887 0.0000 0.0000 0.0000
# 3 -2.4451 -0.0887 12.7280 0.0000 0.0000 0.0000
# 4 0.0000 0.0000 0.0000 8.8916 0.0000 0.0000
# 5 0.0000 0.0000 0.0000 0.0000 23.0244 0.0000
# 6 0.0000 0.0000 0.0000 0.0000 0.0000 -31.7780
#
#
#
# Elastic Compliance Matrix: (Units=1/GPa)
#
#
# Indices 1 2 3 4 5 6 
#
# 1 0.016065 -0.008092 0.003030 0.000000 0.000000 0.000000
# 2 -0.008092 0.022076 -0.001401 0.000000 0.000000 0.000000
# 3 0.003030 -0.001401 0.079139 0.000000 0.000000 0.000000
# 4 0.000000 0.000000 0.000000 0.112466 0.000000 0.000000
# 5 0.000000 0.000000 0.000000 0.000000 0.043432 0.000000
# 6 0.000000 0.000000 0.000000 0.000000 0.000000 -0.031468
#
#
# Mechanical properties :
#
#
# Convention : Reuss Voigt Hill
#
# Bulk Modulus (GPa) = 9.58287 21.78204 15.68245
# Shear Modulus (GPa) = 17.27589 8.00301 12.63945
#
# Velocity S-wave (km/s) = 2.94270 2.00287 2.51704
# Velocity P-wave (km/s) = 4.04344 4.03322 4.03833
#
# Compressibility (1/GPa) = 0.10435291
#
# Stress axis : x y z
#
# Youngs Moduli (GPa) = 62.24737 45.29809 12.63600
#
# Poissons Ratio (x) = 0.36657 -0.03828
# Poissons Ratio (y) = 0.50373 0.01770
# Poissons Ratio (z) = -0.18860 0.06345
#
# Static dielectric constant tensor:
#      x y z
#    x 1.741010 0.000000 0.000000 
#    y 0.000000 1.709400 0.000000 
#    z 0.000000 0.000000 1.688150 
# 
# From -- ./inp_files/11632.got.cif
#   From: 2010.05.17/outbox.cif.g08.bks.cpg/sg47_6_cif.got.tgz:11632.got - 2010.06.03 20:15:42.
