data_PCOD9383432
_publ_section_title
;
Structure prediction by ZEFSAII (Michael W. Deem and Ramdas Pophale) SiO2 
 PCOD9383432
Probable space group: P M M M
;
_chemical_formula_sum "Si O2"
_cell_formula_units_Z 44
_cell_length_a 7.725197
_cell_length_b 14.451904
_cell_length_c 18.147796
_cell_angle_alpha 90.000000
_cell_angle_beta 90.000000
_cell_angle_gamma 90.000000
_cell_volume 2026.089006
_symmetry_space_group_name_H-M "P M M M"
_symmetry_group_IT_number 47
_symmetry_cell_setting 'orthorhombic'
loop_
_space_group_symop_operation_xyz
x,y,z
-x,-y,z
x,-y,-z
-x,y,-z
-x,-y,-z
x,y,-z
-x,y,z
x,-y,z
loop_
_atom_site_type_symbol
_atom_site_label
_atom_site_fract_x
_atom_site_fract_y
_atom_site_fract_z
Si Si1 0.806323 0.659457 0.306676
Si Si2 0.290471 0.895909 0.912403
Si Si3 0.697485 0.800739 0.415281
Si Si4 0.699382 0.696263 0.854957
Si Si5 0.787792 0.500000 0.415015
Si Si6 0.702544 0.500000 0.912314
Si Si7 0.195013 0.000000 0.588697
O O1 0.812425 0.749286 0.356943
O O2 0.705319 0.681260 0.232695
O O3 0.732932 0.585838 0.364806
O O4 0.000000 0.629181 0.285064
O O5 0.500000 0.897519 0.902998
O O6 0.228098 0.798630 0.875833
O O7 0.229718 0.000000 0.888082
O O8 0.254942 0.889352 0.000000
O O9 0.757507 0.788912 0.500000
O O10 0.500000 0.767866 0.411323
O O11 0.704768 0.907590 0.394072
O O12 0.500000 0.698466 0.881968
O O13 0.776833 0.599547 0.886313
O O14 0.728112 0.500000 0.500000
O O15 0.000000 0.500000 0.418614
O O16 0.500000 0.500000 0.886335
O O17 0.705137 0.500000 0.000000
O O18 0.181015 0.000000 0.500000
O O19 0.000000 0.000000 0.618706
#
# Coordination Sequence:
#
# PCOD9383432 Si02
#       7
#     8   8   8   8   4   4   4
#     4  11  22  36  54  76 106 143 180 222 273 333
#     4   8  14  27  50  78 104 134 177 224 264 309
#     4  10  20  35  55  79 106 137 178 227 275 322
#     4  10  19  32  51  77 110 141 174 220 275 333
#     4   9  19  36  57  77  96 129 182 234 276 323
#     4   9  17  30  53  83 108 135 174 223 280 338
#     4   9  17  31  53  79 105 135 172 215 264 317
#
# _framework density 21.716716000000002
#
# number of rings (size 3 to 8) (size 9 to 14) (size 15 to 20)
#    0.000    2.455    0.000    3.545    0.000    5.091 
#    1.636    1.364    0.000    6.000    0.000    1.273 
#    0.000    0.000    0.000    0.000    0.000    0.000 
#
# Total GULP energy -245089.304007 kJ/mol
# GULP energy per Si atom -5570.211455 kJ/mol
# Density = 2.166729 g / cm^3
# Si number density = 21.716716 Si / 1000 Ang^3
#
#
#
# Elastic Constant Matrix: (Units=GPa)
#
#
# Indices 1 2 3 4 5 6 
#
# 1 43.4283 6.6218 2.0421 0.0000 0.0000 0.0000
# 2 6.6218 201.6737 72.5883 0.0000 0.0000 0.0000
# 3 2.0421 72.5883 87.3193 0.0000 0.0000 0.0000
# 4 0.0000 0.0000 0.0000 64.5260 0.0000 0.0000
# 5 0.0000 0.0000 0.0000 0.0000 -67.7919 0.0000
# 6 0.0000 0.0000 0.0000 0.0000 0.0000 6.4143
#
#
#
# Elastic Compliance Matrix: (Units=1/GPa)
#
#
# Indices 1 2 3 4 5 6 
#
# 1 0.023143 -0.000806 0.000129 0.000000 0.000000 0.000000
# 2 -0.000806 0.007104 -0.005886 0.000000 0.000000 0.000000
# 3 0.000129 -0.005886 0.016343 0.000000 0.000000 0.000000
# 4 0.000000 0.000000 0.000000 0.015498 0.000000 0.000000
# 5 0.000000 0.000000 0.000000 0.000000 -0.014751 0.000000
# 6 0.000000 0.000000 0.000000 0.000000 0.000000 0.155902
#
#
# Mechanical properties :
#
#
# Convention : Reuss Voigt Hill
#
# Bulk Modulus (GPa) = 29.88447 54.99175 42.43811
# Shear Modulus (GPa) = 21.97613 17.37429 19.67521
#
# Velocity S-wave (km/s) = 3.18456 2.83157 3.01324
# Velocity P-wave (km/s) = 5.22617 6.00564 5.62941
#
# Compressibility (1/GPa) = 0.03346220
#
# Stress axis : x y z
#
# Youngs Moduli (GPa) = 43.20895 140.77237 61.18999
#
# Poissons Ratio (x) = 0.11351 -0.00790
# Poissons Ratio (y) = 0.03484 0.36019
# Poissons Ratio (z) = -0.00558 0.82864
#
# Static dielectric constant tensor:
#      x y z
#    x 1.883830 0.000000 0.000000 
#    y 0.000000 1.835970 0.000000 
#    z 0.000000 0.000000 1.671940 
# 
# From -- ./inp_files/26440.got.cif
#   From: 2010.05.17/outbox.cif.g08.bks.cpg/sg47_14_cif.got.tgz:26440.got - 2010.06.03 20:15:42.
