data_PCOD9383208
_publ_section_title
;
Structure prediction by ZEFSAII (Michael W. Deem and Ramdas Pophale) SiO2 
 PCOD9383208
Probable space group: P M M M
;
_chemical_formula_sum "Si O2"
_cell_formula_units_Z 64
_cell_length_a 7.647559
_cell_length_b 21.411714
_cell_length_c 17.791787
_cell_angle_alpha 90.000000
_cell_angle_beta 90.000000
_cell_angle_gamma 90.000000
_cell_volume 2913.357904
_symmetry_space_group_name_H-M "P M M M"
_symmetry_group_IT_number 47
_symmetry_cell_setting 'orthorhombic'
loop_
_space_group_symop_operation_xyz
x,y,z
-x,-y,z
x,-y,-z
-x,y,-z
-x,-y,-z
x,y,-z
-x,y,z
x,-y,z
loop_
_atom_site_type_symbol
_atom_site_label
_atom_site_fract_x
_atom_site_fract_y
_atom_site_fract_z
Si Si1 0.797528 0.293138 0.919021
Si Si2 0.201934 0.797783 0.381109
Si Si3 0.707682 0.933169 0.195094
Si Si4 0.702019 0.430982 0.883008
Si Si5 0.787907 0.067221 0.626483
Si Si6 0.704409 0.799188 0.790475
Si Si7 0.789526 0.430075 0.709737
Si Si8 0.214275 0.662818 0.418270
O O1 0.786764 0.368043 0.912942
O O2 0.719573 0.258309 0.847182
O O3 0.000000 0.275454 0.918508
O O4 0.719646 0.274717 0.000000
O O5 0.277369 0.865689 0.402202
O O6 0.205348 0.791016 0.290158
O O7 0.278947 0.733847 0.411787
O O8 0.000000 0.799145 0.405747
O O9 0.500000 0.934786 0.180348
O O10 0.739084 0.933145 0.285139
O O11 0.770702 0.864197 0.171878
O O12 0.780834 0.000000 0.167077
O O13 0.500000 0.430126 0.906402
O O14 0.774976 0.500000 0.902536
O O15 0.711701 0.425508 0.792642
O O16 0.000000 0.068244 0.621224
O O17 0.728958 0.000000 0.595002
O O18 0.500000 0.807953 0.772499
O O19 0.754909 0.500000 0.680823
O O20 0.726317 0.378638 0.651407
O O21 0.000000 0.423673 0.718602
O O22 0.261046 0.636932 0.500000
O O23 0.000000 0.663973 0.414285
#
# Coordination Sequence:
#
# PCOD9383208 Si02
#       8
#     8   8   8   8   8   8   8   8
#     4  11  24  39  54  73 100 134 168 201 237 281
#     4   9  16  27  45  66  90 123 160 199 243 290
#     4   8  14  25  42  67  97 124 153 194 244 293
#     4  10  21  37  58  82 105 128 156 195 242 291
#     4   8  13  21  35  58  86 114 148 192 240 287
#     4  10  19  31  51  76 100 128 163 205 249 293
#     4   9  17  30  50  74  98 125 157 194 236 283
#     4   9  17  28  43  65  92 123 161 202 240 279
#
# _framework density 21.967779
#
# number of rings (size 3 to 8) (size 9 to 14) (size 15 to 20)
#    0.000    2.750    0.000    1.875    0.000    3.750 
#    0.000    2.500    0.000    2.250    0.000    7.000 
#    0.000    0.000    0.000   20.250    0.000    9.500 
#
# Total GULP energy -356806.647701 kJ/mol
# GULP energy per Si atom -5575.103870 kJ/mol
# Density = 2.191778 g / cm^3
# Si number density = 21.967779 Si / 1000 Ang^3
#
#
#
# Elastic Constant Matrix: (Units=GPa)
#
#
# Indices 1 2 3 4 5 6 
#
# 1 47.0427 4.2638 -2.1612 0.0000 0.0000 0.0000
# 2 4.2638 113.7126 37.5726 0.0000 0.0000 0.0000
# 3 -2.1612 37.5726 69.8765 0.0000 0.0000 0.0000
# 4 0.0000 0.0000 0.0000 -31.2363 0.0000 0.0000
# 5 0.0000 0.0000 0.0000 0.0000 -7.5080 0.0000
# 6 0.0000 0.0000 0.0000 0.0000 0.0000 7.3481
#
#
#
# Elastic Compliance Matrix: (Units=1/GPa)
#
#
# Indices 1 2 3 4 5 6 
#
# 1 0.021431 -0.001244 0.001332 0.000000 0.000000 0.000000
# 2 -0.001244 0.010766 -0.005827 0.000000 0.000000 0.000000
# 3 0.001332 -0.005827 0.017486 0.000000 0.000000 0.000000
# 4 0.000000 0.000000 0.000000 -0.032014 0.000000 0.000000
# 5 0.000000 0.000000 0.000000 0.000000 -0.133192 0.000000
# 6 0.000000 0.000000 0.000000 0.000000 0.000000 0.136090
#
#
# Mechanical properties :
#
#
# Convention : Reuss Voigt Hill
#
# Bulk Modulus (GPa) = 26.17529 34.44247 30.30888
# Shear Modulus (GPa) = 111.65540 6.45119 59.05330
#
# Velocity S-wave (km/s) = 7.13703 1.71553 5.19039
# Velocity P-wave (km/s) = 8.93630 4.43133 7.05316
#
# Compressibility (1/GPa) = 0.03820397
#
# Stress axis : x y z
#
# Youngs Moduli (GPa) = 46.66098 92.88306 57.19000
#
# Poissons Ratio (x) = 0.11550 -0.07615
# Poissons Ratio (y) = 0.05803 0.33327
# Poissons Ratio (z) = -0.06213 0.54127
#
# Static dielectric constant tensor:
#      x y z
#    x 1.853020 0.000000 0.000000 
#    y 0.000000 1.864030 0.000000 
#    z 0.000000 0.000000 1.766650 
# 
# From -- ./inp_files/9917.got.cif
#   From: 2010.05.17/outbox.cif.g08.bks.cpg/sg47_5_cif.got.tgz:9917.got - 2010.06.03 20:15:42.
