data_PCOD9383585
_publ_section_title
;
Structure prediction by ZEFSAII (Michael W. Deem and Ramdas Pophale) SiO2 
 PCOD9383585
Probable space group: P M M M
;
_chemical_formula_sum "Si O2"
_cell_formula_units_Z 44
_cell_length_a 32.459566
_cell_length_b 7.796701
_cell_length_c 9.218953
_cell_angle_alpha 90.000000
_cell_angle_beta 90.000000
_cell_angle_gamma 90.000000
_cell_volume 2333.109861
_symmetry_space_group_name_H-M "P M M M"
_symmetry_group_IT_number 47
_symmetry_cell_setting 'orthorhombic'
loop_
_space_group_symop_operation_xyz
x,y,z
-x,-y,z
x,-y,-z
-x,y,-z
-x,-y,-z
x,y,-z
-x,y,z
x,-y,z
loop_
_atom_site_type_symbol
_atom_site_label
_atom_site_fract_x
_atom_site_fract_y
_atom_site_fract_z
Si Si1 0.000000 0.709994 0.166243
Si Si2 0.918646 0.292759 0.664870
Si Si3 0.546735 0.695306 0.176200
Si Si4 0.303650 0.000000 0.674110
Si Si5 0.607657 0.000000 0.176474
Si Si6 0.163600 0.796597 0.165773
Si Si7 0.745216 0.695453 0.173213
O O1 0.958467 0.767268 0.246046
O O2 0.000000 0.500000 0.168449
O O3 0.000000 0.764730 0.000000
O O4 0.920825 0.231447 0.500000
O O5 0.920162 0.500000 0.663562
O O6 0.875784 0.241727 0.737473
O O7 0.500000 0.740222 0.222345
O O8 0.555633 0.500000 0.222570
O O9 0.580572 0.833868 0.217997
O O10 0.546183 0.695387 0.000000
O O11 0.349029 0.000000 0.743378
O O12 0.279869 0.833445 0.735617
O O13 0.304548 0.000000 0.500000
O O14 0.613286 0.000000 0.000000
O O15 0.206301 0.709271 0.210826
O O16 0.171402 0.000000 0.166494
O O17 0.154426 0.742812 0.000000
O O18 0.731148 0.500000 0.195556
O O19 0.741980 0.734620 0.000000
#
# Coordination Sequence:
#
# PCOD9383585 Si02
#       7
#     4   8   8   4   4   8   8
#     4   9  17  31  52  75 102 139 184 230 272 320
#     4  10  20  33  51  78 111 144 178 218 271 335
#     4   8  14  26  48  81 115 144 184 243 301 344
#     4  12  26  41  57  83 124 163 197 244 298 359
#     4  10  19  32  54  80 110 150 197 241 288 345
#     4  10  20  36  59  84 110 138 176 228 282 337
#     4  10  21  41  68  90 111 146 195 249 300 352
#
# _framework density 18.85895
#
# number of rings (size 3 to 8) (size 9 to 14) (size 15 to 20)
#    0.000    2.273    0.909    3.000    0.000    6.182 
#    0.000    2.273    0.000    3.818    0.000    1.273 
#    0.000    0.000    0.000    0.000    0.000    0.000 
#
# Total GULP energy -245645.567345 kJ/mol
# GULP energy per Si atom -5582.853803 kJ/mol
# Density = 1.881603 g / cm^3
# Si number density = 18.858950 Si / 1000 Ang^3
#
#
#
# Elastic Constant Matrix: (Units=GPa)
#
#
# Indices 1 2 3 4 5 6 
#
# 1 162.2257 73.5613 86.1937 0.0000 0.0000 0.0000
# 2 73.5613 90.2443 52.8169 0.0000 0.0000 0.0000
# 3 86.1937 52.8169 95.5238 0.0000 0.0000 0.0000
# 4 0.0000 0.0000 0.0000 14.3339 0.0000 0.0000
# 5 0.0000 0.0000 0.0000 0.0000 -25.9308 0.0000
# 6 0.0000 0.0000 0.0000 0.0000 0.0000 3.3186
#
#
#
# Elastic Compliance Matrix: (Units=1/GPa)
#
#
# Indices 1 2 3 4 5 6 
#
# 1 0.013613 -0.005777 -0.009089 0.000000 0.000000 0.000000
# 2 -0.005777 0.018834 -0.005201 0.000000 0.000000 0.000000
# 3 -0.009089 -0.005201 0.021546 0.000000 0.000000 0.000000
# 4 0.000000 0.000000 0.000000 0.069765 0.000000 0.000000
# 5 0.000000 0.000000 0.000000 0.000000 -0.038564 0.000000
# 6 0.000000 0.000000 0.000000 0.000000 0.000000 0.301333
#
#
# Mechanical properties :
#
#
# Convention : Reuss Voigt Hill
#
# Bulk Modulus (GPa) = 72.15788 85.90418 79.03103
# Shear Modulus (GPa) = 11.59339 7.37246 9.48293
#
# Velocity S-wave (km/s) = 2.48209 1.97933 2.24483
# Velocity P-wave (km/s) = 6.82344 7.13256 6.97971
#
# Compressibility (1/GPa) = 0.01385850
#
# Stress axis : x y z
#
# Youngs Moduli (GPa) = 73.45848 53.09576 46.41247
#
# Poissons Ratio (x) = 0.30673 0.42186
# Poissons Ratio (y) = 0.42436 0.24139
# Poissons Ratio (z) = 0.66769 0.27615
#
# Static dielectric constant tensor:
#      x y z
#    x 1.622980 0.000000 0.000000 
#    y 0.000000 1.675680 0.000000 
#    z 0.000000 0.000000 1.632790 
# 
# From -- ./inp_files/13776.got.cif
#   From: 2010.05.17/outbox.cif.g08.bks.cpg/sg47_7_cif.got.tgz:13776.got - 2010.06.03 20:15:42.
