data_PCOD9383252
_publ_section_title
;
Structure prediction by ZEFSAII (Michael W. Deem and Ramdas Pophale) SiO2 
 PCOD9383252
Probable space group: P M M M
;
_chemical_formula_sum "Si O2"
_cell_formula_units_Z 52
_cell_length_a 9.161135
_cell_length_b 20.140876
_cell_length_c 16.020251
_cell_angle_alpha 90.000000
_cell_angle_beta 90.000000
_cell_angle_gamma 90.000000
_cell_volume 2955.949123
_symmetry_space_group_name_H-M "P M M M"
_symmetry_group_IT_number 47
_symmetry_cell_setting 'orthorhombic'
loop_
_space_group_symop_operation_xyz
x,y,z
-x,-y,z
x,-y,-z
-x,y,-z
-x,-y,-z
x,y,-z
-x,y,z
x,-y,z
loop_
_atom_site_type_symbol
_atom_site_label
_atom_site_fract_x
_atom_site_fract_y
_atom_site_fract_z
Si Si1 0.836709 0.500000 0.400083
Si Si2 0.664930 0.365754 0.634762
Si Si3 0.664533 0.688876 0.178693
Si Si4 0.175600 0.818827 0.235128
Si Si5 0.165128 0.572924 0.900464
Si Si6 0.323439 0.781608 0.406590
Si Si7 0.177374 0.923052 0.093892
O O1 0.843841 0.500000 0.500000
O O2 0.756436 0.567983 0.376297
O O3 0.000000 0.500000 0.364758
O O4 0.500000 0.377557 0.603732
O O5 0.658614 0.346896 0.731688
O O6 0.720505 0.296589 0.595172
O O7 0.500000 0.709242 0.155974
O O8 0.768197 0.751988 0.190109
O O9 0.730895 0.633318 0.119904
O O10 0.247742 0.817157 0.327660
O O11 0.221690 0.878205 0.172607
O O12 0.000000 0.818886 0.243229
O O13 0.214029 0.500000 0.869043
O O14 0.000000 0.584800 0.868340
O O15 0.156156 0.568648 0.000000
O O16 0.291906 0.807795 0.500000
O O17 0.500000 0.782738 0.394149
O O18 0.000000 0.921489 0.093205
O O19 0.221296 0.000000 0.103893
O O20 0.223860 0.900831 0.000000
#
# Coordination Sequence:
#
# PCOD9383252 Si02
#       7
#     4   8   8   8   8   8   8
#     4  11  23  33  43  65  92 115 146 195 253 304
#     4   9  19  34  49  65  87 120 162 203 246 301
#     4  10  21  35  50  70  98 131 169 208 251 307
#     4  10  19  31  52  82 109 134 171 218 265 308
#     4   9  19  35  52  70  93 123 163 213 267 316
#     4   9  18  34  54  73  98 136 177 216 261 314
#     4   8  15  30  53  81 112 144 175 207 249 305
#
# _framework density 17.591643000000001
#
# number of rings (size 3 to 8) (size 9 to 14) (size 15 to 20)
#    0.000    2.692    0.000    3.462    1.077    5.846 
#    0.000    2.308    0.000    3.692    0.000    7.538 
#    0.000    0.000    0.000    0.000    0.000    0.000 
#
# Total GULP energy -289589.916918 kJ/mol
# GULP energy per Si atom -5569.036864 kJ/mol
# Density = 1.755160 g / cm^3
# Si number density = 17.591643 Si / 1000 Ang^3
#
#
#
# Elastic Constant Matrix: (Units=GPa)
#
#
# Indices 1 2 3 4 5 6 
#
# 1 50.1715 33.9202 34.5937 0.0000 0.0000 0.0000
# 2 33.9202 84.7029 63.5349 0.0000 0.0000 0.0000
# 3 34.5937 63.5349 98.4129 0.0000 0.0000 0.0000
# 4 0.0000 0.0000 0.0000 -22.3999 0.0000 0.0000
# 5 0.0000 0.0000 0.0000 0.0000 -64.9898 0.0000
# 6 0.0000 0.0000 0.0000 0.0000 0.0000 6.2646
#
#
#
# Elastic Compliance Matrix: (Units=1/GPa)
#
#
# Indices 1 2 3 4 5 6 
#
# 1 0.028622 -0.007591 -0.005160 0.000000 0.000000 0.000000
# 2 -0.007591 0.024905 -0.013410 0.000000 0.000000 0.000000
# 3 -0.005160 -0.013410 0.020632 0.000000 0.000000 0.000000
# 4 0.000000 0.000000 0.000000 -0.044643 0.000000 0.000000
# 5 0.000000 0.000000 0.000000 0.000000 -0.015387 0.000000
# 6 0.000000 0.000000 0.000000 0.000000 0.000000 0.159628
#
#
# Mechanical properties :
#
#
# Convention : Reuss Voigt Hill
#
# Bulk Modulus (GPa) = 45.79508 55.26497 50.53003
# Shear Modulus (GPa) = 21.42628 -9.47578 5.97525
#
# Velocity S-wave (km/s) = 3.49374 -2.32341 1.84500
# Velocity P-wave (km/s) = 6.50875 4.92809 5.77277
#
# Compressibility (1/GPa) = 0.02183641
#
# Stress axis : x y z
#
# Youngs Moduli (GPa) = 34.93810 40.15323 48.46741
#
# Poissons Ratio (x) = 0.30482 0.25010
# Poissons Ratio (y) = 0.26523 0.64994
# Poissons Ratio (z) = 0.18028 0.53845
#
# Static dielectric constant tensor:
#      x y z
#    x 1.622600 0.000000 0.000000 
#    y 0.000000 1.588940 0.000000 
#    z 0.000000 0.000000 1.644410 
# 
# From -- ./inp_files/21491.got.cif
#   From: 2010.05.17/outbox.cif.g08.bks.cpg/sg47_11_cif.got.tgz:21491.got - 2010.06.03 20:15:42.
