data_PCOD9383177
_publ_section_title
;
Structure prediction by ZEFSAII (Michael W. Deem and Ramdas Pophale) SiO2 
 PCOD9383177
Probable space group: P M M M
;
_chemical_formula_sum "Si O2"
_cell_formula_units_Z 64
_cell_length_a 20.354016
_cell_length_b 20.466312
_cell_length_c 8.821418
_cell_angle_alpha 90.000000
_cell_angle_beta 90.000000
_cell_angle_gamma 90.000000
_cell_volume 3674.752580
_symmetry_space_group_name_H-M "P M M M"
_symmetry_group_IT_number 47
_symmetry_cell_setting 'orthorhombic'
loop_
_space_group_symop_operation_xyz
x,y,z
-x,-y,z
x,-y,-z
-x,y,-z
-x,-y,-z
x,y,-z
-x,y,z
x,-y,z
loop_
_atom_site_type_symbol
_atom_site_label
_atom_site_fract_x
_atom_site_fract_y
_atom_site_fract_z
Si Si1 0.318893 0.575468 0.182658
Si Si2 0.838981 0.926686 0.824457
Si Si3 0.926401 0.822456 0.670510
Si Si4 0.424937 0.679072 0.817516
Si Si5 0.678144 0.780041 0.682302
Si Si6 0.695659 0.928265 0.682383
Si Si7 0.214728 0.324376 0.681229
Si Si8 0.926477 0.685426 0.178709
O O1 0.317679 0.500000 0.228595
O O2 0.387477 0.611527 0.219276
O O3 0.262321 0.618577 0.259312
O O4 0.310433 0.578612 0.000000
O O5 0.876062 0.876936 0.717862
O O6 0.764312 0.929548 0.769964
O O7 0.866516 0.000000 0.811333
O O8 0.843199 0.906670 0.000000
O O9 0.912970 0.797347 0.500000
O O10 0.925075 0.762592 0.785698
O O11 0.000000 0.849941 0.672052
O O12 0.500000 0.680926 0.764150
O O13 0.379790 0.736241 0.750362
O O14 0.424981 0.685263 0.000000
O O15 0.676003 0.776120 0.500000
O O16 0.668334 0.856374 0.723745
O O17 0.747640 0.744112 0.727490
O O18 0.706180 0.926517 0.500000
O O19 0.663059 0.000000 0.713771
O O20 0.211885 0.324450 0.500000
O O21 0.141533 0.336429 0.744496
O O22 0.000000 0.662865 0.232434
O O23 0.923093 0.672684 0.000000
#
# Coordination Sequence:
#
# PCOD9383177 Si02
#       8
#     8   8   8   8   8   8   8   8
#     4   9  18  33  53  77 106 139 171 203 242 288
#     4  10  20  31  43  61  85 114 150 194 246 303
#     4  10  20  32  45  61  83 114 153 196 244 299
#     4   9  18  32  51  77 106 135 168 203 240 286
#     4   9  18  31  48  72  99 129 166 205 248 298
#     4   9  17  30  48  68  91 120 157 204 253 299
#     4  10  19  31  50  75 103 134 168 207 249 298
#     4  10  20  33  50  72  97 125 160 205 255 303
#
# _framework density 17.416139000000001
#
# number of rings (size 3 to 8) (size 9 to 14) (size 15 to 20)
#    0.000    2.500    0.000    2.250    0.000    5.250 
#    0.000    2.500    0.000    0.750    0.000    8.750 
#    0.000    0.000    0.000    0.000    0.000    0.000 
#
# Total GULP energy -356317.569995 kJ/mol
# GULP energy per Si atom -5567.462031 kJ/mol
# Density = 1.737650 g / cm^3
# Si number density = 17.416139 Si / 1000 Ang^3
#
#
#
# Elastic Constant Matrix: (Units=GPa)
#
#
# Indices 1 2 3 4 5 6 
#
# 1 115.0181 46.6721 25.3550 0.0000 0.0000 0.0000
# 2 46.6721 110.4404 22.1527 0.0000 0.0000 0.0000
# 3 25.3550 22.1527 16.1610 0.0000 0.0000 0.0000
# 4 0.0000 0.0000 0.0000 20.3729 0.0000 0.0000
# 5 0.0000 0.0000 0.0000 0.0000 20.9532 0.0000
# 6 0.0000 0.0000 0.0000 0.0000 0.0000 12.0466
#
#
#
# Elastic Compliance Matrix: (Units=1/GPa)
#
#
# Indices 1 2 3 4 5 6 
#
# 1 0.013612 -0.002026 -0.018579 0.000000 0.000000 0.000000
# 2 -0.002026 0.012790 -0.014354 0.000000 0.000000 0.000000
# 3 -0.018579 -0.014354 0.110701 0.000000 0.000000 0.000000
# 4 0.000000 0.000000 0.000000 0.049085 0.000000 0.000000
# 5 0.000000 0.000000 0.000000 0.000000 0.047725 0.000000
# 6 0.000000 0.000000 0.000000 0.000000 0.000000 0.083011
#
#
# Mechanical properties :
#
#
# Convention : Reuss Voigt Hill
#
# Bulk Modulus (GPa) = 14.88397 47.77547 31.32972
# Shear Modulus (GPa) = 12.21789 20.50386 16.36087
#
# Velocity S-wave (km/s) = 2.65151 3.43489 3.06830
# Velocity P-wave (km/s) = 4.23540 6.57439 5.52997
#
# Compressibility (1/GPa) = 0.06718640
#
# Stress axis : x y z
#
# Youngs Moduli (GPa) = 73.46510 78.18716 9.03333
#
# Poissons Ratio (x) = 0.15838 0.16783
# Poissons Ratio (y) = 0.14882 0.12966
# Poissons Ratio (z) = 1.36491 1.12226
#
# Static dielectric constant tensor:
#      x y z
#    x 1.601360 0.000000 0.000000 
#    y 0.000000 1.604610 0.000000 
#    z 0.000000 0.000000 1.587820 
# 
# From -- ./inp_files/10025.got.cif
#   From: 2010.05.17/outbox.cif.g08.bks.cpg/sg47_6_cif.got.tgz:10025.got - 2010.06.03 20:15:42.
