data_PCOD9383069
_publ_section_title
;
Structure prediction by ZEFSAII (Michael W. Deem and Ramdas Pophale) SiO2 
 PCOD9383069
Probable space group: P M M M
;
_chemical_formula_sum "Si O2"
_cell_formula_units_Z 64
_cell_length_a 13.855222
_cell_length_b 18.906982
_cell_length_c 15.678647
_cell_angle_alpha 90.000000
_cell_angle_beta 90.000000
_cell_angle_gamma 90.000000
_cell_volume 4107.185156
_symmetry_space_group_name_H-M "P M M M"
_symmetry_group_IT_number 47
_symmetry_cell_setting 'orthorhombic'
loop_
_space_group_symop_operation_xyz
x,y,z
-x,-y,z
x,-y,-z
-x,y,-z
-x,-y,-z
x,y,-z
-x,y,z
x,-y,z
loop_
_atom_site_type_symbol
_atom_site_label
_atom_site_fract_x
_atom_site_fract_y
_atom_site_fract_z
Si Si1 0.298057 0.777378 0.902546
Si Si2 0.617470 0.769297 0.405886
Si Si3 0.887934 0.414197 0.593714
Si Si4 0.210458 0.415673 0.229600
Si Si5 0.385755 0.922805 0.647001
Si Si6 0.612508 0.080439 0.852860
Si Si7 0.888965 0.689435 0.899275
Si Si8 0.613134 0.319710 0.760435
O O1 0.319204 0.859941 0.890710
O O2 0.188300 0.752400 0.884862
O O3 0.365076 0.735497 0.836204
O O4 0.320216 0.757279 0.000000
O O5 0.646277 0.744361 0.500000
O O6 0.500000 0.772131 0.403669
O O7 0.652972 0.849869 0.391387
O O8 0.643856 0.719150 0.327414
O O9 0.852885 0.390398 0.500000
O O10 0.886585 0.500000 0.592468
O O11 0.829320 0.393690 0.677181
O O12 0.000000 0.392965 0.602556
O O13 0.204032 0.500000 0.220886
O O14 0.147812 0.375316 0.158439
O O15 0.319331 0.386993 0.223821
O O16 0.500000 0.924504 0.625848
O O17 0.379812 0.917328 0.749746
O O18 0.345620 0.000000 0.621199
O O19 0.500000 0.095659 0.874098
O O20 0.633362 0.000000 0.879902
O O21 0.000000 0.707287 0.879187
O O22 0.884177 0.671579 0.000000
O O23 0.500000 0.336088 0.756332
#
# Coordination Sequence:
#
# PCOD9383069 Si02
#       8
#     8   8   8   8   8   8   8   8
#     4  10  19  31  49  69  90 121 158 189 226 277
#     4   9  16  26  41  59  82 119 162 195 224 260
#     4   8  14  26  45  68  91 111 133 170 223 277
#     4  10  20  32  49  71  91 116 151 187 231 288
#     4   8  13  22  37  58  86 118 150 187 229 265
#     4   9  16  26  42  66  97 129 159 194 231 261
#     4   9  19  35  53  73  95 117 143 182 233 285
#     4  10  20  33  45  61  90 123 158 196 229 265
#
# _framework density 15.582449
#
# number of rings (size 3 to 8) (size 9 to 14) (size 15 to 20)
#    0.000    2.875    1.250    1.875    0.000    3.250 
#    0.000    2.500    0.000    0.375    0.000    8.750 
#    0.000    0.000    0.000    0.000    0.000   12.250 
#
# Total GULP energy -356270.181212 kJ/mol
# GULP energy per Si atom -5566.721581 kJ/mol
# Density = 1.554698 g / cm^3
# Si number density = 15.582449 Si / 1000 Ang^3
#
#
#
# Elastic Constant Matrix: (Units=GPa)
#
#
# Indices 1 2 3 4 5 6 
#
# 1 67.4791 39.2950 32.4102 0.0000 0.0000 0.0000
# 2 39.2950 75.6522 32.8011 0.0000 0.0000 0.0000
# 3 32.4102 32.8011 66.6369 0.0000 0.0000 0.0000
# 4 0.0000 0.0000 0.0000 13.2754 0.0000 0.0000
# 5 0.0000 0.0000 0.0000 0.0000 16.4188 0.0000
# 6 0.0000 0.0000 0.0000 0.0000 0.0000 9.8620
#
#
#
# Elastic Compliance Matrix: (Units=1/GPa)
#
#
# Indices 1 2 3 4 5 6 
#
# 1 0.023496 -0.009216 -0.006891 0.000000 0.000000 0.000000
# 2 -0.009216 0.020420 -0.005569 0.000000 0.000000 0.000000
# 3 -0.006891 -0.005569 0.021100 0.000000 0.000000 0.000000
# 4 0.000000 0.000000 0.000000 0.075327 0.000000 0.000000
# 5 0.000000 0.000000 0.000000 0.000000 0.060906 0.000000
# 6 0.000000 0.000000 0.000000 0.000000 0.000000 0.101399
#
#
# Mechanical properties :
#
#
# Convention : Reuss Voigt Hill
#
# Bulk Modulus (GPa) = 46.16202 46.53118 46.34660
# Shear Modulus (GPa) = 14.15538 14.92870 14.54204
#
# Velocity S-wave (km/s) = 3.01727 3.09859 3.05820
# Velocity P-wave (km/s) = 6.46740 6.53665 6.50211
#
# Compressibility (1/GPa) = 0.02166283
#
# Stress axis : x y z
#
# Youngs Moduli (GPa) = 42.56005 48.97133 47.39426
#
# Poissons Ratio (x) = 0.45134 0.32660
# Poissons Ratio (y) = 0.39225 0.26394
# Poissons Ratio (z) = 0.29329 0.27272
#
# Static dielectric constant tensor:
#      x y z
#    x 1.499240 0.000000 0.000000 
#    y 0.000000 1.520620 0.000000 
#    z 0.000000 0.000000 1.548320 
# 
# From -- ./inp_files/24126.got.cif
#   From: 2010.05.17/outbox.cif.g08.bks.cpg/sg47_13_cif.got.tgz:24126.got - 2010.06.03 20:15:42.
