data_PCOD9383755
_publ_section_title
;
Structure prediction by ZEFSAII (Michael W. Deem and Ramdas Pophale) SiO2 
 PCOD9383755
Probable space group: P M M M
;
_chemical_formula_sum "Si O2"
_cell_formula_units_Z 48
_cell_length_a 14.469900
_cell_length_b 8.673663
_cell_length_c 21.198188
_cell_angle_alpha 90.000000
_cell_angle_beta 90.000000
_cell_angle_gamma 90.000000
_cell_volume 2660.521750
_symmetry_space_group_name_H-M "P M M M"
_symmetry_group_IT_number 47
_symmetry_cell_setting 'orthorhombic'
loop_
_space_group_symop_operation_xyz
x,y,z
-x,-y,z
x,-y,-z
-x,y,-z
-x,-y,-z
x,y,-z
-x,y,z
x,-y,z
loop_
_atom_site_type_symbol
_atom_site_label
_atom_site_fract_x
_atom_site_fract_y
_atom_site_fract_z
Si Si1 0.106776 0.311694 0.000000
Si Si2 0.786265 0.815430 0.625817
Si Si3 0.394416 0.815625 0.180583
Si Si4 0.214626 0.313823 0.125604
Si Si5 0.893309 0.188120 0.500000
Si Si6 0.892059 0.685880 0.746864
Si Si7 0.605557 0.315541 0.321052
O O1 0.161149 0.263366 0.937179
O O2 0.105243 0.500000 0.000000
O O3 0.000000 0.261082 0.000000
O O4 0.839215 0.762892 0.562833
O O5 0.842271 0.759634 0.687047
O O6 0.682992 0.750861 0.633027
O O7 0.782759 0.000000 0.625539
O O8 0.500000 0.773689 0.163400
O O9 0.317181 0.751833 0.133779
O O10 0.376528 0.747240 0.250383
O O11 0.388169 0.000000 0.184284
O O12 0.219351 0.500000 0.124841
O O13 0.157393 0.267998 0.188054
O O14 0.000000 0.239565 0.500000
O O15 0.894655 0.000000 0.500000
O O16 0.884687 0.500000 0.741807
O O17 0.000000 0.726596 0.748320
O O18 0.500000 0.272682 0.337678
O O19 0.612427 0.500000 0.319256
#
# Coordination Sequence:
#
# PCOD9383755 Si02
#       7
#     4   8   8   8   4   8   8
#     4   9  18  34  56  81 110 148 189 225 268 323
#     4  11  21  35  57  82 109 144 185 228 273 322
#     4  10  20  34  54  81 111 143 180 224 276 331
#     4  10  19  33  55  81 110 145 184 227 274 322
#     4   9  20  38  56  77 110 150 187 223 268 321
#     4  10  20  33  51  78 110 141 179 229 278 324
#     4  10  20  35  56  82 112 144 178 222 277 332
#
# _framework density 18.041575000000002
#
# number of rings (size 3 to 8) (size 9 to 14) (size 15 to 20)
#    0.000    2.000    1.667    2.500    0.000    5.000 
#    0.000    2.917    0.000   10.000    0.000    0.000 
#    0.000    0.000    0.000    0.000    0.000    0.000 
#
# Total GULP energy -268007.600664 kJ/mol
# GULP energy per Si atom -5583.491680 kJ/mol
# Density = 1.800051 g / cm^3
# Si number density = 18.041575 Si / 1000 Ang^3
#
#
#
# Elastic Constant Matrix: (Units=GPa)
#
#
# Indices 1 2 3 4 5 6 
#
# 1 183.4868 38.0504 102.4828 0.0000 0.0000 0.0000
# 2 38.0504 20.4412 31.3810 0.0000 0.0000 0.0000
# 3 102.4828 31.3810 153.4306 0.0000 0.0000 0.0000
# 4 0.0000 0.0000 0.0000 23.7012 0.0000 0.0000
# 5 0.0000 0.0000 0.0000 0.0000 34.4719 0.0000
# 6 0.0000 0.0000 0.0000 0.0000 0.0000 26.8817
#
#
#
# Elastic Compliance Matrix: (Units=1/GPa)
#
#
# Indices 1 2 3 4 5 6 
#
# 1 0.010615 -0.012936 -0.004444 0.000000 0.000000 0.000000
# 2 -0.012936 0.087078 -0.009169 0.000000 0.000000 0.000000
# 3 -0.004444 -0.009169 0.011361 0.000000 0.000000 0.000000
# 4 0.000000 0.000000 0.000000 0.042192 0.000000 0.000000
# 5 0.000000 0.000000 0.000000 0.000000 0.029009 0.000000
# 6 0.000000 0.000000 0.000000 0.000000 0.000000 0.037200
#
#
# Mechanical properties :
#
#
# Convention : Reuss Voigt Hill
#
# Bulk Modulus (GPa) = 17.87172 77.90969 47.89070
# Shear Modulus (GPa) = 17.28871 29.37392 23.33132
#
# Velocity S-wave (km/s) = 3.09895 4.03938 3.60001
# Velocity P-wave (km/s) = 4.76781 8.06428 6.62437
#
# Compressibility (1/GPa) = 0.05595432
#
# Stress axis : x y z
#
# Youngs Moduli (GPa) = 94.20701 11.48402 88.01673
#
# Poissons Ratio (x) = 0.14856 0.39117
# Poissons Ratio (y) = 1.21870 0.80704
# Poissons Ratio (z) = 0.41868 0.10530
#
# Static dielectric constant tensor:
#      x y z
#    x 1.625940 0.000000 0.000000 
#    y 0.000000 1.615540 0.000000 
#    z 0.000000 0.000000 1.588080 
# 
# From -- ./inp_files/9152.got.cif
#   From: 2010.05.17/outbox.cif.g08.bks.cpg/sg47_5_cif.got.tgz:9152.got - 2010.06.03 20:15:42.
