data_PCOD9383718
_publ_section_title
;
Structure prediction by ZEFSAII (Michael W. Deem and Ramdas Pophale) SiO2 
 PCOD9383718
Probable space group: P M M M
;
_chemical_formula_sum "Si O2"
_cell_formula_units_Z 48
_cell_length_a 21.108455
_cell_length_b 14.596775
_cell_length_c 8.036055
_cell_angle_alpha 90.000000
_cell_angle_beta 90.000000
_cell_angle_gamma 90.000000
_cell_volume 2476.032045
_symmetry_space_group_name_H-M "P M M M"
_symmetry_group_IT_number 47
_symmetry_cell_setting 'orthorhombic'
loop_
_space_group_symop_operation_xyz
x,y,z
-x,-y,z
x,-y,-z
-x,y,-z
-x,-y,-z
x,y,-z
-x,y,z
x,-y,z
loop_
_atom_site_type_symbol
_atom_site_label
_atom_site_fract_x
_atom_site_fract_y
_atom_site_fract_z
Si Si1 0.754757 0.895012 0.303790
Si Si2 0.500000 0.893882 0.203508
Si Si3 0.329334 0.397135 0.698847
Si Si4 0.123133 0.785986 0.803857
Si Si5 0.000000 0.105920 0.204694
Si Si6 0.182877 0.397410 0.201802
Si Si7 0.627744 0.205206 0.196865
O O1 0.768457 0.895122 0.500000
O O2 0.813341 0.845317 0.216706
O O3 0.689730 0.840901 0.275273
O O4 0.748071 0.000000 0.246333
O O5 0.436541 0.841978 0.259010
O O6 0.500000 0.000000 0.254915
O O7 0.500000 0.892369 0.000000
O O8 0.334950 0.395172 0.500000
O O9 0.345923 0.500000 0.757868
O O10 0.255493 0.381685 0.744139
O O11 0.369321 0.313665 0.771082
O O12 0.062696 0.840567 0.737119
O O13 0.139201 0.685137 0.734867
O O14 0.110928 0.773822 0.000000
O O15 0.000000 0.000000 0.257544
O O16 0.000000 0.104561 0.000000
O O17 0.164556 0.500000 0.255827
O O18 0.182434 0.395674 0.000000
O O19 0.632039 0.189094 0.000000
#
# Coordination Sequence:
#
# PCOD9383718 Si02
#       7
#     8   4   8   8   4   8   8
#     4  11  23  36  52  78 110 140 178 230 278 326
#     4   9  20  38  58  81 110 144 183 225 272 327
#     4  10  20  34  54  81 113 147 180 219 271 326
#     4  10  19  33  54  78 104 142 185 227 275 325
#     4   9  18  32  50  74 106 143 187 233 275 326
#     4   9  17  30  50  78 108 138 177 224 272 323
#     4  11  21  36  59  84 109 142 182 227 274 323
#
# _framework density 19.385856
#
# number of rings (size 3 to 8) (size 9 to 14) (size 15 to 20)
#    0.000    2.000    1.667    2.500    0.000    3.667 
#    0.000    2.917    0.000    9.500    0.000    0.000 
#    0.000    4.000    0.000    0.000    0.000    0.000 
#
# Total GULP energy -267975.499262 kJ/mol
# GULP energy per Si atom -5582.822901 kJ/mol
# Density = 1.934173 g / cm^3
# Si number density = 19.385856 Si / 1000 Ang^3
#
#
#
# Elastic Constant Matrix: (Units=GPa)
#
#
# Indices 1 2 3 4 5 6 
#
# 1 115.1117 69.7843 -12.3317 0.0000 0.0000 0.0000
# 2 69.7843 167.2039 -6.9279 0.0000 0.0000 0.0000
# 3 -12.3317 -6.9279 10.9988 0.0000 0.0000 0.0000
# 4 0.0000 0.0000 0.0000 20.8893 0.0000 0.0000
# 5 0.0000 0.0000 0.0000 0.0000 -65.2360 0.0000
# 6 0.0000 0.0000 0.0000 0.0000 0.0000 35.1925
#
#
#
# Elastic Compliance Matrix: (Units=1/GPa)
#
#
# Indices 1 2 3 4 5 6 
#
# 1 0.012876 -0.004904 0.011347 0.000000 0.000000 0.000000
# 2 -0.004904 0.008008 -0.000453 0.000000 0.000000 0.000000
# 3 0.011347 -0.000453 0.103356 0.000000 0.000000 0.000000
# 4 0.000000 0.000000 0.000000 0.047871 0.000000 0.000000
# 5 0.000000 0.000000 0.000000 0.000000 -0.015329 0.000000
# 6 0.000000 0.000000 0.000000 0.000000 0.000000 0.028415
#
#
# Mechanical properties :
#
#
# Convention : Reuss Voigt Hill
#
# Bulk Modulus (GPa) = 7.34102 43.81818 25.57960
# Shear Modulus (GPa) = 22.87029 14.35515 18.61272
#
# Velocity S-wave (km/s) = 3.43846 2.72416 3.10194
# Velocity P-wave (km/s) = 4.42256 5.70499 5.10421
#
# Compressibility (1/GPa) = 0.13622085
#
# Stress axis : x y z
#
# Youngs Moduli (GPa) = 77.66665 124.86738 9.67527
#
# Poissons Ratio (x) = 0.61230 -0.10979
# Poissons Ratio (y) = 0.38084 0.00439
# Poissons Ratio (z) = -0.88131 0.05662
#
# Static dielectric constant tensor:
#      x y z
#    x 1.637750 0.000000 0.000000 
#    y 0.000000 1.702370 0.000000 
#    z 0.000000 0.000000 1.683790 
# 
# From -- ./inp_files/9231.got.cif
#   From: 2010.05.17/outbox.cif.g08.bks.cpg/sg47_5_cif.got.tgz:9231.got - 2010.06.03 20:15:42.
