data_PCOD9383533
_publ_section_title
;
Structure prediction by ZEFSAII (Michael W. Deem and Ramdas Pophale) SiO2 
 PCOD9383533
Probable space group: P M M M
;
_chemical_formula_sum "Si O2"
_cell_formula_units_Z 56
_cell_length_a 8.876935
_cell_length_b 14.609501
_cell_length_c 23.203603
_cell_angle_alpha 90.000000
_cell_angle_beta 90.000000
_cell_angle_gamma 90.000000
_cell_volume 3009.219370
_symmetry_space_group_name_H-M "P M M M"
_symmetry_group_IT_number 47
_symmetry_cell_setting 'orthorhombic'
loop_
_space_group_symop_operation_xyz
x,y,z
-x,-y,z
x,-y,-z
-x,y,-z
-x,-y,-z
x,y,-z
-x,y,z
x,-y,z
loop_
_atom_site_type_symbol
_atom_site_label
_atom_site_fract_x
_atom_site_fract_y
_atom_site_fract_z
Si Si1 0.820436 0.605609 0.350817
Si Si2 0.677089 0.892598 0.722234
Si Si3 0.683890 0.394749 0.000000
Si Si4 0.319558 0.215899 0.606871
Si Si5 0.681710 0.282624 0.112591
Si Si6 0.179519 0.895420 0.845820
Si Si7 0.676743 0.607852 0.226688
Si Si8 0.819175 0.892685 0.500000
O O1 0.778577 0.500000 0.363788
O O2 0.740302 0.680651 0.390243
O O3 0.768916 0.623524 0.284902
O O4 0.000000 0.614318 0.355368
O O5 0.500000 0.876152 0.734794
O O6 0.720871 0.831653 0.667871
O O7 0.769077 0.875165 0.780218
O O8 0.694131 0.000000 0.707223
O O9 0.731009 0.340993 0.057373
O O10 0.734284 0.500000 0.000000
O O11 0.500000 0.396187 0.000000
O O12 0.500000 0.214199 0.601470
O O13 0.246295 0.158118 0.555811
O O14 0.500000 0.279117 0.112221
O O15 0.746491 0.180848 0.114214
O O16 0.726348 0.333538 0.171868
O O17 0.000000 0.890842 0.849619
O O18 0.227842 0.000000 0.858346
O O19 0.500000 0.628340 0.238585
O O20 0.686802 0.500000 0.212148
O O21 0.000000 0.886846 0.500000
O O22 0.776523 0.000000 0.500000
#
# Coordination Sequence:
#
# PCOD9383533 Si02
#       8
#     8   8   4   8   8   8   8   4
#     4  10  21  36  54  79 112 147 182 223 271 322
#     4   9  18  33  54  81 111 141 174 216 267 319
#     4   9  18  34  56  81 106 132 169 217 264 313
#     4  11  22  37  59  84 111 145 184 226 270 316
#     4  10  19  32  53  78 103 136 176 218 265 314
#     4  10  21  35  51  74 105 140 176 216 264 316
#     4   9  17  30  50  78 110 141 174 214 264 323
#     4  11  25  43  62  85 114 147 181 218 262 315
#
# _framework density 18.609476999999998
#
# number of rings (size 3 to 8) (size 9 to 14) (size 15 to 20)
#    0.000    2.143    0.000    3.214    0.000    9.714 
#    0.000    2.500    0.000    6.000    0.000    0.000 
#    0.000    0.000    0.000    0.000    0.000    0.000 
#
# Total GULP energy -312775.868658 kJ/mol
# GULP energy per Si atom -5585.283369 kJ/mol
# Density = 1.856712 g / cm^3
# Si number density = 18.609477 Si / 1000 Ang^3
#
#
#
# Elastic Constant Matrix: (Units=GPa)
#
#
# Indices 1 2 3 4 5 6 
#
# 1 30.0221 48.1224 29.6610 0.0000 0.0000 0.0000
# 2 48.1224 161.1197 90.2090 0.0000 0.0000 0.0000
# 3 29.6610 90.2090 69.5037 0.0000 0.0000 0.0000
# 4 0.0000 0.0000 0.0000 34.7724 0.0000 0.0000
# 5 0.0000 0.0000 0.0000 0.0000 73.7234 0.0000
# 6 0.0000 0.0000 0.0000 0.0000 0.0000 25.7274
#
#
#
# Elastic Compliance Matrix: (Units=1/GPa)
#
#
# Indices 1 2 3 4 5 6 
#
# 1 0.065529 -0.014323 -0.009375 0.000000 0.000000 0.000000
# 2 -0.014323 0.025839 -0.027424 0.000000 0.000000 0.000000
# 3 -0.009375 -0.027424 0.053982 0.000000 0.000000 0.000000
# 4 0.000000 0.000000 0.000000 0.028758 0.000000 0.000000
# 5 0.000000 0.000000 0.000000 0.000000 0.013564 0.000000
# 6 0.000000 0.000000 0.000000 0.000000 0.000000 0.038869
#
#
# Mechanical properties :
#
#
# Convention : Reuss Voigt Hill
#
# Bulk Modulus (GPa) = 23.19846 66.29225 44.74535
# Shear Modulus (GPa) = 14.57073 33.02151 23.79612
#
# Velocity S-wave (km/s) = 2.80120 4.21699 3.57978
# Velocity P-wave (km/s) = 4.79117 7.70784 6.41740
#
# Compressibility (1/GPa) = 0.04310631
#
# Stress axis : x y z
#
# Youngs Moduli (GPa) = 15.26033 38.70182 18.52477
#
# Poissons Ratio (x) = 0.55432 0.17367
# Poissons Ratio (y) = 0.21857 0.50802
# Poissons Ratio (z) = 0.14307 1.06134
#
# Static dielectric constant tensor:
#      x y z
#    x 1.624120 0.000000 0.000000 
#    y 0.000000 1.657750 0.000000 
#    z 0.000000 0.000000 1.614810 
# 
# From -- ./inp_files/7456.got.cif
#   From: 2010.05.17/outbox.cif.g08.bks.cpg/sg47_4_cif.got.tgz:7456.got - 2010.06.03 20:15:42.
