data_PCOD9383919
_publ_section_title
;
Structure prediction by ZEFSAII (Michael W. Deem and Ramdas Pophale) SiO2 
 PCOD9383919
Probable space group: P M M M
;
_chemical_formula_sum "Si O2"
_cell_formula_units_Z 56
_cell_length_a 9.620333
_cell_length_b 21.313451
_cell_length_c 15.319395
_cell_angle_alpha 90.000000
_cell_angle_beta 90.000000
_cell_angle_gamma 90.000000
_cell_volume 3141.126988
_symmetry_space_group_name_H-M "P M M M"
_symmetry_group_IT_number 47
_symmetry_cell_setting 'orthorhombic'
loop_
_space_group_symop_operation_xyz
x,y,z
-x,-y,z
x,-y,-z
-x,y,-z
-x,-y,-z
x,y,-z
-x,y,z
x,-y,z
loop_
_atom_site_type_symbol
_atom_site_label
_atom_site_fract_x
_atom_site_fract_y
_atom_site_fract_z
Si Si1 0.163275 0.071619 0.644942
Si Si2 0.830872 0.500000 0.100558
Si Si3 0.162028 0.750315 0.249637
Si Si4 0.663422 0.192673 0.598686
Si Si5 0.834727 0.390302 0.768064
Si Si6 0.657661 0.924978 0.000000
Si Si7 0.338859 0.575938 0.597980
Si Si8 0.840636 0.881426 0.159699
O O1 0.260465 0.125054 0.604972
O O2 0.176141 0.080734 0.749650
O O3 0.000000 0.082996 0.623512
O O4 0.197168 0.000000 0.620714
O O5 0.788913 0.560944 0.157226
O O6 0.000000 0.500000 0.097303
O O7 0.782197 0.500000 0.000000
O O8 0.260651 0.763079 0.331836
O O9 0.186308 0.682482 0.208181
O O10 0.181237 0.808678 0.184889
O O11 0.000000 0.753009 0.278460
O O12 0.677428 0.216480 0.500000
O O13 0.500000 0.186169 0.618736
O O14 0.755642 0.401663 0.677274
O O15 0.000000 0.400372 0.754629
O O16 0.737111 0.902538 0.085737
O O17 0.500000 0.901863 0.000000
O O18 0.657057 0.000000 0.000000
O O19 0.295115 0.595902 0.500000
O O20 0.500000 0.595282 0.610242
O O21 0.336133 0.500000 0.599000
O O22 0.000000 0.889953 0.130659
#
# Coordination Sequence:
#
# PCOD9383919 Si02
#       8
#     8   4   8   8   8   4   8   8
#     4   9  18  33  54  78 103 135 176 220 267 316
#     4   9  18  34  56  85 114 138 169 217 274 327
#     4   9  20  37  55  77 104 137 179 221 265 314
#     4  10  21  35  51  74 105 142 182 221 262 312
#     4  10  19  34  57  84 110 139 179 225 272 320
#     4  11  23  35  51  79 109 134 165 210 264 318
#     4   9  18  32  50  75 109 147 180 212 261 322
#     4   9  18  35  54  73 100 135 173 213 258 311
#
# _framework density 17.827995999999999
#
# number of rings (size 3 to 8) (size 9 to 14) (size 15 to 20)
#    0.000    2.571    0.714    2.357    0.000    6.571 
#    1.286    5.000    0.000    0.857    0.000    0.000 
#    0.000    0.000    0.000    0.000    0.000    0.000 
#
# Total GULP energy -312331.211034 kJ/mol
# GULP energy per Si atom -5577.343054 kJ/mol
# Density = 1.778742 g / cm^3
# Si number density = 17.827996 Si / 1000 Ang^3
#
#
#
# Elastic Constant Matrix: (Units=GPa)
#
#
# Indices 1 2 3 4 5 6 
#
# 1 70.6086 31.3673 52.8415 0.0000 0.0000 0.0000
# 2 31.3673 89.5537 31.1686 0.0000 0.0000 0.0000
# 3 52.8415 31.1686 90.5401 0.0000 0.0000 0.0000
# 4 0.0000 0.0000 0.0000 -5.9487 0.0000 0.0000
# 5 0.0000 0.0000 0.0000 0.0000 28.0854 0.0000
# 6 0.0000 0.0000 0.0000 0.0000 0.0000 15.3107
#
#
#
# Elastic Compliance Matrix: (Units=1/GPa)
#
#
# Indices 1 2 3 4 5 6 
#
# 1 0.026620 -0.004450 -0.014004 0.000000 0.000000 0.000000
# 2 -0.004450 0.013430 -0.002026 0.000000 0.000000 0.000000
# 3 -0.014004 -0.002026 0.019916 0.000000 0.000000 0.000000
# 4 0.000000 0.000000 0.000000 -0.168104 0.000000 0.000000
# 5 0.000000 0.000000 0.000000 0.000000 0.035606 0.000000
# 6 0.000000 0.000000 0.000000 0.000000 0.000000 0.065314
#
#
# Mechanical properties :
#
#
# Convention : Reuss Voigt Hill
#
# Bulk Modulus (GPa) = 52.61774 53.49525 53.05649
# Shear Modulus (GPa) = 124.76352 16.51116 70.63734
#
# Velocity S-wave (km/s) = 8.37459 3.04655 6.30140
# Velocity P-wave (km/s) = 11.09458 6.51512 9.09771
#
# Compressibility (1/GPa) = 0.01900500
#
# Stress axis : x y z
#
# Youngs Moduli (GPa) = 37.56631 74.45818 50.21208
#
# Poissons Ratio (x) = 0.33133 0.70317
# Poissons Ratio (y) = 0.16716 0.10175
# Poissons Ratio (z) = 0.52608 0.15088
#
# Static dielectric constant tensor:
#      x y z
#    x 1.594110 0.000000 0.000000 
#    y 0.000000 1.624890 0.000000 
#    z 0.000000 0.000000 1.593370 
# 
# From -- ./inp_files/21611.got.cif
#   From: 2010.05.17/outbox.cif.g08.bks.cpg/sg47_11_cif.got.tgz:21611.got - 2010.06.03 20:15:42.
