data_PCOD9383206
_publ_section_title
;
Structure prediction by ZEFSAII (Michael W. Deem and Ramdas Pophale) SiO2 
 PCOD9383206
Probable space group: P M M M
;
_chemical_formula_sum "Si O2"
_cell_formula_units_Z 52
_cell_length_a 13.930741
_cell_length_b 9.397545
_cell_length_c 21.783951
_cell_angle_alpha 90.000000
_cell_angle_beta 90.000000
_cell_angle_gamma 90.000000
_cell_volume 2851.840835
_symmetry_space_group_name_H-M "P M M M"
_symmetry_group_IT_number 47
_symmetry_cell_setting 'orthorhombic'
loop_
_space_group_symop_operation_xyz
x,y,z
-x,-y,z
x,-y,-z
-x,y,-z
-x,-y,-z
x,y,-z
-x,y,z
x,-y,z
loop_
_atom_site_type_symbol
_atom_site_label
_atom_site_fract_x
_atom_site_fract_y
_atom_site_fract_z
Si Si1 0.616053 0.164155 0.310174
Si Si2 0.701420 0.331059 0.805298
Si Si3 0.882884 0.837698 0.618804
Si Si4 0.117393 0.662685 0.500000
Si Si5 0.387471 0.672708 0.067564
Si Si6 0.382903 0.335290 0.569405
Si Si7 0.889428 0.665871 0.260270
O O1 0.500000 0.167133 0.310002
O O2 0.651364 0.250201 0.250878
O O3 0.648151 0.237380 0.373990
O O4 0.646808 0.000000 0.307270
O O5 0.678485 0.500000 0.800381
O O6 0.667688 0.278729 0.871824
O O7 0.815033 0.315026 0.794592
O O8 0.851683 0.744156 0.561089
O O9 0.858976 0.764203 0.683072
O O10 0.000000 0.839353 0.616827
O O11 0.850269 0.000000 0.614274
O O12 0.148896 0.500000 0.500000
O O13 0.000000 0.662120 0.500000
O O14 0.500000 0.708741 0.073614
O O15 0.381553 0.500000 0.067024
O O16 0.354126 0.721954 0.000000
O O17 0.353809 0.293352 0.500000
O O18 0.500000 0.332718 0.569453
O O19 0.354750 0.500000 0.579854
O O20 0.884038 0.500000 0.280111
O O21 0.000000 0.695771 0.244467
#
# Coordination Sequence:
#
# PCOD9383206 Si02
#       7
#     8   8   8   4   8   8   8
#     4  10  20  31  45  70 103 133 160 198 249 299
#     4  10  19  31  51  74  97 130 169 206 244 292
#     4   9  16  26  42  64  88 116 154 200 250 303
#     4   9  15  23  39  63  89 117 150 193 250 311
#     4   8  14  26  47  77 108 133 161 199 239 282
#     4   8  14  26  45  67  91 124 166 206 242 286
#     4   9  18  32  48  67  93 125 163 208 256 301
#
# _framework density 18.233837000000001
#
# number of rings (size 3 to 8) (size 9 to 14) (size 15 to 20)
#    0.000    3.000    0.000    2.538    0.000    5.231 
#    0.000    1.538    1.692    0.923    0.000    5.385 
#    0.000    0.000    0.000    5.231    0.000    5.692 
#
# Total GULP energy -290200.009494 kJ/mol
# GULP energy per Si atom -5580.769413 kJ/mol
# Density = 1.819234 g / cm^3
# Si number density = 18.233837 Si / 1000 Ang^3
#
#
#
# Elastic Constant Matrix: (Units=GPa)
#
#
# Indices 1 2 3 4 5 6 
#
# 1 58.6056 33.8841 54.2104 0.0000 0.0000 0.0000
# 2 33.8841 75.9916 76.2669 0.0000 0.0000 0.0000
# 3 54.2104 76.2669 187.0530 0.0000 0.0000 0.0000
# 4 0.0000 0.0000 0.0000 -5.8138 0.0000 0.0000
# 5 0.0000 0.0000 0.0000 0.0000 28.0894 0.0000
# 6 0.0000 0.0000 0.0000 0.0000 0.0000 10.8226
#
#
#
# Elastic Compliance Matrix: (Units=1/GPa)
#
#
# Indices 1 2 3 4 5 6 
#
# 1 0.025124 -0.006593 -0.004593 0.000000 0.000000 0.000000
# 2 -0.006593 0.024004 -0.007876 0.000000 0.000000 0.000000
# 3 -0.004593 -0.007876 0.009889 0.000000 0.000000 0.000000
# 4 0.000000 0.000000 0.000000 -0.172006 0.000000 0.000000
# 5 0.000000 0.000000 0.000000 0.000000 0.035601 0.000000
# 6 0.000000 0.000000 0.000000 0.000000 0.000000 0.092399
#
#
# Mechanical properties :
#
#
# Convention : Reuss Voigt Hill
#
# Bulk Modulus (GPa) = 47.86581 72.26366 60.06473
# Shear Modulus (GPa) = 83.19714 17.10557 50.15136
#
# Velocity S-wave (km/s) = 6.76217 3.06620 5.25017
# Velocity P-wave (km/s) = 9.34223 7.22863 8.35256
#
# Compressibility (1/GPa) = 0.02089174
#
# Stress axis : x y z
#
# Youngs Moduli (GPa) = 39.80326 41.65978 101.12553
#
# Poissons Ratio (x) = 0.27465 0.46448
# Poissons Ratio (y) = 0.26241 0.79651
# Poissons Ratio (z) = 0.18282 0.32813
#
# Static dielectric constant tensor:
#      x y z
#    x 1.681760 0.000000 0.000000 
#    y 0.000000 1.609680 0.000000 
#    z 0.000000 0.000000 1.595910 
# 
# From -- ./inp_files/30827.got.cif
#   From: 2010.05.17/outbox.cif.g08.bks.cpg/sg47_16_cif.got.tgz:30827.got - 2010.06.03 20:15:42.
