data_PCOD9383474
_publ_section_title
;
Structure prediction by ZEFSAII (Michael W. Deem and Ramdas Pophale) SiO2 
 PCOD9383474
Probable space group: P M M M
;
_chemical_formula_sum "Si O2"
_cell_formula_units_Z 64
_cell_length_a 15.881911
_cell_length_b 23.478441
_cell_length_c 8.770250
_cell_angle_alpha 90.000000
_cell_angle_beta 90.000000
_cell_angle_gamma 90.000000
_cell_volume 3270.272837
_symmetry_space_group_name_H-M "P M M M"
_symmetry_group_IT_number 47
_symmetry_cell_setting 'orthorhombic'
loop_
_space_group_symop_operation_xyz
x,y,z
-x,-y,z
x,-y,-z
-x,y,-z
-x,-y,-z
x,y,-z
-x,y,z
x,-y,z
loop_
_atom_site_type_symbol
_atom_site_label
_atom_site_fract_x
_atom_site_fract_y
_atom_site_fract_z
Si Si1 0.098705 0.599403 0.179646
Si Si2 0.403929 0.346174 0.182388
Si Si3 0.821765 0.183631 0.818782
Si Si4 0.728373 0.564034 0.681416
Si Si5 0.901443 0.714807 0.332689
Si Si6 0.351242 0.773824 0.319127
Si Si7 0.591481 0.099259 0.681015
Si Si8 0.233627 0.062055 0.816513
O O1 0.174247 0.567574 0.264349
O O2 0.122312 0.665391 0.215039
O O3 0.000000 0.588750 0.226479
O O4 0.102721 0.588118 0.000000
O O5 0.500000 0.365649 0.216612
O O6 0.332353 0.389335 0.241769
O O7 0.391258 0.284130 0.258361
O O8 0.395950 0.340483 0.000000
O O9 0.726523 0.427177 0.500000
O O10 0.886749 0.222762 0.731125
O O11 0.733450 0.213169 0.774590
O O12 0.816698 0.118148 0.765454
O O13 0.697747 0.500000 0.716253
O O14 0.834855 0.814700 0.000000
O O15 0.860940 0.706750 0.500000
O O16 0.000000 0.706949 0.349909
O O17 0.333751 0.768577 0.500000
O O18 0.403642 0.832175 0.299391
O O19 0.599583 0.088156 0.500000
O O20 0.500000 0.078855 0.732881
O O21 0.670441 0.071874 0.764649
O O22 0.204149 0.000000 0.762821
O O23 0.231241 0.062619 0.000000
#
# Coordination Sequence:
#
# PCOD9383474 Si02
#       8
#     8   8   8   8   8   8   8   8
#     4  10  21  38  62  91 121 151 182 219 267 325
#     4  11  24  40  59  83 111 145 186 234 285 332
#     4  10  19  32  52  76 104 137 173 217 265 314
#     4  11  25  43  62  84 112 149 191 232 273 322
#     4  10  20  34  54  81 112 141 169 206 255 313
#     4  10  19  33  54  78 106 138 173 215 265 322
#     4   9  18  31  47  70  99 130 165 207 256 308
#     4   9  19  34  49  67  93 129 173 215 256 304
#
# _framework density 19.570232000000001
#
# number of rings (size 3 to 8) (size 9 to 14) (size 15 to 20)
#    0.000    2.000    0.000    3.375    0.000    6.250 
#    0.000    3.750    0.000    0.375    0.000    2.625 
#    0.000    0.000    0.000    0.000    0.000    0.000 
#
# Total GULP energy -356981.636134 kJ/mol
# GULP energy per Si atom -5577.838065 kJ/mol
# Density = 1.952569 g / cm^3
# Si number density = 19.570232 Si / 1000 Ang^3
#
#
#
# Elastic Constant Matrix: (Units=GPa)
#
#
# Indices 1 2 3 4 5 6 
#
# 1 34.5708 15.8940 4.9065 0.0000 0.0000 0.0000
# 2 15.8940 85.8442 8.8406 0.0000 0.0000 0.0000
# 3 4.9065 8.8406 29.4474 0.0000 0.0000 0.0000
# 4 0.0000 0.0000 0.0000 22.1210 0.0000 0.0000
# 5 0.0000 0.0000 0.0000 0.0000 22.5326 0.0000
# 6 0.0000 0.0000 0.0000 0.0000 0.0000 2.3441
#
#
#
# Elastic Compliance Matrix: (Units=1/GPa)
#
#
# Indices 1 2 3 4 5 6 
#
# 1 0.031996 -0.005547 -0.003666 0.000000 0.000000 0.000000
# 2 -0.005547 0.012982 -0.002973 0.000000 0.000000 0.000000
# 3 -0.003666 -0.002973 0.035462 0.000000 0.000000 0.000000
# 4 0.000000 0.000000 0.000000 0.045206 0.000000 0.000000
# 5 0.000000 0.000000 0.000000 0.000000 0.044380 0.000000
# 6 0.000000 0.000000 0.000000 0.000000 0.000000 0.426594
#
#
# Mechanical properties :
#
#
# Convention : Reuss Voigt Hill
#
# Bulk Modulus (GPa) = 17.83511 23.23828 20.53670
# Shear Modulus (GPa) = 7.81637 17.41430 12.61534
#
# Velocity S-wave (km/s) = 2.00067 2.98625 2.54169
# Velocity P-wave (km/s) = 3.80396 4.87753 4.37381
#
# Compressibility (1/GPa) = 0.05606918
#
# Stress axis : x y z
#
# Youngs Moduli (GPa) = 31.25342 77.02879 28.19891
#
# Poissons Ratio (x) = 0.42725 0.10338
# Poissons Ratio (y) = 0.17335 0.08384
# Poissons Ratio (z) = 0.11458 0.22903
#
# Static dielectric constant tensor:
#      x y z
#    x 1.722050 0.000000 0.000000 
#    y 0.000000 1.706500 0.000000 
#    z 0.000000 0.000000 1.672760 
# 
# From -- ./inp_files/10016.got.cif
#   From: 2010.05.17/outbox.cif.g08.bks.cpg/sg47_6_cif.got.tgz:10016.got - 2010.06.03 20:15:42.
