data_PCOD9383160
_publ_section_title
;
Structure prediction by ZEFSAII (Michael W. Deem and Ramdas Pophale) SiO2 
 PCOD9383160
Probable space group: P M M M
;
_chemical_formula_sum "Si O2"
_cell_formula_units_Z 64
_cell_length_a 18.151642
_cell_length_b 21.454321
_cell_length_c 8.028203
_cell_angle_alpha 90.000000
_cell_angle_beta 90.000000
_cell_angle_gamma 90.000000
_cell_volume 3126.432360
_symmetry_space_group_name_H-M "P M M M"
_symmetry_group_IT_number 47
_symmetry_cell_setting 'orthorhombic'
loop_
_space_group_symop_operation_xyz
x,y,z
-x,-y,z
x,-y,-z
-x,y,-z
-x,-y,-z
x,y,-z
-x,y,z
x,-y,z
loop_
_atom_site_type_symbol
_atom_site_label
_atom_site_fract_x
_atom_site_fract_y
_atom_site_fract_z
Si Si1 0.298006 0.568086 0.300959
Si Si2 0.578886 0.662357 0.195203
Si Si3 0.623470 0.796500 0.696787
Si Si4 0.793035 0.797688 0.198628
Si Si5 0.789040 0.933462 0.798470
Si Si6 0.919943 0.296635 0.298720
Si Si7 0.617670 0.067298 0.301471
Si Si8 0.871508 0.568993 0.703556
O O1 0.293405 0.565239 0.500000
O O2 0.324648 0.500000 0.240153
O O3 0.352271 0.623814 0.260896
O O4 0.213920 0.576234 0.243278
O O5 0.500000 0.642940 0.270239
O O6 0.588852 0.735805 0.222686
O O7 0.577002 0.650236 0.000000
O O8 0.608262 0.794669 0.500000
O O9 0.711957 0.790966 0.722455
O O10 0.596005 0.864078 0.762626
O O11 0.822223 0.866733 0.249418
O O12 0.851201 0.744821 0.243505
O O13 0.781936 0.796902 0.000000
O O14 0.705785 0.933268 0.728715
O O15 0.823246 0.000000 0.747074
O O16 0.784410 0.933743 0.000000
O O17 0.918767 0.297007 0.500000
O O18 0.911939 0.368436 0.242184
O O19 0.000000 0.272248 0.243681
O O20 0.603363 0.067390 0.500000
O O21 0.590099 0.000000 0.235457
O O22 0.874040 0.568518 0.500000
O O23 0.897414 0.500000 0.756894
#
# Coordination Sequence:
#
# PCOD9383160 Si02
#       8
#     8   8   8   8   8   8   8   8
#     4   9  18  34  57  81 102 128 165 207 250 302
#     4  11  24  38  51  71 102 138 174 212 251 292
#     4  10  19  32  53  77 101 131 167 208 252 300
#     4  10  19  31  50  74 100 131 165 203 250 302
#     4   8  14  25  42  66  94 122 156 199 244 291
#     4  10  20  32  48  72 101 133 169 208 247 289
#     4   8  14  25  43  70 100 125 153 195 248 301
#     4   8  15  30  52  76  99 123 156 199 243 286
#
# _framework density 20.470617000000001
#
# number of rings (size 3 to 8) (size 9 to 14) (size 15 to 20)
#    0.000    2.750    0.000    2.625    0.000    4.000 
#    0.000    2.500    0.000    1.875    0.000    6.125 
#    0.000    0.000    0.000    0.000    0.000    0.000 
#
# Total GULP energy -356621.713049 kJ/mol
# GULP energy per Si atom -5572.214266 kJ/mol
# Density = 2.042402 g / cm^3
# Si number density = 20.470617 Si / 1000 Ang^3
#
#
#
# Elastic Constant Matrix: (Units=GPa)
#
#
# Indices 1 2 3 4 5 6 
#
# 1 46.0997 25.2256 -4.6342 0.0000 0.0000 0.0000
# 2 25.2256 106.2870 -3.9063 0.0000 0.0000 0.0000
# 3 -4.6342 -3.9063 11.8856 0.0000 0.0000 0.0000
# 4 0.0000 0.0000 0.0000 -2.8650 0.0000 0.0000
# 5 0.0000 0.0000 0.0000 0.0000 6.7040 0.0000
# 6 0.0000 0.0000 0.0000 0.0000 0.0000 51.8717
#
#
#
# Elastic Compliance Matrix: (Units=1/GPa)
#
#
# Indices 1 2 3 4 5 6 
#
# 1 0.025679 -0.005797 0.008107 0.000000 0.000000 0.000000
# 2 -0.005797 0.010832 0.001300 0.000000 0.000000 0.000000
# 3 0.008107 0.001300 0.087724 0.000000 0.000000 0.000000
# 4 0.000000 0.000000 0.000000 -0.349043 0.000000 0.000000
# 5 0.000000 0.000000 0.000000 0.000000 0.149165 0.000000
# 6 0.000000 0.000000 0.000000 0.000000 0.000000 0.019278
#
#
# Mechanical properties :
#
#
# Convention : Reuss Voigt Hill
#
# Bulk Modulus (GPa) = 7.60713 21.96026 14.78369
# Shear Modulus (GPa) = -252.93684 20.98128 -115.97778
#
# Velocity S-wave (km/s) = -11.12786 3.20495 -7.53517
# Velocity P-wave (km/s) = 12.70360 4.94435 8.27450
#
# Compressibility (1/GPa) = 0.13145569
#
# Stress axis : x y z
#
# Youngs Moduli (GPa) = 38.94244 92.31914 11.39943
#
# Poissons Ratio (x) = 0.53513 -0.09242
# Poissons Ratio (y) = 0.22573 -0.01482
# Poissons Ratio (z) = -0.31571 -0.12002
#
# Static dielectric constant tensor:
#      x y z
#    x 1.726570 0.000000 0.000000 
#    y 0.000000 1.784570 0.000000 
#    z 0.000000 0.000000 1.737830 
# 
# From -- ./inp_files/9967.got.cif
#   From: 2010.05.17/outbox.cif.g08.bks.cpg/sg47_5_cif.got.tgz:9967.got - 2010.06.03 20:15:42.
