data_PCOD9383109
_publ_section_title
;
Structure prediction by ZEFSAII (Michael W. Deem and Ramdas Pophale) SiO2 
 PCOD9383109
Probable space group: P M M M
;
_chemical_formula_sum "Si O2"
_cell_formula_units_Z 52
_cell_length_a 8.594963
_cell_length_b 29.012332
_cell_length_c 12.083403
_cell_angle_alpha 90.000000
_cell_angle_beta 90.000000
_cell_angle_gamma 90.000000
_cell_volume 3013.116406
_symmetry_space_group_name_H-M "P M M M"
_symmetry_group_IT_number 47
_symmetry_cell_setting 'orthorhombic'
loop_
_space_group_symop_operation_xyz
x,y,z
-x,-y,z
x,-y,-z
-x,y,-z
-x,-y,-z
x,y,-z
-x,y,z
x,-y,z
loop_
_atom_site_type_symbol
_atom_site_label
_atom_site_fract_x
_atom_site_fract_y
_atom_site_fract_z
Si Si1 0.189760 0.447739 0.872520
Si Si2 0.813452 0.215052 0.500000
Si Si3 0.812005 0.269305 0.128719
Si Si4 0.678793 0.000000 0.134104
Si Si5 0.315310 0.816493 0.732675
Si Si6 0.186039 0.901568 0.129004
Si Si7 0.189965 0.322706 0.500000
Si Si8 0.810326 0.360242 0.735983
O O1 0.238975 0.500000 0.845488
O O2 0.243845 0.408212 0.789035
O O3 0.000000 0.447473 0.870745
O O4 0.234413 0.437618 0.000000
O O5 0.754107 0.190668 0.610689
O O6 0.762077 0.268977 0.500000
O O7 0.000000 0.215151 0.500000
O O8 0.739063 0.227109 0.194692
O O9 0.767445 0.317516 0.185313
O O10 0.000000 0.265327 0.136411
O O11 0.769209 0.268343 0.000000
O O12 0.761364 0.952487 0.166369
O O13 0.500000 0.000000 0.170709
O O14 0.681071 0.000000 0.000000
O O15 0.500000 0.817536 0.725824
O O16 0.255636 0.862194 0.793907
O O17 0.000000 0.898736 0.131049
O O18 0.236063 0.895014 0.000000
O O19 0.241232 0.348161 0.388132
O O20 0.000000 0.322514 0.500000
O O21 0.000000 0.361749 0.734080
#
# Coordination Sequence:
#
# PCOD9383109 Si02
#       8
#     8   4   8   4   8   8   4   8
#     4   8  13  21  34  55  87 125 161 203 260 320
#     4  11  21  39  59  73  96 135 180 220 257 313
#     4  10  19  31  49  72  98 133 175 214 257 314
#     4   9  17  31  53  82 115 148 181 223 276 321
#     4  12  24  36  52  77 108 138 172 218 272 320
#     4  10  20  35  56  82 112 148 188 224 261 314
#     4   9  16  27  46  65  85 119 166 212 257 302
#     4   9  15  25  41  63  88 122 169 215 255 309
#
# _framework density 17.257878000000002
#
# number of rings (size 3 to 8) (size 9 to 14) (size 15 to 20)
#    0.000    2.231    1.538    3.692    0.000    5.846 
#    0.000    0.385    0.000    2.769    0.000    3.231 
#    0.000    0.615    0.000    4.615    0.000    5.077 
#
# Total GULP energy -290129.212169 kJ/mol
# GULP energy per Si atom -5579.407926 kJ/mol
# Density = 1.721860 g / cm^3
# Si number density = 17.257878 Si / 1000 Ang^3
#
#
#
# Elastic Constant Matrix: (Units=GPa)
#
#
# Indices 1 2 3 4 5 6 
#
# 1 34.7260 36.2558 41.9741 0.0000 0.0000 0.0000
# 2 36.2558 169.1850 105.1414 0.0000 0.0000 0.0000
# 3 41.9741 105.1414 155.9251 0.0000 0.0000 0.0000
# 4 0.0000 0.0000 0.0000 33.3548 0.0000 0.0000
# 5 0.0000 0.0000 0.0000 0.0000 11.0886 0.0000
# 6 0.0000 0.0000 0.0000 0.0000 0.0000 -20.3896
#
#
#
# Elastic Compliance Matrix: (Units=1/GPa)
#
#
# Indices 1 2 3 4 5 6 
#
# 1 0.043892 -0.003551 -0.009421 0.000000 0.000000 0.000000
# 2 -0.003551 0.010462 -0.006098 0.000000 0.000000 0.000000
# 3 -0.009421 -0.006098 0.013061 0.000000 0.000000 0.000000
# 4 0.000000 0.000000 0.000000 0.029981 0.000000 0.000000
# 5 0.000000 0.000000 0.000000 0.000000 0.090183 0.000000
# 6 0.000000 0.000000 0.000000 0.000000 0.000000 -0.049045
#
#
# Mechanical properties :
#
#
# Convention : Reuss Voigt Hill
#
# Bulk Modulus (GPa) = 34.15998 80.73095 57.44547
# Shear Modulus (GPa) = 26.81946 16.57508 21.69727
#
# Velocity S-wave (km/s) = 3.94641 3.10245 3.54960
# Velocity P-wave (km/s) = 6.37200 7.72751 7.08226
#
# Compressibility (1/GPa) = 0.02927402
#
# Stress axis : x y z
#
# Youngs Moduli (GPa) = 22.78343 95.58794 76.56096
#
# Poissons Ratio (x) = 0.33946 0.72126
# Poissons Ratio (y) = 0.08091 0.46689
# Poissons Ratio (z) = 0.21464 0.58293
#
# Static dielectric constant tensor:
#      x y z
#    x 1.582260 0.000000 0.000000 
#    y 0.000000 1.572280 0.000000 
#    z 0.000000 0.000000 1.568650 
# 
# From -- ./inp_files/15563.got.cif
#   From: 2010.05.17/outbox.cif.g08.bks.cpg/sg47_8_cif.got.tgz:15563.got - 2010.06.03 20:15:42.
