data_PCOD9383663
_publ_section_title
;
Structure prediction by ZEFSAII (Michael W. Deem and Ramdas Pophale) SiO2 
 PCOD9383663
Probable space group: P M M M
;
_chemical_formula_sum "Si O2"
_cell_formula_units_Z 28
_cell_length_a 15.944364
_cell_length_b 8.827998
_cell_length_c 12.034321
_cell_angle_alpha 90.000000
_cell_angle_beta 90.000000
_cell_angle_gamma 90.000000
_cell_volume 1693.912677
_symmetry_space_group_name_H-M "P M M M"
_symmetry_group_IT_number 47
_symmetry_cell_setting 'orthorhombic'
loop_
_space_group_symop_operation_xyz
x,y,z
-x,-y,z
x,-y,-z
-x,y,-z
-x,-y,-z
x,y,-z
-x,y,z
x,-y,z
loop_
_atom_site_type_symbol
_atom_site_label
_atom_site_fract_x
_atom_site_fract_y
_atom_site_fract_z
Si Si1 0.341866 0.683597 0.740867
Si Si2 0.402465 0.684197 0.500000
Si Si3 0.000000 0.825385 0.865149
Si Si4 0.500000 0.818953 0.869392
Si Si5 0.824359 0.317584 0.870632
O O1 0.345785 0.500000 0.745170
O O2 0.356675 0.731008 0.613261
O O3 0.418163 0.749115 0.812136
O O4 0.253678 0.730728 0.794900
O O5 0.404107 0.500000 0.500000
O O6 0.500000 0.734093 0.500000
O O7 0.086435 0.746186 0.830882
O O8 0.000000 0.000000 0.831643
O O9 0.000000 0.818021 0.000000
O O10 0.500000 0.000000 0.855758
O O11 0.500000 0.783503 0.000000
O O12 0.828491 0.500000 0.869296
O O13 0.810790 0.271369 0.000000
#
# Coordination Sequence:
#
# PCOD9383663 Si02
#       5
#     8   4   4   4   8
#     4  10  19  33  53  73  96 129 167 204 244 290
#     4   9  16  30  52  75  96 123 165 212 246 278
#     4   9  17  29  47  70  97 128 156 189 240 297
#     4  11  23  34  45  68 102 133 160 199 248 293
#     4   9  17  29  47  72  98 124 158 199 240 287
#
# _framework density 16.529778
#
# number of rings (size 3 to 8) (size 9 to 14) (size 15 to 20)
#    0.000    2.429    1.429    1.714    0.000    5.143 
#    0.000    4.286    0.000    0.857    0.000    6.000 
#    0.000    0.000    0.000    0.000    0.000    0.000 
#
# Total GULP energy -156123.387953 kJ/mol
# GULP energy per Si atom -5575.835284 kJ/mol
# Density = 1.649216 g / cm^3
# Si number density = 16.529778 Si / 1000 Ang^3
#
#
#
# Elastic Constant Matrix: (Units=GPa)
#
#
# Indices 1 2 3 4 5 6 
#
# 1 194.8474 36.6121 94.7180 0.0000 0.0000 0.0000
# 2 36.6121 11.7021 29.9477 0.0000 0.0000 0.0000
# 3 94.7180 29.9477 124.0135 0.0000 0.0000 0.0000
# 4 0.0000 0.0000 0.0000 10.6541 0.0000 0.0000
# 5 0.0000 0.0000 0.0000 0.0000 2.3753 0.0000
# 6 0.0000 0.0000 0.0000 0.0000 0.0000 -2.4856
#
#
#
# Elastic Compliance Matrix: (Units=1/GPa)
#
#
# Indices 1 2 3 4 5 6 
#
# 1 0.012457 -0.038286 -0.000269 0.000000 0.000000 0.000000
# 2 -0.038286 0.341382 -0.053198 0.000000 0.000000 0.000000
# 3 -0.000269 -0.053198 0.021115 0.000000 0.000000 0.000000
# 4 0.000000 0.000000 0.000000 0.093860 0.000000 0.000000
# 5 0.000000 0.000000 0.000000 0.000000 0.420997 0.000000
# 6 0.000000 0.000000 0.000000 0.000000 0.000000 -0.402325
#
#
# Mechanical properties :
#
#
# Convention : Reuss Voigt Hill
#
# Bulk Modulus (GPa) = 5.22331 72.56871 38.89601
# Shear Modulus (GPa) = 6.80451 13.39446 10.09948
#
# Velocity S-wave (km/s) = 2.03112 2.84971 2.47450
# Velocity P-wave (km/s) = 2.94404 7.40438 5.63437
#
# Compressibility (1/GPa) = 0.19144962
#
# Stress axis : x y z
#
# Youngs Moduli (GPa) = 80.27780 2.92927 47.35909
#
# Poissons Ratio (x) = 0.11215 0.01272
# Poissons Ratio (y) = 3.07352 2.51939
# Poissons Ratio (z) = 0.02156 0.15583
#
# Static dielectric constant tensor:
#      x y z
#    x 1.537070 0.000000 0.000000 
#    y 0.000000 1.549870 0.000000 
#    z 0.000000 0.000000 1.549320 
# 
# From -- ./inp_files/18129.got.cif
#   From: 2010.05.17/outbox.cif.g08.bks.cpg/sg47_10_cif.got.tgz:18129.got - 2010.06.03 20:15:42.
