data_PCOD9383872
_publ_section_title
;
Structure prediction by ZEFSAII (Michael W. Deem and Ramdas Pophale) SiO2 
 PCOD9383872
Probable space group: P M M M
;
_chemical_formula_sum "Si O2"
_cell_formula_units_Z 48
_cell_length_a 16.137904
_cell_length_b 18.309836
_cell_length_c 7.546086
_cell_angle_alpha 90.000000
_cell_angle_beta 90.000000
_cell_angle_gamma 90.000000
_cell_volume 2229.735418
_symmetry_space_group_name_H-M "P M M M"
_symmetry_group_IT_number 47
_symmetry_cell_setting 'orthorhombic'
loop_
_space_group_symop_operation_xyz
x,y,z
-x,-y,z
x,-y,-z
-x,y,-z
-x,-y,-z
x,y,-z
-x,y,z
x,-y,z
loop_
_atom_site_type_symbol
_atom_site_label
_atom_site_fract_x
_atom_site_fract_y
_atom_site_fract_z
Si Si1 0.327531 0.844432 0.712048
Si Si2 0.592870 0.000000 0.209552
Si Si3 0.907987 0.647577 0.283210
Si Si4 0.000000 0.082184 0.211471
Si Si5 0.733703 0.417867 0.716287
Si Si6 0.407474 0.304201 0.716641
Si Si7 0.854721 0.192255 0.290092
O O1 0.324067 0.837494 0.500000
O O2 0.359810 0.925500 0.745579
O O3 0.386328 0.778480 0.773818
O O4 0.235148 0.829063 0.782542
O O5 0.500000 0.000000 0.287955
O O6 0.585200 0.000000 0.000000
O O7 0.909120 0.646056 0.500000
O O8 0.827141 0.602452 0.227740
O O9 0.891333 0.731101 0.223953
O O10 0.000000 0.623919 0.225784
O O11 0.919664 0.127701 0.265936
O O12 0.000000 0.000000 0.282555
O O13 0.000000 0.078678 0.000000
O O14 0.733795 0.415864 0.500000
O O15 0.712362 0.500000 0.770739
O O16 0.665772 0.358543 0.774198
O O17 0.407140 0.305437 0.500000
O O18 0.500000 0.325300 0.773328
O O19 0.844192 0.203971 0.500000
#
# Coordination Sequence:
#
# PCOD9383872 Si02
#       7
#     8   4   8   4   8   8   8
#     4  10  20  35  57  81 103 135 182 227 265 312
#     4  11  25  41  55  76 109 142 171 215 276 331
#     4   9  15  26  45  67  94 130 171 214 256 300
#     4  11  25  39  51  75 110 139 168 214 269 321
#     4   9  16  25  38  64 104 141 173 211 258 316
#     4   9  16  27  45  69  99 137 177 216 260 312
#     4  10  19  34  56  77  99 136 180 219 258 306
#
# _framework density 21.527218000000001
#
# number of rings (size 3 to 8) (size 9 to 14) (size 15 to 20)
#    0.000    2.333    2.500    1.000    1.167    3.333 
#    0.000    3.333    0.000    0.000    0.000    0.000 
#    0.000    3.333    0.000    3.500    0.000    3.333 
#
# Total GULP energy -268026.584777 kJ/mol
# GULP energy per Si atom -5583.887183 kJ/mol
# Density = 2.147822 g / cm^3
# Si number density = 21.527218 Si / 1000 Ang^3
#
#
#
# Elastic Constant Matrix: (Units=GPa)
#
#
# Indices 1 2 3 4 5 6 
#
# 1 183.5548 66.7281 2.5731 0.0000 0.0000 0.0000
# 2 66.7281 137.5842 -3.5010 0.0000 0.0000 0.0000
# 3 2.5731 -3.5010 49.6363 0.0000 0.0000 0.0000
# 4 0.0000 0.0000 0.0000 -192.9306 0.0000 0.0000
# 5 0.0000 0.0000 0.0000 0.0000 159.1170 0.0000
# 6 0.0000 0.0000 0.0000 0.0000 0.0000 21.4507
#
#
#
# Elastic Compliance Matrix: (Units=1/GPa)
#
#
# Indices 1 2 3 4 5 6 
#
# 1 0.006630 -0.003230 -0.000572 0.000000 0.000000 0.000000
# 2 -0.003230 0.008855 0.000792 0.000000 0.000000 0.000000
# 3 -0.000572 0.000792 0.020232 0.000000 0.000000 0.000000
# 4 0.000000 0.000000 0.000000 -0.005183 0.000000 0.000000
# 5 0.000000 0.000000 0.000000 0.000000 0.006285 0.000000
# 6 0.000000 0.000000 0.000000 0.000000 0.000000 0.046618
#
#
# Mechanical properties :
#
#
# Convention : Reuss Voigt Hill
#
# Bulk Modulus (GPa) = 33.67238 55.81951 44.74594
# Shear Modulus (GPa) = 50.32407 17.85910 34.09159
#
# Velocity S-wave (km/s) = 4.84022 2.88341 3.98383
# Velocity P-wave (km/s) = 6.84928 6.08863 6.48013
#
# Compressibility (1/GPa) = 0.02969793
#
# Stress axis : x y z
#
# Youngs Moduli (GPa) = 150.82365 112.92959 49.42654
#
# Poissons Ratio (x) = 0.36479 0.02825
# Poissons Ratio (y) = 0.48719 -0.03915
# Poissons Ratio (z) = 0.08620 -0.08944
#
# Static dielectric constant tensor:
#      x y z
#    x 1.758590 0.000000 0.000000 
#    y 0.000000 1.776260 0.000000 
#    z 0.000000 0.000000 1.808950 
# 
# From -- ./inp_files/6464.got.cif
#   From: 2010.05.17/outbox.cif.g08.bks.cpg/sg47_4_cif.got.tgz:6464.got - 2010.06.03 20:15:42.
