data_PCOD9383346
_publ_section_title
;
Structure prediction by ZEFSAII (Michael W. Deem and Ramdas Pophale) SiO2 
 PCOD9383346
Probable space group: P M M M
;
_chemical_formula_sum "Si O2"
_cell_formula_units_Z 56
_cell_length_a 15.182311
_cell_length_b 20.743423
_cell_length_c 9.233590
_cell_angle_alpha 90.000000
_cell_angle_beta 90.000000
_cell_angle_gamma 90.000000
_cell_volume 2907.963115
_symmetry_space_group_name_H-M "P M M M"
_symmetry_group_IT_number 47
_symmetry_cell_setting 'orthorhombic'
loop_
_space_group_symop_operation_xyz
x,y,z
-x,-y,z
x,-y,-z
-x,y,-z
-x,-y,-z
x,y,-z
-x,y,z
x,-y,z
loop_
_atom_site_type_symbol
_atom_site_label
_atom_site_fract_x
_atom_site_fract_y
_atom_site_fract_z
Si Si1 0.097756 0.340148 0.172623
Si Si2 0.398704 0.878615 0.840147
Si Si3 0.159899 0.802039 0.171316
Si Si4 0.391246 0.000000 0.664121
Si Si5 0.894212 0.927891 0.335155
Si Si6 0.279433 0.622488 0.674007
Si Si7 0.336656 0.763713 0.329402
Si Si8 0.602818 0.500000 0.676394
O O1 0.101566 0.262374 0.193261
O O2 0.183533 0.370208 0.251070
O O3 0.000000 0.362784 0.219805
O O4 0.105897 0.351854 0.000000
O O5 0.500000 0.897780 0.856310
O O6 0.398528 0.810157 0.761534
O O7 0.358955 0.935610 0.744175
O O8 0.358758 0.874907 0.000000
O O9 0.125520 0.870699 0.224332
O O10 0.242624 0.788394 0.273973
O O11 0.180163 0.803053 0.000000
O O12 0.500000 0.000000 0.659571
O O13 0.361145 0.000000 0.500000
O O14 0.862979 0.913060 0.500000
O O15 0.000000 0.931283 0.342494
O O16 0.862205 0.000000 0.295604
O O17 0.265481 0.619150 0.500000
O O18 0.334727 0.687849 0.702939
O O19 0.339483 0.562275 0.719742
O O20 0.349932 0.772784 0.500000
O O21 0.500000 0.500000 0.724682
O O22 0.599790 0.500000 0.500000
#
# Coordination Sequence:
#
# PCOD9383346 Si02
#       8
#     8   8   8   4   8   8   8   4
#     4   9  18  33  54  80 111 148 185 224 278 338
#     4  10  20  34  52  74 101 134 173 219 273 331
#     4  10  19  32  50  72 100 133 175 224 272 325
#     4   9  17  31  51  73  97 127 166 215 270 329
#     4   9  18  32  48  67  95 131 170 215 267 320
#     4   9  19  35  57  85 114 145 185 233 278 327
#     4  10  20  34  52  76 105 136 174 220 270 323
#     4   9  18  36  62  89 118 152 187 225 276 333
#
# _framework density 19.257466000000001
#
# number of rings (size 3 to 8) (size 9 to 14) (size 15 to 20)
#    0.000    2.571    0.000    2.357    0.000    4.857 
#    1.286    2.857    0.000    3.000    0.000    0.000 
#    0.000    0.000    0.000    0.000    0.000    0.000 
#
# Total GULP energy -311940.303482 kJ/mol
# GULP energy per Si atom -5570.362562 kJ/mol
# Density = 1.921363 g / cm^3
# Si number density = 19.257466 Si / 1000 Ang^3
#
#
#
# Elastic Constant Matrix: (Units=GPa)
#
#
# Indices 1 2 3 4 5 6 
#
# 1 72.6468 52.8758 26.2297 0.0000 0.0000 0.0000
# 2 52.8758 140.9895 65.8476 0.0000 0.0000 0.0000
# 3 26.2297 65.8476 82.4734 0.0000 0.0000 0.0000
# 4 0.0000 0.0000 0.0000 16.5810 0.0000 0.0000
# 5 0.0000 0.0000 0.0000 0.0000 17.5389 0.0000
# 6 0.0000 0.0000 0.0000 0.0000 0.0000 -13.9483
#
#
#
# Elastic Compliance Matrix: (Units=1/GPa)
#
#
# Indices 1 2 3 4 5 6 
#
# 1 0.018950 -0.006844 -0.000562 0.000000 0.000000 0.000000
# 2 -0.006844 0.013782 -0.008827 0.000000 0.000000 0.000000
# 3 -0.000562 -0.008827 0.019352 0.000000 0.000000 0.000000
# 4 0.000000 0.000000 0.000000 0.060310 0.000000 0.000000
# 5 0.000000 0.000000 0.000000 0.000000 0.057016 0.000000
# 6 0.000000 0.000000 0.000000 0.000000 0.000000 -0.071693
#
#
# Mechanical properties :
#
#
# Convention : Reuss Voigt Hill
#
# Bulk Modulus (GPa) = 50.97781 65.11287 58.04534
# Shear Modulus (GPa) = 36.57044 14.11141 25.34093
#
# Velocity S-wave (km/s) = 4.36251 2.70992 3.63147
# Velocity P-wave (km/s) = 7.20448 6.60884 6.91308
#
# Compressibility (1/GPa) = 0.01961638
#
# Stress axis : x y z
#
# Youngs Moduli (GPa) = 52.77106 72.55787 51.67544
#
# Poissons Ratio (x) = 0.49660 0.02906
# Poissons Ratio (y) = 0.36118 0.45614
# Poissons Ratio (z) = 0.02967 0.64047
#
# Static dielectric constant tensor:
#      x y z
#    x 1.803100 0.000000 0.000000 
#    y 0.000000 1.686560 0.000000 
#    z 0.000000 0.000000 1.667550 
# 
# From -- ./inp_files/7458.got.cif
#   From: 2010.05.17/outbox.cif.g08.bks.cpg/sg47_4_cif.got.tgz:7458.got - 2010.06.03 20:15:42.
