data_PCOD9383407
_publ_section_title
;
Structure prediction by ZEFSAII (Michael W. Deem and Ramdas Pophale) SiO2 
 PCOD9383407
Probable space group: P M M M
;
_chemical_formula_sum "Si O2"
_cell_formula_units_Z 40
_cell_length_a 27.963125
_cell_length_b 9.520327
_cell_length_c 8.269039
_cell_angle_alpha 90.000000
_cell_angle_beta 90.000000
_cell_angle_gamma 90.000000
_cell_volume 2201.367801
_symmetry_space_group_name_H-M "P M M M"
_symmetry_group_IT_number 47
_symmetry_cell_setting 'orthorhombic'
loop_
_space_group_symop_operation_xyz
x,y,z
-x,-y,z
x,-y,-z
-x,y,-z
-x,-y,-z
x,y,-z
-x,y,z
x,-y,z
loop_
_atom_site_type_symbol
_atom_site_label
_atom_site_fract_x
_atom_site_fract_y
_atom_site_fract_z
Si Si1 0.886949 0.671191 0.180529
Si Si2 0.590704 0.162088 0.693577
Si Si3 0.214842 0.663933 0.309644
Si Si4 0.500000 0.339323 0.193571
Si Si5 0.944561 0.671328 0.500000
Si Si6 0.304871 0.836585 0.807061
O O1 0.887821 0.500000 0.182909
O O2 0.831883 0.712750 0.212108
O O3 0.918319 0.717537 0.334546
O O4 0.902492 0.715244 0.000000
O O5 0.592314 0.161163 0.500000
O O6 0.546996 0.257212 0.749143
O O7 0.642098 0.212256 0.757947
O O8 0.583771 0.000000 0.749449
O O9 0.203193 0.672550 0.500000
O O10 0.223064 0.500000 0.270280
O O11 0.262246 0.749881 0.271593
O O12 0.500000 0.500000 0.253206
O O13 0.500000 0.341266 0.000000
O O14 0.942711 0.500000 0.500000
O O15 0.000000 0.712606 0.500000
O O16 0.301472 0.000000 0.756828
O O17 0.300264 0.828721 0.000000
#
# Coordination Sequence:
#
# PCOD9383407 Si02
#       6
#     8   8   8   4   4   8
#     4   9  16  27  43  64  94 132 173 217 265 317
#     4  10  21  38  59  80 102 133 172 211 257 312
#     4  10  19  32  51  74 102 138 177 216 262 318
#     4  11  24  39  56  80 108 137 170 211 256 304
#     4   9  16  26  40  62  95 133 175 220 263 314
#     4  10  21  36  54  78 107 137 172 216 262 311
#
# _framework density 18.170521999999998
#
# number of rings (size 3 to 8) (size 9 to 14) (size 15 to 20)
#    0.000    2.200    1.000    2.400    0.000    6.800 
#    0.000    2.000    0.000    0.000    0.000    0.000 
#    0.000    1.600    0.000    4.200    0.000    4.000 
#
# Total GULP energy -223195.094312 kJ/mol
# GULP energy per Si atom -5579.877358 kJ/mol
# Density = 1.812916 g / cm^3
# Si number density = 18.170522 Si / 1000 Ang^3
#
#
#
# Elastic Constant Matrix: (Units=GPa)
#
#
# Indices 1 2 3 4 5 6 
#
# 1 135.2823 39.1249 56.3272 0.0000 0.0000 0.0000
# 2 39.1249 30.7272 21.4902 0.0000 0.0000 0.0000
# 3 56.3272 21.4902 90.5896 0.0000 0.0000 0.0000
# 4 0.0000 0.0000 0.0000 18.4411 0.0000 0.0000
# 5 0.0000 0.0000 0.0000 0.0000 15.6976 0.0000
# 6 0.0000 0.0000 0.0000 0.0000 0.0000 194.3599
#
#
#
# Elastic Compliance Matrix: (Units=1/GPa)
#
#
# Indices 1 2 3 4 5 6 
#
# 1 0.013448 -0.013518 -0.005155 0.000000 0.000000 0.000000
# 2 -0.013518 0.052606 -0.004074 0.000000 0.000000 0.000000
# 3 -0.005155 -0.004074 0.015211 0.000000 0.000000 0.000000
# 4 0.000000 0.000000 0.000000 0.054227 0.000000 0.000000
# 5 0.000000 0.000000 0.000000 0.000000 0.063704 0.000000
# 6 0.000000 0.000000 0.000000 0.000000 0.000000 0.005145
#
#
# Mechanical properties :
#
#
# Convention : Reuss Voigt Hill
#
# Bulk Modulus (GPa) = 27.95606 54.49821 41.22714
# Shear Modulus (GPa) = 19.10163 55.01018 37.05591
#
# Velocity S-wave (km/s) = 3.24581 5.50819 4.52081
# Velocity P-wave (km/s) = 5.42824 8.39710 7.07026
#
# Compressibility (1/GPa) = 0.03577041
#
# Stress axis : x y z
#
# Youngs Moduli (GPa) = 74.36214 19.00918 65.74390
#
# Poissons Ratio (x) = 0.25696 0.33890
# Poissons Ratio (y) = 1.00521 0.26787
# Poissons Ratio (z) = 0.38332 0.07745
#
# Static dielectric constant tensor:
#      x y z
#    x 1.601240 0.000000 0.000000 
#    y 0.000000 1.608820 0.000000 
#    z 0.000000 0.000000 1.638540 
# 
# From -- ./inp_files/13051.got.cif
#   From: 2010.05.17/outbox.cif.g08.bks.cpg/sg47_7_cif.got.tgz:13051.got - 2010.06.03 20:15:42.
