data_PCOD9383017
_publ_section_title
;
Structure prediction by ZEFSAII (Michael W. Deem and Ramdas Pophale) SiO2 
 PCOD9383017
Probable space group: P M M M
;
_chemical_formula_sum "Si O2"
_cell_formula_units_Z 40
_cell_length_a 18.914750
_cell_length_b 18.688268
_cell_length_c 8.003515
_cell_angle_alpha 90.000000
_cell_angle_beta 90.000000
_cell_angle_gamma 90.000000
_cell_volume 2829.113833
_symmetry_space_group_name_H-M "P M M M"
_symmetry_group_IT_number 47
_symmetry_cell_setting 'orthorhombic'
loop_
_space_group_symop_operation_xyz
x,y,z
-x,-y,z
x,-y,-z
-x,y,-z
-x,-y,-z
x,y,-z
-x,y,z
x,-y,z
loop_
_atom_site_type_symbol
_atom_site_label
_atom_site_fract_x
_atom_site_fract_y
_atom_site_fract_z
Si Si1 0.081934 0.766486 0.697244
Si Si2 0.580699 0.586797 0.000000
Si Si3 0.678233 0.414586 0.311348
Si Si4 0.080443 0.500000 0.796017
Si Si5 0.826201 0.365562 0.803614
Si Si6 0.915952 0.077418 0.799403
O O1 0.080617 0.752677 0.500000
O O2 0.132271 0.708221 0.780057
O O3 0.108999 0.847390 0.726792
O O4 0.000000 0.761393 0.759552
O O5 0.623689 0.607137 0.166641
O O6 0.578252 0.500000 0.000000
O O7 0.500000 0.612778 0.000000
O O8 0.650983 0.405052 0.500000
O O9 0.693231 0.500000 0.288895
O O10 0.751687 0.372948 0.288289
O O11 0.122528 0.570598 0.744004
O O12 0.000000 0.500000 0.736345
O O13 0.078453 0.500000 0.000000
O O14 0.811860 0.377390 0.000000
O O15 0.000000 0.076045 0.762307
O O16 0.887006 0.000000 0.741870
O O17 0.908416 0.080300 0.000000
#
# Coordination Sequence:
#
# PCOD9383017 Si02
#       6
#     8   4   8   4   8   8
#     4  10  20  30  39  57  84 110 143 188 230 267
#     4   9  18  32  50  70  90 110 137 174 215 259
#     4  10  19  31  48  67  88 114 144 177 218 265
#     4   9  18  28  41  59  75 103 149 194 231 264
#     4  11  19  30  46  59  81 113 149 187 226 266
#     4   8  14  26  43  59  74  97 133 176 223 272
#
# _framework density 14.138703
#
# number of rings (size 3 to 8) (size 9 to 14) (size 15 to 20)
#    0.000    2.400    2.000    2.400    0.000    2.800 
#    0.000    4.000    0.000    2.400    0.000    0.000 
#    0.000    0.000    0.000    0.000    0.000    2.000 
#
# Total GULP energy -222894.622297 kJ/mol
# GULP energy per Si atom -5572.365557 kJ/mol
# Density = 1.410652 g / cm^3
# Si number density = 14.138703 Si / 1000 Ang^3
#
#
#
# Elastic Constant Matrix: (Units=GPa)
#
#
# Indices 1 2 3 4 5 6 
#
# 1 77.2133 24.7008 29.6079 0.0000 0.0000 0.0000
# 2 24.7008 65.9754 15.7220 0.0000 0.0000 0.0000
# 3 29.6079 15.7220 54.5151 0.0000 0.0000 0.0000
# 4 0.0000 0.0000 0.0000 10.7287 0.0000 0.0000
# 5 0.0000 0.0000 0.0000 0.0000 8.8046 0.0000
# 6 0.0000 0.0000 0.0000 0.0000 0.0000 1.5531
#
#
#
# Elastic Compliance Matrix: (Units=1/GPa)
#
#
# Indices 1 2 3 4 5 6 
#
# 1 0.017580 -0.004624 -0.008214 0.000000 0.000000 0.000000
# 2 -0.004624 0.017492 -0.002533 0.000000 0.000000 0.000000
# 3 -0.008214 -0.002533 0.023535 0.000000 0.000000 0.000000
# 4 0.000000 0.000000 0.000000 0.093208 0.000000 0.000000
# 5 0.000000 0.000000 0.000000 0.000000 0.113576 0.000000
# 6 0.000000 0.000000 0.000000 0.000000 0.000000 0.643867
#
#
# Mechanical properties :
#
#
# Convention : Reuss Voigt Hill
#
# Bulk Modulus (GPa) = 35.88863 37.52948 36.70905
# Shear Modulus (GPa) = 5.26709 12.72883 8.99796
#
# Velocity S-wave (km/s) = 1.93220 3.00373 2.52545
# Velocity P-wave (km/s) = 5.51509 6.21540 5.87569
#
# Compressibility (1/GPa) = 0.02786398
#
# Stress axis : x y z
#
# Youngs Moduli (GPa) = 56.88144 57.16844 42.48909
#
# Poissons Ratio (x) = 0.26437 0.34903
# Poissons Ratio (y) = 0.26305 0.10763
# Poissons Ratio (z) = 0.46725 0.14481
#
# Static dielectric constant tensor:
#      x y z
#    x 1.439350 0.000000 0.000000 
#    y 0.000000 1.469840 0.000000 
#    z 0.000000 0.000000 1.504500 
# 
# From -- ./inp_files/9391.got.cif
#   From: 2010.05.17/outbox.cif.g08.bks.cpg/sg47_5_cif.got.tgz:9391.got - 2010.06.03 20:15:42.
