data_PCOD9383337
_publ_section_title
;
Structure prediction by ZEFSAII (Michael W. Deem and Ramdas Pophale) SiO2 
 PCOD9383337
Probable space group: P M M M
;
_chemical_formula_sum "Si O2"
_cell_formula_units_Z 56
_cell_length_a 7.411034
_cell_length_b 14.508529
_cell_length_c 22.674732
_cell_angle_alpha 90.000000
_cell_angle_beta 90.000000
_cell_angle_gamma 90.000000
_cell_volume 2438.059783
_symmetry_space_group_name_H-M "P M M M"
_symmetry_group_IT_number 47
_symmetry_cell_setting 'orthorhombic'
loop_
_space_group_symop_operation_xyz
x,y,z
-x,-y,z
x,-y,-z
-x,y,-z
-x,-y,-z
x,y,-z
-x,y,z
x,-y,z
loop_
_atom_site_type_symbol
_atom_site_label
_atom_site_fract_x
_atom_site_fract_y
_atom_site_fract_z
Si Si1 0.293392 0.630272 0.265137
Si Si2 0.718867 0.598419 0.397310
Si Si3 0.219654 0.829719 0.307129
Si Si4 0.219173 0.000000 0.231015
Si Si5 0.219351 0.000000 0.095485
Si Si6 0.208485 0.800311 0.436538
Si Si7 0.215187 0.789413 0.068339
Si Si8 0.207982 0.602390 0.868779
O O1 0.500000 0.600003 0.261571
O O2 0.219942 0.598060 0.328727
O O3 0.284614 0.738923 0.274849
O O4 0.208688 0.606248 0.202655
O O5 0.500000 0.605507 0.396698
O O6 0.767825 0.500000 0.424035
O O7 0.787374 0.689431 0.428932
O O8 0.285464 0.835268 0.374585
O O9 0.000000 0.825814 0.309211
O O10 0.278742 0.912824 0.267363
O O11 0.270774 0.000000 0.163782
O O12 0.000000 0.000000 0.230929
O O13 0.279722 0.896938 0.074400
O O14 0.000000 0.000000 0.086547
O O15 0.289676 0.824715 0.500000
O O16 0.000000 0.830240 0.437857
O O17 0.283529 0.700862 0.106693
O O18 0.000000 0.795748 0.081901
O O19 0.239817 0.764200 0.000000
O O20 0.284581 0.500000 0.884936
O O21 0.000000 0.601211 0.889038
#
# Coordination Sequence:
#
# PCOD9383337 Si02
#       8
#     8   8   8   4   4   8   8   8
#     4  10  19  32  50  71  97 128 161 201 248 296
#     4   9  18  31  46  65  88 116 153 196 240 286
#     4   9  17  31  50  71  97 128 161 199 245 295
#     4   9  16  27  48  76 101 125 156 197 244 292
#     4   9  15  24  43  72 102 127 156 201 252 296
#     4   9  18  31  45  63  90 123 157 193 234 283
#     4   9  17  29  46  70 100 132 166 204 245 290
#     4  10  20  32  48  72 101 133 168 206 249 298
#
# _framework density 22.969083000000001
#
# number of rings (size 3 to 8) (size 9 to 14) (size 15 to 20)
#    0.000    2.714    0.000    1.929    0.000    5.714 
#    0.000    3.571    0.000    2.571    0.000    1.000 
#    0.000    6.857    0.000    0.000    0.000    0.000 
#
# Total GULP energy -312124.098189 kJ/mol
# GULP energy per Si atom -5573.644611 kJ/mol
# Density = 2.291680 g / cm^3
# Si number density = 22.969083 Si / 1000 Ang^3
#
#
#
# Elastic Constant Matrix: (Units=GPa)
#
#
# Indices 1 2 3 4 5 6 
#
# 1 75.5137 2.7715 2.1915 0.0000 0.0000 0.0000
# 2 2.7715 133.1614 56.3357 0.0000 0.0000 0.0000
# 3 2.1915 56.3357 88.6656 0.0000 0.0000 0.0000
# 4 0.0000 0.0000 0.0000 -193.5992 0.0000 0.0000
# 5 0.0000 0.0000 0.0000 0.0000 -22.3368 0.0000
# 6 0.0000 0.0000 0.0000 0.0000 0.0000 2.8197
#
#
#
# Elastic Compliance Matrix: (Units=1/GPa)
#
#
# Indices 1 2 3 4 5 6 
#
# 1 0.013256 -0.000188 -0.000208 0.000000 0.000000 0.000000
# 2 -0.000188 0.010273 -0.006523 0.000000 0.000000 0.000000
# 3 -0.000208 -0.006523 0.015428 0.000000 0.000000 0.000000
# 4 0.000000 0.000000 0.000000 -0.005165 0.000000 0.000000
# 5 0.000000 0.000000 0.000000 0.000000 -0.044769 0.000000
# 6 0.000000 0.000000 0.000000 0.000000 0.000000 0.354653
#
#
# Mechanical properties :
#
#
# Convention : Reuss Voigt Hill
#
# Bulk Modulus (GPa) = 39.81047 46.65981 43.23514
# Shear Modulus (GPa) = 13.66549 -26.88713 -6.61082
#
# Velocity S-wave (km/s) = 2.44181 -3.42508 -1.69835
# Velocity P-wave (km/s) = 5.03187 2.17179 3.87533
#
# Compressibility (1/GPa) = 0.02511902
#
# Stress axis : x y z
#
# Youngs Moduli (GPa) = 75.44003 97.34211 64.81833
#
# Poissons Ratio (x) = 0.01828 0.01350
# Poissons Ratio (y) = 0.01416 0.42278
# Poissons Ratio (z) = 0.01572 0.63492
#
# Static dielectric constant tensor:
#      x y z
#    x 1.900100 0.000000 0.000000 
#    y 0.000000 1.735070 0.000000 
#    z 0.000000 0.000000 1.825660 
# 
# From -- ./inp_files/29734.got.cif
#   From: 2010.05.17/outbox.cif.g08.bks.cpg/sg47_15_cif.got.tgz:29734.got - 2010.06.03 20:15:42.
