data_PCOD9383870
_publ_section_title
;
Structure prediction by ZEFSAII (Michael W. Deem and Ramdas Pophale) SiO2 
 PCOD9383870
Probable space group: P M M M
;
_chemical_formula_sum "Si O2"
_cell_formula_units_Z 48
_cell_length_a 18.439443
_cell_length_b 7.559234
_cell_length_c 15.991483
_cell_angle_alpha 90.000000
_cell_angle_beta 90.000000
_cell_angle_gamma 90.000000
_cell_volume 2229.021863
_symmetry_space_group_name_H-M "P M M M"
_symmetry_group_IT_number 47
_symmetry_cell_setting 'orthorhombic'
loop_
_space_group_symop_operation_xyz
x,y,z
-x,-y,z
x,-y,-z
-x,y,-z
-x,-y,-z
x,y,-z
-x,y,z
x,-y,z
loop_
_atom_site_type_symbol
_atom_site_label
_atom_site_fract_x
_atom_site_fract_y
_atom_site_fract_z
Si Si1 0.149897 0.793328 0.592272
Si Si2 0.500000 0.215526 0.098117
Si Si3 0.690106 0.294054 0.649238
Si Si4 0.082479 0.783349 0.235967
Si Si5 0.652817 0.205537 0.163417
Si Si6 0.417130 0.787489 0.500000
Si Si7 0.804630 0.216681 0.905798
O O1 0.137038 0.715386 0.500000
O O2 0.235432 0.784206 0.613147
O O3 0.108063 0.719945 0.672615
O O4 0.129758 0.000000 0.587678
O O5 0.574528 0.281612 0.139662
O O6 0.500000 0.000000 0.106726
O O7 0.500000 0.256512 0.000000
O O8 0.703865 0.500000 0.663291
O O9 0.667643 0.213837 0.737808
O O10 0.627042 0.271717 0.581391
O O11 0.138530 0.725636 0.164625
O O12 0.000000 0.731622 0.218722
O O13 0.085068 0.000000 0.237066
O O14 0.723844 0.279884 0.117766
O O15 0.650073 0.000000 0.137578
O O16 0.500000 0.724509 0.500000
O O17 0.417701 0.000000 0.500000
O O18 0.803897 0.000000 0.903203
O O19 0.823987 0.268563 0.000000
#
# Coordination Sequence:
#
# PCOD9383870 Si02
#       7
#     8   4   8   8   8   4   8
#     4  10  19  34  57  80 106 145 188 230 275 333
#     4   9  18  32  55  86 111 136 181 237 282 327
#     4  12  24  37  56  83 114 148 186 229 275 329
#     4   9  17  29  47  78 116 146 179 230 288 340
#     4  10  19  34  55  79 110 146 186 231 280 333
#     4  11  25  43  63  85 112 147 188 231 279 332
#     4   9  16  27  48  77 108 144 185 233 285 335
#
# _framework density 21.534106999999999
#
# number of rings (size 3 to 8) (size 9 to 14) (size 15 to 20)
#    0.000    2.000    2.500    2.250    1.167    3.333 
#    0.000    3.333    0.000    3.000    0.000    1.167 
#    0.000    1.333    0.000    0.000    0.000    0.000 
#
# Total GULP energy -268176.835716 kJ/mol
# GULP energy per Si atom -5587.017411 kJ/mol
# Density = 2.148509 g / cm^3
# Si number density = 21.534107 Si / 1000 Ang^3
#
#
#
# Elastic Constant Matrix: (Units=GPa)
#
#
# Indices 1 2 3 4 5 6 
#
# 1 148.0350 3.3105 101.1453 0.0000 0.0000 0.0000
# 2 3.3105 54.5675 -5.5120 0.0000 0.0000 0.0000
# 3 101.1453 -5.5120 165.3643 0.0000 0.0000 0.0000
# 4 0.0000 0.0000 0.0000 -33.9527 0.0000 0.0000
# 5 0.0000 0.0000 0.0000 0.0000 13.1888 0.0000
# 6 0.0000 0.0000 0.0000 0.0000 0.0000 -69.3918
#
#
#
# Elastic Compliance Matrix: (Units=1/GPa)
#
#
# Indices 1 2 3 4 5 6 
#
# 1 0.011717 -0.001440 -0.007215 0.000000 0.000000 0.000000
# 2 -0.001440 0.018565 0.001499 0.000000 0.000000 0.000000
# 3 -0.007215 0.001499 0.010510 0.000000 0.000000 0.000000
# 4 0.000000 0.000000 0.000000 -0.029453 0.000000 0.000000
# 5 0.000000 0.000000 0.000000 0.000000 0.075822 0.000000
# 6 0.000000 0.000000 0.000000 0.000000 0.000000 -0.014411
#
#
# Mechanical properties :
#
#
# Convention : Reuss Voigt Hill
#
# Bulk Modulus (GPa) = 37.76169 62.87272 50.31721
# Shear Modulus (GPa) = 52.14495 -0.09630 26.02433
#
# Velocity S-wave (km/s) = 4.92622 -0.21170 3.48014
# Velocity P-wave (km/s) = 7.06616 5.40374 6.29011
#
# Compressibility (1/GPa) = 0.02648186
#
# Stress axis : x y z
#
# Youngs Moduli (GPa) = 85.34827 53.86562 95.14743
#
# Poissons Ratio (x) = 0.07754 0.68644
# Poissons Ratio (y) = 0.12287 -0.14266
# Poissons Ratio (z) = 0.61575 -0.08076
#
# Static dielectric constant tensor:
#      x y z
#    x 1.752480 0.000000 0.000000 
#    y 0.000000 1.794290 0.000000 
#    z 0.000000 0.000000 1.746980 
# 
# From -- ./inp_files/24434.got.cif
#   From: 2010.05.17/outbox.cif.g08.bks.cpg/sg47_13_cif.got.tgz:24434.got - 2010.06.03 20:15:42.
