data_PCOD9383696
_publ_section_title
;
Structure prediction by ZEFSAII (Michael W. Deem and Ramdas Pophale) SiO2 
 PCOD9383696
Probable space group: P M M M
;
_chemical_formula_sum "Si O2"
_cell_formula_units_Z 52
_cell_length_a 8.883935
_cell_length_b 28.826288
_cell_length_c 12.143550
_cell_angle_alpha 90.000000
_cell_angle_beta 90.000000
_cell_angle_gamma 90.000000
_cell_volume 3109.852271
_symmetry_space_group_name_H-M "P M M M"
_symmetry_group_IT_number 47
_symmetry_cell_setting 'orthorhombic'
loop_
_space_group_symop_operation_xyz
x,y,z
-x,-y,z
x,-y,-z
-x,y,-z
-x,-y,-z
x,y,-z
-x,y,z
x,-y,z
loop_
_atom_site_type_symbol
_atom_site_label
_atom_site_fract_x
_atom_site_fract_y
_atom_site_fract_z
Si Si1 0.819325 0.142706 0.784567
Si Si2 0.678436 0.189549 0.000000
Si Si3 0.178779 0.710800 0.000000
Si Si4 0.679708 0.403365 0.371159
Si Si5 0.173821 0.500000 0.366284
Si Si6 0.183059 0.775841 0.625976
Si Si7 0.319041 0.946394 0.128527
Si Si8 0.819949 0.317235 0.244696
O O1 0.752479 0.167192 0.892582
O O2 0.772816 0.175683 0.682991
O O3 0.757372 0.090574 0.791500
O O4 0.000000 0.142224 0.789809
O O5 0.500000 0.181697 0.000000
O O6 0.721079 0.243368 0.000000
O O7 0.207527 0.684367 0.113918
O O8 0.000000 0.724134 0.000000
O O9 0.723288 0.397265 0.500000
O O10 0.500000 0.405303 0.365765
O O11 0.746615 0.452443 0.331422
O O12 0.741443 0.360275 0.302803
O O13 0.180443 0.500000 0.500000
O O14 0.000000 0.500000 0.332981
O O15 0.235005 0.771585 0.500000
O O16 0.229286 0.731559 0.699591
O O17 0.000000 0.775299 0.625008
O O18 0.500000 0.941794 0.134531
O O19 0.280687 0.000000 0.151842
O O20 0.276742 0.937101 0.000000
O O21 0.000000 0.320989 0.261401
#
# Coordination Sequence:
#
# PCOD9383696 Si02
#       8
#     8   4   4   8   4   8   8   8
#     4  11  20  32  52  76 103 132 169 211 249 297
#     4  12  22  32  49  73 103 137 170 203 253 308
#     4  10  20  36  54  76 102 132 174 218 254 291
#     4  10  20  33  50  76 110 141 171 212 259 303
#     4   9  17  31  53  78 101 132 177 219 259 307
#     4   9  18  32  51  75 102 133 168 209 254 296
#     4   9  18  32  49  72 102 132 162 202 255 307
#     4  10  19  33  54  76 103 135 172 212 253 304
#
# _framework density 16.721050999999999
#
# number of rings (size 3 to 8) (size 9 to 14) (size 15 to 20)
#    0.000    2.077    2.308    2.769    0.000    3.385 
#    0.000    0.769    0.000    3.692    0.000    6.462 
#    0.000    0.000    0.000    0.000    0.000    0.000 
#
# Total GULP energy -290053.665390 kJ/mol
# GULP energy per Si atom -5577.955104 kJ/mol
# Density = 1.668299 g / cm^3
# Si number density = 16.721051 Si / 1000 Ang^3
#
#
#
# Elastic Constant Matrix: (Units=GPa)
#
#
# Indices 1 2 3 4 5 6 
#
# 1 36.5773 46.2394 29.5151 0.0000 0.0000 0.0000
# 2 46.2394 147.8450 61.4246 0.0000 0.0000 0.0000
# 3 29.5151 61.4246 99.7098 0.0000 0.0000 0.0000
# 4 0.0000 0.0000 0.0000 22.9093 0.0000 0.0000
# 5 0.0000 0.0000 0.0000 0.0000 12.4313 0.0000
# 6 0.0000 0.0000 0.0000 0.0000 0.0000 -82.0735
#
#
#
# Elastic Compliance Matrix: (Units=1/GPa)
#
#
# Indices 1 2 3 4 5 6 
#
# 1 0.048345 -0.012331 -0.006715 0.000000 0.000000 0.000000
# 2 -0.012331 0.012235 -0.003887 0.000000 0.000000 0.000000
# 3 -0.006715 -0.003887 0.014412 0.000000 0.000000 0.000000
# 4 0.000000 0.000000 0.000000 0.043650 0.000000 0.000000
# 5 0.000000 0.000000 0.000000 0.000000 0.080442 0.000000
# 6 0.000000 0.000000 0.000000 0.000000 0.000000 -0.012184
#
#
# Mechanical properties :
#
#
# Convention : Reuss Voigt Hill
#
# Bulk Modulus (GPa) = 34.33254 62.05446 48.19350
# Shear Modulus (GPa) = 20.62069 0.45029 10.53549
#
# Velocity S-wave (km/s) = 3.51553 0.51950 2.51285
# Velocity P-wave (km/s) = 6.08734 6.12797 6.10769
#
# Compressibility (1/GPa) = 0.02912689
#
# Stress axis : x y z
#
# Youngs Moduli (GPa) = 20.68455 81.73015 69.38896
#
# Poissons Ratio (x) = 1.00778 0.46592
# Poissons Ratio (y) = 0.25505 0.26975
# Poissons Ratio (z) = 0.13889 0.31772
#
# Static dielectric constant tensor:
#      x y z
#    x 1.559140 0.000000 0.000000 
#    y 0.000000 1.566250 0.000000 
#    z 0.000000 0.000000 1.555480 
# 
# From -- ./inp_files/15546.got.cif
#   From: 2010.05.17/outbox.cif.g08.bks.cpg/sg47_8_cif.got.tgz:15546.got - 2010.06.03 20:15:42.
