data_PCOD9383917
_publ_section_title
;
Structure prediction by ZEFSAII (Michael W. Deem and Ramdas Pophale) SiO2 
 PCOD9383917
Probable space group: P M M M
;
_chemical_formula_sum "Si O2"
_cell_formula_units_Z 52
_cell_length_a 12.473531
_cell_length_b 25.524924
_cell_length_c 7.432409
_cell_angle_alpha 90.000000
_cell_angle_beta 90.000000
_cell_angle_gamma 90.000000
_cell_volume 2366.374457
_symmetry_space_group_name_H-M "P M M M"
_symmetry_group_IT_number 47
_symmetry_cell_setting 'orthorhombic'
loop_
_space_group_symop_operation_xyz
x,y,z
-x,-y,z
x,-y,-z
-x,y,-z
-x,-y,-z
x,y,-z
-x,y,z
x,-y,z
loop_
_atom_site_type_symbol
_atom_site_label
_atom_site_fract_x
_atom_site_fract_y
_atom_site_fract_z
Si Si1 0.378628 0.345358 0.782516
Si Si2 0.218270 0.940532 0.783678
Si Si3 0.378351 0.848836 0.713701
Si Si4 0.766474 0.439890 0.779581
Si Si5 0.000000 0.883030 0.219078
Si Si6 0.766722 0.245744 0.288546
Si Si7 0.000000 0.239111 0.294615
Si Si8 0.000000 0.563848 0.207234
O O1 0.500000 0.339541 0.718108
O O2 0.323783 0.399383 0.723209
O O3 0.305619 0.296802 0.727777
O O4 0.380838 0.346096 0.000000
O O5 0.318807 0.903943 0.738559
O O6 0.107733 0.913090 0.723239
O O7 0.227338 0.000000 0.717232
O O8 0.211946 0.942644 0.000000
O O9 0.386426 0.839446 0.500000
O O10 0.500000 0.847366 0.785263
O O11 0.299868 0.803491 0.787722
O O12 0.748393 0.500000 0.724348
O O13 0.884564 0.421525 0.715687
O O14 0.770188 0.440295 0.000000
O O15 0.000000 0.824150 0.291032
O O16 0.000000 0.880200 0.000000
O O17 0.784064 0.233968 0.500000
O O18 0.885639 0.254355 0.210974
O O19 0.000000 0.259546 0.500000
O O20 0.000000 0.500000 0.205970
O O21 0.000000 0.581806 0.000000
#
# Coordination Sequence:
#
# PCOD9383917 Si02
#       8
#     8   8   8   8   4   8   4   4
#     4  10  21  34  50  77 109 140 179 223 261 305
#     4  10  21  36  55  81 112 144 175 210 260 319
#     4  10  21  37  57  78 101 137 184 226 263 307
#     4   8  14  26  45  70 102 138 174 215 264 313
#     4  10  19  34  57  83 111 139 170 211 262 316
#     4  10  21  38  58  78 103 136 173 215 269 323
#     4  10  20  36  60  84 104 129 170 221 265 317
#     4   7  10  19  38  64  93 127 166 206 251 303
#
# _framework density 21.974544999999999
#
# number of rings (size 3 to 8) (size 9 to 14) (size 15 to 20)
#    0.000    2.538    1.538    1.615    0.000    4.923 
#    0.000    3.846    0.000    1.846    0.000    1.077 
#    0.000    3.692    0.000    0.000    0.000    0.000 
#
# Total GULP energy -290377.600447 kJ/mol
# GULP energy per Si atom -5584.184624 kJ/mol
# Density = 2.192453 g / cm^3
# Si number density = 21.974545 Si / 1000 Ang^3
#
#
#
# Elastic Constant Matrix: (Units=GPa)
#
#
# Indices 1 2 3 4 5 6 
#
# 1 229.0379 75.8873 2.1759 0.0000 0.0000 0.0000
# 2 75.8873 94.3947 -14.4797 0.0000 0.0000 0.0000
# 3 2.1759 -14.4797 69.9599 0.0000 0.0000 0.0000
# 4 0.0000 0.0000 0.0000 19.4519 0.0000 0.0000
# 5 0.0000 0.0000 0.0000 0.0000 1.8821 0.0000
# 6 0.0000 0.0000 0.0000 0.0000 0.0000 7.3402
#
#
#
# Elastic Compliance Matrix: (Units=1/GPa)
#
#
# Indices 1 2 3 4 5 6 
#
# 1 0.006053 -0.005055 -0.001235 0.000000 0.000000 0.000000
# 2 -0.005055 0.015164 0.003296 0.000000 0.000000 0.000000
# 3 -0.001235 0.003296 0.015014 0.000000 0.000000 0.000000
# 4 0.000000 0.000000 0.000000 0.051409 0.000000 0.000000
# 5 0.000000 0.000000 0.000000 0.000000 0.531312 0.000000
# 6 0.000000 0.000000 0.000000 0.000000 0.000000 0.136235
#
#
# Mechanical properties :
#
#
# Convention : Reuss Voigt Hill
#
# Bulk Modulus (GPa) = 33.06649 57.83993 45.45321
# Shear Modulus (GPa) = 6.48293 27.72213 17.10253
#
# Velocity S-wave (km/s) = 1.71948 3.55569 2.79281
# Velocity P-wave (km/s) = 4.36147 6.57539 5.57935
#
# Compressibility (1/GPa) = 0.03024209
#
# Stress axis : x y z
#
# Youngs Moduli (GPa) = 165.21127 65.94720 66.60270
#
# Poissons Ratio (x) = 0.33340 0.08223
# Poissons Ratio (y) = 0.83522 -0.21950
# Poissons Ratio (z) = 0.20397 -0.21734
#
# Static dielectric constant tensor:
#      x y z
#    x 1.809180 0.000000 0.000000 
#    y 0.000000 1.750400 0.000000 
#    z 0.000000 0.000000 1.885900 
# 
# From -- ./inp_files/4683.got.cif
#   From: 2010.05.17/outbox.cif.g08.bks.cpg/sg47_3_cif.got.tgz:4683.got - 2010.06.03 20:15:42.
