data_PCOD9383869
_publ_section_title
;
Structure prediction by ZEFSAII (Michael W. Deem and Ramdas Pophale) SiO2 
 PCOD9383869
Probable space group: P M M M
;
_chemical_formula_sum "Si O2"
_cell_formula_units_Z 52
_cell_length_a 17.528388
_cell_length_b 7.511427
_cell_length_c 17.811452
_cell_angle_alpha 90.000000
_cell_angle_beta 90.000000
_cell_angle_gamma 90.000000
_cell_volume 2345.112890
_symmetry_space_group_name_H-M "P M M M"
_symmetry_group_IT_number 47
_symmetry_cell_setting 'orthorhombic'
loop_
_space_group_symop_operation_xyz
x,y,z
-x,-y,z
x,-y,-z
-x,y,-z
-x,-y,-z
x,y,-z
-x,y,z
x,-y,z
loop_
_atom_site_type_symbol
_atom_site_label
_atom_site_fract_x
_atom_site_fract_y
_atom_site_fract_z
Si Si1 0.316799 0.281757 0.353014
Si Si2 0.915327 0.206564 0.152782
Si Si3 0.500000 0.281237 0.086065
Si Si4 0.146766 0.292103 0.315025
Si Si5 0.366564 0.705988 0.192658
Si Si6 0.411070 0.717528 0.500000
Si Si7 0.234433 0.783692 0.082517
Si Si8 0.000000 0.213684 0.585496
O O1 0.316719 0.500000 0.353656
O O2 0.227766 0.225788 0.347489
O O3 0.356965 0.219621 0.275987
O O4 0.363897 0.225936 0.426151
O O5 0.880339 0.210096 0.236505
O O6 0.851336 0.280938 0.097674
O O7 0.000000 0.286327 0.152799
O O8 0.922884 0.000000 0.131707
O O9 0.500000 0.500000 0.082951
O O10 0.572440 0.219245 0.134267
O O11 0.500000 0.220938 0.000000
O O12 0.157776 0.500000 0.298797
O O13 0.076663 0.271881 0.372177
O O14 0.388271 0.500000 0.203429
O O15 0.286689 0.716446 0.149600
O O16 0.411930 0.500000 0.500000
O O17 0.500000 0.773736 0.500000
O O18 0.235841 0.000000 0.085298
O O19 0.262048 0.728666 0.000000
O O20 0.000000 0.277245 0.500000
O O21 0.000000 0.000000 0.586084
#
# Coordination Sequence:
#
# PCOD9383869 Si02
#       8
#     8   8   4   8   8   4   8   4
#     4   9  19  32  50  80 112 144 180 225 275 330
#     4  10  20  35  55  77 107 147 187 229 273 325
#     4   9  18  30  49  78 108 140 179 227 279 331
#     4  11  21  35  56  82 112 145 185 230 278 328
#     4  10  19  34  55  79 109 143 184 228 278 336
#     4   9  18  32  52  79 115 150 178 217 277 335
#     4  10  21  36  54  79 110 145 188 234 281 334
#     4  11  25  41  57  81 114 149 188 229 277 338
#
# _framework density 22.173773000000001
#
# number of rings (size 3 to 8) (size 9 to 14) (size 15 to 20)
#    0.000    2.077    2.308    1.154    2.154    1.846 
#    0.000    1.923    0.000    1.385    0.000    2.154 
#    0.000    5.538    0.000    0.000    0.000    0.000 
#
# Total GULP energy -290404.684249 kJ/mol
# GULP energy per Si atom -5584.705466 kJ/mol
# Density = 2.212330 g / cm^3
# Si number density = 22.173773 Si / 1000 Ang^3
#
#
#
# Elastic Constant Matrix: (Units=GPa)
#
#
# Indices 1 2 3 4 5 6 
#
# 1 149.4834 -4.8092 64.8441 0.0000 0.0000 0.0000
# 2 -4.8092 58.4960 -8.6675 0.0000 0.0000 0.0000
# 3 64.8441 -8.6675 168.6168 0.0000 0.0000 0.0000
# 4 0.0000 0.0000 0.0000 24.8642 0.0000 0.0000
# 5 0.0000 0.0000 0.0000 0.0000 31.5920 0.0000
# 6 0.0000 0.0000 0.0000 0.0000 0.0000 4.7692
#
#
#
# Elastic Compliance Matrix: (Units=1/GPa)
#
#
# Indices 1 2 3 4 5 6 
#
# 1 0.008032 0.000204 -0.003078 0.000000 0.000000 0.000000
# 2 0.000204 0.017232 0.000807 0.000000 0.000000 0.000000
# 3 -0.003078 0.000807 0.007156 0.000000 0.000000 0.000000
# 4 0.000000 0.000000 0.000000 0.040219 0.000000 0.000000
# 5 0.000000 0.000000 0.000000 0.000000 0.031654 0.000000
# 6 0.000000 0.000000 0.000000 0.000000 0.000000 0.209678
#
#
# Mechanical properties :
#
#
# Convention : Reuss Voigt Hill
#
# Bulk Modulus (GPa) = 35.35373 53.25899 44.30636
# Shear Modulus (GPa) = 15.26574 33.92699 24.59636
#
# Velocity S-wave (km/s) = 2.62670 3.91583 3.33416
# Velocity P-wave (km/s) = 5.01776 6.67203 5.90313
#
# Compressibility (1/GPa) = 0.02828556
#
# Stress axis : x y z
#
# Youngs Moduli (GPa) = 124.50912 58.03297 139.74581
#
# Poissons Ratio (x) = -0.01185 0.43016
# Poissons Ratio (y) = -0.02543 -0.11281
# Poissons Ratio (z) = 0.38326 -0.04685
#
# Static dielectric constant tensor:
#      x y z
#    x 1.846490 0.000000 0.000000 
#    y 0.000000 1.587280 0.000000 
#    z 0.000000 0.000000 1.766420 
# 
# From -- ./inp_files/9613.got.cif
#   From: 2010.05.17/outbox.cif.g08.bks.cpg/sg47_5_cif.got.tgz:9613.got - 2010.06.03 20:15:42.
