data_PCOD9383269
_publ_section_title
;
Structure prediction by ZEFSAII (Michael W. Deem and Ramdas Pophale) SiO2 
 PCOD9383269
Probable space group: P M M M
;
_chemical_formula_sum "Si O2"
_cell_formula_units_Z 64
_cell_length_a 25.046919
_cell_length_b 9.058174
_cell_length_c 14.833032
_cell_angle_alpha 90.000000
_cell_angle_beta 90.000000
_cell_angle_gamma 90.000000
_cell_volume 3365.308666
_symmetry_space_group_name_H-M "P M M M"
_symmetry_group_IT_number 47
_symmetry_cell_setting 'orthorhombic'
loop_
_space_group_symop_operation_xyz
x,y,z
-x,-y,z
x,-y,-z
-x,y,-z
-x,-y,-z
x,y,-z
-x,y,z
x,-y,z
loop_
_atom_site_type_symbol
_atom_site_label
_atom_site_fract_x
_atom_site_fract_y
_atom_site_fract_z
Si Si1 0.755997 0.167848 0.394485
Si Si2 0.852770 0.172336 0.255716
Si Si3 0.781372 0.676239 0.107645
Si Si4 0.440788 0.324532 0.857163
Si Si5 0.062714 0.820657 0.398695
Si Si6 0.442851 0.829079 0.667184
Si Si7 0.671366 0.165201 0.893601
Si Si8 0.655788 0.338611 0.394171
O O1 0.768255 0.198761 0.500000
O O2 0.807523 0.175781 0.333040
O O3 0.710667 0.275372 0.357033
O O4 0.734978 0.000000 0.391327
O O5 0.828356 0.257850 0.170213
O O6 0.904074 0.230927 0.311448
O O7 0.861392 0.000000 0.230352
O O8 0.778403 0.500000 0.118295
O O9 0.724254 0.747366 0.137001
O O10 0.789441 0.706695 0.000000
O O11 0.500000 0.280686 0.895042
O O12 0.435817 0.500000 0.870023
O O13 0.443990 0.276882 0.753290
O O14 0.385866 0.246046 0.885978
O O15 0.080680 0.772188 0.500000
O O16 0.000000 0.785827 0.390846
O O17 0.067916 0.000000 0.398783
O O18 0.500000 0.812942 0.618852
O O19 0.391498 0.777033 0.614962
O O20 0.438525 0.000000 0.695202
O O21 0.668900 0.000000 0.852746
O O22 0.679649 0.150158 0.000000
O O23 0.665251 0.353284 0.500000
O O24 0.641983 0.500000 0.356428
#
# Coordination Sequence:
#
# PCOD9383269 Si02
#       8
#     8   8   8   8   8   8   8   8
#     4   9  18  32  49  73 107 141 173 212 260 321
#     4  10  19  31  54  85 112 145 187 230 276 324
#     4  10  22  39  56  76 106 145 189 236 286 338
#     4  10  21  36  54  76 102 132 166 208 261 325
#     4   8  14  27  51  86 126 161 192 229 272 321
#     4  10  21  36  53  71  92 122 163 211 260 313
#     4  10  21  37  57  79 103 132 169 216 270 329
#     4  10  21  35  50  69  95 128 165 208 259 314
#
# _framework density 19.017572999999999
#
# number of rings (size 3 to 8) (size 9 to 14) (size 15 to 20)
#    0.000    2.375    0.000    2.625    1.750    6.250 
#    0.000    2.500    0.000    1.875    0.000    3.500 
#    0.000    0.000    0.000    0.000    0.000    0.000 
#
# Total GULP energy -356501.093128 kJ/mol
# GULP energy per Si atom -5570.329580 kJ/mol
# Density = 1.897429 g / cm^3
# Si number density = 19.017573 Si / 1000 Ang^3
#
#
#
# Elastic Constant Matrix: (Units=GPa)
#
#
# Indices 1 2 3 4 5 6 
#
# 1 98.3462 39.6977 41.3265 0.0000 0.0000 0.0000
# 2 39.6977 65.4191 32.3576 0.0000 0.0000 0.0000
# 3 41.3265 32.3576 77.3367 0.0000 0.0000 0.0000
# 4 0.0000 0.0000 0.0000 22.2979 0.0000 0.0000
# 5 0.0000 0.0000 0.0000 0.0000 30.5204 0.0000
# 6 0.0000 0.0000 0.0000 0.0000 0.0000 18.2388
#
#
#
# Elastic Compliance Matrix: (Units=1/GPa)
#
#
# Indices 1 2 3 4 5 6 
#
# 1 0.015018 -0.006486 -0.005312 0.000000 0.000000 0.000000
# 2 -0.006486 0.022076 -0.005771 0.000000 0.000000 0.000000
# 3 -0.005312 -0.005771 0.018183 0.000000 0.000000 0.000000
# 4 0.000000 0.000000 0.000000 0.044847 0.000000 0.000000
# 5 0.000000 0.000000 0.000000 0.000000 0.032765 0.000000
# 6 0.000000 0.000000 0.000000 0.000000 0.000000 0.054828
#
#
# Mechanical properties :
#
#
# Convention : Reuss Voigt Hill
#
# Bulk Modulus (GPa) = 49.64985 51.98506 50.81745
# Shear Modulus (GPa) = 21.77995 22.72609 22.25302
#
# Velocity S-wave (km/s) = 3.38783 3.46063 3.42443
# Velocity P-wave (km/s) = 6.43951 6.58503 6.51267
#
# Compressibility (1/GPa) = 0.02014105
#
# Stress axis : x y z
#
# Youngs Moduli (GPa) = 66.58528 45.29735 54.99571
#
# Poissons Ratio (x) = 0.29381 0.29211
# Poissons Ratio (y) = 0.43189 0.31736
# Poissons Ratio (z) = 0.35367 0.26140
#
# Static dielectric constant tensor:
#      x y z
#    x 1.678530 0.000000 0.000000 
#    y 0.000000 1.691880 0.000000 
#    z 0.000000 0.000000 1.694410 
# 
# From -- ./inp_files/21888.got.cif
#   From: 2010.05.17/outbox.cif.g08.bks.cpg/sg47_11_cif.got.tgz:21888.got - 2010.06.03 20:15:42.
