data_PCOD9383015
_publ_section_title
;
Structure prediction by ZEFSAII (Michael W. Deem and Ramdas Pophale) SiO2 
 PCOD9383015
Probable space group: P M M M
;
_chemical_formula_sum "Si O2"
_cell_formula_units_Z 48
_cell_length_a 24.358612
_cell_length_b 18.840886
_cell_length_c 8.073879
_cell_angle_alpha 90.000000
_cell_angle_beta 90.000000
_cell_angle_gamma 90.000000
_cell_volume 3705.408523
_symmetry_space_group_name_H-M "P M M M"
_symmetry_group_IT_number 47
_symmetry_cell_setting 'orthorhombic'
loop_
_space_group_symop_operation_xyz
x,y,z
-x,-y,z
x,-y,-z
-x,y,-z
-x,-y,-z
x,y,-z
-x,y,z
x,-y,z
loop_
_atom_site_type_symbol
_atom_site_label
_atom_site_fract_x
_atom_site_fract_y
_atom_site_fract_z
Si Si1 0.059430 0.583094 0.300570
Si Si2 0.500000 0.580672 0.202046
Si Si3 0.433429 0.081057 0.000000
Si Si4 0.294634 0.417500 0.303902
Si Si5 0.565711 0.822479 0.312425
Si Si6 0.603596 0.325999 0.804564
Si Si7 0.176096 0.581868 0.197055
O O1 0.060271 0.583805 0.500000
O O2 0.059231 0.500000 0.247118
O O3 0.117068 0.614882 0.240965
O O4 0.000000 0.613139 0.246682
O O5 0.500000 0.500000 0.261755
O O6 0.554214 0.622850 0.253086
O O7 0.500000 0.578623 0.000000
O O8 0.417922 0.123512 0.833410
O O9 0.500000 0.078819 0.000000
O O10 0.413552 0.000000 0.000000
O O11 0.304149 0.418348 0.500000
O O12 0.298357 0.500000 0.243467
O O13 0.339999 0.367767 0.222290
O O14 0.232925 0.389985 0.269939
O O15 0.573799 0.849341 0.500000
O O16 0.500000 0.808086 0.292440
O O17 0.597394 0.748650 0.287160
O O18 0.595570 0.311916 0.000000
O O19 0.173690 0.500000 0.259665
O O20 0.181312 0.580934 0.000000
#
# Coordination Sequence:
#
# PCOD9383015 Si02
#       7
#     8   4   4   8   8   8   8
#     4   8  13  21  33  48  65  85 108 137 181 236
#     4   9  18  28  41  59  75  97 129 166 207 246
#     4   9  18  32  50  70  90 108 126 150 185 230
#     4  10  20  31  40  52  72  98 131 170 207 244
#     4  10  19  31  48  67  87 109 131 155 191 236
#     4  11  19  30  46  59  78 103 131 164 203 244
#     4   9  16  25  36  49  65  87 116 152 195 237
#
# _framework density 12.954037
#
# number of rings (size 3 to 8) (size 9 to 14) (size 15 to 20)
#    0.000    2.500    1.667    2.500    0.000    4.333 
#    0.000    3.333    0.000    2.000    0.000    0.000 
#    0.000    0.000    0.000    0.000    0.000    0.000 
#
# Total GULP energy -267293.479754 kJ/mol
# GULP energy per Si atom -5568.614162 kJ/mol
# Density = 1.292455 g / cm^3
# Si number density = 12.954037 Si / 1000 Ang^3
#
#
#
# Elastic Constant Matrix: (Units=GPa)
#
#
# Indices 1 2 3 4 5 6 
#
# 1 76.8087 19.6076 11.9571 0.0000 0.0000 0.0000
# 2 19.6076 56.7797 22.8185 0.0000 0.0000 0.0000
# 3 11.9571 22.8185 49.1893 0.0000 0.0000 0.0000
# 4 0.0000 0.0000 0.0000 7.6528 0.0000 0.0000
# 5 0.0000 0.0000 0.0000 0.0000 17.4318 0.0000
# 6 0.0000 0.0000 0.0000 0.0000 0.0000 0.5630
#
#
#
# Elastic Compliance Matrix: (Units=1/GPa)
#
#
# Indices 1 2 3 4 5 6 
#
# 1 0.014363 -0.004372 -0.001463 0.000000 0.000000 0.000000
# 2 -0.004372 0.022978 -0.009597 0.000000 0.000000 0.000000
# 3 -0.001463 -0.009597 0.025137 0.000000 0.000000 0.000000
# 4 0.000000 0.000000 0.000000 0.130671 0.000000 0.000000
# 5 0.000000 0.000000 0.000000 0.000000 0.057366 0.000000
# 6 0.000000 0.000000 0.000000 0.000000 0.000000 1.776085
#
#
# Mechanical properties :
#
#
# Convention : Reuss Voigt Hill
#
# Bulk Modulus (GPa) = 31.63081 32.39379 32.01230
# Shear Modulus (GPa) = 2.41779 13.68917 8.05348
#
# Velocity S-wave (km/s) = 1.36766 3.25429 2.49609
# Velocity P-wave (km/s) = 5.19276 6.25952 5.75093
#
# Compressibility (1/GPa) = 0.03161475
#
# Stress axis : x y z
#
# Youngs Moduli (GPa) = 69.62231 43.51908 39.78166
#
# Poissons Ratio (x) = 0.19026 0.05821
# Poissons Ratio (y) = 0.30438 0.38178
# Poissons Ratio (z) = 0.10188 0.41764
#
# Static dielectric constant tensor:
#      x y z
#    x 1.447930 0.000000 0.000000 
#    y 0.000000 1.390930 0.000000 
#    z 0.000000 0.000000 1.455940 
# 
# From -- ./inp_files/11402.got.cif
#   From: 2010.05.17/outbox.cif.g08.bks.cpg/sg47_6_cif.got.tgz:11402.got - 2010.06.03 20:15:42.
