data_PCOD9383863
_publ_section_title
;
Structure prediction by ZEFSAII (Michael W. Deem and Ramdas Pophale) SiO2 
 PCOD9383863
Probable space group: P M M M
;
_chemical_formula_sum "Si O2"
_cell_formula_units_Z 52
_cell_length_a 12.268463
_cell_length_b 28.160588
_cell_length_c 8.807064
_cell_angle_alpha 90.000000
_cell_angle_beta 90.000000
_cell_angle_gamma 90.000000
_cell_volume 3042.727282
_symmetry_space_group_name_H-M "P M M M"
_symmetry_group_IT_number 47
_symmetry_cell_setting 'orthorhombic'
loop_
_space_group_symop_operation_xyz
x,y,z
-x,-y,z
x,-y,-z
-x,y,-z
-x,-y,-z
x,y,-z
-x,y,z
x,-y,z
loop_
_atom_site_type_symbol
_atom_site_label
_atom_site_fract_x
_atom_site_fract_y
_atom_site_fract_z
Si Si1 0.629511 0.719270 0.819599
Si Si2 0.371996 0.000000 0.182339
Si Si3 0.130114 0.553717 0.321675
Si Si4 0.695792 0.616211 0.819643
Si Si5 0.000000 0.944664 0.684602
Si Si6 0.500000 0.444840 0.681980
Si Si7 0.238715 0.088211 0.315702
Si Si8 0.374034 0.820016 0.317305
O O1 0.500000 0.712474 0.794009
O O2 0.686227 0.670790 0.767130
O O3 0.661151 0.768278 0.740245
O O4 0.646489 0.724530 0.000000
O O5 0.311430 0.045817 0.249598
O O6 0.500000 0.000000 0.223586
O O7 0.363702 0.000000 0.000000
O O8 0.157713 0.559950 0.500000
O O9 0.164024 0.500000 0.278536
O O10 0.190379 0.592527 0.222924
O O11 0.000000 0.556386 0.308100
O O12 0.604501 0.583432 0.742626
O O13 0.676848 0.616104 0.000000
O O14 0.887102 0.919726 0.731713
O O15 0.000000 0.944928 0.500000
O O16 0.000000 0.000000 0.733262
O O17 0.500000 0.500000 0.731604
O O18 0.500000 0.444252 0.500000
O O19 0.242069 0.085596 0.500000
O O20 0.293679 0.137870 0.268483
O O21 0.375373 0.819604 0.500000
O O22 0.500000 0.828358 0.266085
#
# Coordination Sequence:
#
# PCOD9383863 Si02
#       8
#     8   4   8   8   4   4   8   8
#     4   9  18  34  52  72 102 138 170 206 258 314
#     4  11  23  34  47  74 110 141 172 209 256 311
#     4   9  19  36  55  75 102 136 173 214 262 315
#     4  11  21  34  53  78 106 137 176 218 261 313
#     4   9  16  30  54  80 102 136 176 208 249 300
#     4  11  23  35  49  75 111 147 177 210 263 320
#     4  10  19  34  55  77 104 137 174 215 256 302
#     4   9  18  31  50  77 101 126 169 217 258 303
#
# _framework density 17.089929999999999
#
# number of rings (size 3 to 8) (size 9 to 14) (size 15 to 20)
#    0.000    2.231    1.538    2.308    0.000    6.154 
#    0.000    3.077    1.692    0.000    0.000    0.000 
#    0.000    0.000    0.000    0.000    0.000    0.000 
#
# Total GULP energy -290084.593655 kJ/mol
# GULP energy per Si atom -5578.549878 kJ/mol
# Density = 1.705103 g / cm^3
# Si number density = 17.089930 Si / 1000 Ang^3
#
#
#
# Elastic Constant Matrix: (Units=GPa)
#
#
# Indices 1 2 3 4 5 6 
#
# 1 92.4704 74.5217 24.2660 0.0000 0.0000 0.0000
# 2 74.5217 174.3045 36.0687 0.0000 0.0000 0.0000
# 3 24.2660 36.0687 18.5884 0.0000 0.0000 0.0000
# 4 0.0000 0.0000 0.0000 43.7148 0.0000 0.0000
# 5 0.0000 0.0000 0.0000 0.0000 18.5702 0.0000
# 6 0.0000 0.0000 0.0000 0.0000 0.0000 14.1963
#
#
#
# Elastic Compliance Matrix: (Units=1/GPa)
#
#
# Indices 1 2 3 4 5 6 
#
# 1 0.018665 -0.004909 -0.014840 0.000000 0.000000 0.000000
# 2 -0.004909 0.010877 -0.014698 0.000000 0.000000 0.000000
# 3 -0.014840 -0.014698 0.101690 0.000000 0.000000 0.000000
# 4 0.000000 0.000000 0.000000 0.022876 0.000000 0.000000
# 5 0.000000 0.000000 0.000000 0.000000 0.053850 0.000000
# 6 0.000000 0.000000 0.000000 0.000000 0.000000 0.070441
#
#
# Mechanical properties :
#
#
# Convention : Reuss Voigt Hill
#
# Bulk Modulus (GPa) = 16.04171 61.67511 38.85841
# Shear Modulus (GPa) = 13.58433 25.33007 19.45720
#
# Velocity S-wave (km/s) = 2.82241 3.85406 3.37785
# Velocity P-wave (km/s) = 4.47530 7.48144 6.16443
#
# Compressibility (1/GPa) = 0.06233749
#
# Stress axis : x y z
#
# Youngs Moduli (GPa) = 53.57675 91.93494 9.83384
#
# Poissons Ratio (x) = 0.45131 0.14594
# Poissons Ratio (y) = 0.26301 0.14454
# Poissons Ratio (z) = 0.79510 1.35124
#
# Static dielectric constant tensor:
#      x y z
#    x 1.580840 0.000000 0.000000 
#    y 0.000000 1.567160 0.000000 
#    z 0.000000 0.000000 1.577370 
# 
# From -- ./inp_files/4666.got.cif
#   From: 2010.05.17/outbox.cif.g08.bks.cpg/sg47_3_cif.got.tgz:4666.got - 2010.06.03 20:15:42.
