data_PCOD9383282
_publ_section_title
;
Structure prediction by ZEFSAII (Michael W. Deem and Ramdas Pophale) SiO2 
 PCOD9383282
Probable space group: P M M M
;
_chemical_formula_sum "Si O2"
_cell_formula_units_Z 52
_cell_length_a 15.154073
_cell_length_b 7.288268
_cell_length_c 24.571404
_cell_angle_alpha 90.000000
_cell_angle_beta 90.000000
_cell_angle_gamma 90.000000
_cell_volume 2713.836514
_symmetry_space_group_name_H-M "P M M M"
_symmetry_group_IT_number 47
_symmetry_cell_setting 'orthorhombic'
loop_
_space_group_symop_operation_xyz
x,y,z
-x,-y,z
x,-y,-z
-x,y,-z
-x,-y,-z
x,y,-z
-x,y,z
x,-y,z
loop_
_atom_site_type_symbol
_atom_site_label
_atom_site_fract_x
_atom_site_fract_y
_atom_site_fract_z
Si Si1 0.146769 0.278640 0.557980
Si Si2 0.355703 0.786733 0.560180
Si Si3 0.756922 0.794802 0.244601
Si Si4 0.906222 0.277817 0.674523
Si Si5 0.896690 0.778743 0.154285
Si Si6 0.600005 0.223384 0.318168
Si Si7 0.105852 0.500000 0.938957
O O1 0.111679 0.214597 0.500000
O O2 0.143421 0.500000 0.557896
O O3 0.249453 0.225303 0.561429
O O4 0.098460 0.220014 0.612030
O O5 0.382452 0.711389 0.500000
O O6 0.385219 0.712324 0.619128
O O7 0.382837 0.000000 0.559604
O O8 0.823930 0.802601 0.294973
O O9 0.822098 0.717748 0.197886
O O10 0.670149 0.710644 0.272903
O O11 0.732442 0.000000 0.225989
O O12 0.899959 0.500000 0.677084
O O13 0.000000 0.223188 0.698978
O O14 0.873975 0.677796 0.097859
O O15 0.000000 0.730380 0.167926
O O16 0.893977 0.000000 0.150654
O O17 0.500000 0.266146 0.302742
O O18 0.610135 0.000000 0.320047
O O19 0.000000 0.500000 0.944084
O O20 0.143344 0.500000 0.000000
#
# Coordination Sequence:
#
# PCOD9383282 Si02
#       7
#     8   8   8   8   8   8   4
#     4   9  17  29  43  58  79 108 144 188 239 293
#     4   9  16  27  44  63  82 107 144 191 244 301
#     4  10  19  32  48  67  94 126 158 196 241 288
#     4  10  20  30  43  64  85 113 153 194 239 289
#     4   9  18  31  48  74 107 143 179 210 244 289
#     4   9  17  29  46  68  91 116 151 198 251 302
#     4   9  18  32  52  80 111 145 180 209 241 279
#
# _framework density 19.161066999999999
#
# number of rings (size 3 to 8) (size 9 to 14) (size 15 to 20)
#    0.000    2.692    1.538    0.462    1.077    1.846 
#    0.000    4.615    0.000    1.846    0.000    5.385 
#    0.000    1.231    0.000    6.000    0.000    0.154 
#
# Total GULP energy -289739.257529 kJ/mol
# GULP energy per Si atom -5571.908799 kJ/mol
# Density = 1.911746 g / cm^3
# Si number density = 19.161067 Si / 1000 Ang^3
#
#
#
# Elastic Constant Matrix: (Units=GPa)
#
#
# Indices 1 2 3 4 5 6 
#
# 1 112.9538 7.8395 57.5259 0.0000 0.0000 0.0000
# 2 7.8395 83.9308 20.2474 0.0000 0.0000 0.0000
# 3 57.5259 20.2474 141.7877 0.0000 0.0000 0.0000
# 4 0.0000 0.0000 0.0000 5.5476 0.0000 0.0000
# 5 0.0000 0.0000 0.0000 0.0000 16.9058 0.0000
# 6 0.0000 0.0000 0.0000 0.0000 0.0000 -19.2366
#
#
#
# Elastic Compliance Matrix: (Units=1/GPa)
#
#
# Indices 1 2 3 4 5 6 
#
# 1 0.011159 0.000052 -0.004535 0.000000 0.000000 0.000000
# 2 0.000052 0.012340 -0.001783 0.000000 0.000000 0.000000
# 3 -0.004535 -0.001783 0.009147 0.000000 0.000000 0.000000
# 4 0.000000 0.000000 0.000000 0.180259 0.000000 0.000000
# 5 0.000000 0.000000 0.000000 0.000000 0.059151 0.000000
# 6 0.000000 0.000000 0.000000 0.000000 0.000000 -0.051984
#
#
# Mechanical properties :
#
#
# Convention : Reuss Voigt Hill
#
# Bulk Modulus (GPa) = 49.71718 56.65530 53.18624
# Shear Modulus (GPa) = 20.89346 17.51399 19.20372
#
# Velocity S-wave (km/s) = 3.30572 3.02659 3.16923
# Velocity P-wave (km/s) = 6.36975 6.46883 6.41948
#
# Compressibility (1/GPa) = 0.02011377
#
# Stress axis : x y z
#
# Youngs Moduli (GPa) = 89.61274 81.03785 109.32190
#
# Poissons Ratio (x) = -0.00419 0.49576
# Poissons Ratio (y) = -0.00463 0.19493
# Poissons Ratio (z) = 0.40638 0.14450
#
# Static dielectric constant tensor:
#      x y z
#    x 1.658120 0.000000 0.000000 
#    y 0.000000 1.765790 0.000000 
#    z 0.000000 0.000000 1.679700 
# 
# From -- ./inp_files/32664.got.cif
#   From: 2010.05.17/outbox.cif.g08.bks.cpg/sg47_17_cif.got.tgz:32664.got - 2010.06.03 20:15:42.
