data_PCOD9383907
_publ_section_title
;
Structure prediction by ZEFSAII (Michael W. Deem and Ramdas Pophale) SiO2 
 PCOD9383907
Probable space group: P M M M
;
_chemical_formula_sum "Si O2"
_cell_formula_units_Z 48
_cell_length_a 9.046071
_cell_length_b 10.331484
_cell_length_c 30.100092
_cell_angle_alpha 90.000000
_cell_angle_beta 90.000000
_cell_angle_gamma 90.000000
_cell_volume 2813.134666
_symmetry_space_group_name_H-M "P M M M"
_symmetry_group_IT_number 47
_symmetry_cell_setting 'orthorhombic'
loop_
_space_group_symop_operation_xyz
x,y,z
-x,-y,z
x,-y,-z
-x,y,-z
-x,-y,-z
x,y,-z
-x,y,z
x,-y,z
loop_
_atom_site_type_symbol
_atom_site_label
_atom_site_fract_x
_atom_site_fract_y
_atom_site_fract_z
Si Si1 0.821240 0.740953 0.102101
Si Si2 0.330776 0.157038 0.711723
Si Si3 0.677439 0.351081 0.552250
Si Si4 0.322623 0.500000 0.947697
Si Si5 0.177151 0.847045 0.802955
Si Si6 0.823122 0.848207 0.619612
Si Si7 0.820527 0.000000 0.949616
O O1 0.743319 0.623300 0.077720
O O2 0.783064 0.764039 0.153729
O O3 0.777809 0.871700 0.076442
O O4 0.000000 0.726300 0.099416
O O5 0.500000 0.201097 0.708646
O O6 0.256091 0.197141 0.757933
O O7 0.240848 0.192330 0.667642
O O8 0.330625 0.000000 0.712797
O O9 0.710822 0.332046 0.500000
O O10 0.500000 0.339548 0.557478
O O11 0.717871 0.500000 0.563680
O O12 0.756890 0.245690 0.582480
O O13 0.500000 0.500000 0.945478
O O14 0.279886 0.500000 0.000000
O O15 0.000000 0.840423 0.797096
O O16 0.211881 0.000000 0.811025
O O17 0.000000 0.840719 0.620130
O O18 0.782260 0.000000 0.612095
O O19 0.000000 0.000000 0.950707
O O20 0.766126 0.000000 0.000000
#
# Coordination Sequence:
#
# PCOD9383907 Si02
#       7
#     8   8   8   4   8   8   4
#     4  10  19  34  57  82 104 134 173 214 260 311
#     4   9  17  29  48  75 106 141 178 212 255 312
#     4   9  19  36  56  77 104 141 182 222 267 320
#     4  11  25  41  53  71 105 145 179 213 258 311
#     4   9  16  29  51  80 110 133 162 210 266 315
#     4  10  20  33  51  78 110 142 178 222 268 310
#     4   9  16  28  51  83 109 127 163 217 260 301
#
# _framework density 17.062816000000002
#
# number of rings (size 3 to 8) (size 9 to 14) (size 15 to 20)
#    0.000    2.500    0.833    2.250    0.000    6.000 
#    0.000    2.917    1.833    1.500    0.000    0.000 
#    0.000    0.000    0.000    0.000    0.000    0.000 
#
# Total GULP energy -267666.183300 kJ/mol
# GULP energy per Si atom -5576.378819 kJ/mol
# Density = 1.702398 g / cm^3
# Si number density = 17.062816 Si / 1000 Ang^3
#
#
#
# Elastic Constant Matrix: (Units=GPa)
#
#
# Indices 1 2 3 4 5 6 
#
# 1 53.3675 50.6615 69.6805 0.0000 0.0000 0.0000
# 2 50.6615 110.7199 90.0485 0.0000 0.0000 0.0000
# 3 69.6805 90.0485 165.8624 0.0000 0.0000 0.0000
# 4 0.0000 0.0000 0.0000 27.2025 0.0000 0.0000
# 5 0.0000 0.0000 0.0000 0.0000 30.5015 0.0000
# 6 0.0000 0.0000 0.0000 0.0000 0.0000 18.9780
#
#
#
# Elastic Compliance Matrix: (Units=1/GPa)
#
#
# Indices 1 2 3 4 5 6 
#
# 1 0.046661 -0.009683 -0.014346 0.000000 0.000000 0.000000
# 2 -0.009683 0.018182 -0.005804 0.000000 0.000000 0.000000
# 3 -0.014346 -0.005804 0.015207 0.000000 0.000000 0.000000
# 4 0.000000 0.000000 0.000000 0.036761 0.000000 0.000000
# 5 0.000000 0.000000 0.000000 0.000000 0.032785 0.000000
# 6 0.000000 0.000000 0.000000 0.000000 0.000000 0.052693
#
#
# Mechanical properties :
#
#
# Convention : Reuss Voigt Hill
#
# Bulk Modulus (GPa) = 49.05448 83.41454 66.23451
# Shear Modulus (GPa) = 18.60475 23.30701 20.95588
#
# Velocity S-wave (km/s) = 3.30565 3.69989 3.50831
# Velocity P-wave (km/s) = 6.58647 8.20031 7.43729
#
# Compressibility (1/GPa) = 0.02038550
#
# Stress axis : x y z
#
# Youngs Moduli (GPa) = 21.43128 54.99836 65.76065
#
# Poissons Ratio (x) = 0.53255 0.94338
# Poissons Ratio (y) = 0.20752 0.38164
# Poissons Ratio (z) = 0.30745 0.31918
#
# Static dielectric constant tensor:
#      x y z
#    x 1.571450 0.000000 0.000000 
#    y 0.000000 1.572310 0.000000 
#    z 0.000000 0.000000 1.567430 
# 
# From -- ./inp_files/2689.got.cif
#   From: 2010.05.17/outbox.cif.g08.bks.cpg/sg47_2_cif.got.tgz:2689.got - 2010.06.03 20:15:42.
