data_PCOD9383083
_publ_section_title
;
Structure prediction by ZEFSAII (Michael W. Deem and Ramdas Pophale) SiO2 
 PCOD9383083
Probable space group: P M M M
;
_chemical_formula_sum "Si O2"
_cell_formula_units_Z 52
_cell_length_a 8.618582
_cell_length_b 28.870078
_cell_length_c 12.303247
_cell_angle_alpha 90.000000
_cell_angle_beta 90.000000
_cell_angle_gamma 90.000000
_cell_volume 3061.283271
_symmetry_space_group_name_H-M "P M M M"
_symmetry_group_IT_number 47
_symmetry_cell_setting 'orthorhombic'
loop_
_space_group_symop_operation_xyz
x,y,z
-x,-y,z
x,-y,-z
-x,y,-z
-x,-y,-z
x,y,-z
-x,y,z
x,-y,z
loop_
_atom_site_type_symbol
_atom_site_label
_atom_site_fract_x
_atom_site_fract_y
_atom_site_fract_z
Si Si1 0.821168 0.265901 0.000000
Si Si2 0.179516 0.154918 0.000000
Si Si3 0.811048 0.051534 0.374117
Si Si4 0.321981 0.500000 0.868299
Si Si5 0.315971 0.309067 0.218033
Si Si6 0.812457 0.232624 0.374048
Si Si7 0.190619 0.141009 0.759883
Si Si8 0.185259 0.401175 0.127193
O O1 0.738918 0.283653 0.107819
O O2 0.822975 0.210572 0.000000
O O3 0.000000 0.282605 0.000000
O O4 0.247570 0.140390 0.115827
O O5 0.000000 0.138585 0.000000
O O6 0.765442 0.057561 0.500000
O O7 0.759731 0.094854 0.302911
O O8 0.000000 0.051842 0.372190
O O9 0.761734 0.000000 0.338063
O O10 0.500000 0.500000 0.831922
O O11 0.239352 0.547789 0.837351
O O12 0.320560 0.500000 0.000000
O O13 0.500000 0.309551 0.224844
O O14 0.248004 0.279050 0.316762
O O15 0.253723 0.361077 0.202526
O O16 0.764715 0.228686 0.500000
O O17 0.762219 0.187586 0.304204
O O18 0.000000 0.233398 0.370992
O O19 0.000000 0.142099 0.762127
O O20 0.000000 0.398786 0.128339
O O21 0.235705 0.393888 0.000000
#
# Coordination Sequence:
#
# PCOD9383083 Si02
#       8
#     4   4   8   4   8   8   8   8
#     4  11  19  33  51  69  96 131 170 208 241 297
#     4   9  16  25  42  63  87 119 158 198 243 292
#     4   8  13  21  34  54  83 119 158 203 254 303
#     4   9  17  29  45  69 104 137 170 213 258 301
#     4  12  23  33  49  74 104 134 166 208 260 307
#     4  10  20  34  52  71  93 128 172 211 250 302
#     4   9  15  25  41  63  88 120 162 204 246 301
#     4  10  19  31  49  71 100 138 177 211 246 298
#
# _framework density 16.986339999999998
#
# number of rings (size 3 to 8) (size 9 to 14) (size 15 to 20)
#    0.000    2.231    2.308    3.231    0.000    3.692 
#    0.000    0.385    0.000    2.308    0.000    0.538 
#    0.000    4.923    0.000    4.615    0.000    5.077 
#
# Total GULP energy -289943.684866 kJ/mol
# GULP energy per Si atom -5575.840094 kJ/mol
# Density = 1.694768 g / cm^3
# Si number density = 16.986340 Si / 1000 Ang^3
#
#
#
# Elastic Constant Matrix: (Units=GPa)
#
#
# Indices 1 2 3 4 5 6 
#
# 1 29.2701 26.2974 23.3302 0.0000 0.0000 0.0000
# 2 26.2974 150.8887 77.8444 0.0000 0.0000 0.0000
# 3 23.3302 77.8444 117.7823 0.0000 0.0000 0.0000
# 4 0.0000 0.0000 0.0000 22.1068 0.0000 0.0000
# 5 0.0000 0.0000 0.0000 0.0000 8.6717 0.0000
# 6 0.0000 0.0000 0.0000 0.0000 0.0000 -24.0234
#
#
#
# Elastic Compliance Matrix: (Units=1/GPa)
#
#
# Indices 1 2 3 4 5 6 
#
# 1 0.042628 -0.004663 -0.005362 0.000000 0.000000 0.000000
# 2 -0.004663 0.010566 -0.006060 0.000000 0.000000 0.000000
# 3 -0.005362 -0.006060 0.013557 0.000000 0.000000 0.000000
# 4 0.000000 0.000000 0.000000 0.045235 0.000000 0.000000
# 5 0.000000 0.000000 0.000000 0.000000 0.115317 0.000000
# 6 0.000000 0.000000 0.000000 0.000000 0.000000 -0.041626
#
#
# Mechanical properties :
#
#
# Convention : Reuss Voigt Hill
#
# Bulk Modulus (GPa) = 28.91674 61.43168 45.17421
# Shear Modulus (GPa) = 21.79842 12.71563 17.25702
#
# Velocity S-wave (km/s) = 3.58619 2.73899 3.19083
# Velocity P-wave (km/s) = 5.84878 6.80048 6.34251
#
# Compressibility (1/GPa) = 0.03458204
#
# Stress axis : x y z
#
# Youngs Moduli (GPa) = 23.45892 94.63933 73.76064
#
# Poissons Ratio (x) = 0.44132 0.39548
# Poissons Ratio (y) = 0.10939 0.44698
# Poissons Ratio (z) = 0.12578 0.57350
#
# Static dielectric constant tensor:
#      x y z
#    x 1.573240 0.000000 0.000000 
#    y 0.000000 1.576350 0.000000 
#    z 0.000000 0.000000 1.565790 
# 
# From -- ./inp_files/15580.got.cif
#   From: 2010.05.17/outbox.cif.g08.bks.cpg/sg47_8_cif.got.tgz:15580.got - 2010.06.03 20:15:42.
