data_PCOD9383970
_publ_section_title
;
Structure prediction by ZEFSAII (Michael W. Deem and Ramdas Pophale) SiO2 
 PCOD9383970
Probable space group: P M M M
;
_chemical_formula_sum "Si O2"
_cell_formula_units_Z 64
_cell_length_a 7.468317
_cell_length_b 15.199304
_cell_length_c 24.445571
_cell_angle_alpha 90.000000
_cell_angle_beta 90.000000
_cell_angle_gamma 90.000000
_cell_volume 2774.895490
_symmetry_space_group_name_H-M "P M M M"
_symmetry_group_IT_number 47
_symmetry_cell_setting 'orthorhombic'
loop_
_space_group_symop_operation_xyz
x,y,z
-x,-y,z
x,-y,-z
-x,y,-z
-x,-y,-z
x,y,-z
-x,y,z
x,-y,z
loop_
_atom_site_type_symbol
_atom_site_label
_atom_site_fract_x
_atom_site_fract_y
_atom_site_fract_z
Si Si1 0.285077 0.640553 0.059066
Si Si2 0.716075 0.150544 0.060173
Si Si3 0.711613 0.288879 0.438277
Si Si4 0.280280 0.399697 0.338293
Si Si5 0.215204 0.094912 0.436101
Si Si6 0.794953 0.593533 0.177098
Si Si7 0.281142 0.098602 0.818518
Si Si8 0.299867 0.258080 0.749185
O O1 0.500000 0.629829 0.061392
O O2 0.248118 0.745011 0.061762
O O3 0.207042 0.596240 0.112002
O O4 0.223474 0.608337 0.000000
O O5 0.500000 0.138434 0.059687
O O6 0.779383 0.113274 0.118457
O O7 0.779533 0.117921 0.000000
O O8 0.787649 0.290144 0.500000
O O9 0.500000 0.303075 0.442904
O O10 0.777809 0.363627 0.397454
O O11 0.732667 0.190237 0.413631
O O12 0.500000 0.400571 0.335742
O O13 0.222006 0.500000 0.327854
O O14 0.220089 0.323849 0.295988
O O15 0.273530 0.096268 0.500000
O O16 0.000000 0.093413 0.435579
O O17 0.276566 0.000000 0.412906
O O18 0.719916 0.500000 0.196390
O O19 0.690925 0.676899 0.198810
O O20 0.000000 0.600513 0.195382
O O21 0.500000 0.107057 0.819698
O O22 0.215351 0.170571 0.774741
O O23 0.235868 0.000000 0.801896
O O24 0.500000 0.234889 0.729676
#
# Coordination Sequence:
#
# PCOD9383970 Si02
#       8
#     8   8   8   8   8   8   8   8
#     4   9  17  31  51  73  97 128 169 211 249 297
#     4   8  13  23  41  67  97 124 153 193 239 286
#     4   9  17  29  47  74 105 133 166 213 264 310
#     4   9  18  32  51  75 100 130 169 209 253 306
#     4   8  14  26  45  69  99 137 176 207 238 285
#     4  11  23  35  49  72 100 130 166 209 258 306
#     4   9  16  26  45  74 101 124 155 200 252 296
#     4  10  19  35  56  74  96 128 167 209 247 295
#
# _framework density 23.063932000000001
#
# number of rings (size 3 to 8) (size 9 to 14) (size 15 to 20)
#    0.000    2.875    1.250    1.875    0.000    2.750 
#    0.000    6.250    0.000    3.750    0.000    1.750 
#    0.000    2.000    0.000    0.000    0.000    0.000 
#
# Total GULP energy -356896.602074 kJ/mol
# GULP energy per Si atom -5576.509407 kJ/mol
# Density = 2.301144 g / cm^3
# Si number density = 23.063932 Si / 1000 Ang^3
#
#
#
# Elastic Constant Matrix: (Units=GPa)
#
#
# Indices 1 2 3 4 5 6 
#
# 1 64.3464 9.0309 3.6521 0.0000 0.0000 0.0000
# 2 9.0309 164.3870 73.9909 0.0000 0.0000 0.0000
# 3 3.6521 73.9909 106.6317 0.0000 0.0000 0.0000
# 4 0.0000 0.0000 0.0000 -13.0388 0.0000 0.0000
# 5 0.0000 0.0000 0.0000 0.0000 -6.9897 0.0000
# 6 0.0000 0.0000 0.0000 0.0000 0.0000 57.8609
#
#
#
# Elastic Compliance Matrix: (Units=1/GPa)
#
#
# Indices 1 2 3 4 5 6 
#
# 1 0.015662 -0.000900 0.000088 0.000000 0.000000 0.000000
# 2 -0.000900 0.008898 -0.006143 0.000000 0.000000 0.000000
# 3 0.000088 -0.006143 0.013638 0.000000 0.000000 0.000000
# 4 0.000000 0.000000 0.000000 -0.076694 0.000000 0.000000
# 5 0.000000 0.000000 0.000000 0.000000 -0.143068 0.000000
# 6 0.000000 0.000000 0.000000 0.000000 0.000000 0.017283
#
#
# Mechanical properties :
#
#
# Convention : Reuss Voigt Hill
#
# Bulk Modulus (GPa) = 41.17369 56.52367 48.84868
# Shear Modulus (GPa) = -35.14299 24.14591 -5.49854
#
# Velocity S-wave (km/s) = -3.90772 3.23911 -1.54571
# Velocity P-wave (km/s) = 1.57151 6.20884 4.24736
#
# Compressibility (1/GPa) = 0.02428735
#
# Stress axis : x y z
#
# Youngs Moduli (GPa) = 63.84791 112.38812 73.32559
#
# Poissons Ratio (x) = 0.10116 -0.00646
# Poissons Ratio (y) = 0.05747 0.45046
# Poissons Ratio (z) = -0.00563 0.69043
#
# Static dielectric constant tensor:
#      x y z
#    x 1.886560 0.000000 0.000000 
#    y 0.000000 1.859230 0.000000 
#    z 0.000000 0.000000 1.888640 
# 
# From -- ./inp_files/32141.got.cif
#   From: 2010.05.17/outbox.cif.g08.bks.cpg/sg47_17_cif.got.tgz:32141.got - 2010.06.03 20:15:42.
