data_PCOD9383437
_publ_section_title
;
Structure prediction by ZEFSAII (Michael W. Deem and Ramdas Pophale) SiO2 
 PCOD9383437
Probable space group: P M M M
;
_chemical_formula_sum "Si O2"
_cell_formula_units_Z 64
_cell_length_a 21.425152
_cell_length_b 7.803888
_cell_length_c 18.324081
_cell_angle_alpha 90.000000
_cell_angle_beta 90.000000
_cell_angle_gamma 90.000000
_cell_volume 3063.776935
_symmetry_space_group_name_H-M "P M M M"
_symmetry_group_IT_number 47
_symmetry_cell_setting 'orthorhombic'
loop_
_space_group_symop_operation_xyz
x,y,z
-x,-y,z
x,-y,-z
-x,y,-z
-x,-y,-z
x,y,-z
-x,y,z
x,-y,z
loop_
_atom_site_type_symbol
_atom_site_label
_atom_site_fract_x
_atom_site_fract_y
_atom_site_fract_z
Si Si1 0.204543 0.298238 0.421280
Si Si2 0.701393 0.210696 0.870390
Si Si3 0.930460 0.792676 0.629600
Si Si4 0.930262 0.791142 0.201874
Si Si5 0.567445 0.198579 0.885069
Si Si6 0.300333 0.201600 0.703003
Si Si7 0.432801 0.701960 0.282163
Si Si8 0.835818 0.790507 0.920541
O O1 0.224182 0.223744 0.500000
O O2 0.214939 0.500000 0.423188
O O3 0.130776 0.266869 0.411866
O O4 0.244430 0.235616 0.352515
O O5 0.635495 0.271288 0.903979
O O6 0.708006 0.269604 0.785775
O O7 0.764150 0.261847 0.910819
O O8 0.699067 0.000000 0.871194
O O9 0.922289 0.738141 0.714180
O O10 0.000000 0.736812 0.605096
O O11 0.930557 0.000000 0.627511
O O12 0.878000 0.729729 0.146342
O O13 0.000000 0.742020 0.178224
O O14 0.928012 0.000000 0.202689
O O15 0.500000 0.275286 0.906582
O O16 0.569384 0.204689 0.796309
O O17 0.566421 0.000000 0.908265
O O18 0.368620 0.261538 0.676415
O O19 0.304323 0.000000 0.711470
O O20 0.500000 0.746244 0.316811
O O21 0.433317 0.500000 0.265991
O O22 0.836673 0.000000 0.918207
O O23 0.859663 0.738356 0.000000
#
# Coordination Sequence:
#
# PCOD9383437 Si02
#       8
#     8   8   8   8   8   8   8   8
#     4  11  24  38  51  71 101 131 156 191 241 290
#     4   8  14  24  39  60  84 113 151 193 234 273
#     4   9  18  34  56  77  96 123 160 200 239 283
#     4   8  14  25  41  62  88 117 151 191 231 271
#     4   8  13  22  37  57  82 114 153 195 237 281
#     4  10  19  32  52  72  93 127 168 206 239 279
#     4   9  16  26  43  70 102 128 152 193 248 296
#     4   9  15  21  32  54  87 124 155 185 228 282
#
# _framework density 20.889250000000001
#
# number of rings (size 3 to 8) (size 9 to 14) (size 15 to 20)
#    0.000    3.000    0.000    3.375    0.000    4.500 
#    0.000    2.500    0.000    0.750    0.000    5.250 
#    0.000   32.000    0.000   42.500    0.000   40.000 
#
# Total GULP energy -356651.949786 kJ/mol
# GULP energy per Si atom -5572.686715 kJ/mol
# Density = 2.084171 g / cm^3
# Si number density = 20.889250 Si / 1000 Ang^3
#
#
#
# Elastic Constant Matrix: (Units=GPa)
#
#
# Indices 1 2 3 4 5 6 
#
# 1 104.9601 -1.1553 29.9817 0.0000 0.0000 0.0000
# 2 -1.1553 31.5948 2.3243 0.0000 0.0000 0.0000
# 3 29.9817 2.3243 53.3340 0.0000 0.0000 0.0000
# 4 0.0000 0.0000 0.0000 -0.4819 0.0000 0.0000
# 5 0.0000 0.0000 0.0000 0.0000 -22.7484 0.0000
# 6 0.0000 0.0000 0.0000 0.0000 0.0000 3.8058
#
#
#
# Elastic Compliance Matrix: (Units=1/GPa)
#
#
# Indices 1 2 3 4 5 6 
#
# 1 0.011375 0.000889 -0.006433 0.000000 0.000000 0.000000
# 2 0.000889 0.031822 -0.001887 0.000000 0.000000 0.000000
# 3 -0.006433 -0.001887 0.022448 0.000000 0.000000 0.000000
# 4 0.000000 0.000000 0.000000 -2.074991 0.000000 0.000000
# 5 0.000000 0.000000 0.000000 0.000000 -0.043959 0.000000
# 6 0.000000 0.000000 0.000000 0.000000 0.000000 0.262756
#
#
# Mechanical properties :
#
#
# Convention : Reuss Voigt Hill
#
# Bulk Modulus (GPa) = 19.69119 28.02114 23.85617
# Shear Modulus (GPa) = -2.84291 6.69763 1.92736
#
# Velocity S-wave (km/s) = -1.16786 1.79255 0.96159
# Velocity P-wave (km/s) = 2.76196 4.21041 3.56062
#
# Compressibility (1/GPa) = 0.05078412
#
# Stress axis : x y z
#
# Youngs Moduli (GPa) = 87.91340 31.42470 44.54665
#
# Poissons Ratio (x) = -0.02794 0.28657
# Poissons Ratio (y) = -0.07817 0.08404
# Poissons Ratio (z) = 0.56556 0.05929
#
# Static dielectric constant tensor:
#      x y z
#    x 1.790210 0.000000 0.000000 
#    y 0.000000 1.769240 0.000000 
#    z 0.000000 0.000000 1.779000 
# 
# From -- ./inp_files/28825.got.cif
#   From: 2010.05.17/outbox.cif.g08.bks.cpg/sg47_15_cif.got.tgz:28825.got - 2010.06.03 20:15:42.
