data_PCOD9383619
_publ_section_title
;
Structure prediction by ZEFSAII (Michael W. Deem and Ramdas Pophale) SiO2 
 PCOD9383619
Probable space group: P M M M
;
_chemical_formula_sum "Si O2"
_cell_formula_units_Z 44
_cell_length_a 34.405970
_cell_length_b 7.959810
_cell_length_c 7.850948
_cell_angle_alpha 90.000000
_cell_angle_beta 90.000000
_cell_angle_gamma 90.000000
_cell_volume 2150.099749
_symmetry_space_group_name_H-M "P M M M"
_symmetry_group_IT_number 47
_symmetry_cell_setting 'orthorhombic'
loop_
_space_group_symop_operation_xyz
x,y,z
-x,-y,z
x,-y,-z
-x,y,-z
-x,-y,-z
x,y,-z
-x,y,z
x,-y,z
loop_
_atom_site_type_symbol
_atom_site_label
_atom_site_fract_x
_atom_site_fract_y
_atom_site_fract_z
Si Si1 0.098766 0.690348 0.703235
Si Si2 0.542705 0.302519 0.705502
Si Si3 0.815327 0.188799 0.202855
Si Si4 0.674125 0.500000 0.790727
Si Si5 0.043960 0.000000 0.796704
Si Si6 0.626344 0.819084 0.797673
Si Si7 0.763949 0.500000 0.209060
O O1 0.101803 0.683619 0.500000
O O2 0.090109 0.500000 0.765127
O O3 0.140514 0.750843 0.770859
O O4 0.067211 0.832147 0.745920
O O5 0.543480 0.292273 0.500000
O O6 0.500000 0.241735 0.762089
O O7 0.545690 0.500000 0.751473
O O8 0.580532 0.210973 0.772903
O O9 0.786609 0.333347 0.268749
O O10 0.810235 0.000000 0.273032
O O11 0.808761 0.179140 0.000000
O O12 0.650914 0.663566 0.729297
O O13 0.719019 0.500000 0.740775
O O14 0.673036 0.500000 0.000000
O O15 0.000000 0.000000 0.727926
O O16 0.042248 0.000000 0.000000
O O17 0.637235 0.000000 0.724673
O O18 0.633536 0.823024 0.000000
O O19 0.765237 0.500000 0.000000
#
# Coordination Sequence:
#
# PCOD9383619 Si02
#       7
#     8   8   8   4   4   8   4
#     4  11  23  38  60  89 121 159 197 237 290 348
#     4   9  18  33  53  76 101 132 172 218 267 320
#     4  10  19  32  55  86 114 144 185 233 282 332
#     4   9  18  34  52  74 109 145 177 222 274 320
#     4  11  25  43  63  89 121 159 203 249 291 335
#     4  10  20  33  52  77 104 139 179 218 265 323
#     4   9  18  32  53  82 113 144 182 230 278 329
#
# _framework density 20.464165000000001
#
# number of rings (size 3 to 8) (size 9 to 14) (size 15 to 20)
#    0.000    2.091    2.727    1.364    0.000    4.000 
#    0.000    8.182    0.000    2.182    0.000    2.545 
#    0.000    0.000    0.000    0.000    0.000    0.000 
#
# Total GULP energy -245660.926922 kJ/mol
# GULP energy per Si atom -5583.202885 kJ/mol
# Density = 2.041759 g / cm^3
# Si number density = 20.464165 Si / 1000 Ang^3
#
#
#
# Elastic Constant Matrix: (Units=GPa)
#
#
# Indices 1 2 3 4 5 6 
#
# 1 159.4966 112.2579 -8.3580 0.0000 0.0000 0.0000
# 2 112.2579 223.3075 10.2814 0.0000 0.0000 0.0000
# 3 -8.3580 10.2814 21.6681 0.0000 0.0000 0.0000
# 4 0.0000 0.0000 0.0000 13.0037 0.0000 0.0000
# 5 0.0000 0.0000 0.0000 0.0000 162.7814 0.0000
# 6 0.0000 0.0000 0.0000 0.0000 0.0000 -50.3959
#
#
#
# Elastic Compliance Matrix: (Units=1/GPa)
#
#
# Indices 1 2 3 4 5 6 
#
# 1 0.010590 -0.005635 0.006758 0.000000 0.000000 0.000000
# 2 -0.005635 0.007576 -0.005768 0.000000 0.000000 0.000000
# 3 0.006758 -0.005768 0.051495 0.000000 0.000000 0.000000
# 4 0.000000 0.000000 0.000000 0.076901 0.000000 0.000000
# 5 0.000000 0.000000 0.000000 0.000000 0.006143 0.000000
# 6 0.000000 0.000000 0.000000 0.000000 0.000000 -0.019843
#
#
# Mechanical properties :
#
#
# Convention : Reuss Voigt Hill
#
# Bulk Modulus (GPa) = 16.56409 70.31498 43.43953
# Shear Modulus (GPa) = 30.81175 44.43055 37.62115
#
# Velocity S-wave (km/s) = 3.88447 4.66460 4.29230
# Velocity P-wave (km/s) = 5.31325 7.96530 6.77040
#
# Compressibility (1/GPa) = 0.06037156
#
# Stress axis : x y z
#
# Youngs Moduli (GPa) = 94.43119 131.99053 19.41941
#
# Poissons Ratio (x) = 0.74372 -0.13124
# Poissons Ratio (y) = 0.53209 0.11202
# Poissons Ratio (z) = -0.63820 0.76137
#
# Static dielectric constant tensor:
#      x y z
#    x 1.686810 0.000000 0.000000 
#    y 0.000000 1.745430 0.000000 
#    z 0.000000 0.000000 1.739640 
# 
# From -- ./inp_files/13736.got.cif
#   From: 2010.05.17/outbox.cif.g08.bks.cpg/sg47_7_cif.got.tgz:13736.got - 2010.06.03 20:15:42.
