data_PCOD9383035
_publ_section_title
;
Structure prediction by ZEFSAII (Michael W. Deem and Ramdas Pophale) SiO2 
 PCOD9383035
Probable space group: P M M M
;
_chemical_formula_sum "Si O2"
_cell_formula_units_Z 52
_cell_length_a 22.028991
_cell_length_b 8.997440
_cell_length_c 16.214825
_cell_angle_alpha 90.000000
_cell_angle_beta 90.000000
_cell_angle_gamma 90.000000
_cell_volume 3213.851684
_symmetry_space_group_name_H-M "P M M M"
_symmetry_group_IT_number 47
_symmetry_cell_setting 'orthorhombic'
loop_
_space_group_symop_operation_xyz
x,y,z
-x,-y,z
x,-y,-z
-x,y,-z
-x,-y,-z
x,y,-z
-x,y,z
x,-y,z
loop_
_atom_site_type_symbol
_atom_site_label
_atom_site_fract_x
_atom_site_fract_y
_atom_site_fract_z
Si Si1 0.070696 0.676801 0.847098
Si Si2 0.139258 0.178108 0.000000
Si Si3 0.351736 0.327003 0.656286
Si Si4 0.832769 0.173118 0.744019
Si Si5 0.570965 0.680959 0.500000
Si Si6 0.281264 0.819286 0.000000
Si Si7 0.213800 0.332866 0.596140
Si Si8 0.299909 0.179024 0.183695
O O1 0.074394 0.500000 0.858473
O O2 0.103909 0.758774 0.921949
O O3 0.110263 0.729402 0.770126
O O4 0.000000 0.717858 0.841917
O O5 0.210019 0.223724 0.000000
O O6 0.138051 0.000000 0.000000
O O7 0.366837 0.500000 0.672380
O O8 0.397328 0.267846 0.585518
O O9 0.285633 0.322032 0.613351
O O10 0.342381 0.246675 0.744513
O O11 0.817882 0.207830 0.649741
O O12 0.770438 0.215497 0.792561
O O13 0.844042 0.000000 0.760453
O O14 0.577890 0.500000 0.500000
O O15 0.500000 0.716677 0.500000
O O16 0.309396 0.772405 0.911642
O O17 0.282756 0.000000 0.000000
O O18 0.202146 0.319284 0.500000
O O19 0.195582 0.500000 0.623676
O O20 0.304865 0.000000 0.187364
#
# Coordination Sequence:
#
# PCOD9383035 Si02
#       8
#     8   4   8   8   4   4   8   8
#     4  11  23  36  48  65  91 122 157 196 240 293
#     4  11  20  34  51  68  92 121 157 197 237 289
#     4   9  16  28  45  70 100 128 164 201 230 277
#     4  10  19  31  48  69  91 118 156 198 241 290
#     4   9  16  28  49  75 105 141 172 197 232 277
#     4   9  16  30  48  67  95 125 156 194 239 293
#     4   9  16  28  47  69  96 126 152 187 238 291
#     4   9  17  30  47  67  94 127 158 195 244 290
#
# _framework density 16.179962
#
# number of rings (size 3 to 8) (size 9 to 14) (size 15 to 20)
#    0.000    2.385    2.308    1.385    0.000    3.077 
#    0.000    0.769    0.000    1.385    0.000    3.769 
#    0.000    4.308    0.000    0.000    0.000    0.000 
#
# Total GULP energy -289616.586912 kJ/mol
# GULP energy per Si atom -5569.549748 kJ/mol
# Density = 1.614314 g / cm^3
# Si number density = 16.179962 Si / 1000 Ang^3
#
#
#
# Elastic Constant Matrix: (Units=GPa)
#
#
# Indices 1 2 3 4 5 6 
#
# 1 61.7406 21.0956 47.1693 0.0000 0.0000 0.0000
# 2 21.0956 24.0236 27.2966 0.0000 0.0000 0.0000
# 3 47.1693 27.2966 121.4526 0.0000 0.0000 0.0000
# 4 0.0000 0.0000 0.0000 -32.9712 0.0000 0.0000
# 5 0.0000 0.0000 0.0000 0.0000 12.4386 0.0000
# 6 0.0000 0.0000 0.0000 0.0000 0.0000 12.5450
#
#
#
# Elastic Compliance Matrix: (Units=1/GPa)
#
#
# Indices 1 2 3 4 5 6 
#
# 1 0.026835 -0.015742 -0.006884 0.000000 0.000000 0.000000
# 2 -0.015742 0.065137 -0.008525 0.000000 0.000000 0.000000
# 3 -0.006884 -0.008525 0.012823 0.000000 0.000000 0.000000
# 4 0.000000 0.000000 0.000000 -0.030330 0.000000 0.000000
# 5 0.000000 0.000000 0.000000 0.000000 0.080395 0.000000
# 6 0.000000 0.000000 0.000000 0.000000 0.000000 0.079713
#
#
# Mechanical properties :
#
#
# Convention : Reuss Voigt Hill
#
# Bulk Modulus (GPa) = 23.53439 44.25996 33.89717
# Shear Modulus (GPa) = 16.07507 5.84618 10.96062
#
# Velocity S-wave (km/s) = 3.15543 1.90291 2.60555
# Velocity P-wave (km/s) = 5.27756 5.67823 5.48155
#
# Compressibility (1/GPa) = 0.04249102
#
# Stress axis : x y z
#
# Youngs Moduli (GPa) = 37.26484 15.35237 77.98297
#
# Poissons Ratio (x) = 0.24168 0.53683
# Poissons Ratio (y) = 0.58664 0.66484
# Poissons Ratio (z) = 0.25653 0.13089
#
# Static dielectric constant tensor:
#      x y z
#    x 1.519140 0.000000 0.000000 
#    y 0.000000 1.556460 0.000000 
#    z 0.000000 0.000000 1.605870 
# 
# From -- ./inp_files/25074.got.cif
#   From: 2010.05.17/outbox.cif.g08.bks.cpg/sg47_13_cif.got.tgz:25074.got - 2010.06.03 20:15:42.
