data_PCOD9383030
_publ_section_title
;
Structure prediction by ZEFSAII (Michael W. Deem and Ramdas Pophale) SiO2 
 PCOD9383030
Probable space group: P M M M
;
_chemical_formula_sum "Si O2"
_cell_formula_units_Z 52
_cell_length_a 19.225717
_cell_length_b 7.909624
_cell_length_c 18.887053
_cell_angle_alpha 90.000000
_cell_angle_beta 90.000000
_cell_angle_gamma 90.000000
_cell_volume 2872.120013
_symmetry_space_group_name_H-M "P M M M"
_symmetry_group_IT_number 47
_symmetry_cell_setting 'orthorhombic'
loop_
_space_group_symop_operation_xyz
x,y,z
-x,-y,z
x,-y,-z
-x,y,-z
-x,-y,-z
x,y,-z
-x,y,z
x,-y,z
loop_
_atom_site_type_symbol
_atom_site_label
_atom_site_fract_x
_atom_site_fract_y
_atom_site_fract_z
Si Si1 0.287456 0.193303 0.136092
Si Si2 0.922256 0.706196 0.223073
Si Si3 0.219301 0.300890 0.279630
Si Si4 0.346938 0.201013 0.644806
Si Si5 0.854226 0.699119 0.076724
Si Si6 0.420647 0.792849 0.209826
Si Si7 0.578634 0.298371 0.500000
O O1 0.255049 0.200540 0.215281
O O2 0.228582 0.282400 0.089788
O O3 0.364892 0.262901 0.150265
O O4 0.292331 0.000000 0.111735
O O5 0.924948 0.500000 0.220966
O O6 0.861540 0.749142 0.278998
O O7 0.894448 0.765649 0.145902
O O8 0.000000 0.767299 0.237357
O O9 0.222368 0.500000 0.260787
O O10 0.268933 0.271548 0.346013
O O11 0.392561 0.261794 0.712594
O O12 0.382173 0.245292 0.571132
O O13 0.342902 0.000000 0.650454
O O14 0.870044 0.500000 0.074700
O O15 0.872571 0.773075 0.000000
O O16 0.500000 0.739211 0.199047
O O17 0.419313 0.000000 0.209215
O O18 0.575019 0.500000 0.500000
O O19 0.500000 0.228929 0.500000
#
# Coordination Sequence:
#
# PCOD9383030 Si02
#       7
#     8   8   8   8   8   8   4
#     4   9  16  26  42  62  82 108 144 184 224 269
#     4   8  14  25  43  68  93 115 144 184 227 271
#     4   9  16  28  46  66  90 118 149 187 226 264
#     4  10  19  31  48  68  92 125 160 188 219 267
#     4   9  17  28  42  60  84 116 149 181 221 270
#     4   8  14  25  42  63  83 104 137 182 224 258
#     4  11  23  35  47  69 102 133 160 193 231 266
#
# _framework density 18.105093
#
# number of rings (size 3 to 8) (size 9 to 14) (size 15 to 20)
#    0.000    3.000    0.000    3.923    0.000    1.846 
#    0.000    1.538    0.000   21.231    0.000    8.077 
#    0.000    4.308    0.000    0.000    0.000    0.000 
#
# Total GULP energy -289473.711217 kJ/mol
# GULP energy per Si atom -5566.802139 kJ/mol
# Density = 1.806389 g / cm^3
# Si number density = 18.105093 Si / 1000 Ang^3
#
#
#
# Elastic Constant Matrix: (Units=GPa)
#
#
# Indices 1 2 3 4 5 6 
#
# 1 164.3226 3.9714 31.1016 0.0000 0.0000 0.0000
# 2 3.9714 26.8420 -1.5225 0.0000 0.0000 0.0000
# 3 31.1016 -1.5225 36.7215 0.0000 0.0000 0.0000
# 4 0.0000 0.0000 0.0000 10.5400 0.0000 0.0000
# 5 0.0000 0.0000 0.0000 0.0000 16.7581 0.0000
# 6 0.0000 0.0000 0.0000 0.0000 0.0000 79.4884
#
#
#
# Elastic Compliance Matrix: (Units=1/GPa)
#
#
# Indices 1 2 3 4 5 6 
#
# 1 0.007302 -0.001435 -0.006244 0.000000 0.000000 0.000000
# 2 -0.001435 0.037625 0.002775 0.000000 0.000000 0.000000
# 3 -0.006244 0.002775 0.032635 0.000000 0.000000 0.000000
# 4 0.000000 0.000000 0.000000 0.094876 0.000000 0.000000
# 5 0.000000 0.000000 0.000000 0.000000 0.059673 0.000000
# 6 0.000000 0.000000 0.000000 0.000000 0.000000 0.012580
#
#
# Mechanical properties :
#
#
# Convention : Reuss Voigt Hill
#
# Bulk Modulus (GPa) = 14.75906 32.77633 23.76769
# Shear Modulus (GPa) = 18.04506 34.31301 26.17903
#
# Velocity S-wave (km/s) = 3.16046 4.35813 3.80669
# Velocity P-wave (km/s) = 4.63547 6.59295 5.69889
#
# Compressibility (1/GPa) = 0.06775501
#
# Stress axis : x y z
#
# Youngs Moduli (GPa) = 136.94736 26.57828 30.64150
#
# Poissons Ratio (x) = 0.03813 0.19133
# Poissons Ratio (y) = 0.19646 -0.08503
# Poissons Ratio (z) = 0.85510 -0.07375
#
# Static dielectric constant tensor:
#      x y z
#    x 1.668890 0.000000 0.000000 
#    y 0.000000 1.664050 0.000000 
#    z 0.000000 0.000000 1.622380 
# 
# From -- ./inp_files/31279.got.cif
#   From: 2010.05.17/outbox.cif.g08.bks.cpg/sg47_16_cif.got.tgz:31279.got - 2010.06.03 20:15:42.
