data_PCOD9383926
_publ_section_title
;
Structure prediction by ZEFSAII (Michael W. Deem and Ramdas Pophale) SiO2 
 PCOD9383926
Probable space group: P M M M
;
_chemical_formula_sum "Si O2"
_cell_formula_units_Z 64
_cell_length_a 26.033779
_cell_length_b 14.917804
_cell_length_c 7.800341
_cell_angle_alpha 90.000000
_cell_angle_beta 90.000000
_cell_angle_gamma 90.000000
_cell_volume 3029.393571
_symmetry_space_group_name_H-M "P M M M"
_symmetry_group_IT_number 47
_symmetry_cell_setting 'orthorhombic'
loop_
_space_group_symop_operation_xyz
x,y,z
-x,-y,z
x,-y,-z
-x,y,-z
-x,-y,-z
x,y,-z
-x,y,z
x,-y,z
loop_
_atom_site_type_symbol
_atom_site_label
_atom_site_fract_x
_atom_site_fract_y
_atom_site_fract_z
Si Si1 0.439294 0.096214 0.793790
Si Si2 0.055996 0.296004 0.700407
Si Si3 0.841803 0.602797 0.799843
Si Si4 0.252943 0.278318 0.300622
Si Si5 0.345533 0.398334 0.289045
Si Si6 0.441934 0.291544 0.296842
Si Si7 0.084765 0.099330 0.201557
Si Si8 0.204521 0.098950 0.291759
O O1 0.500000 0.095678 0.747525
O O2 0.419805 0.191038 0.727525
O O3 0.417578 0.000000 0.734302
O O4 0.436214 0.097883 0.000000
O O5 0.057426 0.318755 0.500000
O O6 0.104091 0.346198 0.782506
O O7 0.061925 0.188530 0.716729
O O8 0.000000 0.321492 0.771193
O O9 0.845139 0.500000 0.737767
O O10 0.797531 0.659513 0.708585
O O11 0.828001 0.601036 0.000000
O O12 0.265373 0.262334 0.500000
O O13 0.300830 0.332312 0.226770
O O14 0.237909 0.181804 0.226184
O O15 0.345099 0.397530 0.500000
O O16 0.335877 0.500000 0.235948
O O17 0.400818 0.362302 0.230611
O O18 0.446263 0.306151 0.500000
O O19 0.500000 0.296277 0.223999
O O20 0.146333 0.106187 0.224645
O O21 0.069610 0.000000 0.267813
O O22 0.072463 0.101886 0.000000
O O23 0.201136 0.104336 0.500000
O O24 0.224274 0.000000 0.246627
#
# Coordination Sequence:
#
# PCOD9383926 Si02
#       8
#     8   8   8   8   8   8   8   8
#     4   8  14  26  45  68  95 130 170 209 254 312
#     4  11  24  40  58  82 112 147 187 228 268 315
#     4  11  24  40  59  83 109 139 177 224 280 334
#     4  10  19  34  58  82 105 138 178 220 267 322
#     4   9  18  32  50  75 106 139 179 227 274 319
#     4   9  17  29  47  73 104 139 180 224 269 315
#     4  10  20  34  55  83 114 148 183 220 267 321
#     4   9  17  30  51  79 108 137 172 214 262 320
#
# _framework density 21.126341
#
# number of rings (size 3 to 8) (size 9 to 14) (size 15 to 20)
#    0.000    2.375    1.250    1.875    0.000    4.250 
#    0.000    6.250    0.000    3.375    0.000    3.500 
#    0.000    0.000    0.000    0.000    0.000    0.000 
#
# Total GULP energy -357102.301068 kJ/mol
# GULP energy per Si atom -5579.723454 kJ/mol
# Density = 2.107826 g / cm^3
# Si number density = 21.126341 Si / 1000 Ang^3
#
#
#
# Elastic Constant Matrix: (Units=GPa)
#
#
# Indices 1 2 3 4 5 6 
#
# 1 87.3317 49.1446 -5.8692 0.0000 0.0000 0.0000
# 2 49.1446 115.6606 -6.2417 0.0000 0.0000 0.0000
# 3 -5.8692 -6.2417 28.2814 0.0000 0.0000 0.0000
# 4 0.0000 0.0000 0.0000 5.0282 0.0000 0.0000
# 5 0.0000 0.0000 0.0000 0.0000 -43.9459 0.0000
# 6 0.0000 0.0000 0.0000 0.0000 0.0000 -4.9506
#
#
#
# Elastic Compliance Matrix: (Units=1/GPa)
#
#
# Indices 1 2 3 4 5 6 
#
# 1 0.015133 -0.006336 0.001742 0.000000 0.000000 0.000000
# 2 -0.006336 0.011403 0.001202 0.000000 0.000000 0.000000
# 3 0.001742 0.001202 0.035986 0.000000 0.000000 0.000000
# 4 0.000000 0.000000 0.000000 0.198878 0.000000 0.000000
# 5 0.000000 0.000000 0.000000 0.000000 -0.022755 0.000000
# 6 0.000000 0.000000 0.000000 0.000000 0.000000 -0.201994
#
#
# Mechanical properties :
#
#
# Convention : Reuss Voigt Hill
#
# Bulk Modulus (GPa) = 17.94122 33.92678 25.93400
# Shear Modulus (GPa) = 80.62664 4.17567 42.40115
#
# Velocity S-wave (km/s) = 6.18441 1.40741 4.48485
# Velocity P-wave (km/s) = 7.71405 4.32839 6.25466
#
# Compressibility (1/GPa) = 0.05573756
#
# Stress axis : x y z
#
# Youngs Moduli (GPa) = 66.07957 87.69545 27.78885
#
# Poissons Ratio (x) = 0.55565 -0.04841
# Poissons Ratio (y) = 0.41869 -0.03339
# Poissons Ratio (z) = -0.11512 -0.10539
#
# Static dielectric constant tensor:
#      x y z
#    x 1.748700 0.000000 0.000000 
#    y 0.000000 1.827720 0.000000 
#    z 0.000000 0.000000 1.763830 
# 
# From -- ./inp_files/12654.got.cif
#   From: 2010.05.17/outbox.cif.g08.bks.cpg/sg47_7_cif.got.tgz:12654.got - 2010.06.03 20:15:42.
