data_PCOD9383989
_publ_section_title
;
Structure prediction by ZEFSAII (Michael W. Deem and Ramdas Pophale) SiO2 
 PCOD9383989
Probable space group: P M M M
;
_chemical_formula_sum "Si O2"
_cell_formula_units_Z 52
_cell_length_a 23.728843
_cell_length_b 14.706064
_cell_length_c 8.550369
_cell_angle_alpha 90.000000
_cell_angle_beta 90.000000
_cell_angle_gamma 90.000000
_cell_volume 2983.718672
_symmetry_space_group_name_H-M "P M M M"
_symmetry_group_IT_number 47
_symmetry_cell_setting 'orthorhombic'
loop_
_space_group_symop_operation_xyz
x,y,z
-x,-y,z
x,-y,-z
-x,y,-z
-x,-y,-z
x,y,-z
-x,y,z
x,-y,z
loop_
_atom_site_type_symbol
_atom_site_label
_atom_site_fract_x
_atom_site_fract_y
_atom_site_fract_z
Si Si1 0.000000 0.395028 0.812816
Si Si2 0.719281 0.103146 0.813035
Si Si3 0.332701 0.719393 0.312906
Si Si4 0.890489 0.292023 0.689348
Si Si5 0.564680 0.604375 0.811296
Si Si6 0.776257 0.604541 0.690559
Si Si7 0.845723 0.101940 0.688883
O O1 0.944740 0.342764 0.754021
O O2 0.000000 0.500000 0.756877
O O3 0.000000 0.395960 0.000000
O O4 0.677685 0.179823 0.750881
O O5 0.781762 0.119299 0.743925
O O6 0.703011 0.000000 0.768919
O O7 0.722721 0.108235 0.000000
O O8 0.331405 0.721682 0.500000
O O9 0.389890 0.672716 0.257098
O O10 0.279365 0.658418 0.257954
O O11 0.893012 0.294068 0.500000
O O12 0.833348 0.344264 0.738050
O O13 0.883996 0.186660 0.739311
O O14 0.500000 0.624021 0.765052
O O15 0.577570 0.500000 0.763672
O O16 0.567051 0.607554 0.000000
O O17 0.775783 0.604369 0.500000
O O18 0.775786 0.500000 0.742893
O O19 0.845452 0.101791 0.500000
O O20 0.861989 0.000000 0.742019
#
# Coordination Sequence:
#
# PCOD9383989 Si02
#       7
#     4   8   8   8   8   8   8
#     4  11  25  41  54  73 102 136 177 223 266 309
#     4  10  20  33  51  77 109 144 179 215 263 325
#     4  11  20  32  52  80 111 141 177 224 273 315
#     4  10  19  35  57  78 101 137 177 212 258 316
#     4   9  19  36  55  76 108 150 189 222 261 315
#     4   9  17  29  47  75 107 133 164 211 261 308
#     4   9  17  32  55  82 109 134 167 215 266 315
#
# _framework density 17.427917999999998
#
# number of rings (size 3 to 8) (size 9 to 14) (size 15 to 20)
#    0.000    2.231    1.538    2.538    0.000    4.000 
#    0.000    1.154    0.000    5.538    0.000    3.231 
#    0.000    0.000    0.000    0.000    0.000    0.000 
#
# Total GULP energy -290163.286452 kJ/mol
# GULP energy per Si atom -5580.063201 kJ/mol
# Density = 1.738825 g / cm^3
# Si number density = 17.427918 Si / 1000 Ang^3
#
#
#
# Elastic Constant Matrix: (Units=GPa)
#
#
# Indices 1 2 3 4 5 6 
#
# 1 113.9577 93.3704 19.4945 0.0000 0.0000 0.0000
# 2 93.3704 176.0917 29.4459 0.0000 0.0000 0.0000
# 3 19.4945 29.4459 10.2663 0.0000 0.0000 0.0000
# 4 0.0000 0.0000 0.0000 20.9755 0.0000 0.0000
# 5 0.0000 0.0000 0.0000 0.0000 58.1039 0.0000
# 6 0.0000 0.0000 0.0000 0.0000 0.0000 31.3076
#
#
#
# Elastic Compliance Matrix: (Units=1/GPa)
#
#
# Indices 1 2 3 4 5 6 
#
# 1 0.016226 -0.006632 -0.011788 0.000000 0.000000 0.000000
# 2 -0.006632 0.013624 -0.026482 0.000000 0.000000 0.000000
# 3 -0.011788 -0.026482 0.195747 0.000000 0.000000 0.000000
# 4 0.000000 0.000000 0.000000 0.047675 0.000000 0.000000
# 5 0.000000 0.000000 0.000000 0.000000 0.017211 0.000000
# 6 0.000000 0.000000 0.000000 0.000000 0.000000 0.031941
#
#
# Mechanical properties :
#
#
# Convention : Reuss Voigt Hill
#
# Bulk Modulus (GPa) = 7.36422 64.99302 36.17862
# Shear Modulus (GPa) = 10.92914 32.61106 21.77010
#
# Velocity S-wave (km/s) = 2.50692 4.33043 3.53817
# Velocity P-wave (km/s) = 3.55166 7.89790 6.12336
#
# Compressibility (1/GPa) = 0.13579176
#
# Stress axis : x y z
#
# Youngs Moduli (GPa) = 61.62970 73.40002 5.10863
#
# Poissons Ratio (x) = 0.48682 0.06022
# Poissons Ratio (y) = 0.40876 0.13529
# Poissons Ratio (z) = 0.72648 1.94380
#
# Static dielectric constant tensor:
#      x y z
#    x 1.555890 0.000000 0.000000 
#    y 0.000000 1.608560 0.000000 
#    z 0.000000 0.000000 1.595020 
# 
# From -- ./inp_files/11055.got.cif
#   From: 2010.05.17/outbox.cif.g08.bks.cpg/sg47_6_cif.got.tgz:11055.got - 2010.06.03 20:15:42.
