data_PCOD9383417
_publ_section_title
;
Structure prediction by ZEFSAII (Michael W. Deem and Ramdas Pophale) SiO2 
 PCOD9383417
Probable space group: P M M M
;
_chemical_formula_sum "Si O2"
_cell_formula_units_Z 52
_cell_length_a 7.427577
_cell_length_b 21.964582
_cell_length_c 13.309366
_cell_angle_alpha 90.000000
_cell_angle_beta 90.000000
_cell_angle_gamma 90.000000
_cell_volume 2171.338203
_symmetry_space_group_name_H-M "P M M M"
_symmetry_group_IT_number 47
_symmetry_cell_setting 'orthorhombic'
loop_
_space_group_symop_operation_xyz
x,y,z
-x,-y,z
x,-y,-z
-x,y,-z
-x,-y,-z
x,y,-z
-x,y,z
x,-y,z
loop_
_atom_site_type_symbol
_atom_site_label
_atom_site_fract_x
_atom_site_fract_y
_atom_site_fract_z
Si Si1 0.291312 0.872836 0.685649
Si Si2 0.790229 0.434481 0.170045
Si Si3 0.217419 0.070226 0.114079
Si Si4 0.291658 0.742030 0.671123
Si Si5 0.292368 0.000000 0.381491
Si Si6 0.781177 0.698244 0.110347
Si Si7 0.718591 0.609513 0.610635
O O1 0.500000 0.872935 0.651873
O O2 0.286482 0.881583 0.805738
O O3 0.212347 0.808607 0.650750
O O4 0.207022 0.936206 0.650118
O O5 0.711037 0.500000 0.142134
O O6 0.718032 0.371903 0.124013
O O7 0.779850 0.426386 0.290944
O O8 0.000000 0.435751 0.141267
O O9 0.000000 0.072075 0.116143
O O10 0.269703 0.000000 0.139353
O O11 0.274849 0.082001 0.000000
O O12 0.500000 0.743713 0.639103
O O13 0.284893 0.733113 0.791573
O O14 0.217391 0.679616 0.625080
O O15 0.500000 0.000000 0.342373
O O16 0.300508 0.000000 0.500000
O O17 0.000000 0.698909 0.115537
O O18 0.728946 0.720887 0.000000
O O19 0.772191 0.587245 0.500000
O O20 0.500000 0.609313 0.614389
#
# Coordination Sequence:
#
# PCOD9383417 Si02
#       7
#     8   8   8   8   4   8   8
#     4  10  19  32  51  74  98 125 159 200 246 291
#     4   9  18  32  50  74 102 129 159 198 243 287
#     4   9  18  32  49  69  94 125 157 189 232 286
#     4   9  19  33  49  71  98 127 161 202 244 287
#     4   9  18  32  50  73  98 122 153 197 246 293
#     4   9  18  33  52  73  98 130 166 200 235 280
#     4   9  18  33  51  70  95 129 166 202 241 286
#
# _framework density 23.948366
#
# number of rings (size 3 to 8) (size 9 to 14) (size 15 to 20)
#    0.000    2.846    0.769    0.462    0.000    3.692 
#    0.000   10.000    0.000    0.923    0.000    6.462 
#    0.000    0.000    0.000    0.000    0.000    0.000 
#
# Total GULP energy -290254.345440 kJ/mol
# GULP energy per Si atom -5581.814335 kJ/mol
# Density = 2.389386 g / cm^3
# Si number density = 23.948366 Si / 1000 Ang^3
#
#
#
# Elastic Constant Matrix: (Units=GPa)
#
#
# Indices 1 2 3 4 5 6 
#
# 1 81.7400 2.2673 -8.1765 0.0000 0.0000 0.0000
# 2 2.2673 107.2375 -23.4121 0.0000 0.0000 0.0000
# 3 -8.1765 -23.4121 56.8719 0.0000 0.0000 0.0000
# 4 0.0000 0.0000 0.0000 -4.9089 0.0000 0.0000
# 5 0.0000 0.0000 0.0000 0.0000 40.7956 0.0000
# 6 0.0000 0.0000 0.0000 0.0000 0.0000 -0.8257
#
#
#
# Elastic Compliance Matrix: (Units=1/GPa)
#
#
# Indices 1 2 3 4 5 6 
#
# 1 0.012414 0.000140 0.001842 0.000000 0.000000 0.000000
# 2 0.000140 0.010248 0.004239 0.000000 0.000000 0.000000
# 3 0.001842 0.004239 0.019593 0.000000 0.000000 0.000000
# 4 0.000000 0.000000 0.000000 -0.203712 0.000000 0.000000
# 5 0.000000 0.000000 0.000000 0.000000 0.024512 0.000000
# 6 0.000000 0.000000 0.000000 0.000000 0.000000 -1.211062
#
#
# Mechanical properties :
#
#
# Convention : Reuss Voigt Hill
#
# Bulk Modulus (GPa) = 18.28274 20.80075 19.54175
# Shear Modulus (GPa) = -3.72518 25.35690 10.81586
#
# Velocity S-wave (km/s) = -1.24855 3.25747 2.12747
# Velocity P-wave (km/s) = 2.36057 4.78045 3.76995
#
# Compressibility (1/GPa) = 0.05469639
#
# Stress axis : x y z
#
# Youngs Moduli (GPa) = 80.55206 97.58461 51.03829
#
# Poissons Ratio (x) = -0.01364 -0.09403
# Poissons Ratio (y) = -0.01126 -0.21633
# Poissons Ratio (z) = -0.14840 -0.41362
#
# Static dielectric constant tensor:
#      x y z
#    x 1.944850 0.000000 0.000000 
#    y 0.000000 1.938960 0.000000 
#    z 0.000000 0.000000 1.902010 
# 
# From -- ./inp_files/19167.got.cif
#   From: 2010.05.17/outbox.cif.g08.bks.cpg/sg47_10_cif.got.tgz:19167.got - 2010.06.03 20:15:42.
