data_PCOD9383774
_publ_section_title
;
Structure prediction by ZEFSAII (Michael W. Deem and Ramdas Pophale) SiO2 
 PCOD9383774
Probable space group: P M M M
;
_chemical_formula_sum "Si O2"
_cell_formula_units_Z 52
_cell_length_a 15.341897
_cell_length_b 7.688346
_cell_length_c 20.508106
_cell_angle_alpha 90.000000
_cell_angle_beta 90.000000
_cell_angle_gamma 90.000000
_cell_volume 2419.009288
_symmetry_space_group_name_H-M "P M M M"
_symmetry_group_IT_number 47
_symmetry_cell_setting 'orthorhombic'
loop_
_space_group_symop_operation_xyz
x,y,z
-x,-y,z
x,-y,-z
-x,y,-z
-x,-y,-z
x,y,-z
-x,y,z
x,-y,z
loop_
_atom_site_type_symbol
_atom_site_label
_atom_site_fract_x
_atom_site_fract_y
_atom_site_fract_z
Si Si1 0.219217 0.790797 0.430115
Si Si2 0.096793 0.291703 0.309911
Si Si3 0.599088 0.206576 0.000000
Si Si4 0.404758 0.203977 0.607978
Si Si5 0.098196 0.712560 0.160454
Si Si6 0.598282 0.289824 0.758720
Si Si7 0.716983 0.291486 0.875807
O O1 0.181728 0.732115 0.500000
O O2 0.164653 0.749427 0.366037
O O3 0.317686 0.721344 0.423159
O O4 0.224073 0.000000 0.431680
O O5 0.093558 0.500000 0.305813
O O6 0.115330 0.234047 0.235853
O O7 0.000000 0.227177 0.327616
O O8 0.655154 0.256036 0.936771
O O9 0.500000 0.279273 0.000000
O O10 0.591712 0.000000 0.000000
O O11 0.500000 0.280173 0.592235
O O12 0.392632 0.217496 0.686079
O O13 0.408236 0.000000 0.590421
O O14 0.095751 0.500000 0.158402
O O15 0.182899 0.770766 0.120055
O O16 0.000000 0.770439 0.142337
O O17 0.500000 0.248497 0.782047
O O18 0.604590 0.500000 0.753584
O O19 0.669149 0.226534 0.810308
O O20 0.721693 0.500000 0.869271
#
# Coordination Sequence:
#
# PCOD9383774 Si02
#       7
#     8   8   4   8   8   8   8
#     4  10  21  34  47  67  97 133 171 210 253 300
#     4   9  18  34  56  79 102 129 162 203 251 302
#     4  11  25  41  54  73 106 144 175 205 244 287
#     4   9  18  32  49  69  94 127 168 211 254 302
#     4   8  15  30  54  83 108 128 159 206 254 296
#     4   9  17  29  48  75 101 124 158 208 260 303
#     4  10  19  33  56  80 102 134 172 206 242 289
#
# _framework density 21.496403999999998
#
# number of rings (size 3 to 8) (size 9 to 14) (size 15 to 20)
#    0.000    2.692    0.000    2.538    0.000    4.923 
#    0.000    5.769    0.000    3.692    0.000    3.231 
#    0.000    0.000    0.000    0.000    0.000    0.000 
#
# Total GULP energy -290081.324524 kJ/mol
# GULP energy per Si atom -5578.487010 kJ/mol
# Density = 2.144748 g / cm^3
# Si number density = 21.496404 Si / 1000 Ang^3
#
#
#
# Elastic Constant Matrix: (Units=GPa)
#
#
# Indices 1 2 3 4 5 6 
#
# 1 170.5973 8.8339 62.1737 0.0000 0.0000 0.0000
# 2 8.8339 32.9676 -3.7108 0.0000 0.0000 0.0000
# 3 62.1737 -3.7108 53.3842 0.0000 0.0000 0.0000
# 4 0.0000 0.0000 0.0000 11.6655 0.0000 0.0000
# 5 0.0000 0.0000 0.0000 0.0000 0.8745 0.0000
# 6 0.0000 0.0000 0.0000 0.0000 0.0000 13.8830
#
#
#
# Elastic Compliance Matrix: (Units=1/GPa)
#
#
# Indices 1 2 3 4 5 6 
#
# 1 0.010765 -0.004330 -0.012838 0.000000 0.000000 0.000000
# 2 -0.004330 0.032313 0.007288 0.000000 0.000000 0.000000
# 3 -0.012838 0.007288 0.034191 0.000000 0.000000 0.000000
# 4 0.000000 0.000000 0.000000 0.085723 0.000000 0.000000
# 5 0.000000 0.000000 0.000000 0.000000 1.143453 0.000000
# 6 0.000000 0.000000 0.000000 0.000000 0.000000 0.072031
#
#
# Mechanical properties :
#
#
# Convention : Reuss Voigt Hill
#
# Bulk Modulus (GPa) = 17.38814 43.50473 30.44644
# Shear Modulus (GPa) = 3.52758 17.92810 10.72784
#
# Velocity S-wave (km/s) = 1.28241 2.89105 2.23637
# Velocity P-wave (km/s) = 3.20923 5.60591 4.56757
#
# Compressibility (1/GPa) = 0.05751045
#
# Stress axis : x y z
#
# Youngs Moduli (GPa) = 92.89594 30.94698 29.24786
#
# Poissons Ratio (x) = 0.13399 0.37549
# Poissons Ratio (y) = 0.40219 -0.21317
# Poissons Ratio (z) = 1.19260 -0.22556
#
# Static dielectric constant tensor:
#      x y z
#    x 1.821560 0.000000 0.000000 
#    y 0.000000 1.803110 0.000000 
#    z 0.000000 0.000000 1.756240 
# 
# From -- ./inp_files/7038.got.cif
#   From: 2010.05.17/outbox.cif.g08.bks.cpg/sg47_4_cif.got.tgz:7038.got - 2010.06.03 20:15:42.
