data_PCOD9383916
_publ_section_title
;
Structure prediction by ZEFSAII (Michael W. Deem and Ramdas Pophale) SiO2 
 PCOD9383916
Probable space group: P M M M
;
_chemical_formula_sum "Si O2"
_cell_formula_units_Z 36
_cell_length_a 8.553989
_cell_length_b 13.064509
_cell_length_c 17.313748
_cell_angle_alpha 90.000000
_cell_angle_beta 90.000000
_cell_angle_gamma 90.000000
_cell_volume 1934.874816
_symmetry_space_group_name_H-M "P M M M"
_symmetry_group_IT_number 47
_symmetry_cell_setting 'orthorhombic'
loop_
_space_group_symop_operation_xyz
x,y,z
-x,-y,z
x,-y,-z
-x,y,-z
-x,-y,-z
x,y,-z
-x,y,z
x,-y,z
loop_
_atom_site_type_symbol
_atom_site_label
_atom_site_fract_x
_atom_site_fract_y
_atom_site_fract_z
Si Si1 0.313108 0.112511 0.248533
Si Si2 0.312999 0.500000 0.088557
Si Si3 0.810418 0.165046 0.416042
Si Si4 0.189457 0.389710 0.626388
Si Si5 0.813252 0.327311 0.800152
O O1 0.500000 0.120194 0.245765
O O2 0.259746 0.119180 0.338177
O O3 0.242576 0.209857 0.204104
O O4 0.265679 0.000000 0.218898
O O5 0.500000 0.500000 0.089013
O O6 0.255398 0.399299 0.133848
O O7 0.257603 0.500000 0.000000
O O8 0.765987 0.122293 0.500000
O O9 0.763184 0.285007 0.414083
O O10 0.000000 0.158833 0.409895
O O11 0.247428 0.500000 0.598468
O O12 0.229858 0.375427 0.716635
O O13 0.000000 0.391645 0.620869
O O14 0.000000 0.329166 0.805269
#
# Coordination Sequence:
#
# PCOD9383916 Si02
#       5
#     8   4   8   8   8
#     4  10  21  36  54  76 103 141 187 231 281 336
#     4  11  23  37  57  89 126 155 174 201 253 315
#     4   9  18  30  45  69 100 136 181 233 283 327
#     4   8  13  24  44  69  96 128 170 217 265 313
#     4  10  19  34  57  83 110 141 182 226 266 312
#
# _framework density 18.605854999999998
#
# number of rings (size 3 to 8) (size 9 to 14) (size 15 to 20)
#    0.000    2.556    1.111    3.000    0.000    4.000 
#    0.000    4.444    0.000    0.667    0.000    7.778 
#    0.000    0.000    0.000    0.000    0.000    0.000 
#
# Total GULP energy -200726.251912 kJ/mol
# GULP energy per Si atom -5575.729220 kJ/mol
# Density = 1.856351 g / cm^3
# Si number density = 18.605855 Si / 1000 Ang^3
#
#
#
# Elastic Constant Matrix: (Units=GPa)
#
#
# Indices 1 2 3 4 5 6 
#
# 1 27.9171 23.2265 27.2949 0.0000 0.0000 0.0000
# 2 23.2265 155.2404 48.5265 0.0000 0.0000 0.0000
# 3 27.2949 48.5265 104.4885 0.0000 0.0000 0.0000
# 4 0.0000 0.0000 0.0000 -9.7394 0.0000 0.0000
# 5 0.0000 0.0000 0.0000 0.0000 19.0762 0.0000
# 6 0.0000 0.0000 0.0000 0.0000 0.0000 18.3746
#
#
#
# Elastic Compliance Matrix: (Units=1/GPa)
#
#
# Indices 1 2 3 4 5 6 
#
# 1 0.050130 -0.003985 -0.011244 0.000000 0.000000 0.000000
# 2 -0.003985 0.007852 -0.002606 0.000000 0.000000 0.000000
# 3 -0.011244 -0.002606 0.013718 0.000000 0.000000 0.000000
# 4 0.000000 0.000000 0.000000 -0.102675 0.000000 0.000000
# 5 0.000000 0.000000 0.000000 0.000000 0.052421 0.000000
# 6 0.000000 0.000000 0.000000 0.000000 0.000000 0.054423
#
#
# Mechanical properties :
#
#
# Convention : Reuss Voigt Hill
#
# Bulk Modulus (GPa) = 27.75519 53.97133 40.86326
# Shear Modulus (GPa) = 40.46971 18.11549 29.29260
#
# Velocity S-wave (km/s) = 4.66886 3.12371 3.97214
# Velocity P-wave (km/s) = 6.63432 6.48697 6.56106
#
# Compressibility (1/GPa) = 0.03602929
#
# Stress axis : x y z
#
# Youngs Moduli (GPa) = 19.94824 127.34915 72.89782
#
# Poissons Ratio (x) = 0.50754 0.81968
# Poissons Ratio (y) = 0.07950 0.18995
# Poissons Ratio (z) = 0.22430 0.33184
#
# Static dielectric constant tensor:
#      x y z
#    x 1.634270 0.000000 0.000000 
#    y 0.000000 1.687230 0.000000 
#    z 0.000000 0.000000 1.626270 
# 
# From -- ./inp_files/26150.got.cif
#   From: 2010.05.17/outbox.cif.g08.bks.cpg/sg47_14_cif.got.tgz:26150.got - 2010.06.03 20:15:42.
