data_PCOD9383614
_publ_section_title
;
Structure prediction by ZEFSAII (Michael W. Deem and Ramdas Pophale) SiO2 
 PCOD9383614
Probable space group: P M M M
;
_chemical_formula_sum "Si O2"
_cell_formula_units_Z 48
_cell_length_a 8.483177
_cell_length_b 19.571429
_cell_length_c 15.573954
_cell_angle_alpha 90.000000
_cell_angle_beta 90.000000
_cell_angle_gamma 90.000000
_cell_volume 2585.710820
_symmetry_space_group_name_H-M "P M M M"
_symmetry_group_IT_number 47
_symmetry_cell_setting 'orthorhombic'
loop_
_space_group_symop_operation_xyz
x,y,z
-x,-y,z
x,-y,-z
-x,y,-z
-x,-y,-z
x,y,-z
-x,y,z
x,-y,z
loop_
_atom_site_type_symbol
_atom_site_label
_atom_site_fract_x
_atom_site_fract_y
_atom_site_fract_z
Si Si1 0.688871 0.078459 0.000000
Si Si2 0.188986 0.827174 0.847868
Si Si3 0.811013 0.172826 0.652132
Si Si4 0.692527 0.421761 0.250000
Si Si5 0.309246 0.322134 0.402120
Si Si6 0.311129 0.921541 0.500000
Si Si7 0.690754 0.677866 0.097880
O O1 0.747239 0.118841 0.916277
O O2 0.500000 0.079251 0.000000
O O3 0.743798 0.000000 0.000000
O O4 0.239794 0.841706 0.750000
O O5 0.247367 0.751809 0.873874
O O6 0.000000 0.827786 0.850916
O O7 0.752632 0.248191 0.626126
O O8 0.747239 0.118841 0.583723
O O9 0.000000 0.172214 0.649084
O O10 0.500000 0.422748 0.250000
O O11 0.746276 0.500000 0.250000
O O12 0.742077 0.379334 0.334058
O O13 0.742077 0.379334 0.165941
O O14 0.260361 0.336488 0.500000
O O15 0.500000 0.319591 0.400207
O O16 0.500000 0.920749 0.500000
O O17 0.256202 0.000000 0.500000
O O18 0.500000 0.680409 0.099793
O O19 0.739639 0.663512 0.000000
#
# Coordination Sequence:
#
# PCOD9383614 Si02
#       7
#     4   8   8   8   8   4   8
#     4  11  25  43  63  89 120 153 192 241 293 346
#     4  11  23  38  60  89 119 155 196 240 289 348
#     4  11  23  38  60  89 119 155 196 240 289 348
#     4   9  18  32  51  81 120 155 192 243 295 342
#     4  10  19  32  55  84 112 150 197 243 288 341
#     4  11  25  43  63  89 120 153 192 241 293 346
#     4  10  19  32  55  84 112 150 197 243 288 341
#
# _framework density 18.563561
#
# number of rings (size 3 to 8) (size 9 to 14) (size 15 to 20)
#    0.000    1.667    3.333    1.500    0.000    4.667 
#    0.000    6.667    0.000    2.000    0.000    2.333 
#    0.000    0.000    0.000    0.000    0.000    0.000 
#
# Total GULP energy -268135.294072 kJ/mol
# GULP energy per Si atom -5586.151960 kJ/mol
# Density = 1.852131 g / cm^3
# Si number density = 18.563561 Si / 1000 Ang^3
#
#
#
# Elastic Constant Matrix: (Units=GPa)
#
#
# Indices 1 2 3 4 5 6 
#
# 1 16.9898 25.3191 36.0848 0.0000 0.0000 0.0000
# 2 25.3191 201.4259 127.8204 0.0000 0.0000 0.0000
# 3 36.0848 127.8204 231.5133 0.0000 0.0000 0.0000
# 4 0.0000 0.0000 0.0000 30.3806 0.0000 0.0000
# 5 0.0000 0.0000 0.0000 0.0000 22.0158 0.0000
# 6 0.0000 0.0000 0.0000 0.0000 0.0000 -32.0389
#
#
#
# Elastic Compliance Matrix: (Units=1/GPa)
#
#
# Indices 1 2 3 4 5 6 
#
# 1 0.089743 -0.003701 -0.011945 0.000000 0.000000 0.000000
# 2 -0.003701 0.007795 -0.003727 0.000000 0.000000 0.000000
# 3 -0.011945 -0.003727 0.008239 0.000000 0.000000 0.000000
# 4 0.000000 0.000000 0.000000 0.032916 0.000000 0.000000
# 5 0.000000 0.000000 0.000000 0.000000 0.045422 0.000000
# 6 0.000000 0.000000 0.000000 0.000000 0.000000 -0.031212
#
#
# Mechanical properties :
#
#
# Convention : Reuss Voigt Hill
#
# Bulk Modulus (GPa) = 14.91818 92.04196 53.48007
# Shear Modulus (GPa) = 23.36554 21.45182 22.40868
#
# Velocity S-wave (km/s) = 3.55163 3.40308 3.47815
# Velocity P-wave (km/s) = 4.98724 8.07038 6.70833
#
# Compressibility (1/GPa) = 0.06703231
#
# Stress axis : x y z
#
# Youngs Moduli (GPa) = 11.14290 128.29304 121.37914
#
# Poissons Ratio (x) = 0.47481 1.44981
# Poissons Ratio (y) = 0.04124 0.45234
# Poissons Ratio (z) = 0.13310 0.47810
#
# Static dielectric constant tensor:
#      x y z
#    x 1.632240 0.000000 0.000000 
#    y 0.000000 1.599110 0.000000 
#    z 0.000000 0.000000 1.644600 
# 
# From -- ./inp_files/21108.got.cif
#   From: 2010.05.17/outbox.cif.g08.bks.cpg/sg47_11_cif.got.tgz:21108.got - 2010.06.03 20:15:42.
