data_PCOD9383750
_publ_section_title
;
Structure prediction by ZEFSAII (Michael W. Deem and Ramdas Pophale) SiO2 
 PCOD9383750
Probable space group: P M M M
;
_chemical_formula_sum "Si O2"
_cell_formula_units_Z 40
_cell_length_a 12.190834
_cell_length_b 21.052177
_cell_length_c 8.085431
_cell_angle_alpha 90.000000
_cell_angle_beta 90.000000
_cell_angle_gamma 90.000000
_cell_volume 2075.074080
_symmetry_space_group_name_H-M "P M M M"
_symmetry_group_IT_number 47
_symmetry_cell_setting 'orthorhombic'
loop_
_space_group_symop_operation_xyz
x,y,z
-x,-y,z
x,-y,-z
-x,y,-z
-x,-y,-z
x,y,-z
-x,y,z
x,-y,z
loop_
_atom_site_type_symbol
_atom_site_label
_atom_site_fract_x
_atom_site_fract_y
_atom_site_fract_z
Si Si1 0.000000 0.260302 0.797974
Si Si2 0.239240 0.070682 0.803296
Si Si3 0.000000 0.886894 0.696075
Si Si4 0.231672 0.688734 0.196400
Si Si5 0.625854 0.427857 0.202159
Si Si6 0.625544 0.807534 0.304237
O O1 0.889398 0.294894 0.739667
O O2 0.000000 0.187946 0.737004
O O3 0.000000 0.258088 0.000000
O O4 0.111234 0.083657 0.767742
O O5 0.311316 0.126740 0.727168
O O6 0.268010 0.000000 0.742444
O O7 0.255610 0.072715 0.000000
O O8 0.000000 0.896142 0.500000
O O9 0.291961 0.626207 0.263657
O O10 0.308074 0.749954 0.223086
O O11 0.219638 0.679051 0.000000
O O12 0.500000 0.414182 0.251746
O O13 0.653146 0.500000 0.252277
O O14 0.626840 0.426844 0.000000
O O15 0.624386 0.795687 0.500000
O O16 0.500000 0.810481 0.244162
#
# Coordination Sequence:
#
# PCOD9383750 Si02
#       6
#     4   8   4   8   8   8
#     4  10  20  33  52  80 112 144 183 232 276 324
#     4  11  24  41  61  84 111 144 184 230 277 331
#     4  12  23  37  60  86 113 146 183 226 279 332
#     4  10  19  33  55  80 109 146 187 231 280 331
#     4   8  14  26  47  77 110 144 186 233 277 323
#     4  11  24  39  56  81 112 145 184 232 283 336
#
# _framework density 19.276420000000002
#
# number of rings (size 3 to 8) (size 9 to 14) (size 15 to 20)
#    0.000    1.800    2.000    3.600    0.000    5.600 
#    0.000    2.500    0.000    3.600    0.000    2.800 
#    0.000    2.400    0.000    0.000    0.000    0.000 
#
# Total GULP energy -223420.675562 kJ/mol
# GULP energy per Si atom -5585.516889 kJ/mol
# Density = 1.923255 g / cm^3
# Si number density = 19.276420 Si / 1000 Ang^3
#
#
#
# Elastic Constant Matrix: (Units=GPa)
#
#
# Indices 1 2 3 4 5 6 
#
# 1 115.4390 50.6356 -16.6528 0.0000 0.0000 0.0000
# 2 50.6356 122.6324 -18.5861 0.0000 0.0000 0.0000
# 3 -16.6528 -18.5861 9.2686 0.0000 0.0000 0.0000
# 4 0.0000 0.0000 0.0000 -36.5927 0.0000 0.0000
# 5 0.0000 0.0000 0.0000 0.0000 22.9487 0.0000
# 6 0.0000 0.0000 0.0000 0.0000 0.0000 41.9377
#
#
#
# Elastic Compliance Matrix: (Units=1/GPa)
#
#
# Indices 1 2 3 4 5 6 
#
# 1 0.012190 -0.002462 0.016964 0.000000 0.000000 0.000000
# 2 -0.002462 0.012212 0.020065 0.000000 0.000000 0.000000
# 3 0.016964 0.020065 0.178606 0.000000 0.000000 0.000000
# 4 0.000000 0.000000 0.000000 -0.027328 0.000000 0.000000
# 5 0.000000 0.000000 0.000000 0.000000 0.043576 0.000000
# 6 0.000000 0.000000 0.000000 0.000000 0.000000 0.023845
#
#
# Mechanical properties :
#
#
# Convention : Reuss Voigt Hill
#
# Bulk Modulus (GPa) = 3.67456 30.90371 17.28913
# Shear Modulus (GPa) = 18.89069 21.12162 20.00616
#
# Velocity S-wave (km/s) = 3.13387 3.31376 3.22507
# Velocity P-wave (km/s) = 3.87366 5.54148 4.78086
#
# Compressibility (1/GPa) = 0.27214113
#
# Stress axis : x y z
#
# Youngs Moduli (GPa) = 82.03626 81.88581 5.59892
#
# Poissons Ratio (x) = 0.20162 -0.09498
# Poissons Ratio (y) = 0.20199 -0.11234
# Poissons Ratio (z) = -1.39165 -1.64304
#
# Static dielectric constant tensor:
#      x y z
#    x 1.666150 0.000000 0.000000 
#    y 0.000000 1.657060 0.000000 
#    z 0.000000 0.000000 1.678310 
# 
# From -- ./inp_files/4131.got.cif
#   From: 2010.05.17/outbox.cif.g08.bks.cpg/sg47_3_cif.got.tgz:4131.got - 2010.06.03 20:15:42.
