data_PCOD9383115
_publ_section_title
;
Structure prediction by ZEFSAII (Michael W. Deem and Ramdas Pophale) SiO2 
 PCOD9383115
Probable space group: P M M M
;
_chemical_formula_sum "Si O2"
_cell_formula_units_Z 48
_cell_length_a 8.452308
_cell_length_b 15.704622
_cell_length_c 19.549516
_cell_angle_alpha 90.000000
_cell_angle_beta 90.000000
_cell_angle_gamma 90.000000
_cell_volume 2595.008661
_symmetry_space_group_name_H-M "P M M M"
_symmetry_group_IT_number 47
_symmetry_cell_setting 'orthorhombic'
loop_
_space_group_symop_operation_xyz
x,y,z
-x,-y,z
x,-y,-z
-x,y,-z
-x,-y,-z
x,y,-z
-x,y,z
x,-y,z
loop_
_atom_site_type_symbol
_atom_site_label
_atom_site_fract_x
_atom_site_fract_y
_atom_site_fract_z
Si Si1 0.192885 0.096892 0.578128
Si Si2 0.191128 0.902489 0.078697
Si Si3 0.192885 0.403108 0.421873
Si Si4 0.191491 0.750000 0.325922
Si Si5 0.312760 0.750000 0.171738
Si Si6 0.808872 0.402490 0.078697
O O1 0.239883 0.117926 0.500000
O O2 0.246396 0.166635 0.632418
O O3 0.000000 0.097333 0.578724
O O4 0.242851 0.000000 0.593347
O O5 0.256624 0.832993 0.130137
O O6 0.000000 0.899173 0.080826
O O7 0.238213 0.000000 0.094629
O O8 0.238594 0.884161 0.000000
O O9 0.239883 0.382074 0.500000
O O10 0.242851 0.500000 0.406653
O O11 0.246396 0.333365 0.367582
O O12 0.000000 0.402667 0.421276
O O13 0.244396 0.750000 0.247996
O O14 0.000000 0.750000 0.327206
O O15 0.500000 0.749999 0.175455
O O16 0.256622 0.667008 0.130136
O O17 0.761784 0.500000 0.094630
O O18 0.000000 0.399175 0.080826
O O19 0.761406 0.384163 0.000000
#
# Coordination Sequence:
#
# PCOD9383115 Si02
#       6
#     8   8   8   8   8   8
#     4   8  14  26  47  75 100 121 157 215 272 311
#     4   9  19  38  63  85 103 130 174 225 270 313
#     4   8  14  26  47  75 100 121 157 215 272 311
#     4  10  19  31  49  72  99 135 175 212 254 306
#     4  12  25  36  49  76 115 152 179 210 258 314
#     4   9  19  38  63  85 103 130 174 225 270 313
#
# _framework density 18.497046999999998
#
# number of rings (size 3 to 8) (size 9 to 14) (size 15 to 20)
#    0.000    2.667    0.000    4.500    0.000    6.667 
#    0.000    5.000    0.000    2.000    0.000    2.333 
#    0.000    0.000    0.000    0.000    0.000    0.000 
#
# Total GULP energy -267807.587151 kJ/mol
# GULP energy per Si atom -5579.324732 kJ/mol
# Density = 1.845495 g / cm^3
# Si number density = 18.497047 Si / 1000 Ang^3
#
#
#
# Elastic Constant Matrix: (Units=GPa)
#
#
# Indices 1 2 3 4 5 6 
#
# 1 15.5966 29.7559 26.6274 0.0000 0.0000 0.0000
# 2 29.7559 168.6438 145.5536 0.0000 0.0000 0.0000
# 3 26.6274 145.5536 177.9533 0.0000 0.0000 0.0000
# 4 0.0000 0.0000 0.0000 -11.0323 0.0000 0.0000
# 5 0.0000 0.0000 0.0000 0.0000 -21.5767 0.0000
# 6 0.0000 0.0000 0.0000 0.0000 0.0000 -34.7489
#
#
#
# Elastic Compliance Matrix: (Units=1/GPa)
#
#
# Indices 1 2 3 4 5 6 
#
# 1 0.096811 -0.015572 -0.001749 0.000000 0.000000 0.000000
# 2 -0.015572 0.022670 -0.016212 0.000000 0.000000 0.000000
# 3 -0.001749 -0.016212 0.019142 0.000000 0.000000 0.000000
# 4 0.000000 0.000000 0.000000 -0.090643 0.000000 0.000000
# 5 0.000000 0.000000 0.000000 0.000000 -0.046346 0.000000
# 6 0.000000 0.000000 0.000000 0.000000 0.000000 -0.028778
#
#
# Mechanical properties :
#
#
# Convention : Reuss Voigt Hill
#
# Bulk Modulus (GPa) = 13.97506 85.11862 49.54684
# Shear Modulus (GPa) = 78.40185 -2.78777 37.80704
#
# Velocity S-wave (km/s) = 6.51753 -1.22899 4.52591
# Velocity P-wave (km/s) = 8.01307 6.64104 7.35910
#
# Compressibility (1/GPa) = 0.07155606
#
# Stress axis : x y z
#
# Youngs Moduli (GPa) = 10.32936 44.11191 52.24203
#
# Poissons Ratio (x) = 0.68690 0.09140
# Poissons Ratio (y) = 0.16085 0.84696
# Poissons Ratio (z) = 0.01807 0.71515
#
# Static dielectric constant tensor:
#      x y z
#    x 1.624020 0.000000 0.000000 
#    y 0.000000 1.640060 0.000000 
#    z 0.000000 0.000000 1.609470 
# 
# From -- ./inp_files/21037.got.cif
#   From: 2010.05.17/outbox.cif.g08.bks.cpg/sg47_11_cif.got.tgz:21037.got - 2010.06.03 20:15:42.
