data_PCOD9383447
_publ_section_title
;
Structure prediction by ZEFSAII (Michael W. Deem and Ramdas Pophale) SiO2 
 PCOD9383447
Probable space group: P M M M
;
_chemical_formula_sum "Si O2"
_cell_formula_units_Z 56
_cell_length_a 22.368438
_cell_length_b 14.395190
_cell_length_c 7.489414
_cell_angle_alpha 90.000000
_cell_angle_beta 90.000000
_cell_angle_gamma 90.000000
_cell_volume 2411.575693
_symmetry_space_group_name_H-M "P M M M"
_symmetry_group_IT_number 47
_symmetry_cell_setting 'orthorhombic'
loop_
_space_group_symop_operation_xyz
x,y,z
-x,-y,z
x,-y,-z
-x,y,-z
-x,-y,-z
x,y,-z
-x,y,z
x,-y,z
loop_
_atom_site_type_symbol
_atom_site_label
_atom_site_fract_x
_atom_site_fract_y
_atom_site_fract_z
Si Si1 0.066586 0.309091 0.203185
Si Si2 0.928437 0.100229 0.296252
Si Si3 0.383616 0.895348 0.715924
Si Si4 0.193257 0.701309 0.788358
Si Si5 0.753658 0.104160 0.285224
Si Si6 0.564761 0.702589 0.208283
Si Si7 0.685197 0.608073 0.217825
O O1 0.076717 0.197431 0.197222
O O2 0.130263 0.337126 0.286900
O O3 0.000000 0.325397 0.282985
O O4 0.063802 0.344331 0.000000
O O5 0.904958 0.110024 0.500000
O O6 0.000000 0.091816 0.309820
O O7 0.907109 0.000000 0.225007
O O8 0.247221 0.897733 0.500000
O O9 0.314830 0.877046 0.773652
O O10 0.425071 0.813027 0.781314
O O11 0.399671 0.000000 0.771803
O O12 0.203849 0.811945 0.768612
O O13 0.253772 0.655255 0.716625
O O14 0.190550 0.682145 0.000000
O O15 0.615542 0.106296 0.500000
O O16 0.769311 0.000000 0.224261
O O17 0.500000 0.678192 0.286493
O O18 0.624649 0.656559 0.284698
O O19 0.563091 0.675566 0.000000
O O20 0.684580 0.500000 0.261438
O O21 0.685702 0.616930 0.000000
#
# Coordination Sequence:
#
# PCOD9383447 Si02
#       7
#     8   8   8   8   8   8   8
#     4   9  18  30  43  63  92 123 155 195 243 293
#     4   8  14  25  40  58  83 118 159 197 231 273
#     4   9  18  33  52  74 104 143 179 207 242 290
#     4  10  19  32  52  74  96 128 168 206 248 297
#     4   9  18  32  50  73 101 133 169 209 250 290
#     4  10  20  33  52  80 109 135 167 208 250 289
#     4   9  18  34  55  77 100 127 163 207 253 302
#
# _framework density 23.221330999999999
#
# number of rings (size 3 to 8) (size 9 to 14) (size 15 to 20)
#    0.000    2.857    1.429    1.286    0.000    2.857 
#    0.000    8.571    0.000    2.143    0.000    4.000 
#    0.000    0.000    0.000    4.857    0.000    5.143 
#
# Total GULP energy -312299.597609 kJ/mol
# GULP energy per Si atom -5576.778529 kJ/mol
# Density = 2.316848 g / cm^3
# Si number density = 23.221331 Si / 1000 Ang^3
#
#
#
# Elastic Constant Matrix: (Units=GPa)
#
#
# Indices 1 2 3 4 5 6 
#
# 1 229.6179 62.5369 9.0026 0.0000 0.0000 0.0000
# 2 62.5369 53.6938 -7.7769 0.0000 0.0000 0.0000
# 3 9.0026 -7.7769 65.2953 0.0000 0.0000 0.0000
# 4 0.0000 0.0000 0.0000 23.1442 0.0000 0.0000
# 5 0.0000 0.0000 0.0000 0.0000 -1.6937 0.0000
# 6 0.0000 0.0000 0.0000 0.0000 0.0000 -4.3448
#
#
#
# Elastic Compliance Matrix: (Units=1/GPa)
#
#
# Indices 1 2 3 4 5 6 
#
# 1 0.006592 -0.007946 -0.001855 0.000000 0.000000 0.000000
# 2 -0.007946 0.028530 0.004494 0.000000 0.000000 0.000000
# 3 -0.001855 0.004494 0.016106 0.000000 0.000000 0.000000
# 4 0.000000 0.000000 0.000000 0.043207 0.000000 0.000000
# 5 0.000000 0.000000 0.000000 0.000000 -0.590434 0.000000
# 6 0.000000 0.000000 0.000000 0.000000 0.000000 -0.230160
#
#
# Mechanical properties :
#
#
# Convention : Reuss Voigt Hill
#
# Bulk Modulus (GPa) = 24.62323 52.90358 38.76340
# Shear Modulus (GPa) = -7.12246 22.41077 7.64416
#
# Velocity S-wave (km/s) = -1.75324 3.10997 1.81632
# Velocity P-wave (km/s) = 2.55504 5.97726 4.59651
#
# Compressibility (1/GPa) = 0.04061205
#
# Stress axis : x y z
#
# Youngs Moduli (GPa) = 151.69833 35.05065 62.08845
#
# Poissons Ratio (x) = 0.27853 0.11519
# Poissons Ratio (y) = 1.20546 -0.27901
# Poissons Ratio (z) = 0.28145 -0.15751
#
# Static dielectric constant tensor:
#      x y z
#    x 1.938460 0.000000 0.000000 
#    y 0.000000 1.848530 0.000000 
#    z 0.000000 0.000000 1.888800 
# 
# From -- ./inp_files/11231.got.cif
#   From: 2010.05.17/outbox.cif.g08.bks.cpg/sg47_6_cif.got.tgz:11231.got - 2010.06.03 20:15:42.
