data_PCOD9383550
_publ_section_title
;
Structure prediction by ZEFSAII (Michael W. Deem and Ramdas Pophale) SiO2 
 PCOD9383550
Probable space group: P M M M
;
_chemical_formula_sum "Si O2"
_cell_formula_units_Z 52
_cell_length_a 8.962107
_cell_length_b 23.953863
_cell_length_c 14.602780
_cell_angle_alpha 90.000000
_cell_angle_beta 90.000000
_cell_angle_gamma 90.000000
_cell_volume 3134.882218
_symmetry_space_group_name_H-M "P M M M"
_symmetry_group_IT_number 47
_symmetry_cell_setting 'orthorhombic'
loop_
_space_group_symop_operation_xyz
x,y,z
-x,-y,z
x,-y,-z
-x,y,-z
-x,-y,-z
x,y,-z
-x,y,z
x,-y,z
loop_
_atom_site_type_symbol
_atom_site_label
_atom_site_fract_x
_atom_site_fract_y
_atom_site_fract_z
Si Si1 0.321894 0.937671 0.215241
Si Si2 0.323120 0.772334 0.604785
Si Si3 0.672097 0.500000 0.888790
Si Si4 0.179570 0.384400 0.106698
Si Si5 0.821640 0.105214 0.395556
Si Si6 0.819997 0.724547 0.221300
Si Si7 0.179493 0.164568 0.106711
O O1 0.500000 0.931588 0.218806
O O2 0.255484 0.930438 0.316944
O O3 0.253469 0.888944 0.153433
O O4 0.286123 0.000000 0.180926
O O5 0.299674 0.753395 0.500000
O O6 0.500000 0.780776 0.618445
O O7 0.239737 0.831731 0.614820
O O8 0.257332 0.731550 0.680876
O O9 0.500000 0.500000 0.861120
O O10 0.751607 0.442756 0.860315
O O11 0.678941 0.500000 0.000000
O O12 0.223477 0.331421 0.167508
O O13 0.000000 0.388740 0.108744
O O14 0.222656 0.375365 0.000000
O O15 0.788905 0.087135 0.500000
O O16 0.000000 0.105141 0.383139
O O17 0.779861 0.779125 0.161214
O O18 0.000000 0.724555 0.231756
O O19 0.000000 0.158917 0.112762
O O20 0.219917 0.169182 0.000000
#
# Coordination Sequence:
#
# PCOD9383550 Si02
#       7
#     8   8   4   8   8   8   8
#     4  11  24  39  54  74 101 133 169 209 256 312
#     4  10  20  33  51  76 106 137 166 201 251 309
#     4   9  17  29  45  69 104 143 182 219 251 288
#     4   9  17  30  49  74 106 143 178 211 251 298
#     4  10  20  35  56  79 101 127 162 206 256 310
#     4  10  19  32  53  80 106 134 170 212 255 302
#     4  10  21  37  56  77 101 131 169 213 258 303
#
# _framework density 16.587546
#
# number of rings (size 3 to 8) (size 9 to 14) (size 15 to 20)
#    0.000    2.077    1.538    2.077    0.000    7.385 
#    0.000    3.077    0.000    2.769    0.000    0.538 
#    0.000    4.308    0.000    0.000    0.000    0.000 
#
# Total GULP energy -290219.225107 kJ/mol
# GULP energy per Si atom -5581.138944 kJ/mol
# Density = 1.654979 g / cm^3
# Si number density = 16.587546 Si / 1000 Ang^3
#
#
#
# Elastic Constant Matrix: (Units=GPa)
#
#
# Indices 1 2 3 4 5 6 
#
# 1 32.0027 42.8430 34.6515 0.0000 0.0000 0.0000
# 2 42.8430 133.2078 60.8680 0.0000 0.0000 0.0000
# 3 34.6515 60.8680 89.0469 0.0000 0.0000 0.0000
# 4 0.0000 0.0000 0.0000 24.4800 0.0000 0.0000
# 5 0.0000 0.0000 0.0000 0.0000 20.5209 0.0000
# 6 0.0000 0.0000 0.0000 0.0000 0.0000 336.7554
#
#
#
# Elastic Compliance Matrix: (Units=1/GPa)
#
#
# Indices 1 2 3 4 5 6 
#
# 1 0.068908 -0.014411 -0.016964 0.000000 0.000000 0.000000
# 2 -0.014411 0.013931 -0.003914 0.000000 0.000000 0.000000
# 3 -0.016964 -0.003914 0.020507 0.000000 0.000000 0.000000
# 4 0.000000 0.000000 0.000000 0.040850 0.000000 0.000000
# 5 0.000000 0.000000 0.000000 0.000000 0.048731 0.000000
# 6 0.000000 0.000000 0.000000 0.000000 0.000000 0.002970
#
#
# Mechanical properties :
#
#
# Convention : Reuss Voigt Hill
#
# Bulk Modulus (GPa) = 30.51879 58.99806 44.75843
# Shear Modulus (GPa) = 18.02472 84.07759 51.05115
#
# Velocity S-wave (km/s) = 3.30000 7.12722 5.55370
# Velocity P-wave (km/s) = 5.74096 10.16733 8.25630
#
# Compressibility (1/GPa) = 0.03276670
#
# Stress axis : x y z
#
# Youngs Moduli (GPa) = 14.51214 71.78401 48.76352
#
# Poissons Ratio (x) = 1.03448 0.82723
# Poissons Ratio (y) = 0.20913 0.19088
# Poissons Ratio (z) = 0.24618 0.28100
#
# Static dielectric constant tensor:
#      x y z
#    x 1.552350 0.000000 0.000000 
#    y 0.000000 1.542660 0.000000 
#    z 0.000000 0.000000 1.556520 
# 
# From -- ./inp_files/6972.got.cif
#   From: 2010.05.17/outbox.cif.g08.bks.cpg/sg47_4_cif.got.tgz:6972.got - 2010.06.03 20:15:42.
