data_PCOD9383853
_publ_section_title
;
Structure prediction by ZEFSAII (Michael W. Deem and Ramdas Pophale) SiO2 
 PCOD9383853
Probable space group: P M M M
;
_chemical_formula_sum "Si O2"
_cell_formula_units_Z 36
_cell_length_a 7.510552
_cell_length_b 19.250998
_cell_length_c 11.407287
_cell_angle_alpha 90.000000
_cell_angle_beta 90.000000
_cell_angle_gamma 90.000000
_cell_volume 1649.329681
_symmetry_space_group_name_H-M "P M M M"
_symmetry_group_IT_number 47
_symmetry_cell_setting 'orthorhombic'
loop_
_space_group_symop_operation_xyz
x,y,z
-x,-y,z
x,-y,-z
-x,y,-z
-x,-y,-z
x,y,-z
-x,y,z
x,-y,z
loop_
_atom_site_type_symbol
_atom_site_label
_atom_site_fract_x
_atom_site_fract_y
_atom_site_fract_z
Si Si1 0.783138 0.574399 0.636222
Si Si2 0.285002 0.420110 0.000000
Si Si3 0.206330 0.313739 0.202405
Si Si4 0.286270 0.079919 0.630151
Si Si5 0.786658 0.836424 0.869574
O O1 0.742157 0.572307 0.500000
O O2 0.722607 0.500000 0.689292
O O3 0.712324 0.646167 0.687887
O O4 0.000000 0.575302 0.647782
O O5 0.215986 0.375349 0.891618
O O6 0.226707 0.500000 0.000000
O O7 0.500000 0.418670 0.000000
O O8 0.282656 0.241940 0.154544
O O9 0.000000 0.297712 0.228783
O O10 0.225065 0.106403 0.500000
O O11 0.500000 0.078883 0.624411
O O12 0.245456 0.120083 0.750783
O O13 0.224011 0.000000 0.640298
O O14 0.000000 0.833620 0.880199
O O15 0.721926 0.860181 0.000000
#
# Coordination Sequence:
#
# PCOD9383853 Si02
#       5
#     8   4   8   8   8
#     4   8  14  25  44  72 100 126 166 220 269 314
#     4  11  23  35  49  73 104 139 182 231 277 318
#     4  10  19  34  54  75 102 140 182 221 268 329
#     4   9  20  40  63  86 113 148 193 237 275 332
#     4  10  21  36  54  83 120 150 185 236 289 340
#
# _framework density 21.827048999999999
#
# number of rings (size 3 to 8) (size 9 to 14) (size 15 to 20)
#    0.000    2.556    1.111    2.333    0.000    5.333 
#    0.000    5.556    0.000    0.667    0.000    3.111 
#    0.000    0.000    0.000    0.000    0.000    0.000 
#
# Total GULP energy -200468.897290 kJ/mol
# GULP energy per Si atom -5568.580480 kJ/mol
# Density = 2.177737 g / cm^3
# Si number density = 21.827049 Si / 1000 Ang^3
#
#
#
# Elastic Constant Matrix: (Units=GPa)
#
#
# Indices 1 2 3 4 5 6 
#
# 1 64.7911 2.5775 4.0757 0.0000 0.0000 0.0000
# 2 2.5775 110.8881 91.8659 0.0000 0.0000 0.0000
# 3 4.0757 91.8659 180.8741 0.0000 0.0000 0.0000
# 4 0.0000 0.0000 0.0000 -105.8304 0.0000 0.0000
# 5 0.0000 0.0000 0.0000 0.0000 33.1006 0.0000
# 6 0.0000 0.0000 0.0000 0.0000 0.0000 7.1724
#
#
#
# Elastic Compliance Matrix: (Units=1/GPa)
#
#
# Indices 1 2 3 4 5 6 
#
# 1 0.015457 -0.000122 -0.000286 0.000000 0.000000 0.000000
# 2 -0.000122 0.015570 -0.007905 0.000000 0.000000 0.000000
# 3 -0.000286 -0.007905 0.009550 0.000000 0.000000 0.000000
# 4 0.000000 0.000000 0.000000 -0.009449 0.000000 0.000000
# 5 0.000000 0.000000 0.000000 0.000000 0.030211 0.000000
# 6 0.000000 0.000000 0.000000 0.000000 0.000000 0.139424
#
#
# Mechanical properties :
#
#
# Convention : Reuss Voigt Hill
#
# Bulk Modulus (GPa) = 41.75357 61.51019 51.63188
# Shear Modulus (GPa) = 22.18538 4.09080 13.13809
#
# Velocity S-wave (km/s) = 3.19159 1.37050 2.45606
# Velocity P-wave (km/s) = 5.72298 5.54493 5.63466
#
# Compressibility (1/GPa) = 0.02395005
#
# Stress axis : x y z
#
# Youngs Moduli (GPa) = 64.69528 64.22551 104.70917
#
# Poissons Ratio (x) = 0.00784 0.02998
# Poissons Ratio (y) = 0.00790 0.82776
# Poissons Ratio (z) = 0.01852 0.50772
#
# Static dielectric constant tensor:
#      x y z
#    x 1.828940 0.000000 0.000000 
#    y 0.000000 1.810200 0.000000 
#    z 0.000000 0.000000 2.019490 
# 
# From -- ./inp_files/14877.got.cif
#   From: 2010.05.17/outbox.cif.g08.bks.cpg/sg47_8_cif.got.tgz:14877.got - 2010.06.03 20:15:42.
