data_PCOD9383707
_publ_section_title
;
Structure prediction by ZEFSAII (Michael W. Deem and Ramdas Pophale) SiO2 
 PCOD9383707
Probable space group: P M M M
;
_chemical_formula_sum "Si O2"
_cell_formula_units_Z 52
_cell_length_a 8.470909
_cell_length_b 23.928466
_cell_length_c 14.654880
_cell_angle_alpha 90.000000
_cell_angle_beta 90.000000
_cell_angle_gamma 90.000000
_cell_volume 2970.483475
_symmetry_space_group_name_H-M "P M M M"
_symmetry_group_IT_number 47
_symmetry_cell_setting 'orthorhombic'
loop_
_space_group_symop_operation_xyz
x,y,z
-x,-y,z
x,-y,-z
-x,y,-z
-x,-y,-z
x,y,-z
-x,y,z
x,-y,z
loop_
_atom_site_type_symbol
_atom_site_label
_atom_site_fract_x
_atom_site_fract_y
_atom_site_fract_z
Si Si1 0.690490 0.110990 0.288478
Si Si2 0.691058 0.223064 0.605951
Si Si3 0.306929 0.000000 0.605458
Si Si4 0.688890 0.721330 0.896678
Si Si5 0.807584 0.436949 0.394871
Si Si6 0.810920 0.669947 0.283260
Si Si7 0.811097 0.152658 0.103043
O O1 0.500000 0.111145 0.289223
O O2 0.743255 0.167030 0.341464
O O3 0.744053 0.055712 0.341541
O O4 0.746251 0.114933 0.184376
O O5 0.738679 0.221512 0.500000
O O6 0.500000 0.224525 0.609402
O O7 0.754680 0.277846 0.655877
O O8 0.500000 0.000000 0.604889
O O9 0.256410 0.000000 0.500000
O O10 0.500000 0.724132 0.891586
O O11 0.750933 0.680738 0.818698
O O12 0.753919 0.783810 0.879999
O O13 0.734904 0.705392 0.000000
O O14 0.760701 0.425890 0.500000
O O15 0.757170 0.500000 0.370494
O O16 0.753356 0.387711 0.328707
O O17 0.000000 0.436772 0.393694
O O18 0.000000 0.669418 0.282715
O O19 0.000000 0.151972 0.105233
O O20 0.758955 0.137353 0.000000
#
# Coordination Sequence:
#
# PCOD9383707 Si02
#       7
#     8   8   4   8   8   8   8
#     4  10  19  33  54  77 102 136 174 213 256 301
#     4  10  20  32  47  71 104 138 169 206 256 308
#     4   9  18  34  56  79 102 134 179 219 248 293
#     4  10  20  34  52  74 102 136 171 207 254 313
#     4   8  15  29  48  71 102 139 175 209 247 294
#     4  11  20  30  50  79 106 132 168 213 260 305
#     4  10  20  34  53  77 104 133 166 209 261 312
#
# _framework density 17.505568
#
# number of rings (size 3 to 8) (size 9 to 14) (size 15 to 20)
#    0.000    2.231    1.538    2.769    0.000    4.615 
#    0.000    0.769    0.000    6.462    0.000    8.615 
#    0.000    0.000    0.000    0.000    0.000    0.000 
#
# Total GULP energy -290169.522088 kJ/mol
# GULP energy per Si atom -5580.183117 kJ/mol
# Density = 1.746572 g / cm^3
# Si number density = 17.505568 Si / 1000 Ang^3
#
#
#
# Elastic Constant Matrix: (Units=GPa)
#
#
# Indices 1 2 3 4 5 6 
#
# 1 12.9438 18.9625 22.6182 0.0000 0.0000 0.0000
# 2 18.9625 138.5574 101.0398 0.0000 0.0000 0.0000
# 3 22.6182 101.0398 169.3273 0.0000 0.0000 0.0000
# 4 0.0000 0.0000 0.0000 32.7554 0.0000 0.0000
# 5 0.0000 0.0000 0.0000 0.0000 23.1023 0.0000
# 6 0.0000 0.0000 0.0000 0.0000 0.0000 18.6686
#
#
#
# Elastic Compliance Matrix: (Units=1/GPa)
#
#
# Indices 1 2 3 4 5 6 
#
# 1 0.104812 -0.007320 -0.009633 0.000000 0.000000 0.000000
# 2 -0.007320 0.013288 -0.006951 0.000000 0.000000 0.000000
# 3 -0.009633 -0.006951 0.011340 0.000000 0.000000 0.000000
# 4 0.000000 0.000000 0.000000 0.030529 0.000000 0.000000
# 5 0.000000 0.000000 0.000000 0.000000 0.043286 0.000000
# 6 0.000000 0.000000 0.000000 0.000000 0.000000 0.053566
#
#
# Mechanical properties :
#
#
# Convention : Reuss Voigt Hill
#
# Bulk Modulus (GPa) = 12.24993 67.34104 39.79548
# Shear Modulus (GPa) = 15.06745 26.78579 20.92662
#
# Velocity S-wave (km/s) = 2.93699 3.91593 3.46125
# Velocity P-wave (km/s) = 4.30281 7.68101 6.22543
#
# Compressibility (1/GPa) = 0.08163314
#
# Stress axis : x y z
#
# Youngs Moduli (GPa) = 9.54085 75.25466 88.17984
#
# Poissons Ratio (x) = 0.55085 0.84940
# Poissons Ratio (y) = 0.06984 0.61298
# Poissons Ratio (z) = 0.09190 0.52313
#
# Static dielectric constant tensor:
#      x y z
#    x 1.608390 0.000000 0.000000 
#    y 0.000000 1.575270 0.000000 
#    z 0.000000 0.000000 1.600900 
# 
# From -- ./inp_files/10990.got.cif
#   From: 2010.05.17/outbox.cif.g08.bks.cpg/sg47_6_cif.got.tgz:10990.got - 2010.06.03 20:15:42.
