data_PCOD9383887
_publ_section_title
;
Structure prediction by ZEFSAII (Michael W. Deem and Ramdas Pophale) SiO2 
 PCOD9383887
Probable space group: P M M M
;
_chemical_formula_sum "Si O2"
_cell_formula_units_Z 52
_cell_length_a 21.683962
_cell_length_b 7.636607
_cell_length_c 14.108194
_cell_angle_alpha 90.000000
_cell_angle_beta 90.000000
_cell_angle_gamma 90.000000
_cell_volume 2336.202594
_symmetry_space_group_name_H-M "P M M M"
_symmetry_group_IT_number 47
_symmetry_cell_setting 'orthorhombic'
loop_
_space_group_symop_operation_xyz
x,y,z
-x,-y,z
x,-y,-z
-x,y,-z
-x,-y,-z
x,y,-z
-x,y,z
x,-y,z
loop_
_atom_site_type_symbol
_atom_site_label
_atom_site_fract_x
_atom_site_fract_y
_atom_site_fract_z
Si Si1 0.196474 0.799361 0.387405
Si Si2 0.229942 0.296679 0.110126
Si Si3 0.663363 0.703626 0.606408
Si Si4 0.090917 0.798319 0.103135
Si Si5 0.933776 0.215403 0.308560
Si Si6 0.569400 0.208373 0.000000
Si Si7 0.355400 0.288871 0.808482
O O1 0.187982 0.803290 0.500000
O O2 0.262838 0.711101 0.372596
O O3 0.132339 0.724192 0.347849
O O4 0.202527 0.000000 0.352898
O O5 0.219643 0.500000 0.136898
O O6 0.164741 0.204086 0.116881
O O7 0.287009 0.221132 0.166645
O O8 0.248704 0.294356 0.000000
O O9 0.654197 0.781310 0.500000
O O10 0.645921 0.500000 0.599363
O O11 0.630065 0.775166 0.701453
O O12 0.064863 0.724210 0.199503
O O13 0.071003 0.000000 0.098898
O O14 0.077938 0.717244 0.000000
O O15 0.000000 0.264621 0.353492
O O16 0.931512 0.000000 0.311581
O O17 0.602875 0.255247 0.099193
O O18 0.500000 0.281353 0.000000
O O19 0.566509 0.000000 0.000000
O O20 0.351138 0.500000 0.802547
#
# Coordination Sequence:
#
# PCOD9383887 Si02
#       7
#     8   8   8   8   8   4   8
#     4   9  17  29  46  68  94 125 163 209 262 318
#     4   9  16  27  44  68  96 123 156 199 250 306
#     4   9  18  32  53  82 112 140 172 215 267 318
#     4   9  17  27  40  60  84 112 150 196 249 309
#     4   9  17  28  41  58  82 114 157 209 257 304
#     4  11  25  41  57  83 117 149 182 219 256 293
#     4  10  19  34  56  80 109 145 183 217 254 307
#
# _framework density 22.258341999999999
#
# number of rings (size 3 to 8) (size 9 to 14) (size 15 to 20)
#    0.000    2.692    0.769    1.154    0.000    2.462 
#    0.000    3.077    0.000    2.308    0.000    7.538 
#    0.000    0.000    0.000    0.000    0.000    0.000 
#
# Total GULP energy -289754.030303 kJ/mol
# GULP energy per Si atom -5572.192890 kJ/mol
# Density = 2.220768 g / cm^3
# Si number density = 22.258342 Si / 1000 Ang^3
#
#
#
# Elastic Constant Matrix: (Units=GPa)
#
#
# Indices 1 2 3 4 5 6 
#
# 1 64.1431 -1.2830 66.5500 0.0000 0.0000 0.0000
# 2 -1.2830 48.8687 9.8221 0.0000 0.0000 0.0000
# 3 66.5500 9.8221 152.7434 0.0000 0.0000 0.0000
# 4 0.0000 0.0000 0.0000 5.8846 0.0000 0.0000
# 5 0.0000 0.0000 0.0000 0.0000 -5.9855 0.0000
# 6 0.0000 0.0000 0.0000 0.0000 0.0000 115.9159
#
#
#
# Elastic Compliance Matrix: (Units=1/GPa)
#
#
# Indices 1 2 3 4 5 6 
#
# 1 0.028980 0.003342 -0.012842 0.000000 0.000000 0.000000
# 2 0.003342 0.021116 -0.002814 0.000000 0.000000 0.000000
# 3 -0.012842 -0.002814 0.012323 0.000000 0.000000 0.000000
# 4 0.000000 0.000000 0.000000 0.169935 0.000000 0.000000
# 5 0.000000 0.000000 0.000000 0.000000 -0.167070 0.000000
# 6 0.000000 0.000000 0.000000 0.000000 0.000000 0.008627
#
#
# Mechanical properties :
#
#
# Convention : Reuss Voigt Hill
#
# Bulk Modulus (GPa) = 26.46034 46.21480 36.33757
# Shear Modulus (GPa) = 44.98964 35.87407 40.43185
#
# Velocity S-wave (km/s) = 4.50071 4.01897 4.26664
# Velocity P-wave (km/s) = 6.23876 6.50724 6.37441
#
# Compressibility (1/GPa) = 0.03779240
#
# Stress axis : x y z
#
# Youngs Moduli (GPa) = 34.50596 47.35677 81.14943
#
# Poissons Ratio (x) = -0.15826 1.04209
# Poissons Ratio (y) = -0.11531 0.22835
# Poissons Ratio (z) = 0.44311 0.13326
#
# Static dielectric constant tensor:
#      x y z
#    x 1.810400 0.000000 0.000000 
#    y 0.000000 1.850240 0.000000 
#    z 0.000000 0.000000 1.894400 
# 
# From -- ./inp_files/25052.got.cif
#   From: 2010.05.17/outbox.cif.g08.bks.cpg/sg47_13_cif.got.tgz:25052.got - 2010.06.03 20:15:42.
