data_PCOD9383387
_publ_section_title
;
Structure prediction by ZEFSAII (Michael W. Deem and Ramdas Pophale) SiO2 
 PCOD9383387
Probable space group: P M M M
;
_chemical_formula_sum "Si O2"
_cell_formula_units_Z 41
_cell_length_a 7.611592
_cell_length_b 21.903191
_cell_length_c 11.732628
_cell_angle_alpha 90.000000
_cell_angle_beta 90.000000
_cell_angle_gamma 90.000000
_cell_volume 1956.042075
_symmetry_space_group_name_H-M "P M M M"
_symmetry_group_IT_number 47
_symmetry_cell_setting 'orthorhombic'
loop_
_space_group_symop_operation_xyz
x,y,z
-x,-y,z
x,-y,-z
-x,y,-z
-x,-y,-z
x,y,-z
-x,y,z
x,-y,z
loop_
_atom_site_type_symbol
_atom_site_label
_atom_site_fract_x
_atom_site_fract_y
_atom_site_fract_z
Si Si1 0.791602 0.433817 0.865449
Si Si2 0.790861 0.901708 0.872878
Si Si3 0.692474 0.000000 0.309714
Si Si4 0.712007 0.758452 0.128607
Si Si5 0.694832 0.662360 0.699904
Si Si6 0.284677 0.427891 0.500000
Si Si7 0.000000 0.000000 0.500000
O O1 0.740329 0.500000 0.818065
O O2 0.685117 0.380927 0.809318
O O3 0.000000 0.425259 0.844919
O O4 0.766764 0.434651 0.000000
O O5 0.709759 0.941708 0.773645
O O6 0.755545 0.829681 0.859783
O O7 0.000000 0.911729 0.869953
O O8 0.727719 0.919033 0.000000
O O9 0.846625 0.000000 0.400594
O O10 0.500000 0.000000 0.362617
O O11 0.500000 0.751498 0.129472
O O12 0.780390 0.721364 0.239613
O O13 0.773104 0.738988 0.000000
O O14 0.500000 0.679573 0.657061
O O15 0.771671 0.615071 0.606789
O O16 0.227410 0.500000 0.500000
O O17 0.500000 0.430686 0.500000
#
# Coordination Sequence:
#
# PCOD9383387 Si02
#       7
#     8   8   4   8   8   4   1
#     4   9  18  31  46  67  96 127 162 213 281 354
#     4  10  20  37  63  96 131 165 207 264 326 391
#     4  12  24  42  70  97 133 182 222 274 333 371
#     4   9  18  32  51  80 116 149 187 239 304 380
#     4  10  19  32  51  73 102 140 184 236 289 347
#     4   9  18  32  50  73 101 138 188 245 299 350
#     4  12  26  48  62  94 136 172 234 274 294 382
#
# _framework density 20.960695999999999
#
# number of rings (size 3 to 8) (size 9 to 14) (size 15 to 20)
#    0.000    2.244    0.976    2.780    0.000    5.463 
#    0.000    4.390    0.000    4.098    0.000    0.000 
#    0.000    0.000    0.000    0.000    0.000    0.000 
#
# Total GULP energy -228263.571170 kJ/mol
# GULP energy per Si atom -5567.404175 kJ/mol
# Density = 2.091299 g / cm^3
# Si number density = 20.960696 Si / 1000 Ang^3
#
#
#
# Elastic Constant Matrix: (Units=GPa)
#
#
# Indices 1 2 3 4 5 6 
#
# 1 78.5372 12.3745 32.5135 0.0000 0.0000 0.0000
# 2 12.3745 96.4134 65.5360 0.0000 0.0000 0.0000
# 3 32.5135 65.5360 119.6329 0.0000 0.0000 0.0000
# 4 0.0000 0.0000 0.0000 21.9032 0.0000 0.0000
# 5 0.0000 0.0000 0.0000 0.0000 9.7799 0.0000
# 6 0.0000 0.0000 0.0000 0.0000 0.0000 13.4416
#
#
#
# Elastic Compliance Matrix: (Units=1/GPa)
#
#
# Indices 1 2 3 4 5 6 
#
# 1 0.014448 0.001298 -0.004638 0.000000 0.000000 0.000000
# 2 0.001298 0.016642 -0.009470 0.000000 0.000000 0.000000
# 3 -0.004638 -0.009470 0.014807 0.000000 0.000000 0.000000
# 4 0.000000 0.000000 0.000000 0.045655 0.000000 0.000000
# 5 0.000000 0.000000 0.000000 0.000000 0.102250 0.000000
# 6 0.000000 0.000000 0.000000 0.000000 0.000000 0.074396
#
#
# Mechanical properties :
#
#
# Convention : Reuss Voigt Hill
#
# Bulk Modulus (GPa) = 49.31255 57.27018 53.29136
# Shear Modulus (GPa) = 16.63467 21.30226 18.96847
#
# Velocity S-wave (km/s) = 2.82017 3.19140 3.01151
# Velocity P-wave (km/s) = 5.84652 6.40016 6.12959
#
# Compressibility (1/GPa) = 0.02027882
#
# Stress axis : x y z
#
# Youngs Moduli (GPa) = 69.21231 60.08816 67.53627
#
# Poissons Ratio (x) = -0.07800 0.31322
# Poissons Ratio (y) = -0.08984 0.63954
# Poissons Ratio (z) = 0.32099 0.56901
#
# Static dielectric constant tensor:
#      x y z
#    x 1.793520 0.000000 0.000000 
#    y 0.000000 1.780470 0.000000 
#    z 0.000000 0.000000 1.779960 
# 
# From -- ./inp_files/15173.got.cif
#   From: 2010.05.17/outbox.cif.g08.bks.cpg/sg47_8_cif.got.tgz:15173.got - 2010.06.03 20:15:42.
