data_PCOD9383567
_publ_section_title
;
Structure prediction by ZEFSAII (Michael W. Deem and Ramdas Pophale) SiO2 
 PCOD9383567
Probable space group: P M M M
;
_chemical_formula_sum "Si O2"
_cell_formula_units_Z 48
_cell_length_a 30.111986
_cell_length_b 10.325799
_cell_length_c 8.850523
_cell_angle_alpha 90.000000
_cell_angle_beta 90.000000
_cell_angle_gamma 90.000000
_cell_volume 2751.895904
_symmetry_space_group_name_H-M "P M M M"
_symmetry_group_IT_number 47
_symmetry_cell_setting 'orthorhombic'
loop_
_space_group_symop_operation_xyz
x,y,z
-x,-y,z
x,-y,-z
-x,y,-z
-x,-y,-z
x,y,-z
-x,y,z
x,-y,z
loop_
_atom_site_type_symbol
_atom_site_label
_atom_site_fract_x
_atom_site_fract_y
_atom_site_fract_z
Si Si1 0.448101 0.648729 0.318088
Si Si2 0.050377 0.000000 0.683392
Si Si3 0.378848 0.848653 0.819135
Si Si4 0.103588 0.743700 0.318126
Si Si5 0.192052 0.846593 0.180603
Si Si6 0.285223 0.842954 0.326598
Si Si7 0.052263 0.500000 0.181545
O O1 0.444133 0.657853 0.500000
O O2 0.500000 0.669641 0.279979
O O3 0.436736 0.500000 0.275418
O O4 0.416725 0.754429 0.242712
O O5 0.076676 0.872357 0.728516
O O6 0.048992 0.000000 0.500000
O O7 0.000000 0.000000 0.739366
O O8 0.331154 0.805975 0.753014
O O9 0.386358 0.000000 0.774953
O O10 0.377315 0.843880 0.000000
O O11 0.104095 0.734258 0.500000
O O12 0.153215 0.764092 0.256980
O O13 0.077643 0.623612 0.248082
O O14 0.240501 0.805075 0.239552
O O15 0.185982 0.000000 0.220438
O O16 0.189918 0.836334 0.000000
O O17 0.284149 0.798650 0.500000
O O18 0.285079 0.000000 0.326942
O O19 0.000000 0.500000 0.224507
O O20 0.054763 0.500000 0.000000
#
# Coordination Sequence:
#
# PCOD9383567 Si02
#       7
#     8   4   8   8   8   8   4
#     4   9  19  36  56  77 104 142 187 231 275 325
#     4   9  18  32  53  83 113 137 173 227 272 309
#     4  10  20  33  51  79 113 145 180 224 275 327
#     4  11  21  36  59  84 111 144 185 227 270 323
#     4  10  19  32  53  82 116 147 178 220 274 328
#     4   9  17  30  51  78 108 143 184 225 268 320
#     4  11  25  43  59  79 111 149 185 223 274 333
#
# _framework density 17.442519999999998
#
# number of rings (size 3 to 8) (size 9 to 14) (size 15 to 20)
#    0.000    2.167    0.833    3.250    0.000    6.000 
#    0.000    2.500    1.833    2.000    0.000    0.000 
#    0.000    0.000    0.000    0.000    0.000    0.000 
#
# Total GULP energy -267856.380121 kJ/mol
# GULP energy per Si atom -5580.341253 kJ/mol
# Density = 1.740282 g / cm^3
# Si number density = 17.442520 Si / 1000 Ang^3
#
#
#
# Elastic Constant Matrix: (Units=GPa)
#
#
# Indices 1 2 3 4 5 6 
#
# 1 165.6638 86.1250 63.3403 0.0000 0.0000 0.0000
# 2 86.1250 109.3938 48.1066 0.0000 0.0000 0.0000
# 3 63.3403 48.1066 70.5495 0.0000 0.0000 0.0000
# 4 0.0000 0.0000 0.0000 23.9546 0.0000 0.0000
# 5 0.0000 0.0000 0.0000 0.0000 30.1248 0.0000
# 6 0.0000 0.0000 0.0000 0.0000 0.0000 28.0699
#
#
#
# Elastic Compliance Matrix: (Units=1/GPa)
#
#
# Indices 1 2 3 4 5 6 
#
# 1 0.011802 -0.006616 -0.006085 0.000000 0.000000 0.000000
# 2 -0.006616 0.016765 -0.005492 0.000000 0.000000 0.000000
# 3 -0.006085 -0.005492 0.023383 0.000000 0.000000 0.000000
# 4 0.000000 0.000000 0.000000 0.041746 0.000000 0.000000
# 5 0.000000 0.000000 0.000000 0.000000 0.033195 0.000000
# 6 0.000000 0.000000 0.000000 0.000000 0.000000 0.035625
#
#
# Mechanical properties :
#
#
# Convention : Reuss Voigt Hill
#
# Bulk Modulus (GPa) = 64.25023 82.30564 73.27794
# Shear Modulus (GPa) = 24.49897 26.29888 25.39892
#
# Velocity S-wave (km/s) = 3.75180 3.88718 3.82009
# Velocity P-wave (km/s) = 7.46213 8.21195 7.84600
#
# Compressibility (1/GPa) = 0.01556415
#
# Stress axis : x y z
#
# Youngs Moduli (GPa) = 84.72850 59.64747 42.76702
#
# Poissons Ratio (x) = 0.39463 0.26024
# Poissons Ratio (y) = 0.56057 0.23487
# Poissons Ratio (z) = 0.51557 0.32758
#
# Static dielectric constant tensor:
#      x y z
#    x 1.577880 0.000000 0.000000 
#    y 0.000000 1.587230 0.000000 
#    z 0.000000 0.000000 1.582130 
# 
# From -- ./inp_files/13855.got.cif
#   From: 2010.05.17/outbox.cif.g08.bks.cpg/sg47_7_cif.got.tgz:13855.got - 2010.06.03 20:15:42.
