data_PCOD9383911
_publ_section_title
;
Structure prediction by ZEFSAII (Michael W. Deem and Ramdas Pophale) SiO2 
 PCOD9383911
Probable space group: P M M M
;
_chemical_formula_sum "Si O2"
_cell_formula_units_Z 52
_cell_length_a 7.727201
_cell_length_b 16.595068
_cell_length_c 17.797022
_cell_angle_alpha 90.000000
_cell_angle_beta 90.000000
_cell_angle_gamma 90.000000
_cell_volume 2282.173104
_symmetry_space_group_name_H-M "P M M M"
_symmetry_group_IT_number 47
_symmetry_cell_setting 'orthorhombic'
loop_
_space_group_symop_operation_xyz
x,y,z
-x,-y,z
x,-y,-z
-x,y,-z
-x,-y,-z
x,y,-z
-x,y,z
x,-y,z
loop_
_atom_site_type_symbol
_atom_site_label
_atom_site_fract_x
_atom_site_fract_y
_atom_site_fract_z
Si Si1 0.290147 0.908787 0.303958
Si Si2 0.801027 0.590265 0.631812
Si Si3 0.699376 0.254823 0.080669
Si Si4 0.203330 0.911233 0.871263
Si Si5 0.708350 0.365218 0.202106
Si Si6 0.291384 0.500000 0.083223
Si Si7 0.705741 0.230549 0.582989
O O1 0.500000 0.905491 0.301350
O O2 0.226723 0.901951 0.218517
O O3 0.228465 0.833617 0.355145
O O4 0.243245 0.000000 0.331033
O O5 0.726192 0.500000 0.615504
O O6 0.790875 0.604598 0.721522
O O7 0.727269 0.674076 0.599931
O O8 0.000000 0.587700 0.607651
O O9 0.500000 0.284002 0.079502
O O10 0.703680 0.159563 0.085627
O O11 0.767253 0.282975 0.162346
O O12 0.776923 0.280866 0.000000
O O13 0.000000 0.905736 0.888657
O O14 0.266780 0.000000 0.891048
O O15 0.500000 0.364644 0.217265
O O16 0.752514 0.424490 0.133998
O O17 0.500000 0.500000 0.077578
O O18 0.218969 0.500000 0.000000
O O19 0.777931 0.214081 0.500000
O O20 0.500000 0.217021 0.580865
#
# Coordination Sequence:
#
# PCOD9383911 Si02
#       7
#     8   8   8   8   8   4   8
#     4   9  18  35  60  88 117 148 181 221 274 335
#     4  11  24  40  58  81 112 150 192 236 282 333
#     4  10  21  35  52  78 110 142 180 228 281 333
#     4  10  21  36  54  77 106 143 188 232 271 318
#     4  10  19  34  57  82 107 139 180 225 271 326
#     4   9  16  28  51  81 108 135 170 215 265 316
#     4  10  22  39  60  88 118 147 183 228 277 332
#
# _framework density 22.785299999999999
#
# number of rings (size 3 to 8) (size 9 to 14) (size 15 to 20)
#    0.000    2.077    0.769    2.308    0.000   10.154 
#    0.000    4.615    0.000    1.846    0.000    3.231 
#    0.000    0.000    0.000    0.000    0.000    0.000 
#
# Total GULP energy -290050.965828 kJ/mol
# GULP energy per Si atom -5577.903189 kJ/mol
# Density = 2.273344 g / cm^3
# Si number density = 22.785300 Si / 1000 Ang^3
#
#
#
# Elastic Constant Matrix: (Units=GPa)
#
#
# Indices 1 2 3 4 5 6 
#
# 1 36.8769 0.1920 -5.6988 0.0000 0.0000 0.0000
# 2 0.1920 109.0104 3.7871 0.0000 0.0000 0.0000
# 3 -5.6988 3.7871 41.8634 0.0000 0.0000 0.0000
# 4 0.0000 0.0000 0.0000 -57.4796 0.0000 0.0000
# 5 0.0000 0.0000 0.0000 0.0000 41.3371 0.0000
# 6 0.0000 0.0000 0.0000 0.0000 0.0000 -11.2526
#
#
#
# Elastic Compliance Matrix: (Units=1/GPa)
#
#
# Indices 1 2 3 4 5 6 
#
# 1 0.027703 -0.000180 0.003788 0.000000 0.000000 0.000000
# 2 -0.000180 0.009204 -0.000857 0.000000 0.000000 0.000000
# 3 0.003788 -0.000857 0.024480 0.000000 0.000000 0.000000
# 4 0.000000 0.000000 0.000000 -0.017397 0.000000 0.000000
# 5 0.000000 0.000000 0.000000 0.000000 0.024191 0.000000
# 6 0.000000 0.000000 0.000000 0.000000 0.000000 -0.088868
#
#
# Mechanical properties :
#
#
# Convention : Reuss Voigt Hill
#
# Bulk Modulus (GPa) = 14.95049 20.47903 17.71476
# Shear Modulus (GPa) = -1284.90776 7.15234 -638.87771
#
# Velocity S-wave (km/s) = -23.77275 1.77365 -16.76302
# Velocity P-wave (km/s) = 27.33038 3.63343 19.15395
#
# Compressibility (1/GPa) = 0.06688746
#
# Stress axis : x y z
#
# Youngs Moduli (GPa) = 36.09655 108.65395 40.84912
#
# Poissons Ratio (x) = 0.01960 -0.15472
# Poissons Ratio (y) = 0.00651 0.03501
# Poissons Ratio (z) = -0.13672 0.09313
#
# Static dielectric constant tensor:
#      x y z
#    x 1.856980 0.000000 0.000000 
#    y 0.000000 1.984150 0.000000 
#    z 0.000000 0.000000 1.841330 
# 
# From -- ./inp_files/26759.got.cif
#   From: 2010.05.17/outbox.cif.g08.bks.cpg/sg47_14_cif.got.tgz:26759.got - 2010.06.03 20:15:42.
