data_PCOD9383584
_publ_section_title
;
Structure prediction by ZEFSAII (Michael W. Deem and Ramdas Pophale) SiO2 
 PCOD9383584
Probable space group: P M M M
;
_chemical_formula_sum "Si O2"
_cell_formula_units_Z 48
_cell_length_a 9.358070
_cell_length_b 35.295353
_cell_length_c 7.738238
_cell_angle_alpha 90.000000
_cell_angle_beta 90.000000
_cell_angle_gamma 90.000000
_cell_volume 2555.912030
_symmetry_space_group_name_H-M "P M M M"
_symmetry_group_IT_number 47
_symmetry_cell_setting 'orthorhombic'
loop_
_space_group_symop_operation_xyz
x,y,z
-x,-y,z
x,-y,-z
-x,y,-z
-x,-y,-z
x,y,-z
-x,y,z
x,-y,z
loop_
_atom_site_type_symbol
_atom_site_label
_atom_site_fract_x
_atom_site_fract_y
_atom_site_fract_z
Si Si1 0.827876 0.819313 0.000000
Si Si2 0.159851 0.616225 0.793227
Si Si3 0.663970 0.541842 0.708289
Si Si4 0.330074 0.774387 0.698983
Si Si5 0.326531 0.042795 0.697058
Si Si6 0.665438 0.311256 0.790719
Si Si7 0.673862 0.099993 0.000000
O O1 0.765458 0.797488 0.167306
O O2 0.757873 0.860884 0.000000
O O3 0.000000 0.820070 0.000000
O O4 0.242745 0.577357 0.761431
O O5 0.241836 0.653413 0.728116
O O6 0.000000 0.614062 0.723140
O O7 0.152507 0.620797 0.000000
O O8 0.662045 0.541192 0.500000
O O9 0.500000 0.546693 0.767370
O O10 0.714041 0.500000 0.766663
O O11 0.310717 0.786212 0.500000
O O12 0.500000 0.778467 0.742208
O O13 0.295572 0.729742 0.716922
O O14 0.280568 0.050391 0.500000
O O15 0.500000 0.042119 0.696895
O O16 0.280580 0.000000 0.745333
O O17 0.286627 0.074681 0.833403
O O18 0.500000 0.318640 0.747831
O O19 0.675852 0.308429 0.000000
O O20 0.500000 0.105981 0.000000
#
# Coordination Sequence:
#
# PCOD9383584 Si02
#       7
#     4   8   8   8   8   8   4
#     4  12  26  41  57  81 122 164 197 243 296 352
#     4  10  21  34  50  78 113 143 171 206 256 318
#     4   9  19  36  55  73  96 131 177 225 267 309
#     4  10  21  40  66  90 111 143 193 247 297 350
#     4   8  14  26  48  81 115 143 181 241 303 347
#     4   9  17  33  57  82 110 139 173 221 276 331
#     4  10  19  32  54  80 108 148 198 241 287 344
#
# _framework density 18.779987999999999
#
# number of rings (size 3 to 8) (size 9 to 14) (size 15 to 20)
#    0.000    2.500    0.833    2.500    0.000    5.333 
#    0.000    5.833    0.000    1.000    0.000    1.167 
#    0.000    0.000    0.000    0.000    0.000    0.000 
#
# Total GULP energy -267808.120830 kJ/mol
# GULP energy per Si atom -5579.335851 kJ/mol
# Density = 1.873724 g / cm^3
# Si number density = 18.779988 Si / 1000 Ang^3
#
#
#
# Elastic Constant Matrix: (Units=GPa)
#
#
# Indices 1 2 3 4 5 6 
#
# 1 87.8394 94.5353 49.7996 0.0000 0.0000 0.0000
# 2 94.5353 174.0296 69.0945 0.0000 0.0000 0.0000
# 3 49.7996 69.0945 75.3214 0.0000 0.0000 0.0000
# 4 0.0000 0.0000 0.0000 -21.2150 0.0000 0.0000
# 5 0.0000 0.0000 0.0000 0.0000 8.6088 0.0000
# 6 0.0000 0.0000 0.0000 0.0000 0.0000 -14.0321
#
#
#
# Elastic Compliance Matrix: (Units=1/GPa)
#
#
# Indices 1 2 3 4 5 6 
#
# 1 0.029990 -0.013241 -0.007682 0.000000 0.000000 0.000000
# 2 -0.013241 0.014884 -0.004899 0.000000 0.000000 0.000000
# 3 -0.007682 -0.004899 0.022849 0.000000 0.000000 0.000000
# 4 0.000000 0.000000 0.000000 -0.047136 0.000000 0.000000
# 5 0.000000 0.000000 0.000000 0.000000 0.116160 0.000000
# 6 0.000000 0.000000 0.000000 0.000000 0.000000 -0.071265
#
#
# Mechanical properties :
#
#
# Convention : Reuss Voigt Hill
#
# Bulk Modulus (GPa) = 62.19085 84.89434 73.54259
# Shear Modulus (GPa) = 40.82146 2.92308 21.87227
#
# Velocity S-wave (km/s) = 4.66732 1.24894 3.41641
# Velocity P-wave (km/s) = 7.88876 6.88350 7.40321
#
# Compressibility (1/GPa) = 0.01607954
#
# Stress axis : x y z
#
# Youngs Moduli (GPa) = 33.34455 67.18667 43.76517
#
# Poissons Ratio (x) = 0.88962 0.33619
# Poissons Ratio (y) = 0.44152 0.21440
# Poissons Ratio (z) = 0.25614 0.32914
#
# Static dielectric constant tensor:
#      x y z
#    x 1.633100 0.000000 0.000000 
#    y 0.000000 1.631870 0.000000 
#    z 0.000000 0.000000 1.682030 
# 
# From -- ./inp_files/2586.got.cif
#   From: 2010.05.17/outbox.cif.g08.bks.cpg/sg47_2_cif.got.tgz:2586.got - 2010.06.03 20:15:42.
