data_PCOD9383814
_publ_section_title
;
Structure prediction by ZEFSAII (Michael W. Deem and Ramdas Pophale) SiO2 
 PCOD9383814
Probable space group: P M M M
;
_chemical_formula_sum "Si O2"
_cell_formula_units_Z 56
_cell_length_a 14.253620
_cell_length_b 10.150842
_cell_length_c 21.123209
_cell_angle_alpha 90.000000
_cell_angle_beta 90.000000
_cell_angle_gamma 90.000000
_cell_volume 3056.237783
_symmetry_space_group_name_H-M "P M M M"
_symmetry_group_IT_number 47
_symmetry_cell_setting 'orthorhombic'
loop_
_space_group_symop_operation_xyz
x,y,z
-x,-y,z
x,-y,-z
-x,y,-z
-x,-y,-z
x,y,-z
-x,y,z
x,-y,z
loop_
_atom_site_type_symbol
_atom_site_label
_atom_site_fract_x
_atom_site_fract_y
_atom_site_fract_z
Si Si1 0.607775 0.156254 0.375055
Si Si2 0.889060 0.347392 0.691813
Si Si3 0.758974 0.652828 0.428504
Si Si4 0.395058 0.209186 0.770981
Si Si5 0.229998 0.155946 0.069360
Si Si6 0.814922 0.145595 0.795528
Si Si7 0.607628 0.352020 0.895189
O O1 0.500000 0.162427 0.396987
O O2 0.676805 0.241841 0.417446
O O3 0.610989 0.220189 0.304623
O O4 0.632776 0.000000 0.370058
O O5 0.871302 0.500000 0.709565
O O6 0.835681 0.323259 0.625807
O O7 0.850936 0.250794 0.745625
O O8 0.000000 0.329712 0.684063
O O9 0.796004 0.665561 0.500000
O O10 0.726318 0.500000 0.421243
O O11 0.500000 0.150594 0.782775
O O12 0.298595 0.138227 0.789344
O O13 0.391556 0.333202 0.818547
O O14 0.167821 0.184137 0.131389
O O15 0.322672 0.244778 0.076416
O O16 0.253088 0.000000 0.073172
O O17 0.187796 0.179919 0.000000
O O18 0.853668 0.000000 0.782851
O O19 0.500000 0.331573 0.915420
O O20 0.636218 0.500000 0.911636
#
# Coordination Sequence:
#
# PCOD9383814 Si02
#       7
#     8   8   8   8   8   8   8
#     4  10  20  34  54  80 112 151 191 227 266 316
#     4  10  22  40  61  84 109 138 175 223 279 336
#     4  10  22  39  58  82 113 148 184 224 272 324
#     4   9  17  29  48  76 109 143 179 221 269 318
#     4   9  19  34  50  72 105 144 182 220 268 325
#     4  10  19  33  57  84 109 140 180 227 273 320
#     4   9  18  30  44  67 101 141 186 233 275 316
#
# _framework density 18.323181000000002
#
# number of rings (size 3 to 8) (size 9 to 14) (size 15 to 20)
#    0.000    2.429    1.429    0.429    0.000    6.571 
#    0.000   10.000    0.000    0.429    0.000    5.000 
#    0.000    0.000    0.000    0.000    0.000    0.000 
#
# Total GULP energy -311780.708216 kJ/mol
# GULP energy per Si atom -5567.512647 kJ/mol
# Density = 1.828148 g / cm^3
# Si number density = 18.323181 Si / 1000 Ang^3
#
#
#
# Elastic Constant Matrix: (Units=GPa)
#
#
# Indices 1 2 3 4 5 6 
#
# 1 46.9820 36.2396 41.7451 0.0000 0.0000 0.0000
# 2 36.2396 66.8184 65.1729 0.0000 0.0000 0.0000
# 3 41.7451 65.1729 143.8593 0.0000 0.0000 0.0000
# 4 0.0000 0.0000 0.0000 10.1153 0.0000 0.0000
# 5 0.0000 0.0000 0.0000 0.0000 4.3464 0.0000
# 6 0.0000 0.0000 0.0000 0.0000 0.0000 -11.7286
#
#
#
# Elastic Compliance Matrix: (Units=1/GPa)
#
#
# Indices 1 2 3 4 5 6 
#
# 1 0.037289 -0.017326 -0.002971 0.000000 0.000000 0.000000
# 2 -0.017326 0.034865 -0.010767 0.000000 0.000000 0.000000
# 3 -0.002971 -0.010767 0.012691 0.000000 0.000000 0.000000
# 4 0.000000 0.000000 0.000000 0.098860 0.000000 0.000000
# 5 0.000000 0.000000 0.000000 0.000000 0.230075 0.000000
# 6 0.000000 0.000000 0.000000 0.000000 0.000000 -0.085261
#
#
# Mechanical properties :
#
#
# Convention : Reuss Voigt Hill
#
# Bulk Modulus (GPa) = 44.02117 60.44166 52.23141
# Shear Modulus (GPa) = 12.55587 8.18010 10.36798
#
# Velocity S-wave (km/s) = 2.62056 2.11519 2.38132
# Velocity P-wave (km/s) = 5.76485 6.24687 6.01069
#
# Compressibility (1/GPa) = 0.02271634
#
# Stress axis : x y z
#
# Youngs Moduli (GPa) = 26.81730 28.68202 78.79348
#
# Poissons Ratio (x) = 0.49695 0.23412
# Poissons Ratio (y) = 0.46464 0.84839
# Poissons Ratio (z) = 0.07968 0.30883
#
# Static dielectric constant tensor:
#      x y z
#    x 1.614440 0.000000 0.000000 
#    y 0.000000 1.619570 0.000000 
#    z 0.000000 0.000000 1.670870 
# 
# From -- ./inp_files/30971.got.cif
#   From: 2010.05.17/outbox.cif.g08.bks.cpg/sg47_16_cif.got.tgz:30971.got - 2010.06.03 20:15:42.
