data_PCOD9383511
_publ_section_title
;
Structure prediction by ZEFSAII (Michael W. Deem and Ramdas Pophale) SiO2 
 PCOD9383511
Probable space group: P M M M
;
_chemical_formula_sum "Si O2"
_cell_formula_units_Z 56
_cell_length_a 20.236379
_cell_length_b 8.042854
_cell_length_c 16.442539
_cell_angle_alpha 90.000000
_cell_angle_beta 90.000000
_cell_angle_gamma 90.000000
_cell_volume 2676.158738
_symmetry_space_group_name_H-M "P M M M"
_symmetry_group_IT_number 47
_symmetry_cell_setting 'orthorhombic'
loop_
_space_group_symop_operation_xyz
x,y,z
-x,-y,z
x,-y,-z
-x,y,-z
-x,-y,-z
x,y,-z
-x,y,z
x,-y,z
loop_
_atom_site_type_symbol
_atom_site_label
_atom_site_fract_x
_atom_site_fract_y
_atom_site_fract_z
Si Si1 0.571749 0.201669 0.096382
Si Si2 0.428144 0.297951 0.404228
Si Si3 0.847875 0.799475 0.911325
Si Si4 0.925470 0.697724 0.749396
Si Si5 0.288357 0.199656 0.842630
Si Si6 0.288213 0.300352 0.660120
Si Si7 0.846491 0.197458 0.411285
O O1 0.500000 0.262715 0.126712
O O2 0.638606 0.266266 0.137092
O O3 0.571227 0.000000 0.104795
O O4 0.575497 0.235788 0.000000
O O5 0.424209 0.257673 0.500000
O O6 0.500000 0.239469 0.373199
O O7 0.428193 0.500000 0.398680
O O8 0.361723 0.237676 0.361470
O O9 0.889690 0.753398 0.832146
O O10 0.772276 0.740485 0.897681
O O11 0.846359 0.000000 0.913147
O O12 0.872401 0.741433 0.000000
O O13 0.928915 0.500000 0.753293
O O14 0.885516 0.739729 0.667524
O O15 0.000000 0.766785 0.745246
O O16 0.271181 0.241976 0.750394
O O17 0.291334 0.000000 0.852159
O O18 0.288648 0.500000 0.657114
O O19 0.230763 0.238484 0.601217
O O20 0.868248 0.263427 0.500000
O O21 0.854225 0.000000 0.411930
#
# Coordination Sequence:
#
# PCOD9383511 Si02
#       7
#     8   8   8   8   8   8   8
#     4   8  14  26  46  73 105 144 193 246 296 346
#     4   8  15  29  48  71 102 143 192 242 290 344
#     4  10  21  38  62  90 121 162 208 249 292 346
#     4  11  25  44  66  94 127 159 193 239 293 350
#     4  10  19  32  52  79 113 151 196 247 295 345
#     4  11  21  33  54  83 115 152 197 246 296 351
#     4  11  24  42  65  92 122 158 199 244 296 354
#
# _framework density 20.925514
#
# number of rings (size 3 to 8) (size 9 to 14) (size 15 to 20)
#    0.000    2.143    1.429    3.000    0.000    6.000 
#    0.000    2.857    0.000    2.571    0.000    6.000 
#    0.000    0.000    0.000    0.000    0.000    0.000 
#
# Total GULP energy -312528.090825 kJ/mol
# GULP energy per Si atom -5580.858765 kJ/mol
# Density = 2.087789 g / cm^3
# Si number density = 20.925514 Si / 1000 Ang^3
#
#
#
# Elastic Constant Matrix: (Units=GPa)
#
#
# Indices 1 2 3 4 5 6 
#
# 1 142.7378 11.1810 67.3750 0.0000 0.0000 0.0000
# 2 11.1810 21.7699 14.6678 0.0000 0.0000 0.0000
# 3 67.3750 14.6678 148.9311 0.0000 0.0000 0.0000
# 4 0.0000 0.0000 0.0000 40.1534 0.0000 0.0000
# 5 0.0000 0.0000 0.0000 0.0000 14.1302 0.0000
# 6 0.0000 0.0000 0.0000 0.0000 0.0000 17.0116
#
#
#
# Elastic Compliance Matrix: (Units=1/GPa)
#
#
# Indices 1 2 3 4 5 6 
#
# 1 0.008989 -0.002010 -0.003869 0.000000 0.000000 0.000000
# 2 -0.002010 0.049649 -0.003980 0.000000 0.000000 0.000000
# 3 -0.003869 -0.003980 0.008857 0.000000 0.000000 0.000000
# 4 0.000000 0.000000 0.000000 0.024904 0.000000 0.000000
# 5 0.000000 0.000000 0.000000 0.000000 0.070770 0.000000
# 6 0.000000 0.000000 0.000000 0.000000 0.000000 0.058783
#
#
# Mechanical properties :
#
#
# Convention : Reuss Voigt Hill
#
# Bulk Modulus (GPa) = 20.93076 55.54296 38.23686
# Shear Modulus (GPa) = 19.41009 28.94005 24.17507
#
# Velocity S-wave (km/s) = 3.04892 3.72291 3.40265
# Velocity P-wave (km/s) = 4.73485 6.71423 5.80946
#
# Compressibility (1/GPa) = 0.04777657
#
# Stress axis : x y z
#
# Youngs Moduli (GPa) = 111.24148 20.14125 112.90868
#
# Poissons Ratio (x) = 0.04049 0.43682
# Poissons Ratio (y) = 0.22363 0.44942
# Poissons Ratio (z) = 0.43037 0.08017
#
# Static dielectric constant tensor:
#      x y z
#    x 1.778330 0.000000 0.000000 
#    y 0.000000 1.740850 0.000000 
#    z 0.000000 0.000000 1.733790 
# 
# From -- ./inp_files/25137.got.cif
#   From: 2010.05.17/outbox.cif.g08.bks.cpg/sg47_13_cif.got.tgz:25137.got - 2010.06.03 20:15:42.
