data_PCOD9383430
_publ_section_title
;
Structure prediction by ZEFSAII (Michael W. Deem and Ramdas Pophale) SiO2 
 PCOD9383430
Probable space group: P M M M
;
_chemical_formula_sum "Si O2"
_cell_formula_units_Z 52
_cell_length_a 8.318486
_cell_length_b 12.462871
_cell_length_c 26.310236
_cell_angle_alpha 90.000000
_cell_angle_beta 90.000000
_cell_angle_gamma 90.000000
_cell_volume 2727.640520
_symmetry_space_group_name_H-M "P M M M"
_symmetry_group_IT_number 47
_symmetry_cell_setting 'orthorhombic'
loop_
_space_group_symop_operation_xyz
x,y,z
-x,-y,z
x,-y,-z
-x,y,-z
-x,-y,-z
x,y,-z
-x,y,z
x,-y,z
loop_
_atom_site_type_symbol
_atom_site_label
_atom_site_fract_x
_atom_site_fract_y
_atom_site_fract_z
Si Si1 0.691328 0.714100 0.837723
Si Si2 0.195742 0.259972 0.653780
Si Si3 0.189463 0.768454 0.942955
Si Si4 0.195797 0.876110 0.443318
Si Si5 0.679097 0.000000 0.938858
Si Si6 0.694862 0.124552 0.247690
Si Si7 0.813944 0.500000 0.664701
Si Si8 0.692082 0.500000 0.224653
O O1 0.500000 0.726853 0.840834
O O2 0.750488 0.702289 0.895171
O O3 0.751615 0.814555 0.803714
O O4 0.726524 0.606529 0.806893
O O5 0.248616 0.195850 0.603621
O O6 0.252519 0.196362 0.704007
O O7 0.254596 0.383329 0.649984
O O8 0.000000 0.261995 0.655667
O O9 0.000000 0.757122 0.946573
O O10 0.231638 0.890502 0.927366
O O11 0.257708 0.748193 0.000000
O O12 0.246977 0.841564 0.500000
O O13 0.000000 0.874691 0.443124
O O14 0.244615 0.000000 0.436075
O O15 0.500000 0.000000 0.916302
O O16 0.665666 0.000000 0.000000
O O17 0.500000 0.123905 0.247129
O O18 0.748671 0.000000 0.250982
O O19 0.797509 0.500000 0.725278
O O20 0.000000 0.500000 0.648120
O O21 0.500000 0.500000 0.237542
#
# Coordination Sequence:
#
# PCOD9383430 Si02
#       8
#     8   8   8   8   4   8   4   4
#     4  10  21  36  56  78 101 133 176 219 260 314
#     4  10  19  32  51  76 105 139 179 220 262 313
#     4  10  21  36  53  77 108 139 172 212 263 322
#     4   8  14  26  46  72 102 138 179 220 262 310
#     4   9  17  31  53  77 103 139 177 211 250 301
#     4  10  21  35  52  78 109 137 168 214 266 314
#     4  10  20  32  49  75 105 136 176 222 266 313
#     4  10  20  38  59  76  97 136 184 219 256 313
#
# _framework density 19.064094999999998
#
# number of rings (size 3 to 8) (size 9 to 14) (size 15 to 20)
#    0.000    2.385    1.538    1.615    1.077    4.000 
#    0.000    0.769    0.000    5.077    0.000    2.154 
#    0.000    1.846    0.000    0.000    0.000    0.000 
#
# Total GULP energy -289820.697630 kJ/mol
# GULP energy per Si atom -5573.474954 kJ/mol
# Density = 1.902070 g / cm^3
# Si number density = 19.064095 Si / 1000 Ang^3
#
#
#
# Elastic Constant Matrix: (Units=GPa)
#
#
# Indices 1 2 3 4 5 6 
#
# 1 -9.3973 26.7852 19.4445 0.0000 0.0000 0.0000
# 2 26.7852 95.1012 49.7819 0.0000 0.0000 0.0000
# 3 19.4445 49.7819 131.4743 0.0000 0.0000 0.0000
# 4 0.0000 0.0000 0.0000 55.1880 0.0000 0.0000
# 5 0.0000 0.0000 0.0000 0.0000 -40.0051 0.0000
# 6 0.0000 0.0000 0.0000 0.0000 0.0000 18.0502
#
#
#
# Elastic Compliance Matrix: (Units=1/GPa)
#
#
# Indices 1 2 3 4 5 6 
#
# 1 -0.058071 0.014792 0.002988 0.000000 0.000000 0.000000
# 2 0.014792 0.009347 -0.005727 0.000000 0.000000 0.000000
# 3 0.002988 -0.005727 0.009333 0.000000 0.000000 0.000000
# 4 0.000000 0.000000 0.000000 0.018120 0.000000 0.000000
# 5 0.000000 0.000000 0.000000 0.000000 -0.024997 0.000000
# 6 0.000000 0.000000 0.000000 0.000000 0.000000 0.055401
#
#
# Mechanical properties :
#
#
# Convention : Reuss Voigt Hill
#
# Bulk Modulus (GPa) = -65.41854 45.46682 -9.97586
# Shear Modulus (GPa) = -249.15451 14.72439 -117.21506
#
# Velocity S-wave (km/s) = -11.44451 2.78216 -7.84973
# Velocity P-wave (km/s) = 14.45771 5.84994 9.34889
#
# Compressibility (1/GPa) = -0.01528619
#
# Stress axis : x y z
#
# Youngs Moduli (GPa) = -17.22039 106.98881 107.15156
#
# Poissons Ratio (x) = -1.58254 -0.32013
# Poissons Ratio (y) = 0.25472 0.61363
# Poissons Ratio (z) = 0.05145 0.61270
#
# Static dielectric constant tensor:
#      x y z
#    x 1.675520 0.000000 0.000000 
#    y 0.000000 1.670820 0.000000 
#    z 0.000000 0.000000 1.684320 
# 
# From -- ./inp_files/33330.got.cif
#   From: 2010.05.17/outbox.cif.g08.bks.cpg/sg47_17_cif.got.tgz:33330.got - 2010.06.03 20:15:42.
