data_PCOD9383311
_publ_section_title
;
Structure prediction by ZEFSAII (Michael W. Deem and Ramdas Pophale) SiO2 
 PCOD9383311
Probable space group: P M M M
;
_chemical_formula_sum "Si O2"
_cell_formula_units_Z 64
_cell_length_a 26.001537
_cell_length_b 15.089830
_cell_length_c 7.307757
_cell_angle_alpha 90.000000
_cell_angle_beta 90.000000
_cell_angle_gamma 90.000000
_cell_volume 2867.262570
_symmetry_space_group_name_H-M "P M M M"
_symmetry_group_IT_number 47
_symmetry_cell_setting 'orthorhombic'
loop_
_space_group_symop_operation_xyz
x,y,z
-x,-y,z
x,-y,-z
-x,y,-z
-x,-y,-z
x,y,-z
-x,y,z
x,-y,z
loop_
_atom_site_type_symbol
_atom_site_label
_atom_site_fract_x
_atom_site_fract_y
_atom_site_fract_z
Si Si1 0.156691 0.398110 0.278598
Si Si2 0.206438 0.902238 0.778410
Si Si3 0.654508 0.399971 0.776291
Si Si4 0.438143 0.905006 0.780917
Si Si5 0.559040 0.711098 0.223208
Si Si6 0.254869 0.276346 0.211935
Si Si7 0.943566 0.709373 0.723288
Si Si8 0.915095 0.097255 0.287302
O O1 0.156757 0.398227 0.500000
O O2 0.160585 0.500000 0.218161
O O3 0.204892 0.339091 0.219512
O O4 0.104021 0.350918 0.217708
O O5 0.238953 0.818934 0.710216
O O6 0.146859 0.893962 0.721285
O O7 0.224780 0.000000 0.722562
O O8 0.206087 0.899560 0.000000
O O9 0.664593 0.500000 0.716468
O O10 0.598607 0.364354 0.722154
O O11 0.697700 0.331524 0.710874
O O12 0.656120 0.400697 0.000000
O O13 0.500000 0.904688 0.752762
O O14 0.421007 0.808429 0.716070
O O15 0.418440 0.000000 0.710418
O O16 0.429895 0.906020 0.000000
O O17 0.500000 0.698582 0.281622
O O18 0.558124 0.713020 0.000000
O O19 0.268065 0.259587 0.000000
O O20 0.941472 0.711350 0.500000
O O21 0.936997 0.811031 0.787582
O O22 0.000000 0.676058 0.775133
O O23 0.930521 0.094551 0.500000
O O24 0.928291 0.000000 0.208963
#
# Coordination Sequence:
#
# PCOD9383311 Si02
#       8
#     8   8   8   8   8   8   8   8
#     4  10  20  33  50  71  92 117 154 196 231 266
#     4   9  17  29  46  67  90 117 149 184 223 268
#     4   9  17  27  38  55  79 108 145 184 219 260
#     4   7   9  14  25  41  62  90 125 163 201 244
#     4   8  13  21  33  50  74 104 136 171 214 261
#     4  10  19  32  50  68  90 121 152 185 228 277
#     4   9  17  29  45  68  97 122 146 183 229 273
#     4   9  16  27  46  70  93 118 148 182 222 269
#
# _framework density 22.32094
#
# number of rings (size 3 to 8) (size 9 to 14) (size 15 to 20)
#    0.000    3.125    1.250    1.500    0.000    1.500 
#    0.000    4.375    0.000    5.250    0.000    2.625 
#    0.000    0.500    0.000    2.625    0.000    2.500 
#
# Total GULP energy -357109.885670 kJ/mol
# GULP energy per Si atom -5579.841964 kJ/mol
# Density = 2.227014 g / cm^3
# Si number density = 22.320940 Si / 1000 Ang^3
#
#
#
# Elastic Constant Matrix: (Units=GPa)
#
#
# Indices 1 2 3 4 5 6 
#
# 1 100.2894 57.1591 -6.9556 0.0000 0.0000 0.0000
# 2 57.1591 138.0010 -2.4315 0.0000 0.0000 0.0000
# 3 -6.9556 -2.4315 89.6030 0.0000 0.0000 0.0000
# 4 0.0000 0.0000 0.0000 -6.5903 0.0000 0.0000
# 5 0.0000 0.0000 0.0000 0.0000 -4.0634 0.0000
# 6 0.0000 0.0000 0.0000 0.0000 0.0000 0.8176
#
#
#
# Elastic Compliance Matrix: (Units=1/GPa)
#
#
# Indices 1 2 3 4 5 6 
#
# 1 0.013120 -0.005419 0.000871 0.000000 0.000000 0.000000
# 2 -0.005419 0.009488 -0.000163 0.000000 0.000000 0.000000
# 3 0.000871 -0.000163 0.011224 0.000000 0.000000 0.000000
# 4 0.000000 0.000000 0.000000 -0.151737 0.000000 0.000000
# 5 0.000000 0.000000 0.000000 0.000000 -0.246098 0.000000
# 6 0.000000 0.000000 0.000000 0.000000 0.000000 1.223025
#
#
# Mechanical properties :
#
#
# Convention : Reuss Voigt Hill
#
# Bulk Modulus (GPa) = 40.96645 47.04860 44.00752
# Shear Modulus (GPa) = 5.70399 16.70753 11.20576
#
# Velocity S-wave (km/s) = 1.60031 2.73887 2.24303
# Velocity P-wave (km/s) = 4.66989 5.57905 5.14459
#
# Compressibility (1/GPa) = 0.02441022
#
# Stress axis : x y z
#
# Youngs Moduli (GPa) = 76.21937 105.39730 89.09826
#
# Poissons Ratio (x) = 0.57113 -0.07764
# Poissons Ratio (y) = 0.41302 0.01454
# Poissons Ratio (z) = -0.06642 0.01720
#
# Static dielectric constant tensor:
#      x y z
#    x 1.767300 0.000000 0.000000 
#    y 0.000000 1.827470 0.000000 
#    z 0.000000 0.000000 1.746580 
# 
# From -- ./inp_files/14269.got.cif
#   From: 2010.05.17/outbox.cif.g08.bks.cpg/sg47_8_cif.got.tgz:14269.got - 2010.06.03 20:15:42.
