data_PCOD9383483
_publ_section_title
;
Structure prediction by ZEFSAII (Michael W. Deem and Ramdas Pophale) SiO2 
 PCOD9383483
Probable space group: P M M M
;
_chemical_formula_sum "Si O2"
_cell_formula_units_Z 52
_cell_length_a 8.443582
_cell_length_b 12.516534
_cell_length_c 28.443281
_cell_angle_alpha 90.000000
_cell_angle_beta 90.000000
_cell_angle_gamma 90.000000
_cell_volume 3006.010551
_symmetry_space_group_name_H-M "P M M M"
_symmetry_group_IT_number 47
_symmetry_cell_setting 'orthorhombic'
loop_
_space_group_symop_operation_xyz
x,y,z
-x,-y,z
x,-y,-z
-x,y,-z
-x,-y,-z
x,y,-z
-x,y,z
x,-y,z
loop_
_atom_site_type_symbol
_atom_site_label
_atom_site_fract_x
_atom_site_fract_y
_atom_site_fract_z
Si Si1 0.806946 0.376379 0.446998
Si Si2 0.188276 0.876653 0.171479
Si Si3 0.687145 0.124386 0.274140
Si Si4 0.184275 0.500000 0.795188
Si Si5 0.685591 0.500000 0.693354
Si Si6 0.188378 0.716255 0.648730
Si Si7 0.689024 0.667115 0.868580
Si Si8 0.307879 0.500000 0.946808
O O1 0.756725 0.348225 0.500000
O O2 0.758889 0.500000 0.437760
O O3 0.754918 0.298705 0.405144
O O4 0.000000 0.376589 0.446501
O O5 0.228215 0.844638 0.225377
O O6 0.266325 0.790609 0.136957
O O7 0.000000 0.874141 0.165291
O O8 0.243012 0.000000 0.165441
O O9 0.500000 0.135839 0.266104
O O10 0.735801 0.193573 0.318846
O O11 0.724099 0.000000 0.282639
O O12 0.290904 0.500000 0.749149
O O13 0.225140 0.397734 0.827028
O O14 0.000000 0.500000 0.781879
O O15 0.500000 0.500000 0.681407
O O16 0.769543 0.395898 0.672870
O O17 0.000000 0.732244 0.648427
O O18 0.500000 0.654392 0.863034
O O19 0.736107 0.604758 0.916308
O O20 0.500000 0.500000 0.948985
O O21 0.247055 0.500000 0.000000
#
# Coordination Sequence:
#
# PCOD9383483 Si02
#       8
#     8   8   8   4   4   8   8   4
#     4   8  14  27  48  72  96 121 153 196 245 295
#     4  10  20  34  52  74 101 134 172 210 247 292
#     4  10  21  36  52  71  99 135 171 205 245 294
#     4  11  21  33  48  67  98 134 168 203 242 293
#     4  12  23  33  45  67 102 135 162 194 242 299
#     4  11  20  32  51  74  98 124 161 203 247 295
#     4  10  19  32  52  77 103 132 168 209 253 296
#     4   8  16  32  54  79 105 134 169 210 252 295
#
# _framework density 17.298674999999999
#
# number of rings (size 3 to 8) (size 9 to 14) (size 15 to 20)
#    0.000    2.077    0.769    5.077    0.000    1.846 
#    0.000    0.000    0.000   11.538    0.000    6.462 
#    0.000    0.000    0.000    0.000    0.000    0.000 
#
# Total GULP energy -290115.448447 kJ/mol
# GULP energy per Si atom -5579.143239 kJ/mol
# Density = 1.725930 g / cm^3
# Si number density = 17.298675 Si / 1000 Ang^3
#
#
#
# Elastic Constant Matrix: (Units=GPa)
#
#
# Indices 1 2 3 4 5 6 
#
# 1 22.7620 15.0192 2.4019 0.0000 0.0000 0.0000
# 2 15.0192 84.6922 46.7836 0.0000 0.0000 0.0000
# 3 2.4019 46.7836 103.7313 0.0000 0.0000 0.0000
# 4 0.0000 0.0000 0.0000 16.9178 0.0000 0.0000
# 5 0.0000 0.0000 0.0000 0.0000 17.7967 0.0000
# 6 0.0000 0.0000 0.0000 0.0000 0.0000 53.4838
#
#
#
# Elastic Compliance Matrix: (Units=1/GPa)
#
#
# Indices 1 2 3 4 5 6 
#
# 1 0.050884 -0.011151 0.003851 0.000000 0.000000 0.000000
# 2 -0.011151 0.018169 -0.007936 0.000000 0.000000 0.000000
# 3 0.003851 -0.007936 0.013130 0.000000 0.000000 0.000000
# 4 0.000000 0.000000 0.000000 0.059109 0.000000 0.000000
# 5 0.000000 0.000000 0.000000 0.000000 0.056190 0.000000
# 6 0.000000 0.000000 0.000000 0.000000 0.000000 0.018697
#
#
# Mechanical properties :
#
#
# Convention : Reuss Voigt Hill
#
# Bulk Modulus (GPa) = 19.33812 37.73277 28.53545
# Shear Modulus (GPa) = 18.94729 27.43836 23.19283
#
# Velocity S-wave (km/s) = 3.31313 3.98698 3.66557
# Velocity P-wave (km/s) = 5.08320 6.56159 5.86913
#
# Compressibility (1/GPa) = 0.05171133
#
# Stress axis : x y z
#
# Youngs Moduli (GPa) = 19.65236 55.03930 76.15943
#
# Poissons Ratio (x) = 0.61375 -0.29329
# Poissons Ratio (y) = 0.21915 0.60441
# Poissons Ratio (z) = -0.07568 0.43680
#
# Static dielectric constant tensor:
#      x y z
#    x 1.589880 0.000000 0.000000 
#    y 0.000000 1.588380 0.000000 
#    z 0.000000 0.000000 1.593150 
# 
# From -- ./inp_files/33266.got.cif
#   From: 2010.05.17/outbox.cif.g08.bks.cpg/sg47_17_cif.got.tgz:33266.got - 2010.06.03 20:15:42.
