data_PCOD9383861
_publ_section_title
;
Structure prediction by ZEFSAII (Michael W. Deem and Ramdas Pophale) SiO2 
 PCOD9383861
Probable space group: P M M M
;
_chemical_formula_sum "Si O2"
_cell_formula_units_Z 60
_cell_length_a 18.044932
_cell_length_b 7.491448
_cell_length_c 21.040092
_cell_angle_alpha 90.000000
_cell_angle_beta 90.000000
_cell_angle_gamma 90.000000
_cell_volume 2844.255808
_symmetry_space_group_name_H-M "P M M M"
_symmetry_group_IT_number 47
_symmetry_cell_setting 'orthorhombic'
loop_
_space_group_symop_operation_xyz
x,y,z
-x,-y,z
x,-y,-z
-x,y,-z
-x,-y,-z
x,y,-z
-x,y,z
x,-y,z
loop_
_atom_site_type_symbol
_atom_site_label
_atom_site_fract_x
_atom_site_fract_y
_atom_site_fract_z
Si Si1 0.246812 0.789423 0.431138
Si Si2 0.828603 0.292062 0.874777
Si Si3 0.080657 0.716578 0.389303
Si Si4 0.290383 0.781961 0.705895
Si Si5 0.416984 0.213934 0.195974
Si Si6 0.124686 0.703976 0.746804
Si Si7 0.326287 0.286022 0.926844
Si Si8 0.915837 0.785563 0.000000
O O1 0.266548 0.712112 0.500000
O O2 0.157730 0.770950 0.421615
O O3 0.288816 0.722925 0.368003
O O4 0.262212 0.000000 0.433019
O O5 0.816241 0.500000 0.857612
O O6 0.875942 0.212619 0.816670
O O7 0.748334 0.213948 0.892685
O O8 0.874829 0.282820 0.938308
O O9 0.082064 0.500000 0.389438
O O10 0.087111 0.781154 0.316033
O O11 0.000000 0.771346 0.415433
O O12 0.356904 0.722703 0.751871
O O13 0.212533 0.711217 0.732242
O O14 0.287368 0.000000 0.707336
O O15 0.500000 0.282339 0.206824
O O16 0.390792 0.251595 0.123891
O O17 0.418619 0.000000 0.202553
O O18 0.097013 0.500000 0.750350
O O19 0.317764 0.500000 0.931657
O O20 0.334900 0.221203 0.000000
O O21 0.000000 0.727653 0.000000
O O22 0.912326 0.000000 0.000000
#
# Coordination Sequence:
#
# PCOD9383861 Si02
#       8
#     8   8   8   8   8   8   8   4
#     4   9  18  32  50  72  97 129 170 209 245 291
#     4  10  19  34  55  75  95 126 167 211 256 305
#     4   9  18  31  46  69 101 131 160 199 249 299
#     4   9  17  31  51  73  99 131 164 201 245 292
#     4  10  21  35  52  77 106 134 165 202 248 302
#     4   9  17  30  51  74  94 120 161 208 248 294
#     4  10  20  35  54  77 104 132 168 208 248 298
#     4  11  25  39  49  69 100 131 168 213 257 302
#
# _framework density 21.09515
#
# number of rings (size 3 to 8) (size 9 to 14) (size 15 to 20)
#    0.000    2.467    2.000    0.200    0.000    3.733 
#    0.000    4.000    0.000    0.400    0.000    2.800 
#    0.000    0.000    0.000    7.867    0.000    8.267 
#
# Total GULP energy -334556.258863 kJ/mol
# GULP energy per Si atom -5575.937648 kJ/mol
# Density = 2.104714 g / cm^3
# Si number density = 21.095150 Si / 1000 Ang^3
#
#
#
# Elastic Constant Matrix: (Units=GPa)
#
#
# Indices 1 2 3 4 5 6 
#
# 1 77.5543 -3.7560 11.3977 0.0000 0.0000 0.0000
# 2 -3.7560 63.9310 0.7025 0.0000 0.0000 0.0000
# 3 11.3977 0.7025 136.5228 0.0000 0.0000 0.0000
# 4 0.0000 0.0000 0.0000 11.9057 0.0000 0.0000
# 5 0.0000 0.0000 0.0000 0.0000 1.6206 0.0000
# 6 0.0000 0.0000 0.0000 0.0000 0.0000 13.7290
#
#
#
# Elastic Compliance Matrix: (Units=1/GPa)
#
#
# Indices 1 2 3 4 5 6 
#
# 1 0.013093 0.000781 -0.001097 0.000000 0.000000 0.000000
# 2 0.000781 0.015689 -0.000146 0.000000 0.000000 0.000000
# 3 -0.001097 -0.000146 0.007417 0.000000 0.000000 0.000000
# 4 0.000000 0.000000 0.000000 0.083994 0.000000 0.000000
# 5 0.000000 0.000000 0.000000 0.000000 0.617063 0.000000
# 6 0.000000 0.000000 0.000000 0.000000 0.000000 0.072839
#
#
# Mechanical properties :
#
#
# Convention : Reuss Voigt Hill
#
# Bulk Modulus (GPa) = 28.34775 32.74408 30.54591
# Shear Modulus (GPa) = 6.07697 23.42863 14.75280
#
# Velocity S-wave (km/s) = 1.69912 3.33621 2.64738
# Velocity P-wave (km/s) = 4.16132 5.51327 4.88430
#
# Compressibility (1/GPa) = 0.03527616
#
# Stress axis : x y z
#
# Youngs Moduli (GPa) = 76.37511 63.73747 134.82305
#
# Poissons Ratio (x) = -0.04980 0.14792
# Poissons Ratio (y) = -0.05967 0.01968
# Poissons Ratio (z) = 0.08379 0.00930
#
# Static dielectric constant tensor:
#      x y z
#    x 1.728960 0.000000 0.000000 
#    y 0.000000 1.829070 0.000000 
#    z 0.000000 0.000000 1.807530 
# 
# From -- ./inp_files/31329.got.cif
#   From: 2010.05.17/outbox.cif.g08.bks.cpg/sg47_16_cif.got.tgz:31329.got - 2010.06.03 20:15:42.
