data_PCOD9383085
_publ_section_title
;
Structure prediction by ZEFSAII (Michael W. Deem and Ramdas Pophale) SiO2 
 PCOD9383085
Probable space group: P M M M
;
_chemical_formula_sum "Si O2"
_cell_formula_units_Z 52
_cell_length_a 24.021679
_cell_length_b 14.941772
_cell_length_c 7.494793
_cell_angle_alpha 90.000000
_cell_angle_beta 90.000000
_cell_angle_gamma 90.000000
_cell_volume 2690.079450
_symmetry_space_group_name_H-M "P M M M"
_symmetry_group_IT_number 47
_symmetry_cell_setting 'orthorhombic'
loop_
_space_group_symop_operation_xyz
x,y,z
-x,-y,z
x,-y,-z
-x,y,-z
-x,-y,-z
x,y,-z
-x,y,z
x,-y,z
loop_
_atom_site_type_symbol
_atom_site_label
_atom_site_fract_x
_atom_site_fract_y
_atom_site_fract_z
Si Si1 0.560805 0.292052 0.718223
Si Si2 0.276223 0.900590 0.216419
Si Si3 0.877777 0.602366 0.788692
Si Si4 0.592996 0.901826 0.709014
Si Si5 0.670587 0.602819 0.716304
Si Si6 0.778040 0.278568 0.208857
Si Si7 0.000000 0.398110 0.287673
O O1 0.562785 0.290582 0.500000
O O2 0.500000 0.327006 0.769534
O O3 0.567284 0.189429 0.781339
O O4 0.613489 0.350123 0.776373
O O5 0.340171 0.890941 0.277437
O O6 0.239334 0.818185 0.283275
O O7 0.257089 0.000000 0.269203
O O8 0.277733 0.897276 0.000000
O O9 0.875642 0.500000 0.715907
O O10 0.830296 0.667190 0.713733
O O11 0.940255 0.639910 0.766312
O O12 0.867558 0.594653 0.000000
O O13 0.577912 0.904912 0.500000
O O14 0.578873 0.000000 0.785582
O O15 0.670935 0.603881 0.500000
O O16 0.673909 0.500000 0.774502
O O17 0.723691 0.659110 0.777352
O O18 0.790474 0.263404 0.000000
O O19 0.000000 0.500000 0.214192
O O20 0.000000 0.401937 0.500000
#
# Coordination Sequence:
#
# PCOD9383085 Si02
#       7
#     8   8   8   8   8   8   4
#     4   9  17  29  44  63  87 114 147 187 231 280
#     4   9  17  29  46  68  93 119 146 181 228 276
#     4   9  17  29  45  66  93 125 157 185 216 259
#     4   9  16  27  45  66  86 110 142 183 231 281
#     4  10  20  32  46  65  89 117 151 193 236 274
#     4  10  19  31  49  71  94 122 154 188 227 273
#     4   9  17  29  45  67  96 127 156 186 221 257
#
# _framework density 19.330283999999999
#
# number of rings (size 3 to 8) (size 9 to 14) (size 15 to 20)
#    0.000    2.692    1.538    0.692    0.000    3.077 
#    0.000    4.615    0.000    1.846    0.000    3.769 
#    0.000    4.308    0.000    0.000    0.000    0.000 
#
# Total GULP energy -290037.605757 kJ/mol
# GULP energy per Si atom -5577.646265 kJ/mol
# Density = 1.928629 g / cm^3
# Si number density = 19.330284 Si / 1000 Ang^3
#
#
#
# Elastic Constant Matrix: (Units=GPa)
#
#
# Indices 1 2 3 4 5 6 
#
# 1 131.6860 57.4636 -11.6980 0.0000 0.0000 0.0000
# 2 57.4636 111.5102 -3.4558 0.0000 0.0000 0.0000
# 3 -11.6980 -3.4558 53.0788 0.0000 0.0000 0.0000
# 4 0.0000 0.0000 0.0000 6.6452 0.0000 0.0000
# 5 0.0000 0.0000 0.0000 0.0000 13.2389 0.0000
# 6 0.0000 0.0000 0.0000 0.0000 0.0000 28.6937
#
#
#
# Elastic Compliance Matrix: (Units=1/GPa)
#
#
# Indices 1 2 3 4 5 6 
#
# 1 0.009978 -0.005084 0.001868 0.000000 0.000000 0.000000
# 2 -0.005084 0.011576 -0.000367 0.000000 0.000000 0.000000
# 3 0.001868 -0.000367 0.019228 0.000000 0.000000 0.000000
# 4 0.000000 0.000000 0.000000 0.150486 0.000000 0.000000
# 5 0.000000 0.000000 0.000000 0.000000 0.075535 0.000000
# 6 0.000000 0.000000 0.000000 0.000000 0.000000 0.034851
#
#
# Mechanical properties :
#
#
# Convention : Reuss Voigt Hill
#
# Bulk Modulus (GPa) = 29.74703 42.32162 36.03433
# Shear Modulus (GPa) = 15.62377 26.64656 21.13516
#
# Velocity S-wave (km/s) = 2.84606 3.71683 3.31020
# Velocity P-wave (km/s) = 5.12078 6.35305 5.76990
#
# Compressibility (1/GPa) = 0.03361680
#
# Stress axis : x y z
#
# Youngs Moduli (GPa) = 100.21716 86.38272 52.00819
#
# Poissons Ratio (x) = 0.43918 -0.09716
# Poissons Ratio (y) = 0.50952 0.01908
# Poissons Ratio (z) = -0.18722 0.03168
#
# Static dielectric constant tensor:
#      x y z
#    x 1.666140 0.000000 0.000000 
#    y 0.000000 1.691850 0.000000 
#    z 0.000000 0.000000 1.735960 
# 
# From -- ./inp_files/7592.got.cif
#   From: 2010.05.17/outbox.cif.g08.bks.cpg/sg47_4_cif.got.tgz:7592.got - 2010.06.03 20:15:42.
