data_PCOD9383184
_publ_section_title
;
Structure prediction by ZEFSAII (Michael W. Deem and Ramdas Pophale) SiO2 
 PCOD9383184
Probable space group: P M M M
;
_chemical_formula_sum "Si O2"
_cell_formula_units_Z 64
_cell_length_a 14.690330
_cell_length_b 7.578417
_cell_length_c 29.442233
_cell_angle_alpha 90.000000
_cell_angle_beta 90.000000
_cell_angle_gamma 90.000000
_cell_volume 3277.787507
_symmetry_space_group_name_H-M "P M M M"
_symmetry_group_IT_number 47
_symmetry_cell_setting 'orthorhombic'
loop_
_space_group_symop_operation_xyz
x,y,z
-x,-y,z
x,-y,-z
-x,y,-z
-x,-y,-z
x,y,-z
-x,y,z
x,-y,z
loop_
_atom_site_type_symbol
_atom_site_label
_atom_site_fract_x
_atom_site_fract_y
_atom_site_fract_z
Si Si1 0.602867 0.713269 0.787256
Si Si2 0.103692 0.209625 0.807000
Si Si3 0.104218 0.785019 0.450361
Si Si4 0.247281 0.216375 0.623008
Si Si5 0.730804 0.708136 0.867390
Si Si6 0.398768 0.211964 0.052073
Si Si7 0.232359 0.790591 0.274567
Si Si8 0.605149 0.784939 0.449124
O O1 0.500000 0.778514 0.784602
O O2 0.599477 0.500000 0.789603
O O3 0.656837 0.781031 0.831458
O O4 0.667239 0.763330 0.745691
O O5 0.169522 0.231442 0.850882
O O6 0.160499 0.280409 0.763127
O O7 0.000000 0.278675 0.811125
O O8 0.096297 0.000000 0.800424
O O9 0.138932 0.729908 0.500000
O O10 0.163766 0.727604 0.408483
O O11 0.000000 0.730032 0.446354
O O12 0.105787 0.000000 0.450273
O O13 0.233235 0.279839 0.674272
O O14 0.334954 0.272923 0.593649
O O15 0.250084 0.000000 0.624795
O O16 0.733964 0.500000 0.861376
O O17 0.686225 0.741451 0.916235
O O18 0.500000 0.273600 0.068448
O O19 0.402466 0.000000 0.051221
O O20 0.387983 0.273064 0.000000
O O21 0.214756 0.000000 0.277400
O O22 0.635955 0.729790 0.500000
O O23 0.500000 0.733532 0.444184
O O24 0.608841 0.000000 0.449440
#
# Coordination Sequence:
#
# PCOD9383184 Si02
#       8
#     8   8   8   8   8   8   8   8
#     4   9  18  32  47  63  88 122 154 184 223 272
#     4   9  18  33  50  66  89 123 160 197 240 292
#     4   8  13  20  30  46  70 102 136 164 198 254
#     4   9  15  22  33  50  75 104 132 169 217 262
#     4  10  19  31  50  75  99 124 161 206 244 278
#     4   9  18  32  50  75 109 145 173 195 226 274
#     4   9  18  29  42  65  90 112 145 188 232 276
#     4   8  13  20  29  42  64  98 135 165 201 256
#
# _framework density 19.525366000000002
#
# number of rings (size 3 to 8) (size 9 to 14) (size 15 to 20)
#    0.000    3.125    0.000    2.250    0.000    4.500 
#    0.000    4.375    0.000    0.375    0.000    2.625 
#    0.000    2.000    0.000    8.250    0.000    6.500 
#
# Total GULP energy -356574.245811 kJ/mol
# GULP energy per Si atom -5571.472591 kJ/mol
# Density = 1.948093 g / cm^3
# Si number density = 19.525366 Si / 1000 Ang^3
#
#
#
# Elastic Constant Matrix: (Units=GPa)
#
#
# Indices 1 2 3 4 5 6 
#
# 1 161.8640 5.2327 82.6558 0.0000 0.0000 0.0000
# 2 5.2327 43.6909 1.4417 0.0000 0.0000 0.0000
# 3 82.6558 1.4417 117.9416 0.0000 0.0000 0.0000
# 4 0.0000 0.0000 0.0000 81.1524 0.0000 0.0000
# 5 0.0000 0.0000 0.0000 0.0000 27.2351 0.0000
# 6 0.0000 0.0000 0.0000 0.0000 0.0000 -4.2464
#
#
#
# Elastic Compliance Matrix: (Units=1/GPa)
#
#
# Indices 1 2 3 4 5 6 
#
# 1 0.009659 -0.000934 -0.006758 0.000000 0.000000 0.000000
# 2 -0.000934 0.022988 0.000373 0.000000 0.000000 0.000000
# 3 -0.006758 0.000373 0.013210 0.000000 0.000000 0.000000
# 4 0.000000 0.000000 0.000000 0.012323 0.000000 0.000000
# 5 0.000000 0.000000 0.000000 0.000000 0.036717 0.000000
# 6 0.000000 0.000000 0.000000 0.000000 0.000000 -0.235495
#
#
# Mechanical properties :
#
#
# Convention : Reuss Voigt Hill
#
# Bulk Modulus (GPa) = 32.03028 55.79520 43.91274
# Shear Modulus (GPa) = -43.26965 36.43931 -3.41517
#
# Velocity S-wave (km/s) = -4.71263 4.32470 -1.32397
# Velocity P-wave (km/s) = 3.62929 7.31951 4.49463
#
# Compressibility (1/GPa) = 0.03122045
#
# Stress axis : x y z
#
# Youngs Moduli (GPa) = 103.52901 43.50171 75.69865
#
# Poissons Ratio (x) = 0.04062 0.51156
# Poissons Ratio (y) = 0.09668 -0.02827
# Poissons Ratio (z) = 0.69964 -0.01625
#
# Static dielectric constant tensor:
#      x y z
#    x 1.693900 0.000000 0.000000 
#    y 0.000000 1.741170 0.000000 
#    z 0.000000 0.000000 1.688750 
# 
# From -- ./inp_files/34672.got.cif
#   From: 2010.05.17/outbox.cif.g08.bks.cpg/sg47_18_cif.got.tgz:34672.got - 2010.06.03 20:15:42.
