data_PCOD9383981
_publ_section_title
;
Structure prediction by ZEFSAII (Michael W. Deem and Ramdas Pophale) SiO2 
 PCOD9383981
Probable space group: P M M M
;
_chemical_formula_sum "Si O2"
_cell_formula_units_Z 45
_cell_length_a 19.385422
_cell_length_b 11.617645
_cell_length_c 12.326548
_cell_angle_alpha 90.000000
_cell_angle_beta 90.000000
_cell_angle_gamma 90.000000
_cell_volume 2776.098250
_symmetry_space_group_name_H-M "P M M M"
_symmetry_group_IT_number 47
_symmetry_cell_setting 'orthorhombic'
loop_
_space_group_symop_operation_xyz
x,y,z
-x,-y,z
x,-y,-z
-x,y,-z
-x,-y,-z
x,y,-z
-x,y,z
x,-y,z
loop_
_atom_site_type_symbol
_atom_site_label
_atom_site_fract_x
_atom_site_fract_y
_atom_site_fract_z
Si Si1 0.644255 0.129031 0.000000
Si Si2 0.230271 0.500000 0.872840
Si Si3 0.921388 0.500000 0.783263
Si Si4 0.077081 0.282630 0.624354
Si Si5 0.211909 0.863273 0.624637
Si Si6 0.419501 0.361373 0.622596
Si Si7 0.500000 0.000000 0.000000
Si Si8 0.691664 0.271926 0.789404
O O1 0.667165 0.201184 0.894663
O O2 0.562467 0.099070 0.000000
O O3 0.677219 0.000000 0.000000
O O4 0.147292 0.500000 0.856080
O O5 0.264964 0.614051 0.821588
O O6 0.245752 0.500000 0.000000
O O7 0.916179 0.611877 0.706530
O O8 0.000000 0.500000 0.831167
O O9 0.083635 0.325585 0.500000
O O10 0.136068 0.189469 0.641512
O O11 0.000000 0.233783 0.635960
O O12 0.232437 0.834628 0.500000
O O13 0.261589 0.806658 0.712036
O O14 0.211236 0.000000 0.635017
O O15 0.397968 0.326831 0.500000
O O16 0.500000 0.330924 0.635305
O O17 0.414435 0.500000 0.627502
O O18 0.373258 0.309001 0.716294
#
# Coordination Sequence:
#
# PCOD9383981 Si02
#       8
#     4   4   4   8   8   8   1   8
#     4  10  24  41  63  83 109 145 191 237 281 330
#     4  12  24  38  54  87 115 142 191 240 291 353
#     4  10  19  35  56  78 109 150 190 236 289 343
#     4   9  17  30  51  80 112 146 186 233 285 341
#     4  10  21  35  53  80 113 151 195 236 279 337
#     4   9  19  34  53  81 115 148 179 214 269 340
#     4   8  24  48  60  94  98 148 210 228 286 338
#     4  12  21  38  58  84 114 149 183 237 289 337
#
# _framework density 16.209800000000001
#
# number of rings (size 3 to 8) (size 9 to 14) (size 15 to 20)
#    0.267    1.600    3.556    1.867    1.244    1.600 
#    0.000    1.778    0.000    2.133    0.000    4.978 
#    0.000    5.689    0.000    0.000    0.000    0.000 
#
# Total GULP energy -250532.920969 kJ/mol
# GULP energy per Si atom -5567.398244 kJ/mol
# Density = 1.617291 g / cm^3
# Si number density = 16.209800 Si / 1000 Ang^3
#
#
#
# Elastic Constant Matrix: (Units=GPa)
#
#
# Indices 1 2 3 4 5 6 
#
# 1 107.8227 58.5952 71.6240 0.0000 0.0000 0.0000
# 2 58.5952 92.0398 61.6745 0.0000 0.0000 0.0000
# 3 71.6240 61.6745 119.9283 0.0000 0.0000 0.0000
# 4 0.0000 0.0000 0.0000 28.2805 0.0000 0.0000
# 5 0.0000 0.0000 0.0000 0.0000 21.4145 0.0000
# 6 0.0000 0.0000 0.0000 0.0000 0.0000 17.9285
#
#
#
# Elastic Compliance Matrix: (Units=1/GPa)
#
#
# Indices 1 2 3 4 5 6 
#
# 1 0.017484 -0.006307 -0.007198 0.000000 0.000000 0.000000
# 2 -0.006307 0.018853 -0.005928 0.000000 0.000000 0.000000
# 3 -0.007198 -0.005928 0.015686 0.000000 0.000000 0.000000
# 4 0.000000 0.000000 0.000000 0.035360 0.000000 0.000000
# 5 0.000000 0.000000 0.000000 0.000000 0.046697 0.000000
# 6 0.000000 0.000000 0.000000 0.000000 0.000000 0.055777
#
#
# Mechanical properties :
#
#
# Convention : Reuss Voigt Hill
#
# Bulk Modulus (GPa) = 76.01751 78.17537 77.09644
# Shear Modulus (GPa) = 21.44919 22.05118 21.75018
#
# Velocity S-wave (km/s) = 3.64156 3.69231 3.66702
# Velocity P-wave (km/s) = 8.04233 8.15533 8.09903
#
# Compressibility (1/GPa) = 0.01315486
#
# Stress axis : x y z
#
# Youngs Moduli (GPa) = 57.19652 53.04256 63.75147
#
# Poissons Ratio (x) = 0.33455 0.45889
# Poissons Ratio (y) = 0.36075 0.37795
# Poissons Ratio (z) = 0.41170 0.31446
#
# Static dielectric constant tensor:
#      x y z
#    x 1.541700 0.000000 0.000000 
#    y 0.000000 1.519550 0.000000 
#    z 0.000000 0.000000 1.532410 
# 
# From -- ./inp_files/18462.got.cif
#   From: 2010.05.17/outbox.cif.g08.bks.cpg/sg47_10_cif.got.tgz:18462.got - 2010.06.03 20:15:42.
