data_PCOD9383059
_publ_section_title
;
Structure prediction by ZEFSAII (Michael W. Deem and Ramdas Pophale) SiO2 
 PCOD9383059
Probable space group: P M M M
;
_chemical_formula_sum "Si O2"
_cell_formula_units_Z 52
_cell_length_a 7.600788
_cell_length_b 15.117843
_cell_length_c 24.074503
_cell_angle_alpha 90.000000
_cell_angle_beta 90.000000
_cell_angle_gamma 90.000000
_cell_volume 2766.341427
_symmetry_space_group_name_H-M "P M M M"
_symmetry_group_IT_number 47
_symmetry_cell_setting 'orthorhombic'
loop_
_space_group_symop_operation_xyz
x,y,z
-x,-y,z
x,-y,-z
-x,y,-z
-x,-y,-z
x,y,-z
-x,y,z
x,-y,z
loop_
_atom_site_type_symbol
_atom_site_label
_atom_site_fract_x
_atom_site_fract_y
_atom_site_fract_z
Si Si1 0.709962 0.400069 0.331315
Si Si2 0.789184 0.902657 0.395871
Si Si3 0.797136 0.607500 0.000000
Si Si4 0.710979 0.715691 0.771920
Si Si5 0.787524 0.284756 0.561155
Si Si6 0.787974 0.600906 0.879219
Si Si7 0.288190 0.902937 0.264818
O O1 0.500000 0.406071 0.323458
O O2 0.780555 0.500000 0.331956
O O3 0.780080 0.342295 0.279848
O O4 0.738726 0.349355 0.388909
O O5 0.722549 0.814936 0.426116
O O6 0.753181 0.892196 0.330202
O O7 0.000000 0.904499 0.403716
O O8 0.721345 0.000000 0.412852
O O9 0.719580 0.631126 0.060075
O O10 0.800071 0.500000 0.000000
O O11 0.000000 0.638718 0.000000
O O12 0.500000 0.720665 0.765583
O O13 0.746153 0.665921 0.829190
O O14 0.778044 0.816199 0.766906
O O15 0.727815 0.313462 0.500000
O O16 0.000000 0.281344 0.560596
O O17 0.726270 0.500000 0.867842
O O18 0.000000 0.596385 0.883880
O O19 0.500000 0.905148 0.259661
O O20 0.221004 0.000000 0.247587
#
# Coordination Sequence:
#
# PCOD9383059 Si02
#       7
#     8   8   4   8   8   8   8
#     4  10  21  36  51  67  90 121 155 192 235 279
#     4   9  17  30  49  71  93 116 143 181 231 283
#     4   7  12  26  45  65  94 129 162 194 225 261
#     4  10  19  31  48  71  98 123 150 191 236 275
#     4  10  21  35  50  69  92 118 151 191 233 279
#     4   9  17  29  47  71  98 130 164 193 224 267
#     4   9  17  30  49  70  92 120 151 184 228 279
#
# _framework density 18.797391000000001
#
# number of rings (size 3 to 8) (size 9 to 14) (size 15 to 20)
#    0.000    2.692    1.538    1.385    0.000    3.385 
#    0.000    3.462    0.000    1.385    0.000    3.769 
#    0.000    4.308    0.000    0.000    0.000    0.000 
#
# Total GULP energy -289940.534970 kJ/mol
# GULP energy per Si atom -5575.779519 kJ/mol
# Density = 1.875461 g / cm^3
# Si number density = 18.797391 Si / 1000 Ang^3
#
#
#
# Elastic Constant Matrix: (Units=GPa)
#
#
# Indices 1 2 3 4 5 6 
#
# 1 39.4079 12.3715 -1.6078 0.0000 0.0000 0.0000
# 2 12.3715 139.3535 84.3358 0.0000 0.0000 0.0000
# 3 -1.6078 84.3358 142.2952 0.0000 0.0000 0.0000
# 4 0.0000 0.0000 0.0000 24.4113 0.0000 0.0000
# 5 0.0000 0.0000 0.0000 0.0000 23.5163 0.0000
# 6 0.0000 0.0000 0.0000 0.0000 0.0000 13.2605
#
#
#
# Elastic Compliance Matrix: (Units=1/GPa)
#
#
# Indices 1 2 3 4 5 6 
#
# 1 0.026736 -0.003986 0.002665 0.000000 0.000000 0.000000
# 2 -0.003986 0.011784 -0.007029 0.000000 0.000000 0.000000
# 3 0.002665 -0.007029 0.011224 0.000000 0.000000 0.000000
# 4 0.000000 0.000000 0.000000 0.040965 0.000000 0.000000
# 5 0.000000 0.000000 0.000000 0.000000 0.042524 0.000000
# 6 0.000000 0.000000 0.000000 0.000000 0.000000 0.075412
#
#
# Mechanical properties :
#
#
# Convention : Reuss Voigt Hill
#
# Bulk Modulus (GPa) = 30.26446 56.80619 43.53533
# Shear Modulus (GPa) = 21.15424 27.30142 24.22783
#
# Velocity S-wave (km/s) = 3.35831 3.81518 3.59401
# Velocity P-wave (km/s) = 5.58328 7.04935 6.35871
#
# Compressibility (1/GPa) = 0.03304205
#
# Stress axis : x y z
#
# Youngs Moduli (GPa) = 37.40312 84.86190 89.09654
#
# Poissons Ratio (x) = 0.33827 -0.23741
# Poissons Ratio (y) = 0.14909 0.62627
# Poissons Ratio (z) = -0.09966 0.59650
#
# Static dielectric constant tensor:
#      x y z
#    x 1.740510 0.000000 0.000000 
#    y 0.000000 1.669140 0.000000 
#    z 0.000000 0.000000 1.639950 
# 
# From -- ./inp_files/6969.got.cif
#   From: 2010.05.17/outbox.cif.g08.bks.cpg/sg47_4_cif.got.tgz:6969.got - 2010.06.03 20:15:42.
