data_PCOD9383617
_publ_section_title
;
Structure prediction by ZEFSAII (Michael W. Deem and Ramdas Pophale) SiO2 
 PCOD9383617
Probable space group: P M M M
;
_chemical_formula_sum "Si O2"
_cell_formula_units_Z 48
_cell_length_a 13.913165
_cell_length_b 17.232492
_cell_length_c 10.076272
_cell_angle_alpha 90.000000
_cell_angle_beta 90.000000
_cell_angle_gamma 90.000000
_cell_volume 2415.871906
_symmetry_space_group_name_H-M "P M M M"
_symmetry_group_IT_number 47
_symmetry_cell_setting 'orthorhombic'
loop_
_space_group_symop_operation_xyz
x,y,z
-x,-y,z
x,-y,-z
-x,y,-z
-x,-y,-z
x,y,-z
-x,y,z
x,-y,z
loop_
_atom_site_type_symbol
_atom_site_label
_atom_site_fract_x
_atom_site_fract_y
_atom_site_fract_z
Si Si1 0.109498 0.694173 0.652723
Si Si2 0.617028 0.912641 0.500000
Si Si3 0.688892 0.637017 0.657817
Si Si4 0.385211 0.500000 0.154754
Si Si5 0.110213 0.000000 0.161761
Si Si6 0.616090 0.806511 0.255440
Si Si7 0.616988 0.908642 0.000000
Si Si8 0.116639 0.166155 0.150975
O O1 0.111369 0.721762 0.500000
O O2 0.195002 0.632868 0.664615
O O3 0.135065 0.764358 0.750161
O O4 0.000000 0.667905 0.680925
O O5 0.500000 0.916811 0.500000
O O6 0.644901 0.863140 0.373810
O O7 0.653876 0.000000 0.500000
O O8 0.661725 0.629462 0.500000
O O9 0.646425 0.573650 0.757142
O O10 0.656763 0.721475 0.712276
O O11 0.500000 0.500000 0.147564
O O12 0.349919 0.500000 0.000000
O O13 0.153947 0.917564 0.198533
O O14 0.000000 0.000000 0.210716
O O15 0.106789 0.000000 0.000000
O O16 0.500000 0.798536 0.252889
O O17 0.643809 0.854687 0.124657
O O18 0.500000 0.914709 0.000000
O O19 0.651348 0.000000 0.000000
O O20 0.000000 0.158836 0.145587
O O21 0.147965 0.181773 0.000000
#
# Coordination Sequence:
#
# PCOD9383617 Si02
#       8
#     8   4   8   4   4   8   4   8
#     4   9  19  36  58  83 114 152 197 247 297 346
#     4   9  16  28  50  81 116 154 199 251 300 350
#     4  11  23  41  65  91 123 161 206 247 300 362
#     4  11  27  47  70 101 132 158 185 231 294 363
#     4   7  10  18  37  65  95 131 182 241 298 353
#     4  10  19  32  55  85 117 157 204 248 297 363
#     4   9  18  32  52  81 120 164 203 245 304 364
#     4   8  13  24  45  71  99 138 189 244 300 354
#
# _framework density 19.868603
#
# number of rings (size 3 to 8) (size 9 to 14) (size 15 to 20)
#    0.000    2.667    0.833    2.250    1.167    4.000 
#    0.000    0.833    3.667    5.000    0.000    0.000 
#    0.000    0.000    0.000    0.000    0.000    0.000 
#
# Total GULP energy -267607.705127 kJ/mol
# GULP energy per Si atom -5575.160523 kJ/mol
# Density = 1.982338 g / cm^3
# Si number density = 19.868603 Si / 1000 Ang^3
#
#
#
# Elastic Constant Matrix: (Units=GPa)
#
#
# Indices 1 2 3 4 5 6 
#
# 1 84.9438 38.8256 42.5486 0.0000 0.0000 0.0000
# 2 38.8256 135.4301 84.6498 0.0000 0.0000 0.0000
# 3 42.5486 84.6498 155.7579 0.0000 0.0000 0.0000
# 4 0.0000 0.0000 0.0000 28.6106 0.0000 0.0000
# 5 0.0000 0.0000 0.0000 0.0000 14.7236 0.0000
# 6 0.0000 0.0000 0.0000 0.0000 0.0000 12.4904
#
#
#
# Elastic Compliance Matrix: (Units=1/GPa)
#
#
# Indices 1 2 3 4 5 6 
#
# 1 0.014172 -0.002488 -0.002519 0.000000 0.000000 0.000000
# 2 -0.002488 0.011619 -0.005635 0.000000 0.000000 0.000000
# 3 -0.002519 -0.005635 0.010171 0.000000 0.000000 0.000000
# 4 0.000000 0.000000 0.000000 0.034952 0.000000 0.000000
# 5 0.000000 0.000000 0.000000 0.000000 0.067918 0.000000
# 6 0.000000 0.000000 0.000000 0.000000 0.000000 0.080061
#
#
# Mechanical properties :
#
#
# Convention : Reuss Voigt Hill
#
# Bulk Modulus (GPa) = 68.13307 78.68663 73.40985
# Shear Modulus (GPa) = 20.40230 25.17210 22.78720
#
# Velocity S-wave (km/s) = 3.20794 3.56326 3.39026
# Velocity P-wave (km/s) = 6.93451 7.52453 7.23554
#
# Compressibility (1/GPa) = 0.01467716
#
# Stress axis : x y z
#
# Youngs Moduli (GPa) = 70.56372 86.06292 98.32047
#
# Poissons Ratio (x) = 0.21415 0.24767
# Poissons Ratio (y) = 0.17558 0.55404
# Poissons Ratio (z) = 0.17775 0.48497
#
# Static dielectric constant tensor:
#      x y z
#    x 1.758120 0.000000 0.000000 
#    y 0.000000 1.646900 0.000000 
#    z 0.000000 0.000000 1.749760 
# 
# From -- ./inp_files/6566.got.cif
#   From: 2010.05.17/outbox.cif.g08.bks.cpg/sg47_4_cif.got.tgz:6566.got - 2010.06.03 20:15:42.
