data_PCOD9383769
_publ_section_title
;
Structure prediction by ZEFSAII (Michael W. Deem and Ramdas Pophale) SiO2 
 PCOD9383769
Probable space group: P M M M
;
_chemical_formula_sum "Si O2"
_cell_formula_units_Z 44
_cell_length_a 30.938867
_cell_length_b 10.103374
_cell_length_c 7.920874
_cell_angle_alpha 90.000000
_cell_angle_beta 90.000000
_cell_angle_gamma 90.000000
_cell_volume 2475.961801
_symmetry_space_group_name_H-M "P M M M"
_symmetry_group_IT_number 47
_symmetry_cell_setting 'orthorhombic'
loop_
_space_group_symop_operation_xyz
x,y,z
-x,-y,z
x,-y,-z
-x,y,-z
-x,-y,-z
x,y,-z
-x,y,z
x,-y,z
loop_
_atom_site_type_symbol
_atom_site_label
_atom_site_fract_x
_atom_site_fract_y
_atom_site_fract_z
Si Si1 0.080833 0.157694 0.298662
Si Si2 0.450416 0.500000 0.702288
Si Si3 0.450226 0.000000 0.296669
Si Si4 0.695685 0.157678 0.688272
Si Si5 0.605829 0.249832 0.195157
Si Si6 0.853681 0.159244 0.000000
Si Si7 0.755576 0.838885 0.000000
Si Si8 0.000000 0.653625 0.296030
O O1 0.090534 0.173394 0.500000
O O2 0.119664 0.191147 0.170241
O O3 0.041678 0.256658 0.252823
O O4 0.069861 0.000000 0.275474
O O5 0.500000 0.500000 0.765695
O O6 0.452444 0.500000 0.500000
O O7 0.423125 0.374742 0.760378
O O8 0.424660 0.125887 0.231635
O O9 0.500000 0.000000 0.241932
O O10 0.449369 0.000000 0.500000
O O11 0.713636 0.174181 0.500000
O O12 0.650291 0.232914 0.704054
O O13 0.686333 0.000000 0.712078
O O14 0.728788 0.199361 0.833529
O O15 0.618332 0.252045 0.000000
O O16 0.804717 0.211047 0.000000
O O17 0.850559 0.000000 0.000000
O O18 0.756946 0.000000 0.000000
O O19 0.000000 0.500000 0.233837
O O20 0.000000 0.645486 0.500000
#
# Coordination Sequence:
#
# PCOD9383769 Si02
#       8
#     8   4   4   8   8   4   4   4
#     4   9  17  30  49  73 106 145 182 223 270 317
#     4  11  25  43  59  79 111 149 185 222 269 327
#     4  11  23  37  55  81 113 149 187 224 265 321
#     4  10  19  33  55  83 112 141 176 222 275 327
#     4  12  23  37  58  83 112 144 184 225 270 328
#     4   9  18  31  48  75 108 139 177 225 277 332
#     4   9  18  32  51  79 111 138 172 224 282 329
#     4   9  17  30  49  76 107 145 190 227 263 312
#
# _framework density 17.770872000000001
#
# number of rings (size 3 to 8) (size 9 to 14) (size 15 to 20)
#    0.000    1.909    1.818    3.000    0.000    5.818 
#    0.000    5.909    0.000    0.000    4.727    0.000 
#    0.000    0.000    0.000    0.000    0.000    0.000 
#
# Total GULP energy -245424.719335 kJ/mol
# GULP energy per Si atom -5577.834530 kJ/mol
# Density = 1.773042 g / cm^3
# Si number density = 17.770872 Si / 1000 Ang^3
#
#
#
# Elastic Constant Matrix: (Units=GPa)
#
#
# Indices 1 2 3 4 5 6 
#
# 1 154.0584 51.0130 61.9960 0.0000 0.0000 0.0000
# 2 51.0130 93.5632 25.7487 0.0000 0.0000 0.0000
# 3 61.9960 25.7487 104.0891 0.0000 0.0000 0.0000
# 4 0.0000 0.0000 0.0000 22.5721 0.0000 0.0000
# 5 0.0000 0.0000 0.0000 0.0000 345.0935 0.0000
# 6 0.0000 0.0000 0.0000 0.0000 0.0000 14.5691
#
#
#
# Elastic Compliance Matrix: (Units=1/GPa)
#
#
# Indices 1 2 3 4 5 6 
#
# 1 0.009753 -0.003991 -0.004822 0.000000 0.000000 0.000000
# 2 -0.003991 0.013102 -0.000864 0.000000 0.000000 0.000000
# 3 -0.004822 -0.000864 0.012693 0.000000 0.000000 0.000000
# 4 0.000000 0.000000 0.000000 0.044302 0.000000 0.000000
# 5 0.000000 0.000000 0.000000 0.000000 0.002898 0.000000
# 6 0.000000 0.000000 0.000000 0.000000 0.000000 0.068639
#
#
# Mechanical properties :
#
#
# Convention : Reuss Voigt Hill
#
# Bulk Modulus (GPa) = 61.75005 69.91399 65.83202
# Shear Modulus (GPa) = 28.38709 90.64381 59.51545
#
# Velocity S-wave (km/s) = 4.00108 7.14966 5.79337
# Velocity P-wave (km/s) = 7.49454 10.37228 9.04855
#
# Compressibility (1/GPa) = 0.01619432
#
# Stress axis : x y z
#
# Youngs Moduli (GPa) = 102.53536 76.32709 78.78537
#
# Poissons Ratio (x) = 0.30458 0.37987
# Poissons Ratio (y) = 0.40917 0.06808
# Poissons Ratio (z) = 0.49439 0.06596
#
# Static dielectric constant tensor:
#      x y z
#    x 1.588510 0.000000 0.000000 
#    y 0.000000 1.589550 0.000000 
#    z 0.000000 0.000000 1.629270 
# 
# From -- ./inp_files/13786.got.cif
#   From: 2010.05.17/outbox.cif.g08.bks.cpg/sg47_7_cif.got.tgz:13786.got - 2010.06.03 20:15:42.
