data_PCOD9383846
_publ_section_title
;
Structure prediction by ZEFSAII (Michael W. Deem and Ramdas Pophale) SiO2 
 PCOD9383846
Probable space group: P M M M
;
_chemical_formula_sum "Si O2"
_cell_formula_units_Z 60
_cell_length_a 22.193868
_cell_length_b 11.171083
_cell_length_c 13.466312
_cell_angle_alpha 90.000000
_cell_angle_beta 90.000000
_cell_angle_gamma 90.000000
_cell_volume 3338.696560
_symmetry_space_group_name_H-M "P M M M"
_symmetry_group_IT_number 47
_symmetry_cell_setting 'orthorhombic'
loop_
_space_group_symop_operation_xyz
x,y,z
-x,-y,z
x,-y,-z
-x,y,-z
-x,-y,-z
x,y,-z
-x,y,z
x,-y,z
loop_
_atom_site_type_symbol
_atom_site_label
_atom_site_fract_x
_atom_site_fract_y
_atom_site_fract_z
Si Si1 0.350368 0.640135 0.613617
Si Si2 0.256634 0.791303 0.739330
Si Si3 0.641721 0.132580 0.114857
Si Si4 0.825439 0.361102 0.113342
Si Si5 0.571742 0.637498 0.803764
Si Si6 0.928501 0.754048 0.222600
Si Si7 0.072779 0.000000 0.888369
Si Si8 0.856312 0.864201 0.615029
O O1 0.363118 0.675882 0.500000
O O2 0.333574 0.500000 0.613282
O O3 0.296745 0.715469 0.662383
O O4 0.406246 0.651384 0.689639
O O5 0.302992 0.863364 0.808067
O O6 0.220662 0.707445 0.816073
O O7 0.205842 0.858819 0.676389
O O8 0.602174 0.251150 0.138693
O O9 0.611984 0.000000 0.125902
O O10 0.661598 0.141339 0.000000
O O11 0.809576 0.500000 0.112069
O O12 0.891300 0.343439 0.161703
O O13 0.825047 0.315941 0.000000
O O14 0.500000 0.644577 0.812403
O O15 0.589911 0.500000 0.834381
O O16 0.902151 0.772733 0.332511
O O17 0.000000 0.738116 0.220439
O O18 0.911122 0.879496 0.168674
O O19 0.000000 0.000000 0.893556
O O20 0.097050 0.000000 0.000000
O O21 0.845871 0.835448 0.500000
O O22 0.880755 0.000000 0.620275
#
# Coordination Sequence:
#
# PCOD9383846 Si02
#       8
#     8   8   8   8   8   8   4   8
#     4   9  17  30  51  78 105 136 177 223 266 308
#     4  10  19  34  53  75 104 138 172 214 263 315
#     4  10  21  36  55  80 109 143 182 223 268 317
#     4  10  21  35  52  76 104 136 172 210 256 311
#     4   9  19  35  54  79 111 146 184 224 266 314
#     4  10  20  34  51  72 100 131 167 211 258 308
#     4   9  16  28  47  69  93 123 160 200 244 295
#     4  10  20  33  51  75 101 130 167 212 262 315
#
# _framework density 17.971084999999999
#
# number of rings (size 3 to 8) (size 9 to 14) (size 15 to 20)
#    0.000    2.333    0.667    2.000    0.000    2.933 
#    0.000    4.000    0.000    7.200    0.000    7.467 
#    0.000    0.000    0.000    0.000    0.000    0.000 
#
# Total GULP energy -334321.737831 kJ/mol
# GULP energy per Si atom -5572.028964 kJ/mol
# Density = 1.793018 g / cm^3
# Si number density = 17.971085 Si / 1000 Ang^3
#
#
#
# Elastic Constant Matrix: (Units=GPa)
#
#
# Indices 1 2 3 4 5 6 
#
# 1 38.6625 16.4530 4.6893 0.0000 0.0000 0.0000
# 2 16.4530 73.9610 34.4699 0.0000 0.0000 0.0000
# 3 4.6893 34.4699 110.8098 0.0000 0.0000 0.0000
# 4 0.0000 0.0000 0.0000 22.4009 0.0000 0.0000
# 5 0.0000 0.0000 0.0000 0.0000 11.3140 0.0000
# 6 0.0000 0.0000 0.0000 0.0000 0.0000 15.7115
#
#
#
# Elastic Compliance Matrix: (Units=1/GPa)
#
#
# Indices 1 2 3 4 5 6 
#
# 1 0.028646 -0.006792 0.000901 0.000000 0.000000 0.000000
# 2 -0.006792 0.017424 -0.005133 0.000000 0.000000 0.000000
# 3 0.000901 -0.005133 0.010583 0.000000 0.000000 0.000000
# 4 0.000000 0.000000 0.000000 0.044641 0.000000 0.000000
# 5 0.000000 0.000000 0.000000 0.000000 0.088386 0.000000
# 6 0.000000 0.000000 0.000000 0.000000 0.000000 0.063648
#
#
# Mechanical properties :
#
#
# Convention : Reuss Voigt Hill
#
# Bulk Modulus (GPa) = 28.89811 37.18421 33.04116
# Shear Modulus (GPa) = 17.42701 21.07334 19.25017
#
# Velocity S-wave (km/s) = 3.11742 3.42808 3.27643
# Velocity P-wave (km/s) = 5.39194 6.03365 5.72180
#
# Compressibility (1/GPa) = 0.03460433
#
# Stress axis : x y z
#
# Youngs Moduli (GPa) = 34.90881 57.39323 94.49146
#
# Poissons Ratio (x) = 0.38983 -0.08510
# Poissons Ratio (y) = 0.23711 0.48499
# Poissons Ratio (z) = -0.03144 0.29458
#
# Static dielectric constant tensor:
#      x y z
#    x 1.599400 0.000000 0.000000 
#    y 0.000000 1.596400 0.000000 
#    z 0.000000 0.000000 1.617300 
# 
# From -- ./inp_files/19209.got.cif
#   From: 2010.05.17/outbox.cif.g08.bks.cpg/sg47_10_cif.got.tgz:19209.got - 2010.06.03 20:15:42.
