data_PCOD9383703
_publ_section_title
;
Structure prediction by ZEFSAII (Michael W. Deem and Ramdas Pophale) SiO2 
 PCOD9383703
Probable space group: P M M M
;
_chemical_formula_sum "Si O2"
_cell_formula_units_Z 40
_cell_length_a 8.096412
_cell_length_b 28.135621
_cell_length_c 9.250347
_cell_angle_alpha 90.000000
_cell_angle_beta 90.000000
_cell_angle_gamma 90.000000
_cell_volume 2107.206656
_symmetry_space_group_name_H-M "P M M M"
_symmetry_group_IT_number 47
_symmetry_cell_setting 'orthorhombic'
loop_
_space_group_symop_operation_xyz
x,y,z
-x,-y,z
x,-y,-z
-x,y,-z
-x,-y,-z
x,y,-z
-x,y,z
x,-y,z
loop_
_atom_site_type_symbol
_atom_site_label
_atom_site_fract_x
_atom_site_fract_y
_atom_site_fract_z
Si Si1 0.317000 0.384780 0.323846
Si Si2 0.697571 0.811032 0.165546
Si Si3 0.195287 0.717620 0.332593
Si Si4 0.000000 0.445103 0.676641
Si Si5 0.199859 0.905473 0.665864
Si Si6 0.202002 0.000000 0.166496
O O1 0.312951 0.384977 0.500000
O O2 0.500000 0.400557 0.278829
O O3 0.286358 0.330028 0.281288
O O4 0.165177 0.417534 0.275662
O O5 0.500000 0.807064 0.165933
O O6 0.768571 0.763874 0.239311
O O7 0.746580 0.857711 0.254251
O O8 0.755332 0.815392 0.000000
O O9 0.243340 0.726926 0.500000
O O10 0.000000 0.707236 0.331240
O O11 0.000000 0.500000 0.721093
O O12 0.000000 0.444233 0.500000
O O13 0.257115 0.906093 0.500000
O O14 0.256086 0.952424 0.751144
O O15 0.000000 0.906351 0.664305
O O16 0.000000 0.000000 0.167314
O O17 0.255214 0.000000 0.000000
#
# Coordination Sequence:
#
# PCOD9383703 Si02
#       6
#     8   8   8   4   8   4
#     4   9  16  27  44  67  98 137 179 224 274 326
#     4  11  24  38  51  73 106 139 173 217 268 323
#     4  10  19  33  54  77 101 133 176 222 268 326
#     4   9  16  26  40  64 101 141 183 228 271 324
#     4  10  20  35  56  81 106 135 175 220 265 319
#     4   9  17  31  54  81 108 139 174 216 268 321
#
# _framework density 18.982476999999999
#
# number of rings (size 3 to 8) (size 9 to 14) (size 15 to 20)
#    0.000    2.200    1.000    2.700    0.000    8.000 
#    0.000    2.500    0.000    3.000    0.000    0.000 
#    0.000    1.600    0.000    4.200    0.000    4.000 
#
# Total GULP energy -223323.316329 kJ/mol
# GULP energy per Si atom -5583.082908 kJ/mol
# Density = 1.893927 g / cm^3
# Si number density = 18.982477 Si / 1000 Ang^3
#
#
#
# Elastic Constant Matrix: (Units=GPa)
#
#
# Indices 1 2 3 4 5 6 
#
# 1 82.0943 56.5056 25.2884 0.0000 0.0000 0.0000
# 2 56.5056 154.4565 54.2481 0.0000 0.0000 0.0000
# 3 25.2884 54.2481 91.7359 0.0000 0.0000 0.0000
# 4 0.0000 0.0000 0.0000 -19.0532 0.0000 0.0000
# 5 0.0000 0.0000 0.0000 0.0000 15.2238 0.0000
# 6 0.0000 0.0000 0.0000 0.0000 0.0000 -4.7492
#
#
#
# Elastic Compliance Matrix: (Units=1/GPa)
#
#
# Indices 1 2 3 4 5 6 
#
# 1 0.016389 -0.005565 -0.001227 0.000000 0.000000 0.000000
# 2 -0.005565 0.010061 -0.004416 0.000000 0.000000 0.000000
# 3 -0.001227 -0.004416 0.013850 0.000000 0.000000 0.000000
# 4 0.000000 0.000000 0.000000 -0.052485 0.000000 0.000000
# 5 0.000000 0.000000 0.000000 0.000000 0.065687 0.000000
# 6 0.000000 0.000000 0.000000 0.000000 0.000000 -0.210562
#
#
# Mechanical properties :
#
#
# Convention : Reuss Voigt Hill
#
# Bulk Modulus (GPa) = 55.91119 66.70788 61.30953
# Shear Modulus (GPa) = -38.85529 11.10058 -13.87736
#
# Velocity S-wave (km/s) = -4.52918 2.42085 -2.70675
# Velocity P-wave (km/s) = 1.47199 6.55989 4.75389
#
# Compressibility (1/GPa) = 0.01788551
#
# Stress axis : x y z
#
# Youngs Moduli (GPa) = 61.01497 99.39446 72.20068
#
# Poissons Ratio (x) = 0.55311 0.08861
# Poissons Ratio (y) = 0.33954 0.31880
# Poissons Ratio (z) = 0.07488 0.43888
#
# Static dielectric constant tensor:
#      x y z
#    x 1.681510 0.000000 0.000000 
#    y 0.000000 1.620790 0.000000 
#    z 0.000000 0.000000 1.637440 
# 
# From -- ./inp_files/1865.got.cif
#   From: 2010.05.17/outbox.cif.g08.bks.cpg/sg47_1_cif.got.tgz:1865.got - 2010.06.03 20:15:42.
