data_PCOD9383071
_publ_section_title
;
Structure prediction by ZEFSAII (Michael W. Deem and Ramdas Pophale) SiO2 
 PCOD9383071
Probable space group: P M M M
;
_chemical_formula_sum "Si O2"
_cell_formula_units_Z 64
_cell_length_a 18.609712
_cell_length_b 21.120836
_cell_length_c 7.599631
_cell_angle_alpha 90.000000
_cell_angle_beta 90.000000
_cell_angle_gamma 90.000000
_cell_volume 2987.055295
_symmetry_space_group_name_H-M "P M M M"
_symmetry_group_IT_number 47
_symmetry_cell_setting 'orthorhombic'
loop_
_space_group_symop_operation_xyz
x,y,z
-x,-y,z
x,-y,-z
-x,y,-z
-x,-y,-z
x,y,-z
-x,y,z
x,-y,z
loop_
_atom_site_type_symbol
_atom_site_label
_atom_site_fract_x
_atom_site_fract_y
_atom_site_fract_z
Si Si1 0.631548 0.431630 0.210666
Si Si2 0.368975 0.707667 0.708022
Si Si3 0.203249 0.705323 0.716065
Si Si4 0.199473 0.567664 0.705998
Si Si5 0.703968 0.071787 0.214099
Si Si6 0.131545 0.929339 0.212854
Si Si7 0.422674 0.158637 0.794350
Si Si8 0.077503 0.794603 0.292441
O O1 0.599647 0.500000 0.267518
O O2 0.601080 0.363087 0.260449
O O3 0.713521 0.430796 0.280925
O O4 0.634450 0.432500 0.000000
O O5 0.367370 0.717120 0.500000
O O6 0.286089 0.712340 0.774392
O O7 0.412030 0.766159 0.784825
O O8 0.205855 0.705082 0.500000
O O9 0.176251 0.635843 0.775635
O O10 0.148041 0.758787 0.777536
O O11 0.180387 0.566570 0.500000
O O12 0.176499 0.500000 0.784580
O O13 0.785962 0.081578 0.272744
O O14 0.646589 0.122545 0.280400
O O15 0.682565 0.000000 0.260319
O O16 0.706886 0.074951 0.000000
O O17 0.086282 0.869687 0.272371
O O18 0.109286 0.000000 0.270063
O O19 0.130732 0.929582 0.000000
O O20 0.500000 0.141530 0.715688
O O21 0.424775 0.140914 0.000000
O O22 0.076334 0.780103 0.500000
O O23 0.000000 0.774992 0.217812
#
# Coordination Sequence:
#
# PCOD9383071 Si02
#       8
#     8   8   8   8   8   8   8   8
#     4   9  16  26  43  69  98 122 148 191 243 286
#     4  10  19  31  49  69  92 126 163 197 232 276
#     4   8  15  28  45  66  90 118 155 194 230 268
#     4   8  13  23  41  64  90 120 153 189 229 274
#     4   8  15  30  52  76  99 123 154 191 231 277
#     4   9  18  33  52  71  91 117 150 190 232 273
#     4  10  20  32  48  72 100 127 155 191 233 275
#     4  10  20  32  46  65  92 125 157 192 234 278
#
# _framework density 21.425782000000002
#
# number of rings (size 3 to 8) (size 9 to 14) (size 15 to 20)
#    0.000    3.000    0.000    3.000    0.000    2.000 
#    0.000    5.000    0.000    1.875    0.000    6.125 
#    0.000    0.000    0.000   32.625    0.000   30.250 
#
# Total GULP energy -356708.656822 kJ/mol
# GULP energy per Si atom -5573.572763 kJ/mol
# Density = 2.137702 g / cm^3
# Si number density = 21.425782 Si / 1000 Ang^3
#
#
#
# Elastic Constant Matrix: (Units=GPa)
#
#
# Indices 1 2 3 4 5 6 
#
# 1 41.3921 18.1654 0.5061 0.0000 0.0000 0.0000
# 2 18.1654 78.2045 -12.4187 0.0000 0.0000 0.0000
# 3 0.5061 -12.4187 47.4266 0.0000 0.0000 0.0000
# 4 0.0000 0.0000 0.0000 -52.2370 0.0000 0.0000
# 5 0.0000 0.0000 0.0000 0.0000 -0.3038 0.0000
# 6 0.0000 0.0000 0.0000 0.0000 0.0000 -12.2974
#
#
#
# Elastic Compliance Matrix: (Units=1/GPa)
#
#
# Indices 1 2 3 4 5 6 
#
# 1 0.027086 -0.006612 -0.002021 0.000000 0.000000 0.000000
# 2 -0.006612 0.014956 0.003987 0.000000 0.000000 0.000000
# 3 -0.002021 0.003987 0.022151 0.000000 0.000000 0.000000
# 4 0.000000 0.000000 0.000000 -0.019144 0.000000 0.000000
# 5 0.000000 0.000000 0.000000 0.000000 -3.291428 0.000000
# 6 0.000000 0.000000 0.000000 0.000000 0.000000 -0.081318
#
#
# Mechanical properties :
#
#
# Convention : Reuss Voigt Hill
#
# Bulk Modulus (GPa) = 18.21480 19.94766 19.08123
# Shear Modulus (GPa) = -1.51510 -2.24962 -1.88236
#
# Velocity S-wave (km/s) = -0.84183 -1.02579 -0.93833
# Velocity P-wave (km/s) = 2.75225 2.81555 2.78408
#
# Compressibility (1/GPa) = 0.05490040
#
# Stress axis : x y z
#
# Youngs Moduli (GPa) = 36.91965 66.86275 45.14524
#
# Poissons Ratio (x) = 0.44212 0.09122
# Poissons Ratio (y) = 0.24413 -0.17999
# Poissons Ratio (z) = 0.07460 -0.26657
#
# Static dielectric constant tensor:
#      x y z
#    x 1.771100 0.000000 0.000000 
#    y 0.000000 1.808740 0.000000 
#    z 0.000000 0.000000 1.801440 
# 
# From -- ./inp_files/10052.got.cif
#   From: 2010.05.17/outbox.cif.g08.bks.cpg/sg47_6_cif.got.tgz:10052.got - 2010.06.03 20:15:42.
