data_PCOD9383031
_publ_section_title
;
Structure prediction by ZEFSAII (Michael W. Deem and Ramdas Pophale) SiO2 
 PCOD9383031
Probable space group: P M M M
;
_chemical_formula_sum "Si O2"
_cell_formula_units_Z 64
_cell_length_a 7.622333
_cell_length_b 18.447229
_cell_length_c 22.071779
_cell_angle_alpha 90.000000
_cell_angle_beta 90.000000
_cell_angle_gamma 90.000000
_cell_volume 3103.533203
_symmetry_space_group_name_H-M "P M M M"
_symmetry_group_IT_number 47
_symmetry_cell_setting 'orthorhombic'
loop_
_space_group_symop_operation_xyz
x,y,z
-x,-y,z
x,-y,-z
-x,y,-z
-x,-y,-z
x,y,-z
-x,y,z
x,-y,z
loop_
_atom_site_type_symbol
_atom_site_label
_atom_site_fract_x
_atom_site_fract_y
_atom_site_fract_z
Si Si1 0.289886 0.412502 0.934416
Si Si2 0.710008 0.087515 0.064721
Si Si3 0.286208 0.915329 0.566771
Si Si4 0.700444 0.161492 0.685201
Si Si5 0.287614 0.416198 0.801983
Si Si6 0.712070 0.416226 0.567854
Si Si7 0.714732 0.084773 0.195731
Si Si8 0.199335 0.321835 0.684729
O O1 0.500000 0.399367 0.935287
O O2 0.267216 0.500000 0.933658
O O3 0.225278 0.387918 0.868161
O O4 0.220339 0.386453 0.000000
O O5 0.500000 0.100736 0.063759
O O6 0.777464 0.112564 0.129941
O O7 0.731493 0.000000 0.065432
O O8 0.781269 0.114240 0.000000
O O9 0.224398 0.892275 0.500000
O O10 0.500000 0.910638 0.565057
O O11 0.220243 0.868768 0.623076
O O12 0.242930 0.000000 0.575346
O O13 0.500000 0.133493 0.685386
O O14 0.778676 0.130315 0.747134
O O15 0.694540 0.247742 0.685124
O O16 0.500000 0.416867 0.804019
O O17 0.230323 0.500000 0.794758
O O18 0.235180 0.369988 0.743974
O O19 0.768451 0.392957 0.500000
O O20 0.500000 0.415625 0.568096
O O21 0.767635 0.500000 0.576268
O O22 0.770757 0.367799 0.623814
O O23 0.500000 0.087692 0.193179
O O24 0.760727 0.000000 0.203007
O O25 0.000000 0.297660 0.686300
#
# Coordination Sequence:
#
# PCOD9383031 Si02
#       8
#     8   8   8   8   8   8   8   8
#     4   7  10  19  40  72 102 121 144 189 248 299
#     4   7   9  14  27  52  87 118 139 172 234 301
#     4   8  14  26  47  75  99 115 140 185 237 285
#     4  10  19  31  48  68  92 125 162 199 238 280
#     4   9  17  31  53  77  99 126 162 204 248 295
#     4   9  19  38  63  85 101 120 152 196 244 294
#     4   8  13  22  40  66  90 114 151 198 243 286
#     4  12  25  36  47  68 102 140 172 203 238 280
#
# _framework density 20.621659999999999
#
# number of rings (size 3 to 8) (size 9 to 14) (size 15 to 20)
#    0.000    3.250    0.000    4.875    0.000    4.250 
#    0.000    1.875    0.000    2.625    0.000    6.125 
#    0.000    0.000    0.000    3.125    0.000    2.500 
#
# Total GULP energy -356493.346140 kJ/mol
# GULP energy per Si atom -5570.208533 kJ/mol
# Density = 2.057472 g / cm^3
# Si number density = 20.621660 Si / 1000 Ang^3
#
#
#
# Elastic Constant Matrix: (Units=GPa)
#
#
# Indices 1 2 3 4 5 6 
#
# 1 43.5689 -4.4783 7.2933 0.0000 0.0000 0.0000
# 2 -4.4783 47.6769 79.9618 0.0000 0.0000 0.0000
# 3 7.2933 79.9618 257.6561 0.0000 0.0000 0.0000
# 4 0.0000 0.0000 0.0000 -8.8798 0.0000 0.0000
# 5 0.0000 0.0000 0.0000 0.0000 -54.3007 0.0000
# 6 0.0000 0.0000 0.0000 0.0000 0.0000 194.0886
#
#
#
# Elastic Compliance Matrix: (Units=1/GPa)
#
#
# Indices 1 2 3 4 5 6 
#
# 1 0.024170 0.007128 -0.002896 0.000000 0.000000 0.000000
# 2 0.007128 0.045844 -0.014429 0.000000 0.000000 0.000000
# 3 -0.002896 -0.014429 0.008441 0.000000 0.000000 0.000000
# 4 0.000000 0.000000 0.000000 -0.112616 0.000000 0.000000
# 5 0.000000 0.000000 0.000000 0.000000 -0.018416 0.000000
# 6 0.000000 0.000000 0.000000 0.000000 0.000000 0.005152
#
#
# Mechanical properties :
#
#
# Convention : Reuss Voigt Hill
#
# Bulk Modulus (GPa) = 17.22379 57.16171 37.19275
# Shear Modulus (GPa) = -651.37971 43.92330 -303.72820
#
# Velocity S-wave (km/s) = -17.79206 4.62016 -12.14931
# Velocity P-wave (km/s) = 20.33977 7.49937 13.36910
#
# Compressibility (1/GPa) = 0.05805924
#
# Stress axis : x y z
#
# Youngs Moduli (GPa) = 41.37436 21.81309 118.46787
#
# Poissons Ratio (x) = -0.15547 0.34310
# Poissons Ratio (y) = -0.29490 1.70939
# Poissons Ratio (z) = 0.11983 0.31474
#
# Static dielectric constant tensor:
#      x y z
#    x 1.772600 0.000000 0.000000 
#    y 0.000000 1.677430 0.000000 
#    z 0.000000 0.000000 1.797380 
# 
# From -- ./inp_files/29961.got.cif
#   From: 2010.05.17/outbox.cif.g08.bks.cpg/sg47_15_cif.got.tgz:29961.got - 2010.06.03 20:15:42.
