data_PCOD9383963
_publ_section_title
;
Structure prediction by ZEFSAII (Michael W. Deem and Ramdas Pophale) SiO2 
 PCOD9383963
Probable space group: P M M M
;
_chemical_formula_sum "Si O2"
_cell_formula_units_Z 56
_cell_length_a 15.318026
_cell_length_b 10.094711
_cell_length_c 20.530937
_cell_angle_alpha 90.000000
_cell_angle_beta 90.000000
_cell_angle_gamma 90.000000
_cell_volume 3174.720255
_symmetry_space_group_name_H-M "P M M M"
_symmetry_group_IT_number 47
_symmetry_cell_setting 'orthorhombic'
loop_
_space_group_symop_operation_xyz
x,y,z
-x,-y,z
x,-y,-z
-x,y,-z
-x,-y,-z
x,y,-z
-x,y,z
x,-y,z
loop_
_atom_site_type_symbol
_atom_site_label
_atom_site_fract_x
_atom_site_fract_y
_atom_site_fract_z
Si Si1 0.000000 0.648980 0.078779
Si Si2 0.603010 0.352516 0.244512
Si Si3 0.351490 0.354110 0.394306
Si Si4 0.500000 0.146057 0.576279
Si Si5 0.256531 0.150959 0.203538
Si Si6 0.849612 0.148826 0.075691
Si Si7 0.900384 0.157911 0.304528
Si Si8 0.148178 0.344366 0.425055
O O1 0.083321 0.737074 0.095182
O O2 0.000000 0.500000 0.105134
O O3 0.000000 0.640669 0.000000
O O4 0.500000 0.321420 0.250392
O O5 0.610224 0.500000 0.215364
O O6 0.644583 0.359252 0.316372
O O7 0.660613 0.244383 0.209427
O O8 0.382496 0.500000 0.417694
O O9 0.415396 0.234524 0.410031
O O10 0.253641 0.334903 0.419472
O O11 0.500000 0.127409 0.500000
O O12 0.500000 0.000000 0.608316
O O13 0.225140 0.152603 0.129106
O O14 0.174970 0.189647 0.251188
O O15 0.278891 0.000000 0.221909
O O16 0.889263 0.000000 0.079778
O O17 0.823819 0.167309 0.000000
O O18 0.888159 0.247339 0.369245
O O19 0.000000 0.178118 0.279723
O O20 0.891967 0.000000 0.319421
O O21 0.122637 0.312728 0.500000
O O22 0.125671 0.500000 0.413014
#
# Coordination Sequence:
#
# PCOD9383963 Si02
#       8
#     4   8   8   4   8   8   8   8
#     4   9  17  29  47  77 115 149 184 223 264 315
#     4  10  20  36  58  82 108 139 177 222 274 333
#     4  10  19  35  55  74 100 136 174 216 271 332
#     4  11  23  33  45  73 107 135 168 213 266 325
#     4  10  21  36  58  84 111 145 183 227 273 321
#     4   9  18  33  54  80 112 151 190 225 270 328
#     4  10  22  38  55  78 110 146 182 224 274 325
#     4  10  21  37  57  78 101 135 182 232 274 318
#
# _framework density 17.639348999999999
#
# number of rings (size 3 to 8) (size 9 to 14) (size 15 to 20)
#    0.000    2.143    2.143    0.857    1.000    4.857 
#    0.000    1.429    0.000    0.429    0.000    3.000 
#    0.000    0.000    0.000    0.000    0.000    0.000 
#
# Total GULP energy -312006.713605 kJ/mol
# GULP energy per Si atom -5571.548457 kJ/mol
# Density = 1.759920 g / cm^3
# Si number density = 17.639349 Si / 1000 Ang^3
#
#
#
# Elastic Constant Matrix: (Units=GPa)
#
#
# Indices 1 2 3 4 5 6 
#
# 1 58.9755 34.2808 19.7317 0.0000 0.0000 0.0000
# 2 34.2808 91.6243 30.2715 0.0000 0.0000 0.0000
# 3 19.7317 30.2715 65.6263 0.0000 0.0000 0.0000
# 4 0.0000 0.0000 0.0000 17.1856 0.0000 0.0000
# 5 0.0000 0.0000 0.0000 0.0000 18.5416 0.0000
# 6 0.0000 0.0000 0.0000 0.0000 0.0000 35.1288
#
#
#
# Elastic Compliance Matrix: (Units=1/GPa)
#
#
# Indices 1 2 3 4 5 6 
#
# 1 0.022282 -0.007224 -0.003367 0.000000 0.000000 0.000000
# 2 -0.007224 0.015219 -0.004848 0.000000 0.000000 0.000000
# 3 -0.003367 -0.004848 0.018486 0.000000 0.000000 0.000000
# 4 0.000000 0.000000 0.000000 0.058188 0.000000 0.000000
# 5 0.000000 0.000000 0.000000 0.000000 0.053933 0.000000
# 6 0.000000 0.000000 0.000000 0.000000 0.000000 0.028467
#
#
# Mechanical properties :
#
#
# Convention : Reuss Voigt Hill
#
# Bulk Modulus (GPa) = 39.82702 42.75490 41.29096
# Shear Modulus (GPa) = 21.20236 22.96734 22.08485
#
# Velocity S-wave (km/s) = 3.47074 3.61231 3.54223
# Velocity P-wave (km/s) = 6.22004 6.45673 6.33949
#
# Compressibility (1/GPa) = 0.02510858
#
# Stress axis : x y z
#
# Youngs Moduli (GPa) = 44.87932 65.70861 54.09396
#
# Poissons Ratio (x) = 0.47469 0.18214
# Poissons Ratio (y) = 0.32422 0.26224
# Poissons Ratio (z) = 0.15112 0.31855
#
# Static dielectric constant tensor:
#      x y z
#    x 1.590990 0.000000 0.000000 
#    y 0.000000 1.655850 0.000000 
#    z 0.000000 0.000000 1.599740 
# 
# From -- ./inp_files/7377.got.cif
#   From: 2010.05.17/outbox.cif.g08.bks.cpg/sg47_4_cif.got.tgz:7377.got - 2010.06.03 20:15:42.
