data_PCOD9383792
_publ_section_title
;
Structure prediction by ZEFSAII (Michael W. Deem and Ramdas Pophale) SiO2 
 PCOD9383792
Probable space group: P M M M
;
_chemical_formula_sum "Si O2"
_cell_formula_units_Z 48
_cell_length_a 9.890453
_cell_length_b 7.479322
_cell_length_c 30.168926
_cell_angle_alpha 90.000000
_cell_angle_beta 90.000000
_cell_angle_gamma 90.000000
_cell_volume 2231.712593
_symmetry_space_group_name_H-M "P M M M"
_symmetry_group_IT_number 47
_symmetry_cell_setting 'orthorhombic'
loop_
_space_group_symop_operation_xyz
x,y,z
-x,-y,z
x,-y,-z
-x,y,-z
-x,-y,-z
x,y,-z
-x,y,z
x,-y,z
loop_
_atom_site_type_symbol
_atom_site_label
_atom_site_fract_x
_atom_site_fract_y
_atom_site_fract_z
Si Si1 0.658175 0.281630 0.293453
Si Si2 0.346149 0.289062 0.130442
Si Si3 0.000000 0.787474 0.448933
Si Si4 0.259242 0.711490 0.390198
Si Si5 0.157113 0.718771 0.789590
Si Si6 0.500000 0.719774 0.550121
Si Si7 0.151408 0.784507 0.050833
O O1 0.500000 0.226728 0.289608
O O2 0.656434 0.500000 0.292552
O O3 0.722084 0.220309 0.340267
O O4 0.755670 0.226638 0.253346
O O5 0.500000 0.216538 0.131081
O O6 0.358214 0.500000 0.139571
O O7 0.243060 0.218778 0.167802
O O8 0.270109 0.269838 0.083698
O O9 0.875162 0.734441 0.418206
O O10 0.000000 0.716316 0.500000
O O11 0.000000 0.000000 0.452858
O O12 0.282841 0.500000 0.385617
O O13 0.373125 0.783861 0.422429
O O14 0.153423 0.500000 0.790067
O O15 0.000000 0.776843 0.789388
O O16 0.500000 0.500000 0.549121
O O17 0.500000 0.780033 0.500000
O O18 0.000000 0.724524 0.065232
O O19 0.149043 0.000000 0.050507
O O20 0.171770 0.725261 0.000000
#
# Coordination Sequence:
#
# PCOD9383792 Si02
#       7
#     8   8   4   8   8   4   8
#     4   9  16  28  48  78 111 135 162 208 265 317
#     4  10  20  33  50  76 110 145 180 219 264 312
#     4  11  25  41  53  71 105 145 179 213 258 311
#     4  10  19  33  56  83 106 133 171 216 262 308
#     4   9  17  28  46  74 108 143 175 211 257 310
#     4   9  16  28  49  79 109 131 161 211 264 307
#     4   9  19  36  56  77 103 138 180 225 272 320
#
# _framework density 21.508144000000001
#
# number of rings (size 3 to 8) (size 9 to 14) (size 15 to 20)
#    0.000    2.500    0.833    2.250    1.167    5.333 
#    0.000    2.917    0.000    2.500    0.000    0.000 
#    0.000    0.000    0.000    0.000    0.000    0.000 
#
# Total GULP energy -267840.538930 kJ/mol
# GULP energy per Si atom -5580.011228 kJ/mol
# Density = 2.145919 g / cm^3
# Si number density = 21.508144 Si / 1000 Ang^3
#
#
#
# Elastic Constant Matrix: (Units=GPa)
#
#
# Indices 1 2 3 4 5 6 
#
# 1 232.5408 -5.5668 127.8366 0.0000 0.0000 0.0000
# 2 -5.5668 57.2246 -0.7754 0.0000 0.0000 0.0000
# 3 127.8366 -0.7754 176.6808 0.0000 0.0000 0.0000
# 4 0.0000 0.0000 0.0000 17.4255 0.0000 0.0000
# 5 0.0000 0.0000 0.0000 0.0000 37.8997 0.0000
# 6 0.0000 0.0000 0.0000 0.0000 0.0000 -51.2647
#
#
#
# Elastic Compliance Matrix: (Units=1/GPa)
#
#
# Indices 1 2 3 4 5 6 
#
# 1 0.007163 0.000627 -0.005180 0.000000 0.000000 0.000000
# 2 0.000627 0.017531 -0.000376 0.000000 0.000000 0.000000
# 3 -0.005180 -0.000376 0.009406 0.000000 0.000000 0.000000
# 4 0.000000 0.000000 0.000000 0.057387 0.000000 0.000000
# 5 0.000000 0.000000 0.000000 0.000000 0.026385 0.000000
# 6 0.000000 0.000000 0.000000 0.000000 0.000000 -0.019507
#
#
# Mechanical properties :
#
#
# Convention : Reuss Voigt Hill
#
# Bulk Modulus (GPa) = 41.25339 78.82610 60.03975
# Shear Modulus (GPa) = 42.99007 23.80887 33.39947
#
# Velocity S-wave (km/s) = 4.47562 3.33073 3.94493
# Velocity P-wave (km/s) = 6.77719 7.17779 6.98036
#
# Compressibility (1/GPa) = 0.02424043
#
# Stress axis : x y z
#
# Youngs Moduli (GPa) = 139.60727 57.04227 106.31263
#
# Poissons Ratio (x) = -0.03574 0.55070
# Poissons Ratio (y) = -0.08748 0.04002
# Poissons Ratio (z) = 0.72316 0.02147
#
# Static dielectric constant tensor:
#      x y z
#    x 1.829640 0.000000 0.000000 
#    y 0.000000 1.848560 0.000000 
#    z 0.000000 0.000000 1.766240 
# 
# From -- ./inp_files/34053.got.cif
#   From: 2010.05.17/outbox.cif.g08.bks.cpg/sg47_18_cif.got.tgz:34053.got - 2010.06.03 20:15:42.
