data_PCOD9383482
_publ_section_title
;
Structure prediction by ZEFSAII (Michael W. Deem and Ramdas Pophale) SiO2 
 PCOD9383482
Probable space group: P M M M
;
_chemical_formula_sum "Si O2"
_cell_formula_units_Z 44
_cell_length_a 32.543717
_cell_length_b 8.914954
_cell_length_c 8.095039
_cell_angle_alpha 90.000000
_cell_angle_beta 90.000000
_cell_angle_gamma 90.000000
_cell_volume 2348.579181
_symmetry_space_group_name_H-M "P M M M"
_symmetry_group_IT_number 47
_symmetry_cell_setting 'orthorhombic'
loop_
_space_group_symop_operation_xyz
x,y,z
-x,-y,z
x,-y,-z
-x,y,-z
-x,-y,-z
x,y,-z
-x,y,z
x,-y,z
loop_
_atom_site_type_symbol
_atom_site_label
_atom_site_fract_x
_atom_site_fract_y
_atom_site_fract_z
Si Si1 0.951269 0.819835 0.187711
Si Si2 0.500000 0.826714 0.302948
Si Si3 0.905096 0.319811 0.500000
Si Si4 0.587444 0.827108 0.197035
Si Si5 0.670707 0.674028 0.694457
Si Si6 0.242259 0.683292 0.817116
Si Si7 0.190228 0.317163 0.500000
O O1 0.926907 0.741975 0.335199
O O2 0.000000 0.788250 0.204812
O O3 0.946356 0.000000 0.200319
O O4 0.938976 0.775373 0.000000
O O5 0.500000 0.830472 0.500000
O O6 0.543219 0.758601 0.245298
O O7 0.500000 0.000000 0.237950
O O8 0.907238 0.500000 0.500000
O O9 0.857290 0.273262 0.500000
O O10 0.627657 0.751743 0.270637
O O11 0.586984 0.000000 0.255125
O O12 0.590760 0.824454 0.000000
O O13 0.680298 0.681194 0.500000
O O14 0.665976 0.500000 0.741461
O O15 0.710737 0.734385 0.788556
O O16 0.243104 0.500000 0.811236
O O17 0.213916 0.733017 0.665333
O O18 0.227940 0.727125 0.000000
O O19 0.191510 0.500000 0.500000
#
# Coordination Sequence:
#
# PCOD9383482 Si02
#       7
#     8   4   4   8   8   8   4
#     4   9  19  37  59  80 106 148 199 239 271 322
#     4   9  17  31  50  69  92 127 166 198 236 295
#     4  11  22  32  51  84 120 148 177 229 292 340
#     4  10  20  33  50  73 100 129 162 200 244 300
#     4  10  19  32  52  77 102 126 162 212 257 300
#     4   9  16  29  50  71  96 133 172 211 254 304
#     4   9  18  32  46  71 108 141 175 210 255 324
#
# _framework density 18.734732000000001
#
# number of rings (size 3 to 8) (size 9 to 14) (size 15 to 20)
#    0.000    2.455    0.909    2.455    0.000    5.818 
#    0.000    3.182    0.000    4.909    0.000    2.545 
#    0.000    0.000    0.000    0.000    0.000    0.000 
#
# Total GULP energy -245368.072453 kJ/mol
# GULP energy per Si atom -5576.547101 kJ/mol
# Density = 1.869209 g / cm^3
# Si number density = 18.734732 Si / 1000 Ang^3
#
#
#
# Elastic Constant Matrix: (Units=GPa)
#
#
# Indices 1 2 3 4 5 6 
#
# 1 133.9035 31.2824 86.5212 0.0000 0.0000 0.0000
# 2 31.2824 15.5980 28.2784 0.0000 0.0000 0.0000
# 3 86.5212 28.2784 128.9625 0.0000 0.0000 0.0000
# 4 0.0000 0.0000 0.0000 15.2912 0.0000 0.0000
# 5 0.0000 0.0000 0.0000 0.0000 6.1409 0.0000
# 6 0.0000 0.0000 0.0000 0.0000 0.0000 32.5065
#
#
#
# Elastic Compliance Matrix: (Units=1/GPa)
#
#
# Indices 1 2 3 4 5 6 
#
# 1 0.016742 -0.021932 -0.006423 0.000000 0.000000 0.000000
# 2 -0.021932 0.135146 -0.014920 0.000000 0.000000 0.000000
# 3 -0.006423 -0.014920 0.015335 0.000000 0.000000 0.000000
# 4 0.000000 0.000000 0.000000 0.065397 0.000000 0.000000
# 5 0.000000 0.000000 0.000000 0.000000 0.162842 0.000000
# 6 0.000000 0.000000 0.000000 0.000000 0.000000 0.030763
#
#
# Mechanical properties :
#
#
# Convention : Reuss Voigt Hill
#
# Bulk Modulus (GPa) = 12.39576 63.40311 37.89944
# Shear Modulus (GPa) = 9.26497 19.61319 14.43908
#
# Velocity S-wave (km/s) = 2.22623 3.23908 2.77918
# Velocity P-wave (km/s) = 3.63853 6.92133 5.52919
#
# Compressibility (1/GPa) = 0.08067273
#
# Stress axis : x y z
#
# Youngs Moduli (GPa) = 59.72954 7.39939 65.21007
#
# Poissons Ratio (x) = 0.16229 0.41885
# Poissons Ratio (y) = 1.31001 0.97293
# Poissons Ratio (z) = 0.38365 0.11040
#
# Static dielectric constant tensor:
#      x y z
#    x 1.646390 0.000000 0.000000 
#    y 0.000000 1.648280 0.000000 
#    z 0.000000 0.000000 1.649730 
# 
# From -- ./inp_files/13760.got.cif
#   From: 2010.05.17/outbox.cif.g08.bks.cpg/sg47_7_cif.got.tgz:13760.got - 2010.06.03 20:15:42.
