data_PCOD9383179
_publ_section_title
;
Structure prediction by ZEFSAII (Michael W. Deem and Ramdas Pophale) SiO2 
 PCOD9383179
Probable space group: P M M M
;
_chemical_formula_sum "Si O2"
_cell_formula_units_Z 40
_cell_length_a 30.495082
_cell_length_b 7.609870
_cell_length_c 7.963992
_cell_angle_alpha 90.000000
_cell_angle_beta 90.000000
_cell_angle_gamma 90.000000
_cell_volume 1848.152731
_symmetry_space_group_name_H-M "P M M M"
_symmetry_group_IT_number 47
_symmetry_cell_setting 'orthorhombic'
loop_
_space_group_symop_operation_xyz
x,y,z
-x,-y,z
x,-y,-z
-x,y,-z
-x,-y,-z
x,y,-z
-x,y,z
x,-y,z
loop_
_atom_site_type_symbol
_atom_site_label
_atom_site_fract_x
_atom_site_fract_y
_atom_site_fract_z
Si Si1 0.050441 0.215074 0.000000
Si Si2 0.396889 0.794584 0.180099
Si Si3 0.303664 0.293060 0.307169
Si Si4 0.550675 0.784142 0.500000
Si Si5 0.888104 0.214678 0.304368
Si Si6 0.208707 0.211014 0.695220
O O1 0.076110 0.271266 0.168480
O O2 0.000000 0.271111 0.000000
O O3 0.050941 0.000000 0.000000
O O4 0.344890 0.785651 0.212606
O O5 0.423251 0.720202 0.336795
O O6 0.408701 0.000000 0.173201
O O7 0.407075 0.713800 0.000000
O O8 0.303346 0.223284 0.500000
O O9 0.311274 0.500000 0.314570
O O10 0.255299 0.265823 0.230373
O O11 0.500000 0.733691 0.500000
O O12 0.552264 0.000000 0.500000
O O13 0.894625 0.268928 0.500000
O O14 0.839181 0.268859 0.243740
O O15 0.888557 0.000000 0.307032
O O16 0.209925 0.269251 0.500000
O O17 0.208398 0.000000 0.698629
#
# Coordination Sequence:
#
# PCOD9383179 Si02
#       6
#     4   8   8   4   8   8
#     4   9  16  24  36  58  87 117 151 193 240 291
#     4  10  20  34  54  79 106 138 174 208 248 301
#     4  10  19  31  50  75 104 138 171 208 256 303
#     4   9  18  34  57  83 109 135 167 215 262 295
#     4   8  14  25  39  56  82 117 154 192 237 287
#     4   8  14  26  45  66  92 129 168 205 245 294
#
# _framework density 21.643232999999999
#
# number of rings (size 3 to 8) (size 9 to 14) (size 15 to 20)
#    0.000    3.000    1.000    1.800    0.000    2.000 
#    1.800    4.000    0.000    1.200    0.000    1.400 
#    0.000    1.600    0.000    7.800    0.000    8.000 
#
# Total GULP energy -223057.716047 kJ/mol
# GULP energy per Si atom -5576.442901 kJ/mol
# Density = 2.159397 g / cm^3
# Si number density = 21.643233 Si / 1000 Ang^3
#
#
#
# Elastic Constant Matrix: (Units=GPa)
#
#
# Indices 1 2 3 4 5 6 
#
# 1 174.5261 -1.0439 99.7644 0.0000 0.0000 0.0000
# 2 -1.0439 41.9725 7.7189 0.0000 0.0000 0.0000
# 3 99.7644 7.7189 149.0331 0.0000 0.0000 0.0000
# 4 0.0000 0.0000 0.0000 -10.5710 0.0000 0.0000
# 5 0.0000 0.0000 0.0000 0.0000 -55.3346 0.0000
# 6 0.0000 0.0000 0.0000 0.0000 0.0000 -53.6850
#
#
#
# Elastic Compliance Matrix: (Units=1/GPa)
#
#
# Indices 1 2 3 4 5 6 
#
# 1 0.009362 0.001399 -0.006339 0.000000 0.000000 0.000000
# 2 0.001399 0.024263 -0.002193 0.000000 0.000000 0.000000
# 3 -0.006339 -0.002193 0.011067 0.000000 0.000000 0.000000
# 4 0.000000 0.000000 0.000000 -0.094599 0.000000 0.000000
# 5 0.000000 0.000000 0.000000 0.000000 -0.018072 0.000000
# 6 0.000000 0.000000 0.000000 0.000000 0.000000 -0.018627
#
#
# Mechanical properties :
#
#
# Convention : Reuss Voigt Hill
#
# Bulk Modulus (GPa) = 32.86776 64.26782 48.56779
# Shear Modulus (GPa) = -80.39078 -6.64529 -43.51804
#
# Velocity S-wave (km/s) = -6.10117 -1.75415 -4.48895
# Velocity P-wave (km/s) = 5.86628 5.06517 2.09252
#
# Compressibility (1/GPa) = 0.03042495
#
# Stress axis : x y z
#
# Youngs Moduli (GPa) = 106.81481 41.21464 90.35701
#
# Poissons Ratio (x) = -0.05765 0.57282
# Poissons Ratio (y) = -0.14940 0.19815
# Poissons Ratio (z) = 0.67715 0.09038
#
# Static dielectric constant tensor:
#      x y z
#    x 1.773000 0.000000 0.000000 
#    y 0.000000 1.785810 0.000000 
#    z 0.000000 0.000000 1.794370 
# 
# From -- ./inp_files/13025.got.cif
#   From: 2010.05.17/outbox.cif.g08.bks.cpg/sg47_7_cif.got.tgz:13025.got - 2010.06.03 20:15:42.
