data_PCOD9383582
_publ_section_title
;
Structure prediction by ZEFSAII (Michael W. Deem and Ramdas Pophale) SiO2 
 PCOD9383582
Probable space group: P M M M
;
_chemical_formula_sum "Si O2"
_cell_formula_units_Z 64
_cell_length_a 8.372121
_cell_length_b 24.572164
_cell_length_c 15.997481
_cell_angle_alpha 90.000000
_cell_angle_beta 90.000000
_cell_angle_gamma 90.000000
_cell_volume 3291.019872
_symmetry_space_group_name_H-M "P M M M"
_symmetry_group_IT_number 47
_symmetry_cell_setting 'orthorhombic'
loop_
_space_group_symop_operation_xyz
x,y,z
-x,-y,z
x,-y,-z
-x,y,-z
-x,-y,-z
x,y,-z
-x,y,z
x,-y,z
loop_
_atom_site_type_symbol
_atom_site_label
_atom_site_fract_x
_atom_site_fract_y
_atom_site_fract_z
Si Si1 0.811549 0.757242 0.250539
Si Si2 0.694805 0.562785 0.094185
Si Si3 0.810080 0.060704 0.857046
Si Si4 0.692752 0.365561 0.249637
Si Si5 0.689690 0.824002 0.091797
Si Si6 0.307086 0.826078 0.592345
Si Si7 0.305206 0.437249 0.405343
Si Si8 0.692550 0.939866 0.667148
O O1 0.738883 0.697164 0.247423
O O2 0.765314 0.791812 0.168654
O O3 0.752035 0.788865 0.332567
O O4 0.000000 0.752695 0.254428
O O5 0.500000 0.563799 0.094422
O O6 0.740869 0.500000 0.110128
O O7 0.750596 0.602411 0.167284
O O8 0.745763 0.577763 0.000000
O O9 0.727041 0.111984 0.899049
O O10 0.772312 0.064691 0.758131
O O11 0.000000 0.064717 0.870228
O O12 0.757835 0.000000 0.884170
O O13 0.500000 0.368996 0.249890
O O14 0.750048 0.396540 0.333251
O O15 0.500000 0.816201 0.096581
O O16 0.746029 0.805590 0.000000
O O17 0.251280 0.809623 0.500000
O O18 0.500000 0.824120 0.592705
O O19 0.260329 0.888546 0.611621
O O20 0.254233 0.423278 0.500000
O O21 0.500000 0.436296 0.405266
O O22 0.259231 0.500000 0.387922
O O23 0.500000 0.937148 0.679088
O O24 0.729681 0.000000 0.632680
#
# Coordination Sequence:
#
# PCOD9383582 Si02
#       8
#     8   8   8   8   8   8   8   8
#     4  12  26  42  58  79 113 155 196 241 290 341
#     4   8  14  26  48  81 115 141 171 218 274 327
#     4  10  20  34  56  87 121 153 182 220 278 346
#     4  10  19  32  54  80 107 143 187 232 276 326
#     4  11  24  42  64  86 109 143 191 244 294 344
#     4  10  21  38  61  86 113 148 191 238 287 341
#     4   8  14  26  48  81 115 142 175 225 280 327
#     4   9  17  31  55  85 116 148 182 226 280 338
#
# _framework density 19.446860000000001
#
# number of rings (size 3 to 8) (size 9 to 14) (size 15 to 20)
#    0.000    2.250    1.250    3.000    0.000    5.000 
#    0.000    5.000    0.000    1.500    0.000    4.375 
#    0.000    0.000    0.000    0.000    0.000    0.000 
#
# Total GULP energy -357230.288608 kJ/mol
# GULP energy per Si atom -5581.723259 kJ/mol
# Density = 1.940260 g / cm^3
# Si number density = 19.446860 Si / 1000 Ang^3
#
#
#
# Elastic Constant Matrix: (Units=GPa)
#
#
# Indices 1 2 3 4 5 6 
#
# 1 8.6804 6.3129 14.6212 0.0000 0.0000 0.0000
# 2 6.3129 124.3025 89.7335 0.0000 0.0000 0.0000
# 3 14.6212 89.7335 154.5738 0.0000 0.0000 0.0000
# 4 0.0000 0.0000 0.0000 -4.8250 0.0000 0.0000
# 5 0.0000 0.0000 0.0000 0.0000 -106.2828 0.0000
# 6 0.0000 0.0000 0.0000 0.0000 0.0000 -10.2226
#
#
#
# Elastic Compliance Matrix: (Units=1/GPa)
#
#
# Indices 1 2 3 4 5 6 
#
# 1 0.138276 0.004165 -0.015498 0.000000 0.000000 0.000000
# 2 0.004165 0.013974 -0.008506 0.000000 0.000000 0.000000
# 3 -0.015498 -0.008506 0.012873 0.000000 0.000000 0.000000
# 4 0.000000 0.000000 0.000000 -0.207256 0.000000 0.000000
# 5 0.000000 0.000000 0.000000 0.000000 -0.009409 0.000000
# 6 0.000000 0.000000 0.000000 0.000000 0.000000 -0.097823
#
#
# Mechanical properties :
#
#
# Convention : Reuss Voigt Hill
#
# Bulk Modulus (GPa) = 7.97155 56.54356 32.25756
# Shear Modulus (GPa) = -73.66873 -12.47345 -43.07109
#
# Velocity S-wave (km/s) = -6.16152 -2.53536 -4.71128
# Velocity P-wave (km/s) = 6.81990 4.53523 3.60158
#
# Compressibility (1/GPa) = 0.12544616
#
# Stress axis : x y z
#
# Youngs Moduli (GPa) = 7.23190 71.56196 77.68004
#
# Poissons Ratio (x) = -0.29806 1.20385
# Poissons Ratio (y) = -0.03012 0.66076
# Poissons Ratio (z) = 0.11208 0.60872
#
# Static dielectric constant tensor:
#      x y z
#    x 1.665940 0.000000 0.000000 
#    y 0.000000 1.660360 0.000000 
#    z 0.000000 0.000000 1.690710 
# 
# From -- ./inp_files/21914.got.cif
#   From: 2010.05.17/outbox.cif.g08.bks.cpg/sg47_11_cif.got.tgz:21914.got - 2010.06.03 20:15:42.
