data_PCOD9383725
_publ_section_title
;
Structure prediction by ZEFSAII (Michael W. Deem and Ramdas Pophale) SiO2 
 PCOD9383725
Probable space group: P M M M
;
_chemical_formula_sum "Si O2"
_cell_formula_units_Z 48
_cell_length_a 18.115207
_cell_length_b 15.873769
_cell_length_c 8.501295
_cell_angle_alpha 90.000000
_cell_angle_beta 90.000000
_cell_angle_gamma 90.000000
_cell_volume 2444.603582
_symmetry_space_group_name_H-M "P M M M"
_symmetry_group_IT_number 47
_symmetry_cell_setting 'orthorhombic'
loop_
_space_group_symop_operation_xyz
x,y,z
-x,-y,z
x,-y,-z
-x,y,-z
-x,-y,-z
x,y,-z
-x,y,z
x,-y,z
loop_
_atom_site_type_symbol
_atom_site_label
_atom_site_fract_x
_atom_site_fract_y
_atom_site_fract_z
Si Si1 0.081066 0.642569 0.189533
Si Si2 0.192444 0.500000 0.192170
Si Si3 0.698491 0.814310 0.187041
Si Si4 0.637458 0.500000 0.811067
Si Si5 0.417089 0.321476 0.688187
Si Si6 0.866072 0.182347 0.688873
Si Si7 0.288333 0.000000 0.812639
Si Si8 0.875315 0.000000 0.684972
O O1 0.146696 0.581849 0.244623
O O2 0.091494 0.736805 0.249500
O O3 0.000000 0.610303 0.235641
O O4 0.084029 0.643356 0.000000
O O5 0.276957 0.500000 0.242602
O O6 0.192636 0.500000 0.000000
O O7 0.643476 0.744752 0.252833
O O8 0.780960 0.808126 0.256749
O O9 0.672679 0.910901 0.218287
O O10 0.704278 0.802699 0.000000
O O11 0.600179 0.585182 0.750694
O O12 0.635843 0.500000 0.000000
O O13 0.414759 0.323560 0.500000
O O14 0.500000 0.296991 0.738710
O O15 0.867952 0.180784 0.500000
O O16 0.897372 0.091924 0.748381
O O17 0.213312 0.000000 0.711664
O O18 0.268366 0.000000 0.000000
O O19 0.893424 0.000000 0.500000
#
# Coordination Sequence:
#
# PCOD9383725 Si02
#       8
#     8   4   8   4   8   8   4   4
#     4  10  20  35  55  78 106 141 179 219 265 318
#     4   9  19  36  57  80 104 133 171 215 262 314
#     4  10  19  34  57  83 110 141 182 228 273 324
#     4  11  22  37  61  87 108 137 181 228 274 328
#     4  11  24  40  56  78 112 150 184 221 268 321
#     4  10  19  33  54  79 108 141 179 223 270 321
#     4   8  16  30  51  80 109 137 173 225 279 318
#     4   8  16  30  49  74 103 139 179 217 263 320
#
# _framework density 19.635086999999999
#
# number of rings (size 3 to 8) (size 9 to 14) (size 15 to 20)
#    0.000    2.167    0.000    3.250    0.000    6.333 
#    0.000    2.083    0.000    6.000    0.000    0.000 
#    0.000    0.000    0.000    0.000    0.000    0.000 
#
# Total GULP energy -267861.877748 kJ/mol
# GULP energy per Si atom -5580.455786 kJ/mol
# Density = 1.959040 g / cm^3
# Si number density = 19.635087 Si / 1000 Ang^3
#
#
#
# Elastic Constant Matrix: (Units=GPa)
#
#
# Indices 1 2 3 4 5 6 
#
# 1 51.3368 6.1871 3.4856 0.0000 0.0000 0.0000
# 2 6.1871 90.9296 0.8987 0.0000 0.0000 0.0000
# 3 3.4856 0.8987 11.0797 0.0000 0.0000 0.0000
# 4 0.0000 0.0000 0.0000 25.6106 0.0000 0.0000
# 5 0.0000 0.0000 0.0000 0.0000 47.9924 0.0000
# 6 0.0000 0.0000 0.0000 0.0000 0.0000 -32.8522
#
#
#
# Elastic Compliance Matrix: (Units=1/GPa)
#
#
# Indices 1 2 3 4 5 6 
#
# 1 0.020058 -0.001303 -0.006204 0.000000 0.000000 0.000000
# 2 -0.001303 0.011091 -0.000490 0.000000 0.000000 0.000000
# 3 -0.006204 -0.000490 0.092246 0.000000 0.000000 0.000000
# 4 0.000000 0.000000 0.000000 0.039046 0.000000 0.000000
# 5 0.000000 0.000000 0.000000 0.000000 0.020837 0.000000
# 6 0.000000 0.000000 0.000000 0.000000 0.000000 -0.030439
#
#
# Mechanical properties :
#
#
# Convention : Reuss Voigt Hill
#
# Bulk Modulus (GPa) = 9.31094 19.38766 14.34930
# Shear Modulus (GPa) = 24.43397 17.66848 21.05122
#
# Velocity S-wave (km/s) = 3.53144 3.00299 3.27788
# Velocity P-wave (km/s) = 4.62389 4.68181 4.65294
#
# Compressibility (1/GPa) = 0.10740053
#
# Stress axis : x y z
#
# Youngs Moduli (GPa) = 49.85656 90.16281 10.84054
#
# Poissons Ratio (x) = 0.11752 0.06726
# Poissons Ratio (y) = 0.06499 0.00531
# Poissons Ratio (z) = 0.30932 0.04414
#
# Static dielectric constant tensor:
#      x y z
#    x 1.665840 0.000000 0.000000 
#    y 0.000000 1.710550 0.000000 
#    z 0.000000 0.000000 1.675080 
# 
# From -- ./inp_files/9284.got.cif
#   From: 2010.05.17/outbox.cif.g08.bks.cpg/sg47_5_cif.got.tgz:9284.got - 2010.06.03 20:15:42.
