data_PCOD9383155
_publ_section_title
;
Structure prediction by ZEFSAII (Michael W. Deem and Ramdas Pophale) SiO2 
 PCOD9383155
Probable space group: P M M M
;
_chemical_formula_sum "Si O2"
_cell_formula_units_Z 56
_cell_length_a 18.473093
_cell_length_b 20.058292
_cell_length_c 9.413259
_cell_angle_alpha 90.000000
_cell_angle_beta 90.000000
_cell_angle_gamma 90.000000
_cell_volume 3487.976692
_symmetry_space_group_name_H-M "P M M M"
_symmetry_group_IT_number 47
_symmetry_cell_setting 'orthorhombic'
loop_
_space_group_symop_operation_xyz
x,y,z
-x,-y,z
x,-y,-z
-x,y,-z
-x,-y,-z
x,y,-z
-x,y,z
x,-y,z
loop_
_atom_site_type_symbol
_atom_site_label
_atom_site_fract_x
_atom_site_fract_y
_atom_site_fract_z
Si Si1 0.669553 0.625788 0.339851
Si Si2 0.285376 0.500000 0.160298
Si Si3 0.416950 0.919803 0.666941
Si Si4 0.304281 0.831334 0.835962
Si Si5 0.887914 0.500000 0.162504
Si Si6 0.915843 0.650108 0.831118
Si Si7 0.797185 0.263641 0.665900
Si Si8 0.419574 0.712307 0.155724
O O1 0.661210 0.602941 0.500000
O O2 0.689386 0.565340 0.240039
O O3 0.733845 0.680354 0.333906
O O4 0.599078 0.661884 0.279741
O O5 0.198496 0.500000 0.160140
O O6 0.311658 0.500000 0.000000
O O7 0.409585 0.901049 0.500000
O O8 0.500000 0.901033 0.711093
O O9 0.351429 0.887616 0.755696
O O10 0.413182 0.000000 0.676130
O O11 0.236264 0.800417 0.748871
O O12 0.361570 0.770731 0.841541
O O13 0.285843 0.848758 0.000000
O O14 0.909541 0.427263 0.222058
O O15 0.916002 0.500000 0.000000
O O16 0.863856 0.700519 0.746556
O O17 0.000000 0.669333 0.819980
O O18 0.895496 0.649904 0.000000
O O19 0.813286 0.248577 0.500000
O O20 0.500000 0.739542 0.169479
O O21 0.413297 0.679264 0.000000
#
# Coordination Sequence:
#
# PCOD9383155 Si02
#       8
#     8   4   8   8   4   8   8   8
#     4  10  20  32  46  65  87 112 146 190 236 282
#     4  11  19  30  50  66  82 113 150 187 232 287
#     4   9  18  32  49  72 106 144 174 200 237 285
#     4  10  19  31  50  73  97 126 165 205 239 277
#     4   9  17  29  48  70  92 120 155 192 237 295
#     4  10  19  32  50  72  98 126 159 199 242 291
#     4  10  20  33  48  67  94 126 160 196 239 289
#     4   9  18  32  48  66  88 114 148 191 238 284
#
# _framework density 16.055153000000001
#
# number of rings (size 3 to 8) (size 9 to 14) (size 15 to 20)
#    0.000    2.286    1.429    2.571    0.000    4.286 
#    0.000    1.429    0.000    3.000    0.000    0.000 
#    0.000    0.571    0.000    6.000    0.000    2.571 
#
# Total GULP energy -311860.536624 kJ/mol
# GULP energy per Si atom -5568.938154 kJ/mol
# Density = 1.601861 g / cm^3
# Si number density = 16.055153 Si / 1000 Ang^3
#
#
#
# Elastic Constant Matrix: (Units=GPa)
#
#
# Indices 1 2 3 4 5 6 
#
# 1 67.0716 24.4549 38.2655 0.0000 0.0000 0.0000
# 2 24.4549 49.5739 41.3080 0.0000 0.0000 0.0000
# 3 38.2655 41.3080 108.1770 0.0000 0.0000 0.0000
# 4 0.0000 0.0000 0.0000 25.4064 0.0000 0.0000
# 5 0.0000 0.0000 0.0000 0.0000 21.2208 0.0000
# 6 0.0000 0.0000 0.0000 0.0000 0.0000 1130.1960
#
#
#
# Elastic Compliance Matrix: (Units=1/GPa)
#
#
# Indices 1 2 3 4 5 6 
#
# 1 0.019736 -0.005747 -0.004786 0.000000 0.000000 0.000000
# 2 -0.005747 0.031259 -0.009904 0.000000 0.000000 0.000000
# 3 -0.004786 -0.009904 0.014719 0.000000 0.000000 0.000000
# 4 0.000000 0.000000 0.000000 0.039360 0.000000 0.000000
# 5 0.000000 0.000000 0.000000 0.000000 0.047124 0.000000
# 6 0.000000 0.000000 0.000000 0.000000 0.000000 0.000885
#
#
# Mechanical properties :
#
#
# Convention : Reuss Voigt Hill
#
# Bulk Modulus (GPa) = 40.25872 48.09772 44.17822
# Shear Modulus (GPa) = 24.72349 243.41760 134.07054
#
# Velocity S-wave (km/s) = 3.92843 12.32650 9.14809
# Velocity P-wave (km/s) = 6.76065 15.25165 11.79659
#
# Compressibility (1/GPa) = 0.02483934
#
# Stress axis : x y z
#
# Youngs Moduli (GPa) = 50.66958 31.99047 67.93955
#
# Poissons Ratio (x) = 0.18386 0.32519
# Poissons Ratio (y) = 0.29121 0.67284
# Poissons Ratio (z) = 0.24253 0.31682
#
# Static dielectric constant tensor:
#      x y z
#    x 1.530920 0.000000 0.000000 
#    y 0.000000 1.529770 0.000000 
#    z 0.000000 0.000000 1.569650 
# 
# From -- ./inp_files/11770.got.cif
#   From: 2010.05.17/outbox.cif.g08.bks.cpg/sg47_6_cif.got.tgz:11770.got - 2010.06.03 20:15:42.
