data_PCOD9383400
_publ_section_title
;
Structure prediction by ZEFSAII (Michael W. Deem and Ramdas Pophale) SiO2 
 PCOD9383400
Probable space group: P M M M
;
_chemical_formula_sum "Si O2"
_cell_formula_units_Z 52
_cell_length_a 28.782432
_cell_length_b 7.972746
_cell_length_c 13.108727
_cell_angle_alpha 90.000000
_cell_angle_beta 90.000000
_cell_angle_gamma 90.000000
_cell_volume 3008.125385
_symmetry_space_group_name_H-M "P M M M"
_symmetry_group_IT_number 47
_symmetry_cell_setting 'orthorhombic'
loop_
_space_group_symop_operation_xyz
x,y,z
-x,-y,z
x,-y,-z
-x,y,-z
-x,-y,-z
x,y,-z
-x,y,z
x,-y,z
loop_
_atom_site_type_symbol
_atom_site_label
_atom_site_fract_x
_atom_site_fract_y
_atom_site_fract_z
Si Si1 0.720528 0.799683 0.115449
Si Si2 0.615643 0.701547 0.884740
Si Si3 0.222379 0.701024 0.309697
Si Si4 0.608793 0.801442 0.500000
Si Si5 0.552732 0.701722 0.700829
Si Si6 0.879940 0.696440 0.623349
Si Si7 0.283573 0.297166 0.500000
Si Si8 0.946815 0.000000 0.623903
O O1 0.668815 0.739498 0.144541
O O2 0.757212 0.745922 0.200045
O O3 0.719590 0.000000 0.112457
O O4 0.730039 0.737209 0.000000
O O5 0.610948 0.500000 0.888267
O O6 0.580041 0.766670 0.800270
O O7 0.608077 0.766350 0.000000
O O8 0.222055 0.500000 0.318569
O O9 0.169420 0.752459 0.330112
O O10 0.256452 0.764749 0.399335
O O11 0.582310 0.738208 0.600268
O O12 0.662554 0.748959 0.500000
O O13 0.606681 0.000000 0.500000
O O14 0.500000 0.765881 0.693095
O O15 0.550225 0.500000 0.710229
O O16 0.875122 0.700974 0.500000
O O17 0.889386 0.500000 0.650039
O O18 0.919138 0.830853 0.653393
O O19 0.281245 0.500000 0.500000
O O20 0.947725 0.000000 0.500000
O O21 0.000000 0.000000 0.659838
#
# Coordination Sequence:
#
# PCOD9383400 Si02
#       8
#     8   8   8   4   8   8   4   4
#     4  10  21  34  48  70 101 135 167 202 246 299
#     4   9  18  34  55  76  97 121 152 196 247 299
#     4  10  19  32  51  74 100 133 172 209 254 305
#     4  12  25  37  48  71 100 126 163 201 239 290
#     4  10  21  37  56  74  93 122 157 196 246 298
#     4   9  17  31  48  71 105 140 177 224 269 310
#     4  10  20  35  53  74 100 130 164 203 247 301
#     4   9  18  30  46  72 103 145 191 223 260 310
#
# _framework density 17.286514
#
# number of rings (size 3 to 8) (size 9 to 14) (size 15 to 20)
#    0.000    2.231    0.769    2.308    1.077    7.692 
#    0.000    3.077    0.000    0.000    0.000    3.231 
#    0.000    1.231    0.000    3.385    0.000    0.154 
#
# Total GULP energy -290113.689968 kJ/mol
# GULP energy per Si atom -5579.109422 kJ/mol
# Density = 1.724717 g / cm^3
# Si number density = 17.286514 Si / 1000 Ang^3
#
#
#
# Elastic Constant Matrix: (Units=GPa)
#
#
# Indices 1 2 3 4 5 6 
#
# 1 169.2206 47.4501 75.7560 0.0000 0.0000 0.0000
# 2 47.4501 35.3097 18.1815 0.0000 0.0000 0.0000
# 3 75.7560 18.1815 78.1459 0.0000 0.0000 0.0000
# 4 0.0000 0.0000 0.0000 7.4198 0.0000 0.0000
# 5 0.0000 0.0000 0.0000 0.0000 -35.3477 0.0000
# 6 0.0000 0.0000 0.0000 0.0000 0.0000 54.2727
#
#
#
# Elastic Compliance Matrix: (Units=1/GPa)
#
#
# Indices 1 2 3 4 5 6 
#
# 1 0.014890 -0.014288 -0.011110 0.000000 0.000000 0.000000
# 2 -0.014288 0.045887 0.003175 0.000000 0.000000 0.000000
# 3 -0.011110 0.003175 0.022828 0.000000 0.000000 0.000000
# 4 0.000000 0.000000 0.000000 0.134774 0.000000 0.000000
# 5 0.000000 0.000000 0.000000 0.000000 -0.028290 0.000000
# 6 0.000000 0.000000 0.000000 0.000000 0.000000 0.018425
#
#
# Mechanical properties :
#
#
# Convention : Reuss Voigt Hill
#
# Bulk Modulus (GPa) = 25.53720 62.82794 44.18257
# Shear Modulus (GPa) = 18.79611 14.68820 16.74215
#
# Velocity S-wave (km/s) = 3.30104 2.91811 3.11546
# Velocity P-wave (km/s) = 5.41610 6.91215 6.20934
#
# Compressibility (1/GPa) = 0.03915856
#
# Stress axis : x y z
#
# Youngs Moduli (GPa) = 67.16088 21.79269 43.80591
#
# Poissons Ratio (x) = 0.31138 0.48668
# Poissons Ratio (y) = 0.95962 -0.13910
# Poissons Ratio (z) = 0.74615 -0.06920
#
# Static dielectric constant tensor:
#      x y z
#    x 1.574020 0.000000 0.000000 
#    y 0.000000 1.610680 0.000000 
#    z 0.000000 0.000000 1.649540 
# 
# From -- ./inp_files/19836.got.cif
#   From: 2010.05.17/outbox.cif.g08.bks.cpg/sg47_10_cif.got.tgz:19836.got - 2010.06.03 20:15:42.
