data_PCOD9383734
_publ_section_title
;
Structure prediction by ZEFSAII (Michael W. Deem and Ramdas Pophale) SiO2 
 PCOD9383734
Probable space group: P M M M
;
_chemical_formula_sum "Si O2"
_cell_formula_units_Z 48
_cell_length_a 8.256289
_cell_length_b 17.384459
_cell_length_c 17.116559
_cell_angle_alpha 90.000000
_cell_angle_beta 90.000000
_cell_angle_gamma 90.000000
_cell_volume 2456.758843
_symmetry_space_group_name_H-M "P M M M"
_symmetry_group_IT_number 47
_symmetry_cell_setting 'orthorhombic'
loop_
_space_group_symop_operation_xyz
x,y,z
-x,-y,z
x,-y,-z
-x,y,-z
-x,-y,-z
x,y,-z
-x,y,z
x,-y,z
loop_
_atom_site_type_symbol
_atom_site_label
_atom_site_fract_x
_atom_site_fract_y
_atom_site_fract_z
Si Si1 0.308135 0.343801 0.410033
Si Si2 0.687283 0.500000 0.160552
Si Si3 0.184412 0.335402 0.869423
Si Si4 0.812449 0.500000 0.668196
Si Si5 0.810695 0.232374 0.280864
Si Si6 0.676676 0.762117 0.000000
Si Si7 0.804022 0.086822 0.823748
Si Si8 0.231396 0.913611 0.000000
O O1 0.261371 0.330503 0.500000
O O2 0.500000 0.358778 0.406459
O O3 0.222268 0.421403 0.378771
O O4 0.271442 0.269176 0.356729
O O5 0.500000 0.500000 0.138025
O O6 0.774054 0.424162 0.130501
O O7 0.703849 0.500000 0.254352
O O8 0.200868 0.299814 0.783572
O O9 0.000000 0.322601 0.895091
O O10 0.303818 0.290009 0.925099
O O11 0.000000 0.500000 0.693374
O O12 0.754362 0.154396 0.236048
O O13 0.000000 0.219671 0.298929
O O14 0.819141 0.824787 0.000000
O O15 0.500000 0.801446 0.000000
O O16 0.712744 0.088448 0.907808
O O17 0.000000 0.097205 0.840572
O O18 0.785072 0.000000 0.792085
O O19 0.160981 0.000000 0.000000
#
# Coordination Sequence:
#
# PCOD9383734 Si02
#       8
#     8   4   8   4   8   4   8   4
#     4  11  24  40  59  85 117 152 191 237 289 346
#     4  12  24  40  62  86 115 153 196 240 288 344
#     4  11  23  40  61  85 114 152 199 246 291 338
#     4  12  23  37  59  88 119 152 187 231 286 345
#     4  10  20  35  59  87 116 150 190 238 289 346
#     4  12  25  39  57  83 118 159 202 246 289 340
#     4   9  17  31  55  87 119 152 192 237 286 340
#     4  10  19  33  54  83 122 160 193 235 288 344
#
# _framework density 19.537936999999999
#
# number of rings (size 3 to 8) (size 9 to 14) (size 15 to 20)
#    0.000    1.333    3.333    3.250    0.000    5.167 
#    0.000    1.667    0.000    1.000    0.000    3.500 
#    0.000    0.000    0.000    0.000    0.000    0.000 
#
# Total GULP energy -267377.602898 kJ/mol
# GULP energy per Si atom -5570.366727 kJ/mol
# Density = 1.949347 g / cm^3
# Si number density = 19.537937 Si / 1000 Ang^3
#
#
#
# Elastic Constant Matrix: (Units=GPa)
#
#
# Indices 1 2 3 4 5 6 
#
# 1 49.0316 11.4799 11.7043 0.0000 0.0000 0.0000
# 2 11.4799 157.7099 38.0403 0.0000 0.0000 0.0000
# 3 11.7043 38.0403 68.9782 0.0000 0.0000 0.0000
# 4 0.0000 0.0000 0.0000 18.5089 0.0000 0.0000
# 5 0.0000 0.0000 0.0000 0.0000 13.8546 0.0000
# 6 0.0000 0.0000 0.0000 0.0000 0.0000 29.0673
#
#
#
# Elastic Compliance Matrix: (Units=1/GPa)
#
#
# Indices 1 2 3 4 5 6 
#
# 1 0.021340 -0.000784 -0.003188 0.000000 0.000000 0.000000
# 2 -0.000784 0.007342 -0.003916 0.000000 0.000000 0.000000
# 3 -0.003188 -0.003916 0.017198 0.000000 0.000000 0.000000
# 4 0.000000 0.000000 0.000000 0.054028 0.000000 0.000000
# 5 0.000000 0.000000 0.000000 0.000000 0.072178 0.000000
# 6 0.000000 0.000000 0.000000 0.000000 0.000000 0.034403
#
#
# Mechanical properties :
#
#
# Convention : Reuss Voigt Hill
#
# Bulk Modulus (GPa) = 33.21984 44.24097 38.73040
# Shear Modulus (GPa) = 21.52376 26.58583 24.05480
#
# Velocity S-wave (km/s) = 3.32270 3.69281 3.51263
# Velocity P-wave (km/s) = 5.63561 6.39337 6.02641
#
# Compressibility (1/GPa) = 0.03010249
#
# Stress axis : x y z
#
# Youngs Moduli (GPa) = 46.86093 136.19450 58.14618
#
# Poissons Ratio (x) = 0.10682 0.18539
# Poissons Ratio (y) = 0.03675 0.22771
# Poissons Ratio (z) = 0.14941 0.53336
#
# Static dielectric constant tensor:
#      x y z
#    x 1.797150 0.000000 0.000000 
#    y 0.000000 1.671210 0.000000 
#    z 0.000000 0.000000 1.677180 
# 
# From -- ./inp_files/21172.got.cif
#   From: 2010.05.17/outbox.cif.g08.bks.cpg/sg47_11_cif.got.tgz:21172.got - 2010.06.03 20:15:42.
