data_PCOD9383574
_publ_section_title
;
Structure prediction by ZEFSAII (Michael W. Deem and Ramdas Pophale) SiO2 
 PCOD9383574
Probable space group: P M M M
;
_chemical_formula_sum "Si O2"
_cell_formula_units_Z 52
_cell_length_a 29.004634
_cell_length_b 12.134427
_cell_length_c 8.502076
_cell_angle_alpha 90.000000
_cell_angle_beta 90.000000
_cell_angle_gamma 90.000000
_cell_volume 2992.344876
_symmetry_space_group_name_H-M "P M M M"
_symmetry_group_IT_number 47
_symmetry_cell_setting 'orthorhombic'
loop_
_space_group_symop_operation_xyz
x,y,z
-x,-y,z
x,-y,-z
-x,y,-z
-x,-y,-z
x,y,-z
-x,y,z
x,-y,z
loop_
_atom_site_type_symbol
_atom_site_label
_atom_site_fract_x
_atom_site_fract_y
_atom_site_fract_z
Si Si1 0.901446 0.872700 0.310668
Si Si2 0.552975 0.125265 0.810342
Si Si3 0.813775 0.268252 0.309308
Si Si4 0.000000 0.866612 0.182141
Si Si5 0.274959 0.125891 0.308183
Si Si6 0.675224 0.500000 0.309395
Si Si7 0.780445 0.500000 0.813058
Si Si8 0.363545 0.265332 0.310155
O O1 0.900031 0.875975 0.500000
O O2 0.860284 0.793485 0.257005
O O3 0.951948 0.832000 0.259847
O O4 0.894950 0.000000 0.255531
O O5 0.500000 0.145869 0.761392
O O6 0.588934 0.213908 0.748300
O O7 0.565440 0.000000 0.759287
O O8 0.553929 0.126278 0.000000
O O9 0.813982 0.272565 0.500000
O O10 0.769796 0.194855 0.260326
O O11 0.806068 0.390507 0.246352
O O12 0.000000 0.000000 0.194493
O O13 0.000000 0.836031 0.000000
O O14 0.275049 0.124771 0.500000
O O15 0.321447 0.186984 0.257525
O O16 0.273129 0.000000 0.254341
O O17 0.677130 0.500000 0.500000
O O18 0.727972 0.500000 0.251840
O O19 0.648901 0.610814 0.258668
O O20 0.778531 0.500000 0.000000
O O21 0.364109 0.265162 0.500000
#
# Coordination Sequence:
#
# PCOD9383574 Si02
#       8
#     8   8   8   4   8   4   4   8
#     4   9  17  30  52  81 107 134 174 219 258 305
#     4   9  19  36  55  75 104 140 172 206 255 313
#     4  10  19  34  54  74 103 139 172 211 261 309
#     4   9  17  29  47  72 107 148 177 205 257 315
#     4   9  16  27  48  78 105 128 160 204 255 308
#     4  10  20  38  57  75 101 138 176 212 257 306
#     4  12  24  36  52  74 102 138 182 221 250 296
#     4  10  19  32  54  79 103 132 171 217 257 299
#
# _framework density 17.377675
#
# number of rings (size 3 to 8) (size 9 to 14) (size 15 to 20)
#    0.000    2.385    1.538    2.308    0.000    5.231 
#    0.000    1.154    0.000    4.154    0.000    3.231 
#    0.000    0.000    0.000    0.000    0.000    0.000 
#
# Total GULP energy -290049.904190 kJ/mol
# GULP energy per Si atom -5577.882773 kJ/mol
# Density = 1.733812 g / cm^3
# Si number density = 17.377675 Si / 1000 Ang^3
#
#
#
# Elastic Constant Matrix: (Units=GPa)
#
#
# Indices 1 2 3 4 5 6 
#
# 1 153.5209 98.1472 23.4464 0.0000 0.0000 0.0000
# 2 98.1472 159.2099 22.6482 0.0000 0.0000 0.0000
# 3 23.4464 22.6482 9.9270 0.0000 0.0000 0.0000
# 4 0.0000 0.0000 0.0000 12.0828 0.0000 0.0000
# 5 0.0000 0.0000 0.0000 0.0000 -7.9863 0.0000
# 6 0.0000 0.0000 0.0000 0.0000 0.0000 11.9696
#
#
#
# Elastic Compliance Matrix: (Units=1/GPa)
#
#
# Indices 1 2 3 4 5 6 
#
# 1 0.012563 -0.005217 -0.017770 0.000000 0.000000 0.000000
# 2 -0.005217 0.011465 -0.013836 0.000000 0.000000 0.000000
# 3 -0.017770 -0.013836 0.174273 0.000000 0.000000 0.000000
# 4 0.000000 0.000000 0.000000 0.082762 0.000000 0.000000
# 5 0.000000 0.000000 0.000000 0.000000 -0.125215 0.000000
# 6 0.000000 0.000000 0.000000 0.000000 0.000000 0.083545
#
#
# Mechanical properties :
#
#
# Convention : Reuss Voigt Hill
#
# Bulk Modulus (GPa) = 8.02216 67.90459 37.96337
# Shear Modulus (GPa) = 14.10076 15.10763 14.60419
#
# Velocity S-wave (km/s) = 2.85165 2.95171 2.90211
# Velocity P-wave (km/s) = 3.93306 7.12582 5.75527
#
# Compressibility (1/GPa) = 0.12465469
#
# Stress axis : x y z
#
# Youngs Moduli (GPa) = 79.60053 87.22099 5.73813
#
# Poissons Ratio (x) = 0.45500 0.10197
# Poissons Ratio (y) = 0.41524 0.07939
# Poissons Ratio (z) = 1.41451 1.20681
#
# Static dielectric constant tensor:
#      x y z
#    x 1.575010 0.000000 0.000000 
#    y 0.000000 1.578430 0.000000 
#    z 0.000000 0.000000 1.594240 
# 
# From -- ./inp_files/13333.got.cif
#   From: 2010.05.17/outbox.cif.g08.bks.cpg/sg47_7_cif.got.tgz:13333.got - 2010.06.03 20:15:42.
