data_PCOD9383178
_publ_section_title
;
Structure prediction by ZEFSAII (Michael W. Deem and Ramdas Pophale) SiO2 
 PCOD9383178
Probable space group: P M M M
;
_chemical_formula_sum "Si O2"
_cell_formula_units_Z 44
_cell_length_a 14.244015
_cell_length_b 7.432070
_cell_length_c 19.288007
_cell_angle_alpha 90.000000
_cell_angle_beta 90.000000
_cell_angle_gamma 90.000000
_cell_volume 2041.876960
_symmetry_space_group_name_H-M "P M M M"
_symmetry_group_IT_number 47
_symmetry_cell_setting 'orthorhombic'
loop_
_space_group_symop_operation_xyz
x,y,z
-x,-y,z
x,-y,-z
-x,y,-z
-x,-y,-z
x,y,-z
-x,y,z
x,-y,z
loop_
_atom_site_type_symbol
_atom_site_label
_atom_site_fract_x
_atom_site_fract_y
_atom_site_fract_z
Si Si1 0.254284 0.799661 0.688363
Si Si2 0.106608 0.214768 0.202283
Si Si3 0.104110 0.716411 0.419489
Si Si4 0.390345 0.780823 0.576426
Si Si5 0.392244 0.000000 0.915611
Si Si6 0.760590 0.289750 0.918905
O O1 0.189636 0.712583 0.747713
O O2 0.180847 0.811086 0.625433
O O3 0.340447 0.713625 0.646418
O O4 0.282798 0.000000 0.712812
O O5 0.147474 0.246156 0.125842
O O6 0.000000 0.283263 0.211896
O O7 0.103107 0.000000 0.215228
O O8 0.109963 0.763394 0.500000
O O9 0.115130 0.500000 0.414079
O O10 0.000000 0.761892 0.393941
O O11 0.352667 0.722554 0.500000
O O12 0.500000 0.736405 0.577691
O O13 0.382452 0.000000 0.577609
O O14 0.328352 0.829263 0.895174
O O15 0.500000 0.000000 0.890261
O O16 0.397468 0.000000 0.000000
O O17 0.739067 0.500000 0.912254
O O18 0.776789 0.249082 0.000000
#
# Coordination Sequence:
#
# PCOD9383178 Si02
#       6
#     8   8   8   8   4   8
#     4  10  19  31  50  75 104 135 177 231 282 338
#     4  10  21  36  53  76 114 156 194 244 307 369
#     4   9  18  31  45  64  94 132 172 214 266 330
#     4   8  14  26  46  73 104 138 178 226 281 338
#     4   9  18  36  63  93 125 157 189 234 294 349
#     4  10  21  38  62  91 121 156 203 251 297 357
#
# _framework density 21.548801000000001
#
# number of rings (size 3 to 8) (size 9 to 14) (size 15 to 20)
#    0.000    2.636    0.909    2.182    0.000    4.000 
#    0.000    5.455    0.000    0.545    0.000    2.545 
#    0.000    0.000    0.000    0.000    0.000    0.000 
#
# Total GULP energy -245350.328008 kJ/mol
# GULP energy per Si atom -5576.143818 kJ/mol
# Density = 2.149975 g / cm^3
# Si number density = 21.548801 Si / 1000 Ang^3
#
#
#
# Elastic Constant Matrix: (Units=GPa)
#
#
# Indices 1 2 3 4 5 6 
#
# 1 111.4620 13.0667 55.5859 0.0000 0.0000 0.0000
# 2 13.0667 68.5091 12.6745 0.0000 0.0000 0.0000
# 3 55.5859 12.6745 78.3718 0.0000 0.0000 0.0000
# 4 0.0000 0.0000 0.0000 45.0176 0.0000 0.0000
# 5 0.0000 0.0000 0.0000 0.0000 51.6620 0.0000
# 6 0.0000 0.0000 0.0000 0.0000 0.0000 16.6375
#
#
#
# Elastic Compliance Matrix: (Units=1/GPa)
#
#
# Indices 1 2 3 4 5 6 
#
# 1 0.013930 -0.000855 -0.009742 0.000000 0.000000 0.000000
# 2 -0.000855 0.015099 -0.001836 0.000000 0.000000 0.000000
# 3 -0.009742 -0.001836 0.019966 0.000000 0.000000 0.000000
# 4 0.000000 0.000000 0.000000 0.022214 0.000000 0.000000
# 5 0.000000 0.000000 0.000000 0.000000 0.019357 0.000000
# 6 0.000000 0.000000 0.000000 0.000000 0.000000 0.060105
#
#
# Mechanical properties :
#
#
# Convention : Reuss Voigt Hill
#
# Bulk Modulus (GPa) = 41.44047 46.77746 44.10897
# Shear Modulus (GPa) = 27.23627 34.46448 30.85038
#
# Velocity S-wave (km/s) = 3.55904 4.00355 3.78782
# Velocity P-wave (km/s) = 6.01347 6.56704 6.29634
#
# Compressibility (1/GPa) = 0.02413100
#
# Stress axis : x y z
#
# Youngs Moduli (GPa) = 71.78717 66.22855 50.08508
#
# Poissons Ratio (x) = 0.05660 0.48792
# Poissons Ratio (y) = 0.06135 0.09194
# Poissons Ratio (z) = 0.69934 0.12158
#
# Static dielectric constant tensor:
#      x y z
#    x 1.791300 0.000000 0.000000 
#    y 0.000000 1.815710 0.000000 
#    z 0.000000 0.000000 1.821660 
# 
# From -- ./inp_files/27880.got.cif
#   From: 2010.05.17/outbox.cif.g08.bks.cpg/sg47_14_cif.got.tgz:27880.got - 2010.06.03 20:15:42.
