data_PCOD9383809
_publ_section_title
;
Structure prediction by ZEFSAII (Michael W. Deem and Ramdas Pophale) SiO2 
 PCOD9383809
Probable space group: P M M M
;
_chemical_formula_sum "Si O2"
_cell_formula_units_Z 37
_cell_length_a 14.948961
_cell_length_b 11.723136
_cell_length_c 11.851833
_cell_angle_alpha 90.000000
_cell_angle_beta 90.000000
_cell_angle_gamma 90.000000
_cell_volume 2077.018360
_symmetry_space_group_name_H-M "P M M M"
_symmetry_group_IT_number 47
_symmetry_cell_setting 'orthorhombic'
loop_
_space_group_symop_operation_xyz
x,y,z
-x,-y,z
x,-y,-z
-x,y,-z
-x,-y,-z
x,y,-z
-x,y,z
x,-y,z
loop_
_atom_site_type_symbol
_atom_site_label
_atom_site_fract_x
_atom_site_fract_y
_atom_site_fract_z
Si Si1 0.279728 0.363863 0.216376
Si Si2 0.500000 0.000000 0.000000
Si Si3 0.602169 0.638806 0.000000
Si Si4 0.600373 0.777817 0.631543
Si Si5 0.899585 0.250121 0.864150
Si Si6 0.833437 0.000000 0.865294
Si Si7 0.368634 0.000000 0.217073
O O1 0.280001 0.500000 0.219573
O O2 0.342682 0.326264 0.110491
O O3 0.325608 0.310158 0.325496
O O4 0.180564 0.318258 0.193592
O O5 0.422584 0.000000 0.899614
O O6 0.597997 0.500000 0.000000
O O7 0.500000 0.683338 0.000000
O O8 0.611295 0.806385 0.500000
O O9 0.500000 0.729324 0.647055
O O10 0.608240 0.889413 0.708797
O O11 0.000000 0.285662 0.832447
O O12 0.885433 0.116243 0.838414
O O13 0.890837 0.264318 0.000000
O O14 0.737032 0.000000 0.807588
O O15 0.819402 0.000000 0.000000
#
# Coordination Sequence:
#
# PCOD9383809 Si02
#       7
#     8   1   4   8   8   4   4
#     4  11  22  37  57  86 119 156 204 251 298 359
#     4  12  24  32  62 104 128 156 188 246 304 366
#     4   9  18  33  52  77 113 153 190 240 301 348
#     4  11  24  41  61  85 120 166 207 247 291 346
#     4  10  20  35  58  87 123 159 192 242 313 382
#     4  10  19  33  56  88 121 149 187 239 300 365
#     4  12  21  38  60  93 125 157 196 242 300 360
#
# _framework density 17.813998999999999
#
# number of rings (size 3 to 8) (size 9 to 14) (size 15 to 20)
#    0.000    1.405    4.865    1.297    0.000    5.189 
#    1.946    2.162    0.000    0.649    0.000    3.027 
#    0.000    0.000    0.000    0.000    0.000    0.000 
#
# Total GULP energy -206435.569900 kJ/mol
# GULP energy per Si atom -5579.339727 kJ/mol
# Density = 1.777345 g / cm^3
# Si number density = 17.813999 Si / 1000 Ang^3
#
#
#
# Elastic Constant Matrix: (Units=GPa)
#
#
# Indices 1 2 3 4 5 6 
#
# 1 163.5298 43.1623 54.4768 0.0000 0.0000 0.0000
# 2 43.1623 77.0160 37.2212 0.0000 0.0000 0.0000
# 3 54.4768 37.2212 95.7165 0.0000 0.0000 0.0000
# 4 0.0000 0.0000 0.0000 10.8667 0.0000 0.0000
# 5 0.0000 0.0000 0.0000 0.0000 20.7683 0.0000
# 6 0.0000 0.0000 0.0000 0.0000 0.0000 149.0259
#
#
#
# Elastic Compliance Matrix: (Units=1/GPa)
#
#
# Indices 1 2 3 4 5 6 
#
# 1 0.008013 -0.002816 -0.003465 0.000000 0.000000 0.000000
# 2 -0.002816 0.016979 -0.005000 0.000000 0.000000 0.000000
# 3 -0.003465 -0.005000 0.014364 0.000000 0.000000 0.000000
# 4 0.000000 0.000000 0.000000 0.092024 0.000000 0.000000
# 5 0.000000 0.000000 0.000000 0.000000 0.048150 0.000000
# 6 0.000000 0.000000 0.000000 0.000000 0.000000 0.006710
#
#
# Mechanical properties :
#
#
# Convention : Reuss Voigt Hill
#
# Bulk Modulus (GPa) = 59.54725 67.33142 63.43933
# Shear Modulus (GPa) = 23.32080 49.55898 36.43989
#
# Velocity S-wave (km/s) = 3.62211 5.28021 4.52771
# Velocity P-wave (km/s) = 7.14092 8.66332 7.93870
#
# Compressibility (1/GPa) = 0.01679339
#
# Stress axis : x y z
#
# Youngs Moduli (GPa) = 124.80113 58.89703 69.61748
#
# Poissons Ratio (x) = 0.16584 0.24126
# Poissons Ratio (y) = 0.35141 0.34808
# Poissons Ratio (z) = 0.43249 0.29448
#
# Static dielectric constant tensor:
#      x y z
#    x 1.607370 0.000000 0.000000 
#    y 0.000000 1.625090 0.000000 
#    z 0.000000 0.000000 1.583660 
# 
# From -- ./inp_files/17289.got.cif
#   From: 2010.05.17/outbox.cif.g08.bks.cpg/sg47_9_cif.got.tgz:17289.got - 2010.06.03 20:15:42.
