data_PCOD9383927
_publ_section_title
;
Structure prediction by ZEFSAII (Michael W. Deem and Ramdas Pophale) SiO2 
 PCOD9383927
Probable space group: P M M M
;
_chemical_formula_sum "Si O2"
_cell_formula_units_Z 56
_cell_length_a 22.013017
_cell_length_b 14.915700
_cell_length_c 7.635499
_cell_angle_alpha 90.000000
_cell_angle_beta 90.000000
_cell_angle_gamma 90.000000
_cell_volume 2507.036364
_symmetry_space_group_name_H-M "P M M M"
_symmetry_group_IT_number 47
_symmetry_cell_setting 'orthorhombic'
loop_
_space_group_symop_operation_xyz
x,y,z
-x,-y,z
x,-y,-z
-x,y,-z
-x,-y,-z
x,y,-z
-x,y,z
x,-y,z
loop_
_atom_site_type_symbol
_atom_site_label
_atom_site_fract_x
_atom_site_fract_y
_atom_site_fract_z
Si Si1 0.805025 0.784764 0.708513
Si Si2 0.072871 0.595831 0.201699
Si Si3 0.686919 0.100659 0.207380
Si Si4 0.752241 0.599112 0.713290
Si Si5 0.931970 0.203933 0.699743
Si Si6 0.390303 0.598807 0.713114
Si Si7 0.565844 0.789560 0.711246
O O1 0.814426 0.776280 0.500000
O O2 0.745147 0.844116 0.729647
O O3 0.789043 0.685088 0.778220
O O4 0.867866 0.827522 0.780710
O O5 0.094717 0.500000 0.276060
O O6 0.081012 0.688691 0.300873
O O7 0.000000 0.589183 0.194695
O O8 0.093565 0.604018 0.000000
O O9 0.624065 0.151862 0.242293
O O10 0.685411 0.000000 0.281151
O O11 0.693427 0.094990 0.000000
O O12 0.755634 0.599286 0.500000
O O13 0.770913 0.500000 0.774453
O O14 0.681005 0.609704 0.757229
O O15 0.936101 0.171049 0.500000
O O16 0.000000 0.190552 0.778298
O O17 0.393921 0.597751 0.500000
O O18 0.410623 0.500000 0.773085
O O19 0.424629 0.687216 0.774031
O O20 0.564823 0.786473 0.500000
O O21 0.500000 0.823745 0.771509
#
# Coordination Sequence:
#
# PCOD9383927 Si02
#       7
#     8   8   8   8   8   8   8
#     4  10  19  34  58  82 107 142 183 227 271 321
#     4   8  14  25  40  59  90 137 187 225 257 303
#     4  11  25  43  61  81 107 140 179 226 281 338
#     4   8  13  23  44  74 105 139 180 223 263 304
#     4   9  18  30  46  74 108 138 171 217 277 338
#     4   8  13  24  46  78 115 149 181 219 258 298
#     4  10  20  35  59  90 119 148 186 227 264 311
#
# _framework density 22.337133000000001
#
# number of rings (size 3 to 8) (size 9 to 14) (size 15 to 20)
#    0.000    2.857    1.429    1.714    0.000    3.429 
#    0.000    5.714    0.000    2.143    0.000    4.000 
#    0.000    0.000    0.000    0.000    0.000    0.000 
#
# Total GULP energy -312182.878922 kJ/mol
# GULP energy per Si atom -5574.694266 kJ/mol
# Density = 2.228629 g / cm^3
# Si number density = 22.337133 Si / 1000 Ang^3
#
#
#
# Elastic Constant Matrix: (Units=GPa)
#
#
# Indices 1 2 3 4 5 6 
#
# 1 185.8808 68.0433 5.6562 0.0000 0.0000 0.0000
# 2 68.0433 91.3229 0.9264 0.0000 0.0000 0.0000
# 3 5.6562 0.9264 48.9423 0.0000 0.0000 0.0000
# 4 0.0000 0.0000 0.0000 20.9616 0.0000 0.0000
# 5 0.0000 0.0000 0.0000 0.0000 -6.1064 0.0000
# 6 0.0000 0.0000 0.0000 0.0000 0.0000 -4.9355
#
#
#
# Elastic Compliance Matrix: (Units=1/GPa)
#
#
# Indices 1 2 3 4 5 6 
#
# 1 0.007425 -0.005525 -0.000754 0.000000 0.000000 0.000000
# 2 -0.005525 0.015063 0.000353 0.000000 0.000000 0.000000
# 3 -0.000754 0.000353 0.020513 0.000000 0.000000 0.000000
# 4 0.000000 0.000000 0.000000 0.047706 0.000000 0.000000
# 5 0.000000 0.000000 0.000000 0.000000 -0.163762 0.000000
# 6 0.000000 0.000000 0.000000 0.000000 0.000000 -0.202614
#
#
# Mechanical properties :
#
#
# Convention : Reuss Voigt Hill
#
# Bulk Modulus (GPa) = 32.10177 52.82199 42.46188
# Shear Modulus (GPa) = -19.72882 18.75195 -0.48843
#
# Velocity S-wave (km/s) = -2.97514 2.90055 -0.46812
# Velocity P-wave (km/s) = 1.61267 5.90902 4.33112
#
# Compressibility (1/GPa) = 0.03115093
#
# Stress axis : x y z
#
# Youngs Moduli (GPa) = 134.67877 66.38818 48.75048
#
# Poissons Ratio (x) = 0.36677 0.03673
# Poissons Ratio (y) = 0.74406 -0.01723
# Poissons Ratio (z) = 0.10148 -0.02346
#
# Static dielectric constant tensor:
#      x y z
#    x 1.901190 0.000000 0.000000 
#    y 0.000000 1.839290 0.000000 
#    z 0.000000 0.000000 1.837270 
# 
# From -- ./inp_files/11269.got.cif
#   From: 2010.05.17/outbox.cif.g08.bks.cpg/sg47_6_cif.got.tgz:11269.got - 2010.06.03 20:15:42.
