data_PCOD9383739
_publ_section_title
;
Structure prediction by ZEFSAII (Michael W. Deem and Ramdas Pophale) SiO2 
 PCOD9383739
Probable space group: P M M M
;
_chemical_formula_sum "Si O2"
_cell_formula_units_Z 56
_cell_length_a 7.709393
_cell_length_b 17.452151
_cell_length_c 21.519978
_cell_angle_alpha 90.000000
_cell_angle_beta 90.000000
_cell_angle_gamma 90.000000
_cell_volume 2895.416001
_symmetry_space_group_name_H-M "P M M M"
_symmetry_group_IT_number 47
_symmetry_cell_setting 'orthorhombic'
loop_
_space_group_symop_operation_xyz
x,y,z
-x,-y,z
x,-y,-z
-x,y,-z
-x,-y,-z
x,y,-z
-x,y,z
x,-y,z
loop_
_atom_site_type_symbol
_atom_site_label
_atom_site_fract_x
_atom_site_fract_y
_atom_site_fract_z
Si Si1 0.292529 0.585493 0.742563
Si Si2 0.793399 0.167060 0.809189
Si Si3 0.207464 0.744151 0.312322
Si Si4 0.206824 0.164943 0.569118
Si Si5 0.707060 0.000000 0.233722
Si Si6 0.708077 0.000000 0.623543
Si Si7 0.204250 0.584608 0.886251
Si Si8 0.787082 0.747017 0.068412
O O1 0.500000 0.585686 0.747548
O O2 0.236304 0.500000 0.722914
O O3 0.239675 0.654576 0.698162
O O4 0.221027 0.598457 0.812179
O O5 0.722621 0.211179 0.748434
O O6 0.726657 0.201923 0.873693
O O7 0.000000 0.180492 0.809578
O O8 0.763452 0.077332 0.800142
O O9 0.277021 0.781140 0.375744
O O10 0.000000 0.756059 0.312928
O O11 0.278622 0.177959 0.500000
O O12 0.000000 0.177896 0.565978
O O13 0.233643 0.077086 0.589484
O O14 0.500000 0.000000 0.236746
O O15 0.773246 0.000000 0.305077
O O16 0.500000 0.000000 0.624708
O O17 0.279340 0.500000 0.899489
O O18 0.272969 0.659531 0.920403
O O19 0.000000 0.580861 0.901090
O O20 0.000000 0.746436 0.069599
O O21 0.734550 0.773710 0.000000
#
# Coordination Sequence:
#
# PCOD9383739 Si02
#       8
#     8   8   8   8   4   4   8   8
#     4  10  20  32  49  76 107 137 171 212 256 299
#     4  10  19  34  55  77  99 131 171 212 256 301
#     4  10  19  33  55  79 102 132 173 213 250 297
#     4  10  21  36  54  77 107 140 171 206 252 305
#     4  11  23  36  53  78 104 132 169 214 256 297
#     4  11  22  34  51  79 111 141 171 204 249 303
#     4   9  16  28  48  74 104 136 169 205 250 303
#     4   9  17  30  49  75 104 131 166 212 258 303
#
# _framework density 19.340917999999999
#
# number of rings (size 3 to 8) (size 9 to 14) (size 15 to 20)
#    0.000    2.143    2.857    1.071    0.000    4.000 
#    0.000    1.786    0.000    4.286    0.000    5.000 
#    0.000    0.000    0.000    0.000    0.000    0.000 
#
# Total GULP energy -312563.313951 kJ/mol
# GULP energy per Si atom -5581.487749 kJ/mol
# Density = 1.929690 g / cm^3
# Si number density = 19.340918 Si / 1000 Ang^3
#
#
#
# Elastic Constant Matrix: (Units=GPa)
#
#
# Indices 1 2 3 4 5 6 
#
# 1 29.3953 -8.8730 11.3420 0.0000 0.0000 0.0000
# 2 -8.8730 126.7676 93.1330 0.0000 0.0000 0.0000
# 3 11.3420 93.1330 167.3948 0.0000 0.0000 0.0000
# 4 0.0000 0.0000 0.0000 17.2316 0.0000 0.0000
# 5 0.0000 0.0000 0.0000 0.0000 -3.2254 0.0000
# 6 0.0000 0.0000 0.0000 0.0000 0.0000 1190.1506
#
#
#
# Elastic Compliance Matrix: (Units=1/GPa)
#
#
# Indices 1 2 3 4 5 6 
#
# 1 0.039137 0.007928 -0.007063 0.000000 0.000000 0.000000
# 2 0.007928 0.014948 -0.008854 0.000000 0.000000 0.000000
# 3 -0.007063 -0.008854 0.011378 0.000000 0.000000 0.000000
# 4 0.000000 0.000000 0.000000 0.058033 0.000000 0.000000
# 5 0.000000 0.000000 0.000000 0.000000 -0.310034 0.000000
# 6 0.000000 0.000000 0.000000 0.000000 0.000000 0.000840
#
#
# Mechanical properties :
#
#
# Convention : Reuss Voigt Hill
#
# Bulk Modulus (GPa) = 20.20728 57.19575 38.70152
# Shear Modulus (GPa) = -32.63174 256.02839 111.69832
#
# Velocity S-wave (km/s) = -4.11199 11.51798 7.60774
# Velocity P-wave (km/s) = 3.47477 14.37087 9.86022
#
# Compressibility (1/GPa) = 0.04948711
#
# Stress axis : x y z
#
# Youngs Moduli (GPa) = 25.55103 66.89838 87.88574
#
# Poissons Ratio (x) = -0.53039 0.62072
# Poissons Ratio (y) = -0.20258 0.77812
# Poissons Ratio (z) = 0.18046 0.59230
#
# Static dielectric constant tensor:
#      x y z
#    x 1.705690 0.000000 0.000000 
#    y 0.000000 1.654140 0.000000 
#    z 0.000000 0.000000 1.682200 
# 
# From -- ./inp_files/29787.got.cif
#   From: 2010.05.17/outbox.cif.g08.bks.cpg/sg47_15_cif.got.tgz:29787.got - 2010.06.03 20:15:42.
