data_PCOD9383882
_publ_section_title
;
Structure prediction by ZEFSAII (Michael W. Deem and Ramdas Pophale) SiO2 
 PCOD9383882
Probable space group: P M M M
;
_chemical_formula_sum "Si O2"
_cell_formula_units_Z 56
_cell_length_a 24.056081
_cell_length_b 8.474062
_cell_length_c 15.053698
_cell_angle_alpha 90.000000
_cell_angle_beta 90.000000
_cell_angle_gamma 90.000000
_cell_volume 3068.737312
_symmetry_space_group_name_H-M "P M M M"
_symmetry_group_IT_number 47
_symmetry_cell_setting 'orthorhombic'
loop_
_space_group_symop_operation_xyz
x,y,z
-x,-y,z
x,-y,-z
-x,y,-z
-x,-y,-z
x,y,-z
-x,y,z
x,-y,z
loop_
_atom_site_type_symbol
_atom_site_label
_atom_site_fract_x
_atom_site_fract_y
_atom_site_fract_z
Si Si1 0.564661 0.189938 0.099947
Si Si2 0.347023 0.319053 0.762908
Si Si3 0.146798 0.688334 0.851024
Si Si4 0.722742 0.809951 0.600638
Si Si5 0.064705 0.808051 0.500000
Si Si6 0.061563 0.691669 0.000000
Si Si7 0.735300 0.181312 0.897560
Si Si8 0.849243 0.191521 0.345867
O O1 0.500000 0.235264 0.110328
O O2 0.601486 0.245955 0.182519
O O3 0.567584 0.000000 0.098327
O O4 0.582593 0.244233 0.000000
O O5 0.359224 0.500000 0.745198
O O6 0.322473 0.244089 0.672871
O O7 0.297353 0.296929 0.833574
O O8 0.155949 0.500000 0.860083
O O9 0.095411 0.735328 0.912433
O O10 0.200291 0.780513 0.886819
O O11 0.138892 0.734113 0.749283
O O12 0.710684 0.756146 0.500000
O O13 0.786276 0.761494 0.625433
O O14 0.723031 0.000000 0.601053
O O15 0.102735 0.762150 0.415526
O O16 0.000000 0.753923 0.500000
O O17 0.062780 0.000000 0.500000
O O18 0.058984 0.500000 0.000000
O O19 0.000000 0.756338 0.000000
O O20 0.723805 0.000000 0.870079
O O21 0.719002 0.198156 0.000000
O O22 0.849203 0.000000 0.340029
#
# Coordination Sequence:
#
# PCOD9383882 Si02
#       8
#     8   8   8   8   4   4   8   8
#     4   9  19  38  63  89 120 161 204 240 277 327
#     4  12  24  35  54  87 122 153 189 234 285 338
#     4  11  21  34  54  79 104 137 179 224 277 337
#     4  10  20  36  58  81 108 149 195 236 283 345
#     4   9  18  34  57  83 109 139 180 231 286 343
#     4   9  20  38  55  71 101 145 184 219 270 343
#     4  11  22  35  53  77 109 146 183 228 280 332
#     4  10  19  34  56  80 106 140 178 224 285 344
#
# _framework density 18.248549000000001
#
# number of rings (size 3 to 8) (size 9 to 14) (size 15 to 20)
#    0.000    1.714    2.857    3.000    0.000    4.000 
#    0.000    1.071    0.000    3.857    0.000    3.000 
#    0.000    0.000    0.000    0.000    0.000    0.000 
#
# Total GULP energy -312491.564752 kJ/mol
# GULP energy per Si atom -5580.206513 kJ/mol
# Density = 1.820701 g / cm^3
# Si number density = 18.248549 Si / 1000 Ang^3
#
#
#
# Elastic Constant Matrix: (Units=GPa)
#
#
# Indices 1 2 3 4 5 6 
#
# 1 124.3384 14.4250 72.0527 0.0000 0.0000 0.0000
# 2 14.4250 20.6762 25.5850 0.0000 0.0000 0.0000
# 3 72.0527 25.5850 151.5459 0.0000 0.0000 0.0000
# 4 0.0000 0.0000 0.0000 6.4683 0.0000 0.0000
# 5 0.0000 0.0000 0.0000 0.0000 76.9776 0.0000
# 6 0.0000 0.0000 0.0000 0.0000 0.0000 14.6392
#
#
#
# Elastic Compliance Matrix: (Units=1/GPa)
#
#
# Indices 1 2 3 4 5 6 
#
# 1 0.011140 -0.001540 -0.005037 0.000000 0.000000 0.000000
# 2 -0.001540 0.061350 -0.009625 0.000000 0.000000 0.000000
# 3 -0.005037 -0.009625 0.010618 0.000000 0.000000 0.000000
# 4 0.000000 0.000000 0.000000 0.154599 0.000000 0.000000
# 5 0.000000 0.000000 0.000000 0.000000 0.012991 0.000000
# 6 0.000000 0.000000 0.000000 0.000000 0.000000 0.068310
#
#
# Mechanical properties :
#
#
# Convention : Reuss Voigt Hill
#
# Bulk Modulus (GPa) = 19.72206 57.85399 38.78803
# Shear Modulus (GPa) = 13.57544 31.91689 22.74617
#
# Velocity S-wave (km/s) = 2.73045 4.18665 3.53436
# Velocity P-wave (km/s) = 4.55756 7.42583 6.16094
#
# Compressibility (1/GPa) = 0.05070464
#
# Stress axis : x y z
#
# Youngs Moduli (GPa) = 89.76841 16.30003 94.17704
#
# Poissons Ratio (x) = 0.02510 0.47432
# Poissons Ratio (y) = 0.13821 0.90650
# Poissons Ratio (z) = 0.45212 0.15689
#
# Static dielectric constant tensor:
#      x y z
#    x 1.631700 0.000000 0.000000 
#    y 0.000000 1.628790 0.000000 
#    z 0.000000 0.000000 1.626390 
# 
# From -- ./inp_files/25179.got.cif
#   From: 2010.05.17/outbox.cif.g08.bks.cpg/sg47_13_cif.got.tgz:25179.got - 2010.06.03 20:15:42.
