data_PCOD9383994
_publ_section_title
;
Structure prediction by ZEFSAII (Michael W. Deem and Ramdas Pophale) SiO2 
 PCOD9383994
Probable space group: P M M M
;
_chemical_formula_sum "Si O2"
_cell_formula_units_Z 37
_cell_length_a 10.761952
_cell_length_b 22.512072
_cell_length_c 7.810849
_cell_angle_alpha 90.000000
_cell_angle_beta 90.000000
_cell_angle_gamma 90.000000
_cell_volume 1892.364367
_symmetry_space_group_name_H-M "P M M M"
_symmetry_group_IT_number 47
_symmetry_cell_setting 'orthorhombic'
loop_
_space_group_symop_operation_xyz
x,y,z
-x,-y,z
x,-y,-z
-x,y,-z
-x,-y,-z
x,y,-z
-x,y,z
x,-y,z
loop_
_atom_site_type_symbol
_atom_site_label
_atom_site_fract_x
_atom_site_fract_y
_atom_site_fract_z
Si Si1 0.752197 0.363487 0.704410
Si Si2 0.356481 0.890580 0.797200
Si Si3 0.644266 0.758523 0.292809
Si Si4 0.000000 0.000000 0.000000
Si Si5 0.196187 0.000000 0.312021
Si Si6 0.000000 0.569010 0.710131
Si Si7 0.500000 0.567917 0.205311
O O1 0.768218 0.358897 0.500000
O O2 0.726245 0.296774 0.769552
O O3 0.874844 0.397271 0.768822
O O4 0.625454 0.399678 0.735937
O O5 0.500000 0.892162 0.740080
O O6 0.311966 0.823280 0.765400
O O7 0.279602 0.941051 0.704858
O O8 0.352937 0.902353 0.000000
O O9 0.643652 0.757840 0.500000
O O10 0.500000 0.750434 0.236687
O O11 0.105961 0.000000 0.848787
O O12 0.138117 0.000000 0.500000
O O13 0.000000 0.500000 0.763093
O O14 0.000000 0.568957 0.500000
O O15 0.500000 0.500000 0.267091
O O16 0.500000 0.568002 0.000000
#
# Coordination Sequence:
#
# PCOD9383994 Si02
#       7
#     8   8   8   1   4   4   4
#     4  10  19  35  57  81 112 149 193 246 301 364
#     4  10  20  36  61  94 129 160 198 252 314 375
#     4   9  17  31  52  83 117 151 193 242 299 367
#     4  12  26  48  62  86 128 164 226 266 290 386
#     4  12  24  42  68  93 125 172 210 262 319 359
#     4   9  18  32  54  83 111 144 190 243 299 360
#     4  11  23  35  51  79 111 144 191 246 301 369
#
# _framework density 19.55226
#
# number of rings (size 3 to 8) (size 9 to 14) (size 15 to 20)
#    0.000    1.946    2.162    2.108    0.000    5.189 
#    0.000    1.622    0.000    4.541    0.000    0.000 
#    0.000    0.000    0.000    0.000    0.000    0.000 
#
# Total GULP energy -206310.879534 kJ/mol
# GULP energy per Si atom -5575.969717 kJ/mol
# Density = 1.950776 g / cm^3
# Si number density = 19.552260 Si / 1000 Ang^3
#
#
#
# Elastic Constant Matrix: (Units=GPa)
#
#
# Indices 1 2 3 4 5 6 
#
# 1 132.0525 94.2354 20.7184 0.0000 0.0000 0.0000
# 2 94.2354 181.0795 26.4971 0.0000 0.0000 0.0000
# 3 20.7184 26.4971 65.1734 0.0000 0.0000 0.0000
# 4 0.0000 0.0000 0.0000 -50.4660 0.0000 0.0000
# 5 0.0000 0.0000 0.0000 0.0000 -23.4615 0.0000
# 6 0.0000 0.0000 0.0000 0.0000 0.0000 -8.3845
#
#
#
# Elastic Compliance Matrix: (Units=1/GPa)
#
#
# Indices 1 2 3 4 5 6 
#
# 1 0.012161 -0.006128 -0.001375 0.000000 0.000000 0.000000
# 2 -0.006128 0.008959 -0.001695 0.000000 0.000000 0.000000
# 3 -0.001375 -0.001695 0.016470 0.000000 0.000000 0.000000
# 4 0.000000 0.000000 0.000000 -0.019815 0.000000 0.000000
# 5 0.000000 0.000000 0.000000 0.000000 -0.042623 0.000000
# 6 0.000000 0.000000 0.000000 0.000000 0.000000 -0.119267
#
#
# Mechanical properties :
#
#
# Convention : Reuss Voigt Hill
#
# Bulk Modulus (GPa) = 52.09341 73.46746 62.78043
# Shear Modulus (GPa) = -41.90318 -0.67210 -21.28764
#
# Velocity S-wave (km/s) = -4.63443 -0.58693 -3.30321
# Velocity P-wave (km/s) = 1.39147 6.09895 4.19887
#
# Compressibility (1/GPa) = 0.01919629
#
# Stress axis : x y z
#
# Youngs Moduli (GPa) = 82.22826 111.61593 60.71779
#
# Poissons Ratio (x) = 0.68395 0.08347
# Poissons Ratio (y) = 0.50387 0.10289
# Poissons Ratio (z) = 0.11304 0.18914
#
# Static dielectric constant tensor:
#      x y z
#    x 1.663480 0.000000 0.000000 
#    y 0.000000 1.687820 0.000000 
#    z 0.000000 0.000000 1.694330 
# 
# From -- ./inp_files/1586.got.cif
#   From: 2010.05.17/outbox.cif.g08.bks.cpg/sg47_1_cif.got.tgz:1586.got - 2010.06.03 20:15:42.
