data_PCOD9383669
_publ_section_title
;
Structure prediction by ZEFSAII (Michael W. Deem and Ramdas Pophale) SiO2 
 PCOD9383669
Probable space group: P M M M
;
_chemical_formula_sum "Si O2"
_cell_formula_units_Z 56
_cell_length_a 7.310856
_cell_length_b 16.052291
_cell_length_c 19.434713
_cell_angle_alpha 90.000000
_cell_angle_beta 90.000000
_cell_angle_gamma 90.000000
_cell_volume 2280.779945
_symmetry_space_group_name_H-M "P M M M"
_symmetry_group_IT_number 47
_symmetry_cell_setting 'orthorhombic'
loop_
_space_group_symop_operation_xyz
x,y,z
-x,-y,z
x,-y,-z
-x,y,-z
-x,-y,-z
x,y,-z
-x,y,z
x,-y,z
loop_
_atom_site_type_symbol
_atom_site_label
_atom_site_fract_x
_atom_site_fract_y
_atom_site_fract_z
Si Si1 0.290830 0.594176 0.347127
Si Si2 0.779708 0.500000 0.078087
Si Si3 0.791249 0.733679 0.926886
Si Si4 0.721837 0.908579 0.267097
Si Si5 0.780984 0.636137 0.808980
Si Si6 0.276960 0.778022 0.623844
Si Si7 0.279053 0.089264 0.107764
Si Si8 0.277713 0.902192 0.500000
O O1 0.500000 0.589726 0.371788
O O2 0.212615 0.500000 0.357958
O O3 0.295206 0.611017 0.264590
O O4 0.213233 0.681325 0.378073
O O5 0.729263 0.424116 0.127510
O O6 0.000000 0.500000 0.073818
O O7 0.711415 0.500000 0.000000
O O8 0.719416 0.718785 0.848949
O O9 0.795002 0.831903 0.930059
O O10 0.000000 0.700972 0.926405
O O11 0.709783 0.702835 0.000000
O O12 0.500000 0.908089 0.270332
O O13 0.782440 0.826413 0.307300
O O14 0.775247 0.907319 0.187887
O O15 0.777127 0.000000 0.296501
O O16 0.000000 0.633348 0.797485
O O17 0.500000 0.773212 0.623232
O O18 0.224783 0.843799 0.564557
O O19 0.500000 0.093494 0.104740
O O20 0.222950 0.000000 0.080480
O O21 0.500000 0.906335 0.500000
O O22 0.217434 0.000000 0.500000
#
# Coordination Sequence:
#
# PCOD9383669 Si02
#       8
#     8   4   8   8   8   8   8   4
#     4  10  20  33  49  71 101 135 168 204 251 304
#     4   9  16  28  49  73  95 122 159 206 260 311
#     4  10  21  34  47  67  94 122 155 198 252 310
#     4   8  13  23  41  64  88 115 151 196 244 290
#     4  10  19  33  53  74  95 124 166 211 253 299
#     4   9  16  26  42  66  98 134 166 199 245 294
#     4   9  18  32  49  68  90 122 166 207 242 291
#     4   9  16  26  43  71 106 139 171 207 246 294
#
# _framework density 24.553004999999999
#
# number of rings (size 3 to 8) (size 9 to 14) (size 15 to 20)
#    0.000    2.714    0.714    2.571    0.000    6.000 
#    0.000    1.786    0.000    3.857    0.000    0.500 
#    0.000    1.714    0.000    0.000    0.000    0.286 
#
# Total GULP energy -312146.805703 kJ/mol
# GULP energy per Si atom -5574.050102 kJ/mol
# Density = 2.449712 g / cm^3
# Si number density = 24.553005 Si / 1000 Ang^3
#
#
#
# Elastic Constant Matrix: (Units=GPa)
#
#
# Indices 1 2 3 4 5 6 
#
# 1 95.2384 2.8176 -3.2302 0.0000 0.0000 0.0000
# 2 2.8176 216.7046 53.8762 0.0000 0.0000 0.0000
# 3 -3.2302 53.8762 83.0562 0.0000 0.0000 0.0000
# 4 0.0000 0.0000 0.0000-6313.8402 0.0000 0.0000
# 5 0.0000 0.0000 0.0000 0.0000 2.4934 0.0000
# 6 0.0000 0.0000 0.0000 0.0000 0.0000 -0.3605
#
#
#
# Elastic Compliance Matrix: (Units=1/GPa)
#
#
# Indices 1 2 3 4 5 6 
#
# 1 0.010529 -0.000285 0.000594 0.000000 0.000000 0.000000
# 2 -0.000285 0.005510 -0.003585 0.000000 0.000000 0.000000
# 3 0.000594 -0.003585 0.014389 0.000000 0.000000 0.000000
# 4 0.000000 0.000000 0.000000 -0.000158 0.000000 0.000000
# 5 0.000000 0.000000 0.000000 0.000000 0.401052 0.000000
# 6 0.000000 0.000000 0.000000 0.000000 0.000000 -2.773901
#
#
# Mechanical properties :
#
#
# Convention : Reuss Voigt Hill
#
# Bulk Modulus (GPa) = 41.88348 55.76960 48.82654
# Shear Modulus (GPa) = -2.14770 -1239.57242 -620.86006
#
# Velocity S-wave (km/s) = -0.93628 -22.49337 -15.91899
# Velocity P-wave (km/s) = 3.99081 25.53114 17.83133
#
# Compressibility (1/GPa) = 0.02387576
#
# Stress axis : x y z
#
# Youngs Moduli (GPa) = 94.97996 181.50282 69.49938
#
# Poissons Ratio (x) = 0.05165 -0.04129
# Poissons Ratio (y) = 0.02703 0.24915
# Poissons Ratio (z) = -0.05643 0.65068
#
# Static dielectric constant tensor:
#      x y z
#    x 2.164190 0.000000 0.000000 
#    y 0.000000 2.332580 0.000000 
#    z 0.000000 0.000000 1.935770 
# 
# From -- ./inp_files/29807.got.cif
#   From: 2010.05.17/outbox.cif.g08.bks.cpg/sg47_15_cif.got.tgz:29807.got - 2010.06.03 20:15:42.
