data_PCOD9383593
_publ_section_title
;
Structure prediction by ZEFSAII (Michael W. Deem and Ramdas Pophale) SiO2 
 PCOD9383593
Probable space group: P M M M
;
_chemical_formula_sum "Si O2"
_cell_formula_units_Z 48
_cell_length_a 7.616796
_cell_length_b 16.180119
_cell_length_c 17.977295
_cell_angle_alpha 90.000000
_cell_angle_beta 90.000000
_cell_angle_gamma 90.000000
_cell_volume 2215.533803
_symmetry_space_group_name_H-M "P M M M"
_symmetry_group_IT_number 47
_symmetry_cell_setting 'orthorhombic'
loop_
_space_group_symop_operation_xyz
x,y,z
-x,-y,z
x,-y,-z
-x,y,-z
-x,-y,-z
x,y,-z
-x,y,z
x,-y,z
loop_
_atom_site_type_symbol
_atom_site_label
_atom_site_fract_x
_atom_site_fract_y
_atom_site_fract_z
Si Si1 0.213154 0.144016 0.693913
Si Si2 0.714564 0.266045 0.083573
Si Si3 0.785604 0.000000 0.584365
Si Si4 0.705928 0.590410 0.808931
Si Si5 0.293359 0.908676 0.139103
Si Si6 0.290798 0.405842 0.500000
Si Si7 0.207665 0.670931 0.659063
O O1 0.268755 0.080757 0.629919
O O2 0.276276 0.110793 0.773226
O O3 0.274757 0.236648 0.676163
O O4 0.000000 0.144234 0.696159
O O5 0.500000 0.262604 0.088832
O O6 0.778551 0.332362 0.144140
O O7 0.779298 0.173051 0.099396
O O8 0.759350 0.291682 0.000000
O O9 0.724147 0.000000 0.500000
O O10 0.000000 0.000000 0.583191
O O11 0.500000 0.586718 0.828118
O O12 0.782975 0.500000 0.824899
O O13 0.718286 0.610074 0.721555
O O14 0.500000 0.912563 0.120352
O O15 0.218492 0.000000 0.123336
O O16 0.220264 0.500000 0.500000
O O17 0.500000 0.410722 0.500000
O O18 0.239218 0.358753 0.424685
O O19 0.000000 0.672481 0.670909
#
# Coordination Sequence:
#
# PCOD9383593 Si02
#       7
#     8   8   4   8   8   4   8
#     4  10  20  34  55  80 106 143 184 222 267 327
#     4   9  18  33  53  80 114 147 182 231 285 334
#     4   9  18  32  53  77 104 137 176 220 263 315
#     4  10  20  35  57  82 109 146 189 230 278 337
#     4  10  19  32  54  81 109 142 181 227 276 328
#     4  11  25  43  61  82 111 148 186 226 278 335
#     4  11  23  37  58  86 114 145 186 232 279 330
#
# _framework density 21.665209000000001
#
# number of rings (size 3 to 8) (size 9 to 14) (size 15 to 20)
#    0.000    2.000    2.500    1.250    1.167    4.333 
#    0.000    3.333    0.000    2.500    0.000    2.333 
#    0.000    0.000    0.000    0.000    0.000    0.000 
#
# Total GULP energy -268139.297543 kJ/mol
# GULP energy per Si atom -5586.235365 kJ/mol
# Density = 2.161590 g / cm^3
# Si number density = 21.665209 Si / 1000 Ang^3
#
#
#
# Elastic Constant Matrix: (Units=GPa)
#
#
# Indices 1 2 3 4 5 6 
#
# 1 47.4362 8.1292 -13.1162 0.0000 0.0000 0.0000
# 2 8.1292 173.9336 42.4238 0.0000 0.0000 0.0000
# 3 -13.1162 42.4238 96.2022 0.0000 0.0000 0.0000
# 4 0.0000 0.0000 0.0000 16.1977 0.0000 0.0000
# 5 0.0000 0.0000 0.0000 0.0000 34.8086 0.0000
# 6 0.0000 0.0000 0.0000 0.0000 0.0000 5.8183
#
#
#
# Elastic Compliance Matrix: (Units=1/GPa)
#
#
# Indices 1 2 3 4 5 6 
#
# 1 0.022522 -0.002019 0.003961 0.000000 0.000000 0.000000
# 2 -0.002019 0.006623 -0.003196 0.000000 0.000000 0.000000
# 3 0.003961 -0.003196 0.012344 0.000000 0.000000 0.000000
# 4 0.000000 0.000000 0.000000 0.061737 0.000000 0.000000
# 5 0.000000 0.000000 0.000000 0.000000 0.028729 0.000000
# 6 0.000000 0.000000 0.000000 0.000000 0.000000 0.171873
#
#
# Mechanical properties :
#
#
# Convention : Reuss Voigt Hill
#
# Bulk Modulus (GPa) = 25.65296 43.60508 34.62902
# Shear Modulus (GPa) = 15.65780 30.04059 22.84920
#
# Velocity S-wave (km/s) = 2.69126 3.72772 3.25106
# Velocity P-wave (km/s) = 4.63934 6.22080 5.48734
#
# Compressibility (1/GPa) = 0.03898185
#
# Stress axis : x y z
#
# Youngs Moduli (GPa) = 44.40087 150.98462 81.00985
#
# Poissons Ratio (x) = 0.30480 -0.32087
# Poissons Ratio (y) = 0.08963 0.25890
# Poissons Ratio (z) = -0.17587 0.48254
#
# Static dielectric constant tensor:
#      x y z
#    x 1.814360 0.000000 0.000000 
#    y 0.000000 1.807430 0.000000 
#    z 0.000000 0.000000 1.776130 
# 
# From -- ./inp_files/6466.got.cif
#   From: 2010.05.17/outbox.cif.g08.bks.cpg/sg47_4_cif.got.tgz:6466.got - 2010.06.03 20:15:42.
