data_PCOD9383452
_publ_section_title
;
Structure prediction by ZEFSAII (Michael W. Deem and Ramdas Pophale) SiO2 
 PCOD9383452
Probable space group: P M M M
;
_chemical_formula_sum "Si O2"
_cell_formula_units_Z 64
_cell_length_a 23.769766
_cell_length_b 18.098400
_cell_length_c 8.875358
_cell_angle_alpha 90.000000
_cell_angle_beta 90.000000
_cell_angle_gamma 90.000000
_cell_volume 3818.132265
_symmetry_space_group_name_H-M "P M M M"
_symmetry_group_IT_number 47
_symmetry_cell_setting 'orthorhombic'
loop_
_space_group_symop_operation_xyz
x,y,z
-x,-y,z
x,-y,-z
-x,y,-z
-x,-y,-z
x,y,-z
-x,y,z
x,-y,z
loop_
_atom_site_type_symbol
_atom_site_label
_atom_site_fract_x
_atom_site_fract_y
_atom_site_fract_z
Si Si1 0.151459 0.683004 0.672221
Si Si2 0.065849 0.788768 0.180254
Si Si3 0.241351 0.818187 0.671381
Si Si4 0.671678 0.703517 0.681527
Si Si5 0.431832 0.081753 0.673494
Si Si6 0.856235 0.085342 0.683149
Si Si7 0.434364 0.235665 0.178765
Si Si8 0.756137 0.413540 0.179933
O O1 0.139043 0.662356 0.500000
O O2 0.097486 0.716844 0.754482
O O3 0.195713 0.751547 0.667039
O O4 0.185179 0.619044 0.757365
O O5 0.097036 0.860304 0.249265
O O6 0.000000 0.788993 0.218337
O O7 0.072053 0.790113 0.000000
O O8 0.256394 0.839314 0.500000
O O9 0.295538 0.777794 0.738610
O O10 0.205179 0.885344 0.737252
O O11 0.674977 0.702480 0.500000
O O12 0.608166 0.709880 0.737293
O O13 0.706289 0.634442 0.745856
O O14 0.413628 0.093926 0.500000
O O15 0.500000 0.078689 0.671912
O O16 0.417907 0.152101 0.773608
O O17 0.412030 0.000000 0.722025
O O18 0.857098 0.092764 0.500000
O O19 0.865239 0.000000 0.721034
O O20 0.500000 0.246286 0.221187
O O21 0.429509 0.244301 0.000000
O O22 0.750730 0.500000 0.215072
O O23 0.754379 0.403677 0.000000
#
# Coordination Sequence:
#
# PCOD9383452 Si02
#       8
#     8   8   8   8   8   8   8   8
#     4   9  17  31  52  75  99 128 164 205 244 286
#     4  10  20  32  47  69  99 136 175 214 258 305
#     4   7  13  27  45  66  89 116 154 199 247 290
#     4  10  19  32  52  75 100 130 165 206 246 290
#     4   8  14  26  44  64  86 115 155 202 246 286
#     4   9  17  30  48  68  93 128 170 216 262 306
#     4  10  20  32  47  69  99 135 171 208 254 306
#     4  10  20  34  55  83 111 134 156 190 241 297
#
# _framework density 16.762122999999999
#
# number of rings (size 3 to 8) (size 9 to 14) (size 15 to 20)
#    0.000    2.875    0.000    3.750    0.000    3.500 
#    0.000    3.750    0.000    3.000    0.000    5.250 
#    0.000    0.000    0.000    0.000    0.000    0.000 
#
# Total GULP energy -356339.052409 kJ/mol
# GULP energy per Si atom -5567.797694 kJ/mol
# Density = 1.672397 g / cm^3
# Si number density = 16.762123 Si / 1000 Ang^3
#
#
#
# Elastic Constant Matrix: (Units=GPa)
#
#
# Indices 1 2 3 4 5 6 
#
# 1 102.9124 66.3493 46.4524 0.0000 0.0000 0.0000
# 2 66.3493 102.9591 51.1496 0.0000 0.0000 0.0000
# 3 46.4524 51.1496 57.1911 0.0000 0.0000 0.0000
# 4 0.0000 0.0000 0.0000 24.3033 0.0000 0.0000
# 5 0.0000 0.0000 0.0000 0.0000 22.1099 0.0000
# 6 0.0000 0.0000 0.0000 0.0000 0.0000 17.7541
#
#
#
# Elastic Compliance Matrix: (Units=1/GPa)
#
#
# Indices 1 2 3 4 5 6 
#
# 1 0.018373 -0.007965 -0.007799 0.000000 0.000000 0.000000
# 2 -0.007965 0.020932 -0.012251 0.000000 0.000000 0.000000
# 3 -0.007799 -0.012251 0.034777 0.000000 0.000000 0.000000
# 4 0.000000 0.000000 0.000000 0.041147 0.000000 0.000000
# 5 0.000000 0.000000 0.000000 0.000000 0.045229 0.000000
# 6 0.000000 0.000000 0.000000 0.000000 0.000000 0.056325
#
#
# Mechanical properties :
#
#
# Convention : Reuss Voigt Hill
#
# Bulk Modulus (GPa) = 55.39979 65.66279 60.53129
# Shear Modulus (GPa) = 17.93213 19.44089 18.68651
#
# Velocity S-wave (km/s) = 3.27433 3.40929 3.34249
# Velocity P-wave (km/s) = 6.88602 7.39973 7.14749
#
# Compressibility (1/GPa) = 0.01805061
#
# Stress axis : x y z
#
# Youngs Moduli (GPa) = 54.42888 47.77400 28.75480
#
# Poissons Ratio (x) = 0.38053 0.22426
# Poissons Ratio (y) = 0.43354 0.35228
# Poissons Ratio (z) = 0.42449 0.58529
#
# Static dielectric constant tensor:
#      x y z
#    x 1.578630 0.000000 0.000000 
#    y 0.000000 1.561710 0.000000 
#    z 0.000000 0.000000 1.570140 
# 
# From -- ./inp_files/12906.got.cif
#   From: 2010.05.17/outbox.cif.g08.bks.cpg/sg47_7_cif.got.tgz:12906.got - 2010.06.03 20:15:42.
