data_PCOD9383799
_publ_section_title
;
Structure prediction by ZEFSAII (Michael W. Deem and Ramdas Pophale) SiO2 
 PCOD9383799
Probable space group: P M M M
;
_chemical_formula_sum "Si O2"
_cell_formula_units_Z 56
_cell_length_a 8.071702
_cell_length_b 21.279466
_cell_length_c 15.295199
_cell_angle_alpha 90.000000
_cell_angle_beta 90.000000
_cell_angle_gamma 90.000000
_cell_volume 2627.126450
_symmetry_space_group_name_H-M "P M M M"
_symmetry_group_IT_number 47
_symmetry_cell_setting 'orthorhombic'
loop_
_space_group_symop_operation_xyz
x,y,z
-x,-y,z
x,-y,-z
-x,y,-z
-x,-y,-z
x,y,-z
-x,y,z
x,-y,z
loop_
_atom_site_type_symbol
_atom_site_label
_atom_site_fract_x
_atom_site_fract_y
_atom_site_fract_z
Si Si1 0.304292 0.091221 0.902704
Si Si2 0.797990 0.808173 0.396959
Si Si3 0.801766 0.427706 0.000000
Si Si4 0.802279 0.067977 0.292553
Si Si5 0.808485 0.667517 0.355065
Si Si6 0.188875 0.766652 0.899004
Si Si7 0.314163 0.643186 0.173380
Si Si8 0.204035 0.427829 0.500000
O O1 0.500000 0.078396 0.900953
O O2 0.228476 0.068169 0.811914
O O3 0.268088 0.165306 0.898451
O O4 0.242034 0.071084 0.000000
O O5 0.756548 0.814951 0.500000
O O6 0.738552 0.868207 0.339479
O O7 0.739595 0.738876 0.364302
O O8 0.000000 0.808690 0.390487
O O9 0.740267 0.394513 0.911980
O O10 0.748048 0.500000 0.000000
O O11 0.000000 0.424700 0.000000
O O12 0.000000 0.068336 0.306004
O O13 0.738121 0.000000 0.326053
O O14 0.797562 0.639371 0.258458
O O15 0.738380 0.614477 0.418631
O O16 0.000000 0.674875 0.380582
O O17 0.299280 0.716297 0.851341
O O18 0.000000 0.768648 0.863115
O O19 0.176925 0.746627 0.000000
O O20 0.500000 0.625831 0.196854
O O21 0.260244 0.500000 0.500000
O O22 0.000000 0.430595 0.500000
#
# Coordination Sequence:
#
# PCOD9383799 Si02
#       8
#     8   8   4   8   8   8   8   4
#     4  10  21  36  55  80 113 153 197 244 298 358
#     4   9  17  33  59  87 113 146 192 248 305 359
#     4  11  25  45  65  85 115 161 214 259 300 353
#     4  10  21  35  53  81 115 151 196 250 305 363
#     4  10  19  35  61  89 117 155 203 252 303 361
#     4  10  19  33  56  83 113 148 192 242 292 344
#     4  12  24  37  58  88 124 161 199 246 300 362
#     4   9  18  34  59  91 120 148 194 255 307 354
#
# _framework density 21.316067
#
# number of rings (size 3 to 8) (size 9 to 14) (size 15 to 20)
#    0.000    1.857    1.429    3.214    0.000    4.571 
#    0.000    4.643    0.000    1.714    0.000    1.000 
#    0.000    0.000    0.000    0.000    0.000    0.000 
#
# Total GULP energy -312388.115271 kJ/mol
# GULP energy per Si atom -5578.359201 kJ/mol
# Density = 2.126755 g / cm^3
# Si number density = 21.316067 Si / 1000 Ang^3
#
#
#
# Elastic Constant Matrix: (Units=GPa)
#
#
# Indices 1 2 3 4 5 6 
#
# 1 21.0202 11.6624 -6.0284 0.0000 0.0000 0.0000
# 2 11.6624 177.4316 79.1635 0.0000 0.0000 0.0000
# 3 -6.0284 79.1635 120.3219 0.0000 0.0000 0.0000
# 4 0.0000 0.0000 0.0000 48.0330 0.0000 0.0000
# 5 0.0000 0.0000 0.0000 0.0000 -228.6238 0.0000
# 6 0.0000 0.0000 0.0000 0.0000 0.0000 -12.8462
#
#
#
# Elastic Compliance Matrix: (Units=1/GPa)
#
#
# Indices 1 2 3 4 5 6 
#
# 1 0.053278 -0.006643 0.007040 0.000000 0.000000 0.000000
# 2 -0.006643 0.008806 -0.006127 0.000000 0.000000 0.000000
# 3 0.007040 -0.006127 0.012695 0.000000 0.000000 0.000000
# 4 0.000000 0.000000 0.000000 0.020819 0.000000 0.000000
# 5 0.000000 0.000000 0.000000 0.000000 -0.004374 0.000000
# 6 0.000000 0.000000 0.000000 0.000000 0.000000 -0.077844
#
#
# Mechanical properties :
#
#
# Convention : Reuss Voigt Hill
#
# Bulk Modulus (GPa) = 15.79293 54.26318 35.02805
# Shear Modulus (GPa) = 108.82490 -23.08900 42.86795
#
# Velocity S-wave (km/s) = 7.15289 -3.29473 4.48935
# Velocity P-wave (km/s) = 8.69732 3.32236 6.58337
#
# Compressibility (1/GPa) = 0.06331949
#
# Stress axis : x y z
#
# Youngs Moduli (GPa) = 18.76950 113.55804 78.77344
#
# Poissons Ratio (x) = 0.75435 -0.55455
# Poissons Ratio (y) = 0.12468 0.48261
# Poissons Ratio (z) = -0.13213 0.69573
#
# Static dielectric constant tensor:
#      x y z
#    x 1.762020 0.000000 0.000000 
#    y 0.000000 1.807690 0.000000 
#    z 0.000000 0.000000 1.806280 
# 
# From -- ./inp_files/21689.got.cif
#   From: 2010.05.17/outbox.cif.g08.bks.cpg/sg47_11_cif.got.tgz:21689.got - 2010.06.03 20:15:42.
