data_PCOD9383818
_publ_section_title
;
Structure prediction by ZEFSAII (Michael W. Deem and Ramdas Pophale) SiO2 
 PCOD9383818
Probable space group: P M M M
;
_chemical_formula_sum "Si O2"
_cell_formula_units_Z 40
_cell_length_a 7.855729
_cell_length_b 17.639208
_cell_length_c 14.342878
_cell_angle_alpha 90.000000
_cell_angle_beta 90.000000
_cell_angle_gamma 90.000000
_cell_volume 1987.475935
_symmetry_space_group_name_H-M "P M M M"
_symmetry_group_IT_number 47
_symmetry_cell_setting 'orthorhombic'
loop_
_space_group_symop_operation_xyz
x,y,z
-x,-y,z
x,-y,-z
-x,y,-z
-x,-y,-z
x,y,-z
-x,y,z
x,-y,z
loop_
_atom_site_type_symbol
_atom_site_label
_atom_site_fract_x
_atom_site_fract_y
_atom_site_fract_z
Si Si1 0.196735 0.877826 0.897455
Si Si2 0.694715 0.909774 0.500000
Si Si3 0.000000 0.585334 0.389750
Si Si4 0.694837 0.672450 0.701391
Si Si5 0.703717 0.296081 0.099274
Si Si6 0.798173 0.153923 0.698700
O O1 0.207752 0.785975 0.898482
O O2 0.264114 0.892444 0.791624
O O3 0.000000 0.902765 0.898832
O O4 0.270819 0.901502 0.000000
O O5 0.500000 0.882022 0.500000
O O6 0.774439 0.883508 0.402155
O O7 0.697106 0.000000 0.500000
O O8 0.832784 0.631104 0.360172
O O9 0.000000 0.500000 0.350445
O O10 0.000000 0.580353 0.500000
O O11 0.500000 0.650386 0.682629
O O12 0.742787 0.657059 0.809248
O O13 0.710676 0.763747 0.693890
O O14 0.500000 0.280636 0.103077
O O15 0.743352 0.332397 0.000000
O O16 0.000000 0.165943 0.713175
#
# Coordination Sequence:
#
# PCOD9383818 Si02
#       6
#     8   4   4   8   8   8
#     4   8  14  25  44  74 109 140 173 221 276 326
#     4  11  25  41  55  77 113 154 193 235 285 341
#     4  11  26  44  59  79 109 147 192 241 294 346
#     4  10  20  36  60  87 114 147 189 237 283 332
#     4   8  14  25  45  77 112 142 175 220 276 331
#     4  10  19  33  57  86 114 146 188 233 280 336
#
# _framework density 20.12603
#
# number of rings (size 3 to 8) (size 9 to 14) (size 15 to 20)
#    0.000    2.600    1.000    0.900    2.800    2.400 
#    0.000    1.000    0.000    1.800    0.000    7.000 
#    0.000    0.000    0.000    0.000    0.000    0.000 
#
# Total GULP energy -222712.787283 kJ/mol
# GULP energy per Si atom -5567.819682 kJ/mol
# Density = 2.008022 g / cm^3
# Si number density = 20.126030 Si / 1000 Ang^3
#
#
#
# Elastic Constant Matrix: (Units=GPa)
#
#
# Indices 1 2 3 4 5 6 
#
# 1 65.3791 15.4482 35.8693 0.0000 0.0000 0.0000
# 2 15.4482 32.9502 31.3521 0.0000 0.0000 0.0000
# 3 35.8693 31.3521 182.5123 0.0000 0.0000 0.0000
# 4 0.0000 0.0000 0.0000 -223.1881 0.0000 0.0000
# 5 0.0000 0.0000 0.0000 0.0000 80.4759 0.0000
# 6 0.0000 0.0000 0.0000 0.0000 0.0000 5.3402
#
#
#
# Elastic Compliance Matrix: (Units=1/GPa)
#
#
# Indices 1 2 3 4 5 6 
#
# 1 0.018116 -0.006103 -0.002512 0.000000 0.000000 0.000000
# 2 -0.006103 0.038335 -0.005386 0.000000 0.000000 0.000000
# 3 -0.002512 -0.005386 0.006898 0.000000 0.000000 0.000000
# 4 0.000000 0.000000 0.000000 -0.004481 0.000000 0.000000
# 5 0.000000 0.000000 0.000000 0.000000 0.012426 0.000000
# 6 0.000000 0.000000 0.000000 0.000000 0.000000 0.187259
#
#
# Mechanical properties :
#
#
# Convention : Reuss Voigt Hill
#
# Bulk Modulus (GPa) = 28.29117 49.57565 38.93341
# Shear Modulus (GPa) = 16.75958 -14.26293 1.24833
#
# Velocity S-wave (km/s) = 2.88884 -2.66499 0.78842
# Velocity P-wave (km/s) = 5.02143 3.90083 4.49618
#
# Compressibility (1/GPa) = 0.03534671
#
# Stress axis : x y z
#
# Youngs Moduli (GPa) = 55.20099 26.08597 144.97171
#
# Poissons Ratio (x) = 0.15921 0.36415
# Poissons Ratio (y) = 0.33690 0.78077
# Poissons Ratio (z) = 0.13866 0.14049
#
# Static dielectric constant tensor:
#      x y z
#    x 1.722050 0.000000 0.000000 
#    y 0.000000 1.652230 0.000000 
#    z 0.000000 0.000000 1.819190 
# 
# From -- ./inp_files/20699.got.cif
#   From: 2010.05.17/outbox.cif.g08.bks.cpg/sg47_11_cif.got.tgz:20699.got - 2010.06.03 20:15:42.
