data_PCOD9383848
_publ_section_title
;
Structure prediction by ZEFSAII (Michael W. Deem and Ramdas Pophale) SiO2 
 PCOD9383848
Probable space group: P M M M
;
_chemical_formula_sum "Si O2"
_cell_formula_units_Z 40
_cell_length_a 11.623337
_cell_length_b 7.482407
_cell_length_c 22.400687
_cell_angle_alpha 90.000000
_cell_angle_beta 90.000000
_cell_angle_gamma 90.000000
_cell_volume 1948.199803
_symmetry_space_group_name_H-M "P M M M"
_symmetry_group_IT_number 47
_symmetry_cell_setting 'orthorhombic'
loop_
_space_group_symop_operation_xyz
x,y,z
-x,-y,z
x,-y,-z
-x,y,-z
-x,-y,-z
x,y,-z
-x,y,z
x,-y,z
loop_
_atom_site_type_symbol
_atom_site_label
_atom_site_fract_x
_atom_site_fract_y
_atom_site_fract_z
Si Si1 0.130270 0.783814 0.734102
Si Si2 0.628736 0.716651 0.929447
Si Si3 0.265168 0.789140 0.379292
Si Si4 0.868421 0.707660 0.127731
Si Si5 0.129332 0.713885 0.500000
Si Si6 0.500000 0.780297 0.568999
O O1 0.210689 0.715866 0.681160
O O2 0.149743 0.716605 0.800934
O O3 0.000000 0.737213 0.717078
O O4 0.137343 0.000000 0.737221
O O5 0.500000 0.776647 0.907838
O O6 0.628576 0.500000 0.922415
O O7 0.749800 0.782271 0.900940
O O8 0.633126 0.755570 0.000000
O O9 0.189420 0.771593 0.438869
O O10 0.387965 0.715394 0.397333
O O11 0.279215 0.000000 0.368430
O O12 0.873894 0.500000 0.109072
O O13 0.000000 0.780962 0.116237
O O14 0.129426 0.500000 0.500000
O O15 0.000000 0.781629 0.500000
O O16 0.500000 0.725755 0.500000
O O17 0.500000 0.000000 0.568295
#
# Coordination Sequence:
#
# PCOD9383848 Si02
#       6
#     8   8   8   8   4   4
#     4   9  18  32  49  69  94 125 159 193 229 275
#     4   8  14  26  45  69  97 128 160 194 233 278
#     4  10  19  34  54  71  91 123 161 194 230 283
#     4   9  17  29  47  71  97 124 155 196 242 280
#     4  11  23  34  47  72 100 121 148 195 248 287
#     4   9  16  30  52  74  92 114 147 194 239 273
#
# _framework density 20.531773000000001
#
# number of rings (size 3 to 8) (size 9 to 14) (size 15 to 20)
#    0.000    2.800    1.000    1.500    0.000    2.800 
#    1.800    5.000    0.000    0.600    0.000    4.200 
#    0.000    0.000    0.000    0.000    0.000    0.000 
#
# Total GULP energy -222877.741551 kJ/mol
# GULP energy per Si atom -5571.943539 kJ/mol
# Density = 2.048504 g / cm^3
# Si number density = 20.531773 Si / 1000 Ang^3
#
#
#
# Elastic Constant Matrix: (Units=GPa)
#
#
# Indices 1 2 3 4 5 6 
#
# 1 226.6982 8.6445 88.0986 0.0000 0.0000 0.0000
# 2 8.6445 54.3043 1.1188 0.0000 0.0000 0.0000
# 3 88.0986 1.1188 68.7363 0.0000 0.0000 0.0000
# 4 0.0000 0.0000 0.0000 13.7822 0.0000 0.0000
# 5 0.0000 0.0000 0.0000 0.0000 58.9896 0.0000
# 6 0.0000 0.0000 0.0000 0.0000 0.0000 0.0700
#
#
#
# Elastic Compliance Matrix: (Units=1/GPa)
#
#
# Indices 1 2 3 4 5 6 
#
# 1 0.008863 -0.001177 -0.011341 0.000000 0.000000 0.000000
# 2 -0.001177 0.018577 0.001207 0.000000 0.000000 0.000000
# 3 -0.011341 0.001207 0.029064 0.000000 0.000000 0.000000
# 4 0.000000 0.000000 0.000000 0.072557 0.000000 0.000000
# 5 0.000000 0.000000 0.000000 0.000000 0.016952 0.000000
# 6 0.000000 0.000000 0.000000 0.000000 0.000000 14.288115
#
#
# Mechanical properties :
#
#
# Convention : Reuss Voigt Hill
#
# Bulk Modulus (GPa) = 29.51456 60.60695 45.06075
# Shear Modulus (GPa) = 0.34559 31.36016 15.85287
#
# Velocity S-wave (km/s) = 0.41071 3.91243 2.78171
# Velocity P-wave (km/s) = 3.82507 7.07052 5.68434
#
# Compressibility (1/GPa) = 0.03388158
#
# Stress axis : x y z
#
# Youngs Moduli (GPa) = 112.82532 53.82910 34.40671
#
# Poissons Ratio (x) = 0.06337 0.39020
# Poissons Ratio (y) = 0.13283 -0.04151
# Poissons Ratio (z) = 1.27953 -0.06495
#
# Static dielectric constant tensor:
#      x y z
#    x 1.768220 0.000000 0.000000 
#    y 0.000000 1.783150 0.000000 
#    z 0.000000 0.000000 1.684540 
# 
# From -- ./inp_files/10707.got.cif
#   From: 2010.05.17/outbox.cif.g08.bks.cpg/sg47_6_cif.got.tgz:10707.got - 2010.06.03 20:15:42.
