data_PCOD9383228
_publ_section_title
;
Structure prediction by ZEFSAII (Michael W. Deem and Ramdas Pophale) SiO2 
 PCOD9383228
Probable space group: P M M M
;
_chemical_formula_sum "Si O2"
_cell_formula_units_Z 40
_cell_length_a 7.867083
_cell_length_b 28.339791
_cell_length_c 8.402006
_cell_angle_alpha 90.000000
_cell_angle_beta 90.000000
_cell_angle_gamma 90.000000
_cell_volume 1873.239740
_symmetry_space_group_name_H-M "P M M M"
_symmetry_group_IT_number 47
_symmetry_cell_setting 'orthorhombic'
loop_
_space_group_symop_operation_xyz
x,y,z
-x,-y,z
x,-y,-z
-x,y,-z
-x,-y,-z
x,y,-z
-x,y,z
x,-y,z
loop_
_atom_site_type_symbol
_atom_site_label
_atom_site_fract_x
_atom_site_fract_y
_atom_site_fract_z
Si Si1 0.791831 0.701018 0.314364
Si Si2 0.794035 0.800680 0.179644
Si Si3 0.292682 0.944796 0.000000
Si Si4 0.298359 0.896373 0.325127
Si Si5 0.300586 0.500000 0.174289
Si Si6 0.806162 0.599656 0.308480
O O1 0.745491 0.706315 0.500000
O O2 0.738198 0.747775 0.222608
O O3 0.728764 0.649818 0.254120
O O4 0.000000 0.699283 0.308672
O O5 0.727940 0.840650 0.297301
O O6 0.000000 0.801366 0.186113
O O7 0.740265 0.812614 0.000000
O O8 0.229662 0.921226 0.164760
O O9 0.500000 0.940023 0.000000
O O10 0.252369 0.000000 0.000000
O O11 0.229092 0.909901 0.500000
O O12 0.500000 0.906277 0.328571
O O13 0.500000 0.500000 0.156252
O O14 0.261766 0.451036 0.260595
O O15 0.217290 0.500000 0.000000
O O16 0.804300 0.602353 0.500000
O O17 0.000000 0.599681 0.251963
#
# Coordination Sequence:
#
# PCOD9383228 Si02
#       6
#     8   8   4   8   4   8
#     4   8  15  29  49  74 102 129 162 208 255 302
#     4  10  19  31  51  79 109 142 177 212 257 313
#     4   9  18  34  55  79 109 141 177 226 273 312
#     4  10  20  34  54  79 107 141 180 221 268 319
#     4  11  24  37  48  68 100 133 166 205 252 308
#     4   9  18  34  56  78  97 122 163 211 256 304
#
# _framework density 21.353379
#
# number of rings (size 3 to 8) (size 9 to 14) (size 15 to 20)
#    0.000    2.600    1.000    2.400    0.000    4.800 
#    0.000    5.000    0.000    2.400    0.000    1.400 
#    0.000    0.000    0.000    0.000    0.000    0.000 
#
# Total GULP energy -223008.648531 kJ/mol
# GULP energy per Si atom -5575.216213 kJ/mol
# Density = 2.130478 g / cm^3
# Si number density = 21.353379 Si / 1000 Ang^3
#
#
#
# Elastic Constant Matrix: (Units=GPa)
#
#
# Indices 1 2 3 4 5 6 
#
# 1 17.4845 0.9130 7.6292 0.0000 0.0000 0.0000
# 2 0.9130 135.9929 61.2371 0.0000 0.0000 0.0000
# 3 7.6292 61.2371 118.2442 0.0000 0.0000 0.0000
# 4 0.0000 0.0000 0.0000 42.9706 0.0000 0.0000
# 5 0.0000 0.0000 0.0000 0.0000 10.5779 0.0000
# 6 0.0000 0.0000 0.0000 0.0000 0.0000 16.6673
#
#
#
# Elastic Compliance Matrix: (Units=1/GPa)
#
#
# Indices 1 2 3 4 5 6 
#
# 1 0.059158 0.001724 -0.004710 0.000000 0.000000 0.000000
# 2 0.001724 0.009640 -0.005104 0.000000 0.000000 0.000000
# 3 -0.004710 -0.005104 0.011404 0.000000 0.000000 0.000000
# 4 0.000000 0.000000 0.000000 0.023272 0.000000 0.000000
# 5 0.000000 0.000000 0.000000 0.000000 0.094537 0.000000
# 6 0.000000 0.000000 0.000000 0.000000 0.000000 0.059998
#
#
# Mechanical properties :
#
#
# Convention : Reuss Voigt Hill
#
# Bulk Modulus (GPa) = 15.61936 45.69781 30.65858
# Shear Modulus (GPa) = 16.91881 27.50596 22.21238
#
# Velocity S-wave (km/s) = 2.81788 3.59295 3.22876
# Velocity P-wave (km/s) = 4.23295 6.21768 5.31871
#
# Compressibility (1/GPa) = 0.06402310
#
# Stress axis : x y z
#
# Youngs Moduli (GPa) = 16.90378 103.73576 87.68845
#
# Poissons Ratio (x) = -0.17879 0.41297
# Poissons Ratio (y) = -0.02913 0.44752
# Poissons Ratio (z) = 0.07961 0.52942
#
# Static dielectric constant tensor:
#      x y z
#    x 1.790780 0.000000 0.000000 
#    y 0.000000 1.838550 0.000000 
#    z 0.000000 0.000000 1.790960 
# 
# From -- ./inp_files/1761.got.cif
#   From: 2010.05.17/outbox.cif.g08.bks.cpg/sg47_1_cif.got.tgz:1761.got - 2010.06.03 20:15:42.
