data_PCOD9383594
_publ_section_title
;
Structure prediction by ZEFSAII (Michael W. Deem and Ramdas Pophale) SiO2 
 PCOD9383594
Probable space group: P M M M
;
_chemical_formula_sum "Si O2"
_cell_formula_units_Z 44
_cell_length_a 8.681740
_cell_length_b 17.598345
_cell_length_c 15.758084
_cell_angle_alpha 90.000000
_cell_angle_beta 90.000000
_cell_angle_gamma 90.000000
_cell_volume 2407.587136
_symmetry_space_group_name_H-M "P M M M"
_symmetry_group_IT_number 47
_symmetry_cell_setting 'orthorhombic'
loop_
_space_group_symop_operation_xyz
x,y,z
-x,-y,z
x,-y,-z
-x,y,-z
-x,-y,-z
x,y,-z
-x,y,z
x,-y,z
loop_
_atom_site_type_symbol
_atom_site_label
_atom_site_fract_x
_atom_site_fract_y
_atom_site_fract_z
Si Si1 0.815242 0.586208 0.099852
Si Si2 0.684863 0.000000 0.901160
Si Si3 0.319441 0.116349 0.406340
Si Si4 0.314922 0.707515 0.772953
Si Si5 0.183222 0.877066 0.225930
Si Si6 0.681236 0.699280 0.590089
O O1 0.771261 0.500000 0.124491
O O2 0.732238 0.649730 0.154406
O O3 0.000000 0.593108 0.110137
O O4 0.781853 0.595107 0.000000
O O5 0.746108 0.071927 0.848374
O O6 0.500000 0.000000 0.899296
O O7 0.733996 0.000000 0.000000
O O8 0.263416 0.090775 0.500000
O O9 0.500000 0.095947 0.399815
O O10 0.235670 0.094073 0.319628
O O11 0.311478 0.208598 0.408160
O O12 0.500000 0.716286 0.768860
O O13 0.242695 0.790797 0.784215
O O14 0.257597 0.675400 0.681520
O O15 0.000000 0.879346 0.221730
O O16 0.750942 0.673992 0.500000
O O17 0.500000 0.679196 0.588154
#
# Coordination Sequence:
#
# PCOD9383594 Si02
#       6
#     8   4   8   8   8   8
#     4   9  19  36  55  75 103 138 172 212 270 330
#     4  11  25  45  64  77  96 133 181 230 276 321
#     4   8  14  28  51  77 107 142 177 214 257 306
#     4  10  19  32  54  82 108 137 177 219 257 305
#     4  11  22  36  56  82 112 142 175 218 267 321
#     4   7  11  22  42  69 100 133 168 205 245 290
#
# _framework density 18.275559000000001
#
# number of rings (size 3 to 8) (size 9 to 14) (size 15 to 20)
#    0.000    2.818    0.000    5.182    0.000    2.545 
#    0.000    1.364    0.000    4.909    0.000    3.818 
#    0.000    0.000    0.000    0.000    0.000    0.000 
#
# Total GULP energy -245167.790736 kJ/mol
# GULP energy per Si atom -5571.995244 kJ/mol
# Density = 1.823396 g / cm^3
# Si number density = 18.275559 Si / 1000 Ang^3
#
#
#
# Elastic Constant Matrix: (Units=GPa)
#
#
# Indices 1 2 3 4 5 6 
#
# 1 64.6352 31.7224 60.6776 0.0000 0.0000 0.0000
# 2 31.7224 69.3939 64.5580 0.0000 0.0000 0.0000
# 3 60.6776 64.5580 160.7459 0.0000 0.0000 0.0000
# 4 0.0000 0.0000 0.0000 -338.9217 0.0000 0.0000
# 5 0.0000 0.0000 0.0000 0.0000 9.0770 0.0000
# 6 0.0000 0.0000 0.0000 0.0000 0.0000 22.3464
#
#
#
# Elastic Compliance Matrix: (Units=1/GPa)
#
#
# Indices 1 2 3 4 5 6 
#
# 1 0.024699 -0.004178 -0.007645 0.000000 0.000000 0.000000
# 2 -0.004178 0.023713 -0.007946 0.000000 0.000000 0.000000
# 3 -0.007645 -0.007946 0.012298 0.000000 0.000000 0.000000
# 4 0.000000 0.000000 0.000000 -0.002951 0.000000 0.000000
# 5 0.000000 0.000000 0.000000 0.000000 0.110169 0.000000
# 6 0.000000 0.000000 0.000000 0.000000 0.000000 0.044750
#
#
# Mechanical properties :
#
#
# Convention : Reuss Voigt Hill
#
# Bulk Modulus (GPa) = 47.23511 67.63236 57.43374
# Shear Modulus (GPa) = 19.28446 -52.31186 -16.51370
#
# Velocity S-wave (km/s) = 3.25192 -5.35594 -3.00925
# Velocity P-wave (km/s) = 6.32472 1.07739 4.40689
#
# Compressibility (1/GPa) = 0.02117069
#
# Stress axis : x y z
#
# Youngs Moduli (GPa) = 40.48694 42.17071 81.31240
#
# Poissons Ratio (x) = 0.17621 0.62165
# Poissons Ratio (y) = 0.16917 0.64613
# Poissons Ratio (z) = 0.30953 0.33510
#
# Static dielectric constant tensor:
#      x y z
#    x 1.611860 0.000000 0.000000 
#    y 0.000000 1.616600 0.000000 
#    z 0.000000 0.000000 1.669810 
# 
# From -- ./inp_files/20907.got.cif
#   From: 2010.05.17/outbox.cif.g08.bks.cpg/sg47_11_cif.got.tgz:20907.got - 2010.06.03 20:15:42.
