data_PCOD9383321
_publ_section_title
;
Structure prediction by ZEFSAII (Michael W. Deem and Ramdas Pophale) SiO2 
 PCOD9383321
Probable space group: P M M M
;
_chemical_formula_sum "Si O2"
_cell_formula_units_Z 44
_cell_length_a 7.339621
_cell_length_b 30.693495
_cell_length_c 8.601581
_cell_angle_alpha 90.000000
_cell_angle_beta 90.000000
_cell_angle_gamma 90.000000
_cell_volume 1937.752302
_symmetry_space_group_name_H-M "P M M M"
_symmetry_group_IT_number 47
_symmetry_cell_setting 'orthorhombic'
loop_
_space_group_symop_operation_xyz
x,y,z
-x,-y,z
x,-y,-z
-x,y,-z
-x,-y,-z
x,y,-z
-x,y,z
x,-y,z
loop_
_atom_site_type_symbol
_atom_site_label
_atom_site_fract_x
_atom_site_fract_y
_atom_site_fract_z
Si Si1 0.778888 0.050699 0.000000
Si Si2 0.718311 0.272212 0.327889
Si Si3 0.721394 0.452569 0.317919
Si Si4 0.222035 0.095865 0.326164
Si Si5 0.722255 0.638510 0.177992
Si Si6 0.784026 0.818288 0.828010
O O1 0.720482 0.071621 0.834079
O O2 0.000000 0.054580 0.000000
O O3 0.730382 0.000000 0.000000
O O4 0.786622 0.262062 0.500000
O O5 0.500000 0.275758 0.333885
O O6 0.784955 0.319362 0.272691
O O7 0.756702 0.231633 0.217706
O O8 0.768472 0.450512 0.500000
O O9 0.500000 0.452469 0.308941
O O10 0.781010 0.500000 0.256381
O O11 0.785020 0.408559 0.237102
O O12 0.281630 0.081467 0.500000
O O13 0.279058 0.146140 0.296487
O O14 0.000000 0.092934 0.329157
O O15 0.500000 0.637794 0.186659
O O16 0.772935 0.644616 0.000000
O O17 0.000000 0.825120 0.836639
O O18 0.709013 0.826959 0.000000
#
# Coordination Sequence:
#
# PCOD9383321 Si02
#       6
#     4   8   8   8   8   8
#     4   9  16  26  40  62  93 125 159 197 236 283
#     4  10  20  32  46  66  93 124 158 196 237 283
#     4   8  13  21  33  49  71 102 139 176 216 267
#     4   9  16  27  43  63  90 124 159 195 237 283
#     4   9  16  25  37  54  79 111 144 181 228 276
#     4  10  19  32  50  70  94 125 161 199 238 283
#
# _framework density 22.706721000000002
#
# number of rings (size 3 to 8) (size 9 to 14) (size 15 to 20)
#    0.000    2.818    0.909    2.182    0.000    5.091 
#    0.000    3.636    0.000    0.000    0.000    0.000 
#    0.000    2.182    0.000   11.455    0.000   14.182 
#
# Total GULP energy -245533.639277 kJ/mol
# GULP energy per Si atom -5580.309984 kJ/mol
# Density = 2.265504 g / cm^3
# Si number density = 22.706721 Si / 1000 Ang^3
#
#
#
# Elastic Constant Matrix: (Units=GPa)
#
#
# Indices 1 2 3 4 5 6 
#
# 1 84.3398 -2.2846 4.9316 0.0000 0.0000 0.0000
# 2 -2.2846 132.9475 64.1093 0.0000 0.0000 0.0000
# 3 4.9316 64.1093 150.8933 0.0000 0.0000 0.0000
# 4 0.0000 0.0000 0.0000 39.0223 0.0000 0.0000
# 5 0.0000 0.0000 0.0000 0.0000 -6.9283 0.0000
# 6 0.0000 0.0000 0.0000 0.0000 0.0000 -1.1447
#
#
#
# Elastic Compliance Matrix: (Units=1/GPa)
#
#
# Indices 1 2 3 4 5 6 
#
# 1 0.011905 0.000493 -0.000599 0.000000 0.000000 0.000000
# 2 0.000493 0.009480 -0.004044 0.000000 0.000000 0.000000
# 3 -0.000599 -0.004044 0.008365 0.000000 0.000000 0.000000
# 4 0.000000 0.000000 0.000000 0.025626 0.000000 0.000000
# 5 0.000000 0.000000 0.000000 0.000000 -0.144336 0.000000
# 6 0.000000 0.000000 0.000000 0.000000 0.000000 -0.873584
#
#
# Mechanical properties :
#
#
# Convention : Reuss Voigt Hill
#
# Bulk Modulus (GPa) = 46.61649 55.74370 51.18010
# Shear Modulus (GPa) = -5.27931 26.28481 10.50275
#
# Velocity S-wave (km/s) = -1.52645 3.40601 2.15301
# Velocity P-wave (km/s) = 4.17943 6.33013 5.36369
#
# Compressibility (1/GPa) = 0.02145164
#
# Stress axis : x y z
#
# Youngs Moduli (GPa) = 83.99715 105.48182 119.54705
#
# Poissons Ratio (x) = -0.05203 0.07157
# Poissons Ratio (y) = -0.04143 0.48345
# Poissons Ratio (z) = 0.05029 0.42657
#
# Static dielectric constant tensor:
#      x y z
#    x 2.029250 0.000000 0.000000 
#    y 0.000000 1.811910 0.000000 
#    z 0.000000 0.000000 1.829820 
# 
# From -- ./inp_files/2247.got.cif
#   From: 2010.05.17/outbox.cif.g08.bks.cpg/sg47_2_cif.got.tgz:2247.got - 2010.06.03 20:15:42.
