data_PCOD9383488
_publ_section_title
;
Structure prediction by ZEFSAII (Michael W. Deem and Ramdas Pophale) SiO2 
 PCOD9383488
Probable space group: P M M M
;
_chemical_formula_sum "Si O2"
_cell_formula_units_Z 52
_cell_length_a 9.375700
_cell_length_b 19.460245
_cell_length_c 16.225878
_cell_angle_alpha 90.000000
_cell_angle_beta 90.000000
_cell_angle_gamma 90.000000
_cell_volume 2960.466918
_symmetry_space_group_name_H-M "P M M M"
_symmetry_group_IT_number 47
_symmetry_cell_setting 'orthorhombic'
loop_
_space_group_symop_operation_xyz
x,y,z
-x,-y,z
x,-y,-z
-x,y,-z
-x,-y,-z
x,y,-z
-x,y,z
x,-y,z
loop_
_atom_site_type_symbol
_atom_site_label
_atom_site_fract_x
_atom_site_fract_y
_atom_site_fract_z
Si Si1 0.171816 0.840081 0.333926
Si Si2 0.329936 0.718366 0.593016
Si Si3 0.669330 0.421793 0.325824
Si Si4 0.170002 0.918278 0.834594
Si Si5 0.335075 0.083621 0.000000
Si Si6 0.173322 0.921197 0.500000
Si Si7 0.161874 0.583199 0.159391
Si Si8 0.335955 0.415926 0.000000
O O1 0.245936 0.766595 0.344318
O O2 0.209471 0.878169 0.248870
O O3 0.216005 0.883687 0.415192
O O4 0.000000 0.833335 0.336006
O O5 0.285962 0.736045 0.500000
O O6 0.500000 0.729564 0.600825
O O7 0.303444 0.637900 0.608959
O O8 0.500000 0.421139 0.306940
O O9 0.705509 0.500000 0.351319
O O10 0.756616 0.403441 0.244050
O O11 0.254639 0.895331 0.916138
O O12 0.000000 0.909761 0.848164
O O13 0.195315 0.000000 0.822216
O O14 0.500000 0.105218 0.000000
O O15 0.331638 0.000000 0.000000
O O16 0.000000 0.921650 0.500000
O O17 0.222146 0.000000 0.500000
O O18 0.155110 0.500000 0.152758
O O19 0.000000 0.609222 0.159155
O O20 0.252206 0.607255 0.081170
O O21 0.336364 0.500000 0.000000
O O22 0.500000 0.394059 0.000000
#
# Coordination Sequence:
#
# PCOD9383488 Si02
#       8
#     8   8   8   8   4   4   8   4
#     4  10  19  32  52  77 104 138 176 214 257 305
#     4  10  21  36  53  73 100 133 167 208 259 314
#     4   9  18  33  52  72  94 124 166 213 259 310
#     4   9  17  30  50  77 107 140 180 222 259 297
#     4   9  17  29  47  74 107 142 178 217 263 309
#     4   9  16  28  49  77 106 135 172 214 249 289
#     4   9  16  26  42  67  97 124 152 192 243 294
#     4   9  15  23  39  64  95 130 161 187 225 287
#
# _framework density 17.564796000000001
#
# number of rings (size 3 to 8) (size 9 to 14) (size 15 to 20)
#    0.000    2.692    0.769    1.385    0.000    7.077 
#    0.000    1.538    0.000    2.769    0.000    7.538 
#    0.000    0.000    0.000    0.000    0.000    0.000 
#
# Total GULP energy -289760.218300 kJ/mol
# GULP energy per Si atom -5572.311890 kJ/mol
# Density = 1.752482 g / cm^3
# Si number density = 17.564796 Si / 1000 Ang^3
#
#
#
# Elastic Constant Matrix: (Units=GPa)
#
#
# Indices 1 2 3 4 5 6 
#
# 1 48.3890 33.2826 53.1243 0.0000 0.0000 0.0000
# 2 33.2826 66.6578 48.5382 0.0000 0.0000 0.0000
# 3 53.1243 48.5382 129.5650 0.0000 0.0000 0.0000
# 4 0.0000 0.0000 0.0000 17.3931 0.0000 0.0000
# 5 0.0000 0.0000 0.0000 0.0000 20.0375 0.0000
# 6 0.0000 0.0000 0.0000 0.0000 0.0000 19.9604
#
#
#
# Elastic Compliance Matrix: (Units=1/GPa)
#
#
# Indices 1 2 3 4 5 6 
#
# 1 0.043643 -0.012047 -0.013381 0.000000 0.000000 0.000000
# 2 -0.012047 0.023955 -0.004035 0.000000 0.000000 0.000000
# 3 -0.013381 -0.004035 0.014716 0.000000 0.000000 0.000000
# 4 0.000000 0.000000 0.000000 0.057494 0.000000 0.000000
# 5 0.000000 0.000000 0.000000 0.000000 0.049906 0.000000
# 6 0.000000 0.000000 0.000000 0.000000 0.000000 0.050099
#
#
# Mechanical properties :
#
#
# Convention : Reuss Voigt Hill
#
# Bulk Modulus (GPa) = 42.75704 57.16690 49.96197
# Shear Modulus (GPa) = 16.31131 18.78933 17.55032
#
# Velocity S-wave (km/s) = 3.05066 3.27420 3.16440
# Velocity P-wave (km/s) = 6.06663 6.84914 6.46973
#
# Compressibility (1/GPa) = 0.02338796
#
# Stress axis : x y z
#
# Youngs Moduli (GPa) = 22.91323 41.74477 67.95258
#
# Poissons Ratio (x) = 0.50291 0.90929
# Poissons Ratio (y) = 0.27604 0.27416
# Poissons Ratio (z) = 0.30661 0.16842
#
# Static dielectric constant tensor:
#      x y z
#    x 1.587490 0.000000 0.000000 
#    y 0.000000 1.591580 0.000000 
#    z 0.000000 0.000000 1.589150 
# 
# From -- ./inp_files/21552.got.cif
#   From: 2010.05.17/outbox.cif.g08.bks.cpg/sg47_11_cif.got.tgz:21552.got - 2010.06.03 20:15:42.
