data_PCOD9383807
_publ_section_title
;
Structure prediction by ZEFSAII (Michael W. Deem and Ramdas Pophale) SiO2 
 PCOD9383807
Probable space group: P M M M
;
_chemical_formula_sum "Si O2"
_cell_formula_units_Z 52
_cell_length_a 12.847532
_cell_length_b 13.088115
_cell_length_c 17.423635
_cell_angle_alpha 90.000000
_cell_angle_beta 90.000000
_cell_angle_gamma 90.000000
_cell_volume 2929.783812
_symmetry_space_group_name_H-M "P M M M"
_symmetry_group_IT_number 47
_symmetry_cell_setting 'orthorhombic'
loop_
_space_group_symop_operation_xyz
x,y,z
-x,-y,z
x,-y,-z
-x,y,-z
-x,-y,-z
x,y,-z
-x,y,z
x,-y,z
loop_
_atom_site_type_symbol
_atom_site_label
_atom_site_fract_x
_atom_site_fract_y
_atom_site_fract_z
Si Si1 0.000000 0.623725 0.912569
Si Si2 0.789296 0.621206 0.176850
Si Si3 0.373647 0.000000 0.911007
Si Si4 0.119800 0.379270 0.500000
Si Si5 0.165713 0.118830 0.412197
Si Si6 0.880618 0.314966 0.663171
Si Si7 0.615363 0.119707 0.656350
Si Si8 0.622810 0.208179 0.824741
O O1 0.893907 0.652295 0.869193
O O2 0.000000 0.500000 0.913400
O O3 0.000000 0.660448 0.000000
O O4 0.769832 0.500000 0.165311
O O5 0.817471 0.642870 0.265669
O O6 0.693680 0.694691 0.155425
O O7 0.342112 0.895159 0.868662
O O8 0.500000 0.000000 0.908190
O O9 0.341723 0.000000 0.000000
O O10 0.115121 0.500000 0.500000
O O11 0.166709 0.347753 0.418836
O O12 0.000000 0.340227 0.500000
O O13 0.135060 0.144382 0.500000
O O14 0.118397 0.192782 0.348090
O O15 0.290053 0.131804 0.401972
O O16 0.140491 0.000000 0.399960
O O17 0.000000 0.352826 0.669295
O O18 0.500000 0.141955 0.625176
O O19 0.631680 0.184101 0.733750
O O20 0.616045 0.000000 0.679820
O O21 0.500000 0.225000 0.841239
#
# Coordination Sequence:
#
# PCOD9383807 Si02
#       8
#     4   8   4   4   8   8   8   8
#     4   9  20  40  62  82 106 141 184 226 271 324
#     4  11  22  36  58  84 112 147 188 234 278 332
#     4   9  18  34  58  87 114 142 179 221 267 325
#     4   9  18  30  47  69  96 129 169 227 281 315
#     4  10  20  32  48  73 105 141 181 226 282 342
#     4  11  20  33  51  75 103 137 184 231 276 326
#     4   9  16  29  50  73  99 134 177 223 267 311
#     4  10  19  33  56  85 116 148 180 221 275 330
#
# _framework density 17.748750999999999
#
# number of rings (size 3 to 8) (size 9 to 14) (size 15 to 20)
#    0.000    2.077    3.846    0.462    0.000    2.154 
#    0.000    2.308    0.000    0.462    0.000    5.385 
#    0.000    4.923    0.000    0.000    0.000    0.000 
#
# Total GULP energy -289767.534367 kJ/mol
# GULP energy per Si atom -5572.452584 kJ/mol
# Density = 1.770835 g / cm^3
# Si number density = 17.748751 Si / 1000 Ang^3
#
#
#
# Elastic Constant Matrix: (Units=GPa)
#
#
# Indices 1 2 3 4 5 6 
#
# 1 80.9514 46.0541 22.2260 0.0000 0.0000 0.0000
# 2 46.0541 100.8773 29.6914 0.0000 0.0000 0.0000
# 3 22.2260 29.6914 76.3249 0.0000 0.0000 0.0000
# 4 0.0000 0.0000 0.0000 14.4359 0.0000 0.0000
# 5 0.0000 0.0000 0.0000 0.0000 7.9650 0.0000
# 6 0.0000 0.0000 0.0000 0.0000 0.0000 26.1527
#
#
#
# Elastic Compliance Matrix: (Units=1/GPa)
#
#
# Indices 1 2 3 4 5 6 
#
# 1 0.017003 -0.007120 -0.002181 0.000000 0.000000 0.000000
# 2 -0.007120 0.014177 -0.003441 0.000000 0.000000 0.000000
# 3 -0.002181 -0.003441 0.015076 0.000000 0.000000 0.000000
# 4 0.000000 0.000000 0.000000 0.069272 0.000000 0.000000
# 5 0.000000 0.000000 0.000000 0.000000 0.125550 0.000000
# 6 0.000000 0.000000 0.000000 0.000000 0.000000 0.038237
#
#
# Mechanical properties :
#
#
# Convention : Reuss Voigt Hill
#
# Bulk Modulus (GPa) = 48.14855 50.45517 49.30186
# Shear Modulus (GPa) = 16.03986 20.38951 18.21469
#
# Velocity S-wave (km/s) = 3.00945 3.39305 3.20699
# Velocity P-wave (km/s) = 6.26598 6.62114 6.44601
#
# Compressibility (1/GPa) = 0.02076906
#
# Stress axis : x y z
#
# Youngs Moduli (GPa) = 58.81363 70.53846 66.33115
#
# Poissons Ratio (x) = 0.50226 0.14469
# Poissons Ratio (y) = 0.41877 0.22827
# Poissons Ratio (z) = 0.12829 0.24275
#
# Static dielectric constant tensor:
#      x y z
#    x 1.625950 0.000000 0.000000 
#    y 0.000000 1.638650 0.000000 
#    z 0.000000 0.000000 1.614000 
# 
# From -- ./inp_files/28216.got.cif
#   From: 2010.05.17/outbox.cif.g08.bks.cpg/sg47_15_cif.got.tgz:28216.got - 2010.06.03 20:15:42.
