data_PCOD9383378
_publ_section_title
;
Structure prediction by ZEFSAII (Michael W. Deem and Ramdas Pophale) SiO2 
 PCOD9383378
Probable space group: P M M M
;
_chemical_formula_sum "Si O2"
_cell_formula_units_Z 64
_cell_length_a 7.773878
_cell_length_b 20.217602
_cell_length_c 21.479238
_cell_angle_alpha 90.000000
_cell_angle_beta 90.000000
_cell_angle_gamma 90.000000
_cell_volume 3375.874039
_symmetry_space_group_name_H-M "P M M M"
_symmetry_group_IT_number 47
_symmetry_cell_setting 'orthorhombic'
loop_
_space_group_symop_operation_xyz
x,y,z
-x,-y,z
x,-y,-z
-x,y,-z
-x,-y,-z
x,y,-z
-x,y,z
x,-y,z
loop_
_atom_site_type_symbol
_atom_site_label
_atom_site_fract_x
_atom_site_fract_y
_atom_site_fract_z
Si Si1 0.702310 0.287689 0.191991
Si Si2 0.704102 0.072526 0.107883
Si Si3 0.208822 0.073637 0.253196
Si Si4 0.797260 0.793372 0.686781
Si Si5 0.206496 0.573533 0.239174
Si Si6 0.203862 0.714792 0.568071
Si Si7 0.289141 0.785044 0.068030
Si Si8 0.703141 0.573278 0.615565
O O1 0.500000 0.273232 0.195259
O O2 0.781620 0.252961 0.252577
O O3 0.729328 0.365876 0.198185
O O4 0.769141 0.256980 0.127561
O O5 0.500000 0.070351 0.095113
O O6 0.729260 0.081118 0.182079
O O7 0.770226 0.139014 0.076215
O O8 0.775903 0.000000 0.090761
O O9 0.273455 0.134699 0.294382
O O10 0.000000 0.076033 0.251389
O O11 0.259414 0.000000 0.274587
O O12 0.723282 0.756253 0.626375
O O13 0.000000 0.802793 0.675260
O O14 0.261365 0.500000 0.218799
O O15 0.268126 0.582140 0.310387
O O16 0.000000 0.575684 0.240305
O O17 0.277418 0.730410 0.500000
O O18 0.222254 0.636826 0.581686
O O19 0.000000 0.728090 0.565990
O O20 0.500000 0.785232 0.069437
O O21 0.237020 0.760035 0.000000
O O22 0.500000 0.573010 0.603480
O O23 0.772107 0.500000 0.599025
#
# Coordination Sequence:
#
# PCOD9383378 Si02
#       8
#     8   8   8   8   8   8   8   8
#     4  11  20  31  52  78 101 129 166 209 250 292
#     4   9  16  27  45  69  97 130 168 205 242 289
#     4   9  17  29  47  71  98 128 163 206 256 301
#     4  10  19  32  51  72  97 131 168 209 252 297
#     4  10  20  34  53  76 102 131 163 202 249 298
#     4  10  21  35  50  70  98 135 174 209 250 301
#     4   9  18  31  46  70 104 136 166 204 250 296
#     4  10  20  33  50  74 103 133 166 204 245 291
#
# _framework density 18.958054000000001
#
# number of rings (size 3 to 8) (size 9 to 14) (size 15 to 20)
#    0.000    2.250    2.500    1.125    0.000    2.250 
#    0.000    2.500    0.000    4.125    0.000    7.000 
#    0.000    0.000    0.000    5.375    0.000    5.750 
#
# Total GULP energy -357029.253679 kJ/mol
# GULP energy per Si atom -5578.582089 kJ/mol
# Density = 1.891490 g / cm^3
# Si number density = 18.958054 Si / 1000 Ang^3
#
#
#
# Elastic Constant Matrix: (Units=GPa)
#
#
# Indices 1 2 3 4 5 6 
#
# 1 24.8737 -9.3486 -6.5937 0.0000 0.0000 0.0000
# 2 -9.3486 109.1922 61.2954 0.0000 0.0000 0.0000
# 3 -6.5937 61.2954 114.2413 0.0000 0.0000 0.0000
# 4 0.0000 0.0000 0.0000 22.8189 0.0000 0.0000
# 5 0.0000 0.0000 0.0000 0.0000 12.1304 0.0000
# 6 0.0000 0.0000 0.0000 0.0000 0.0000 12.1071
#
#
#
# Elastic Compliance Matrix: (Units=1/GPa)
#
#
# Indices 1 2 3 4 5 6 
#
# 1 0.041579 0.003166 0.000701 0.000000 0.000000 0.000000
# 2 0.003166 0.013347 -0.006978 0.000000 0.000000 0.000000
# 3 0.000701 -0.006978 0.012538 0.000000 0.000000 0.000000
# 4 0.000000 0.000000 0.000000 0.043823 0.000000 0.000000
# 5 0.000000 0.000000 0.000000 0.000000 0.082437 0.000000
# 6 0.000000 0.000000 0.000000 0.000000 0.000000 0.082596
#
#
# Mechanical properties :
#
#
# Convention : Reuss Voigt Hill
#
# Bulk Modulus (GPa) = 16.32879 37.66817 26.99848
# Shear Modulus (GPa) = 16.50406 22.94156 19.72281
#
# Velocity S-wave (km/s) = 2.95372 3.48245 3.22893
# Velocity P-wave (km/s) = 4.50160 6.00686 5.30786
#
# Compressibility (1/GPa) = 0.06124153
#
# Stress axis : x y z
#
# Youngs Moduli (GPa) = 24.05064 74.92593 79.75768
#
# Poissons Ratio (x) = -0.23724 -0.05590
# Poissons Ratio (y) = -0.07615 0.55657
# Poissons Ratio (z) = -0.01686 0.52285
#
# Static dielectric constant tensor:
#      x y z
#    x 1.725670 0.000000 0.000000 
#    y 0.000000 1.682260 0.000000 
#    z 0.000000 0.000000 1.654150 
# 
# From -- ./inp_files/30114.got.cif
#   From: 2010.05.17/outbox.cif.g08.bks.cpg/sg47_16_cif.got.tgz:30114.got - 2010.06.03 20:15:42.
