data_PCOD9383918
_publ_section_title
;
Structure prediction by ZEFSAII (Michael W. Deem and Ramdas Pophale) SiO2 
 PCOD9383918
Probable space group: P M M M
;
_chemical_formula_sum "Si O2"
_cell_formula_units_Z 48
_cell_length_a 17.560314
_cell_length_b 15.365255
_cell_length_c 8.722695
_cell_angle_alpha 90.000000
_cell_angle_beta 90.000000
_cell_angle_gamma 90.000000
_cell_volume 2353.546247
_symmetry_space_group_name_H-M "P M M M"
_symmetry_group_IT_number 47
_symmetry_cell_setting 'orthorhombic'
loop_
_space_group_symop_operation_xyz
x,y,z
-x,-y,z
x,-y,-z
-x,y,-z
-x,-y,-z
x,y,-z
-x,y,z
x,-y,z
loop_
_atom_site_type_symbol
_atom_site_label
_atom_site_fract_x
_atom_site_fract_y
_atom_site_fract_z
Si Si1 0.790361 0.601657 0.180833
Si Si2 0.907670 0.095517 0.179855
Si Si3 0.327386 0.096443 0.827215
Si Si4 0.500000 0.727471 0.184864
Si Si5 0.658598 0.716972 0.680982
Si Si6 0.908732 0.724023 0.321647
Si Si7 0.500000 0.090841 0.248872
O O1 0.794530 0.500000 0.219877
O O2 0.725105 0.651292 0.273648
O O3 0.868028 0.651414 0.221471
O O4 0.774751 0.610025 0.000000
O O5 0.881236 0.179811 0.270878
O O6 0.000000 0.094595 0.190323
O O7 0.881264 0.000000 0.232929
O O8 0.889200 0.104506 0.000000
O O9 0.316258 0.184830 0.732484
O O10 0.419627 0.090285 0.836969
O O11 0.303180 0.000000 0.768756
O O12 0.297256 0.107019 0.000000
O O13 0.418057 0.688669 0.226970
O O14 0.500000 0.810619 0.303644
O O15 0.500000 0.746814 0.000000
O O16 0.645021 0.716401 0.500000
O O17 0.891067 0.710458 0.500000
O O18 0.000000 0.721346 0.302362
O O19 0.500000 0.000000 0.339039
#
# Coordination Sequence:
#
# PCOD9383918 Si02
#       7
#     8   8   8   4   8   8   4
#     4  11  25  45  67  87 110 147 195 244 295 353
#     4   8  14  27  50  81 118 160 202 239 275 323
#     4   9  16  28  49  77 112 155 198 236 278 335
#     4  10  19  34  57  83 115 155 199 240 279 339
#     4  11  22  37  59  88 122 154 189 240 299 352
#     4  10  21  37  60  92 127 159 191 234 290 348
#     4   8  12  20  40  71 104 142 188 231 269 313
#
# _framework density 20.394756999999998
#
# number of rings (size 3 to 8) (size 9 to 14) (size 15 to 20)
#    0.000    2.333    0.000    5.000    0.000    5.167 
#    0.000    4.583    0.000   12.500    0.000    0.000 
#    0.000    0.000    0.000    0.000    0.000    0.000 
#
# Total GULP energy -267406.727085 kJ/mol
# GULP energy per Si atom -5570.973481 kJ/mol
# Density = 2.034834 g / cm^3
# Si number density = 20.394757 Si / 1000 Ang^3
#
#
#
# Elastic Constant Matrix: (Units=GPa)
#
#
# Indices 1 2 3 4 5 6 
#
# 1 61.2689 30.0475 24.2343 0.0000 0.0000 0.0000
# 2 30.0475 123.1461 51.8298 0.0000 0.0000 0.0000
# 3 24.2343 51.8298 86.1275 0.0000 0.0000 0.0000
# 4 0.0000 0.0000 0.0000 -16.5358 0.0000 0.0000
# 5 0.0000 0.0000 0.0000 0.0000 15.2161 0.0000
# 6 0.0000 0.0000 0.0000 0.0000 0.0000 26.2760
#
#
#
# Elastic Compliance Matrix: (Units=1/GPa)
#
#
# Indices 1 2 3 4 5 6 
#
# 1 0.019287 -0.003243 -0.003475 0.000000 0.000000 0.000000
# 2 -0.003243 0.011420 -0.005960 0.000000 0.000000 0.000000
# 3 -0.003475 -0.005960 0.016175 0.000000 0.000000 0.000000
# 4 0.000000 0.000000 0.000000 -0.060475 0.000000 0.000000
# 5 0.000000 0.000000 0.000000 0.000000 0.065720 0.000000
# 6 0.000000 0.000000 0.000000 0.000000 0.000000 0.038057
#
#
# Mechanical properties :
#
#
# Convention : Reuss Voigt Hill
#
# Bulk Modulus (GPa) = 46.45679 53.64063 50.04871
# Shear Modulus (GPa) = 40.74449 15.95332 28.34891
#
# Velocity S-wave (km/s) = 4.47452 2.79987 3.73233
# Velocity P-wave (km/s) = 7.03728 6.06718 6.57016
#
# Compressibility (1/GPa) = 0.02152538
#
# Stress axis : x y z
#
# Youngs Moduli (GPa) = 51.84946 87.56428 61.82381
#
# Poissons Ratio (x) = 0.28400 0.21484
# Poissons Ratio (y) = 0.16817 0.36846
# Poissons Ratio (z) = 0.18018 0.52187
#
# Static dielectric constant tensor:
#      x y z
#    x 1.776880 0.000000 0.000000 
#    y 0.000000 1.743130 0.000000 
#    z 0.000000 0.000000 1.691880 
# 
# From -- ./inp_files/9168.got.cif
#   From: 2010.05.17/outbox.cif.g08.bks.cpg/sg47_5_cif.got.tgz:9168.got - 2010.06.03 20:15:42.
