data_PCOD9383891
_publ_section_title
;
Structure prediction by ZEFSAII (Michael W. Deem and Ramdas Pophale) SiO2 
 PCOD9383891
Probable space group: P M M M
;
_chemical_formula_sum "Si O2"
_cell_formula_units_Z 48
_cell_length_a 16.832001
_cell_length_b 8.335657
_cell_length_c 17.316658
_cell_angle_alpha 90.000000
_cell_angle_beta 90.000000
_cell_angle_gamma 90.000000
_cell_volume 2429.627328
_symmetry_space_group_name_H-M "P M M M"
_symmetry_group_IT_number 47
_symmetry_cell_setting 'orthorhombic'
loop_
_space_group_symop_operation_xyz
x,y,z
-x,-y,z
x,-y,-z
-x,y,-z
-x,-y,-z
x,y,-z
-x,y,z
x,-y,z
loop_
_atom_site_type_symbol
_atom_site_label
_atom_site_fract_x
_atom_site_fract_y
_atom_site_fract_z
Si Si1 0.410515 0.189584 0.676858
Si Si2 0.644738 0.312756 0.160758
Si Si3 0.406871 0.317467 0.000000
Si Si4 0.815375 0.319508 0.907598
Si Si5 0.913242 0.807229 0.408690
Si Si6 0.088558 0.000000 0.093449
Si Si7 0.744619 0.691035 0.588120
O O1 0.500000 0.251801 0.659187
O O2 0.389846 0.224615 0.765924
O O3 0.336316 0.260987 0.630328
O O4 0.411285 0.000000 0.663107
O O5 0.618459 0.500000 0.165540
O O6 0.615990 0.238880 0.080069
O O7 0.739225 0.313702 0.148303
O O8 0.370562 0.500000 0.000000
O O9 0.500000 0.335103 0.000000
O O10 0.850537 0.500000 0.900795
O O11 0.868313 0.166447 0.886784
O O12 0.793479 0.303119 0.000000
O O13 0.912694 0.761442 0.500000
O O14 0.828823 0.748283 0.376130
O O15 0.000000 0.752441 0.377604
O O16 0.912637 0.000000 0.404859
O O17 0.000000 0.000000 0.125431
O O18 0.084756 0.000000 0.000000
O O19 0.740871 0.754456 0.500000
O O20 0.748176 0.500000 0.586015
#
# Coordination Sequence:
#
# PCOD9383891 Si02
#       7
#     8   8   4   8   8   4   8
#     4  11  25  41  56  79 112 151 195 240 288 342
#     4  10  19  34  56  81 109 144 185 229 282 339
#     4   9  16  28  51  81 109 138 174 219 274 336
#     4   9  17  31  52  79 110 146 188 231 283 347
#     4   8  14  27  51  84 119 151 181 217 268 333
#     4   9  18  30  48  78 110 144 187 236 291 345
#     4  10  21  37  59  86 114 148 191 237 286 338
#
# _framework density 19.756115999999999
#
# number of rings (size 3 to 8) (size 9 to 14) (size 15 to 20)
#    0.000    2.500    0.833    2.000    1.167    4.000 
#    0.000    5.417    0.000    2.500    0.000    2.333 
#    0.000    0.000    0.000    0.000    0.000    0.000 
#
# Total GULP energy -267352.278731 kJ/mol
# GULP energy per Si atom -5569.839140 kJ/mol
# Density = 1.971115 g / cm^3
# Si number density = 19.756116 Si / 1000 Ang^3
#
#
#
# Elastic Constant Matrix: (Units=GPa)
#
#
# Indices 1 2 3 4 5 6 
#
# 1 173.3030 52.1112 41.5253 0.0000 0.0000 0.0000
# 2 52.1112 62.3730 2.4643 0.0000 0.0000 0.0000
# 3 41.5253 2.4643 39.0763 0.0000 0.0000 0.0000
# 4 0.0000 0.0000 0.0000 20.4811 0.0000 0.0000
# 5 0.0000 0.0000 0.0000 0.0000 13.1434 0.0000
# 6 0.0000 0.0000 0.0000 0.0000 0.0000 -39.1469
#
#
#
# Elastic Compliance Matrix: (Units=1/GPa)
#
#
# Indices 1 2 3 4 5 6 
#
# 1 0.011135 -0.008858 -0.011274 0.000000 0.000000 0.000000
# 2 -0.008858 0.023119 0.007955 0.000000 0.000000 0.000000
# 3 -0.011274 0.007955 0.037070 0.000000 0.000000 0.000000
# 4 0.000000 0.000000 0.000000 0.048825 0.000000 0.000000
# 5 0.000000 0.000000 0.000000 0.000000 0.076084 0.000000
# 6 0.000000 0.000000 0.000000 0.000000 0.000000 -0.025545
#
#
# Mechanical properties :
#
#
# Convention : Reuss Voigt Hill
#
# Bulk Modulus (GPa) = 21.29034 51.88380 36.58707
# Shear Modulus (GPa) = 23.73044 10.80562 17.26803
#
# Velocity S-wave (km/s) = 3.46955 2.34123 2.95966
# Velocity P-wave (km/s) = 5.18173 5.79894 5.49900
#
# Compressibility (1/GPa) = 0.04696965
#
# Stress axis : x y z
#
# Youngs Moduli (GPa) = 89.80530 43.25494 26.97577
#
# Poissons Ratio (x) = 0.38314 0.30414
# Poissons Ratio (y) = 0.79547 -0.21459
# Poissons Ratio (z) = 1.01251 -0.34409
#
# Static dielectric constant tensor:
#      x y z
#    x 1.733700 0.000000 0.000000 
#    y 0.000000 1.721610 0.000000 
#    z 0.000000 0.000000 1.716850 
# 
# From -- ./inp_files/27980.got.cif
#   From: 2010.05.17/outbox.cif.g08.bks.cpg/sg47_14_cif.got.tgz:27980.got - 2010.06.03 20:15:42.
