data_PCOD9383094
_publ_section_title
;
Structure prediction by ZEFSAII (Michael W. Deem and Ramdas Pophale) SiO2 
 PCOD9383094
Probable space group: P M M M
;
_chemical_formula_sum "Si O2"
_cell_formula_units_Z 44
_cell_length_a 14.235220
_cell_length_b 7.949126
_cell_length_c 18.715656
_cell_angle_alpha 90.000000
_cell_angle_beta 90.000000
_cell_angle_gamma 90.000000
_cell_volume 2117.817918
_symmetry_space_group_name_H-M "P M M M"
_symmetry_group_IT_number 47
_symmetry_cell_setting 'orthorhombic'
loop_
_space_group_symop_operation_xyz
x,y,z
-x,-y,z
x,-y,-z
-x,y,-z
-x,-y,-z
x,y,-z
-x,y,z
x,-y,z
loop_
_atom_site_type_symbol
_atom_site_label
_atom_site_fract_x
_atom_site_fract_y
_atom_site_fract_z
Si Si1 0.396536 0.303504 0.353725
Si Si2 0.000000 0.810333 0.414899
Si Si3 0.606290 0.199669 0.809141
Si Si4 0.804764 0.698917 0.652209
Si Si5 0.766079 0.205846 0.918736
Si Si6 0.103847 0.201614 0.796688
O O1 0.500000 0.229778 0.373014
O O2 0.400034 0.500000 0.374724
O O3 0.389353 0.289973 0.267378
O O4 0.294836 0.231154 0.377647
O O5 0.098818 0.734835 0.389525
O O6 0.000000 0.810431 0.500000
O O7 0.000000 0.000000 0.385566
O O8 0.500000 0.217187 0.836006
O O9 0.678509 0.257256 0.869315
O O10 0.623297 0.000000 0.795321
O O11 0.792957 0.500000 0.654201
O O12 0.825417 0.758098 0.732759
O O13 0.856488 0.259186 0.872727
O O14 0.765189 0.000000 0.920952
O O15 0.763459 0.265459 0.000000
O O16 0.000000 0.269226 0.780419
O O17 0.098317 0.000000 0.799692
#
# Coordination Sequence:
#
# PCOD9383094 Si02
#       6
#     8   4   8   8   8   8
#     4   9  18  32  51  78 111 144 179 222 270 317
#     4  11  25  43  63  89 120 149 174 207 257 314
#     4   9  16  26  43  67  94 128 174 228 280 325
#     4  11  21  34  58  87 113 145 182 222 263 313
#     4   9  17  28  42  64  96 134 179 230 280 328
#     4  10  19  31  49  72 100 137 179 226 277 329
#
# _framework density 20.776102999999999
#
# number of rings (size 3 to 8) (size 9 to 14) (size 15 to 20)
#    0.000    2.273    2.727    0.818    0.000    2.182 
#    0.000    3.636    0.000    2.727    0.000    7.636 
#    0.000    0.000    0.000    0.000    0.000    0.000 
#
# Total GULP energy -245222.539104 kJ/mol
# GULP energy per Si atom -5573.239525 kJ/mol
# Density = 2.072882 g / cm^3
# Si number density = 20.776103 Si / 1000 Ang^3
#
#
#
# Elastic Constant Matrix: (Units=GPa)
#
#
# Indices 1 2 3 4 5 6 
#
# 1 170.1497 8.8061 7.6933 0.0000 0.0000 0.0000
# 2 8.8061 20.1595 -5.4943 0.0000 0.0000 0.0000
# 3 7.6933 -5.4943 22.5850 0.0000 0.0000 0.0000
# 4 0.0000 0.0000 0.0000 73.7346 0.0000 0.0000
# 5 0.0000 0.0000 0.0000 0.0000 19.9508 0.0000
# 6 0.0000 0.0000 0.0000 0.0000 0.0000 14.5939
#
#
#
# Elastic Compliance Matrix: (Units=1/GPa)
#
#
# Indices 1 2 3 4 5 6 
#
# 1 0.006193 -0.003513 -0.002964 0.000000 0.000000 0.000000
# 2 -0.003513 0.055120 0.014606 0.000000 0.000000 0.000000
# 3 -0.002964 0.014606 0.048840 0.000000 0.000000 0.000000
# 4 0.000000 0.000000 0.000000 0.013562 0.000000 0.000000
# 5 0.000000 0.000000 0.000000 0.000000 0.050123 0.000000
# 6 0.000000 0.000000 0.000000 0.000000 0.000000 0.068522
#
#
# Mechanical properties :
#
#
# Convention : Reuss Voigt Hill
#
# Bulk Modulus (GPa) = 7.91076 26.10046 17.00561
# Shear Modulus (GPa) = 18.64006 35.11516 26.87761
#
# Velocity S-wave (km/s) = 2.99856 4.11563 3.60068
# Velocity P-wave (km/s) = 3.97547 5.93081 5.04871
#
# Compressibility (1/GPa) = 0.12641011
#
# Stress axis : x y z
#
# Youngs Moduli (GPa) = 161.47200 18.14232 20.47495
#
# Poissons Ratio (x) = 0.06374 0.06069
# Poissons Ratio (y) = 0.56727 -0.29906
# Poissons Ratio (z) = 0.47864 -0.26499
#
# Static dielectric constant tensor:
#      x y z
#    x 1.838900 0.000000 0.000000 
#    y 0.000000 1.773400 0.000000 
#    z 0.000000 0.000000 1.697340 
# 
# From -- ./inp_files/24325.got.cif
#   From: 2010.05.17/outbox.cif.g08.bks.cpg/sg47_13_cif.got.tgz:24325.got - 2010.06.03 20:15:42.
