data_PCOD9383254
_publ_section_title
;
Structure prediction by ZEFSAII (Michael W. Deem and Ramdas Pophale) SiO2 
 PCOD9383254
Probable space group: P M M M
;
_chemical_formula_sum "Si O2"
_cell_formula_units_Z 28
_cell_length_a 9.288025
_cell_length_b 20.101965
_cell_length_c 7.540545
_cell_angle_alpha 90.000000
_cell_angle_beta 90.000000
_cell_angle_gamma 90.000000
_cell_volume 1407.876709
_symmetry_space_group_name_H-M "P M M M"
_symmetry_group_IT_number 47
_symmetry_cell_setting 'orthorhombic'
loop_
_space_group_symop_operation_xyz
x,y,z
-x,-y,z
x,-y,-z
-x,y,-z
-x,-y,-z
x,y,-z
-x,y,z
x,-y,z
loop_
_atom_site_type_symbol
_atom_site_label
_atom_site_fract_x
_atom_site_fract_y
_atom_site_fract_z
Si Si1 0.333517 0.425558 0.716092
Si Si2 0.169154 0.920635 0.500000
Si Si3 0.332105 0.838925 0.203997
Si Si4 0.165560 0.704790 0.715417
O O1 0.331272 0.425584 0.500000
O O2 0.500000 0.414624 0.768485
O O3 0.290322 0.500000 0.772871
O O4 0.233321 0.365265 0.774446
O O5 0.245576 0.888110 0.330757
O O6 0.000000 0.903245 0.500000
O O7 0.183598 0.000000 0.500000
O O8 0.500000 0.835817 0.255784
O O9 0.261451 0.766200 0.221617
O O10 0.323137 0.860353 0.000000
O O11 0.168155 0.706032 0.500000
O O12 0.000000 0.711838 0.771520
#
# Coordination Sequence:
#
# PCOD9383254 Si02
#       4
#     8   4   8   8
#     4   8  14  25  43  70 106 150 199 249 301 357
#     4  11  25  45  69  97 128 161 196 239 297 359
#     4  11  24  41  64  93 124 162 206 250 297 352
#     4  10  19  31  52  82 116 156 200 249 306 361
#
# _framework density 19.888104999999999
#
# number of rings (size 3 to 8) (size 9 to 14) (size 15 to 20)
#    0.000    2.143    1.429    3.000    0.000    5.714 
#    0.000    5.714    0.000    0.857    0.000    6.000 
#    0.000    0.000    0.000    0.000    0.000    0.000 
#
# Total GULP energy -156486.493609 kJ/mol
# GULP energy per Si atom -5588.803343 kJ/mol
# Density = 1.984284 g / cm^3
# Si number density = 19.888105 Si / 1000 Ang^3
#
#
#
# Elastic Constant Matrix: (Units=GPa)
#
#
# Indices 1 2 3 4 5 6 
#
# 1 184.6385 106.1486 57.4617 0.0000 0.0000 0.0000
# 2 106.1486 123.3715 44.0927 0.0000 0.0000 0.0000
# 3 57.4617 44.0927 78.0366 0.0000 0.0000 0.0000
# 4 0.0000 0.0000 0.0000 -25.2225 0.0000 0.0000
# 5 0.0000 0.0000 0.0000 0.0000 0.0964 0.0000
# 6 0.0000 0.0000 0.0000 0.0000 0.0000 41.3225
#
#
#
# Elastic Compliance Matrix: (Units=1/GPa)
#
#
# Indices 1 2 3 4 5 6 
#
# 1 0.011470 -0.008583 -0.003596 0.000000 0.000000 0.000000
# 2 -0.008583 0.016580 -0.003048 0.000000 0.000000 0.000000
# 3 -0.003596 -0.003048 0.017184 0.000000 0.000000 0.000000
# 4 0.000000 0.000000 0.000000 -0.039647 0.000000 0.000000
# 5 0.000000 0.000000 0.000000 0.000000 10.373366 0.000000
# 6 0.000000 0.000000 0.000000 0.000000 0.000000 0.024200
#
#
# Mechanical properties :
#
#
# Convention : Reuss Voigt Hill
#
# Bulk Modulus (GPa) = 67.65882 89.05030 78.35456
# Shear Modulus (GPa) = 0.47899 15.12886 7.80393
#
# Velocity S-wave (km/s) = 0.49129 2.76107 1.98304
# Velocity P-wave (km/s) = 5.86647 7.41873 6.68779
#
# Compressibility (1/GPa) = 0.01478004
#
# Stress axis : x y z
#
# Youngs Moduli (GPa) = 87.18738 60.31387 58.19256
#
# Poissons Ratio (x) = 0.51769 0.20925
# Poissons Ratio (y) = 0.74835 0.17736
# Poissons Ratio (z) = 0.31350 0.18383
#
# Static dielectric constant tensor:
#      x y z
#    x 1.664120 0.000000 0.000000 
#    y 0.000000 1.663220 0.000000 
#    z 0.000000 0.000000 1.750160 
# 
# From -- ./inp_files/856.got.cif
#   From: 2010.05.17/outbox.cif.g08.bks.cpg/sg47_1_cif.got.tgz:856.got - 2010.06.03 20:15:42.
