data_PCOD9383569
_publ_section_title
;
Structure prediction by ZEFSAII (Michael W. Deem and Ramdas Pophale) SiO2 
 PCOD9383569
Probable space group: P M M M
;
_chemical_formula_sum "Si O2"
_cell_formula_units_Z 45
_cell_length_a 22.182000
_cell_length_b 7.866413
_cell_length_c 14.470213
_cell_angle_alpha 90.000000
_cell_angle_beta 90.000000
_cell_angle_gamma 90.000000
_cell_volume 2524.947595
_symmetry_space_group_name_H-M "P M M M"
_symmetry_group_IT_number 47
_symmetry_cell_setting 'orthorhombic'
loop_
_space_group_symop_operation_xyz
x,y,z
-x,-y,z
x,-y,-z
-x,y,-z
-x,-y,-z
x,y,-z
-x,y,z
x,-y,z
loop_
_atom_site_type_symbol
_atom_site_label
_atom_site_fract_x
_atom_site_fract_y
_atom_site_fract_z
Si Si1 0.379247 0.796594 0.896267
Si Si2 0.875323 0.500000 0.396739
Si Si3 0.191587 0.800227 0.703632
Si Si4 0.000000 0.500000 0.500000
Si Si5 0.434130 0.698782 0.707332
Si Si6 0.313886 0.201861 0.396796
Si Si7 0.238833 0.703892 0.894984
O O1 0.419509 0.721253 0.815493
O O2 0.308923 0.753230 0.879713
O O3 0.385223 0.000000 0.892864
O O4 0.394442 0.737771 0.000000
O O5 0.845509 0.500000 0.500000
O O6 0.855207 0.668610 0.341362
O O7 0.945972 0.500000 0.420832
O O8 0.256672 0.741285 0.662946
O O9 0.198642 0.781610 0.813898
O O10 0.180714 0.000000 0.680782
O O11 0.500000 0.773566 0.685815
O O12 0.435892 0.500000 0.686091
O O13 0.377491 0.770376 0.652223
O O14 0.313307 0.275243 0.500000
O O15 0.306101 0.000000 0.403680
O O16 0.234494 0.500000 0.889810
O O17 0.223586 0.757524 0.000000
#
# Coordination Sequence:
#
# PCOD9383569 Si02
#       7
#     8   4   8   1   8   8   8
#     4  10  20  34  52  74 102 139 186 242 305 368
#     4  10  22  42  65  93 132 171 201 246 279 342
#     4  11  21  36  61  94 126 161 206 251 304 358
#     4   8  24  48  66 100 142 170 218 240 274 344
#     4  11  24  38  51  70  99 138 188 243 305 373
#     4  10  22  38  55  78 106 138 188 247 297 356
#     4  10  19  32  53  85 124 160 196 248 311 368
#
# _framework density 17.822151999999999
#
# number of rings (size 3 to 8) (size 9 to 14) (size 15 to 20)
#    0.267    1.422    2.667    2.133    1.244    5.689 
#    0.000    4.444    0.000    0.000    0.000    1.244 
#    0.000    1.422    0.000    0.000    0.000    0.000 
#
# Total GULP energy -250787.478570 kJ/mol
# GULP energy per Si atom -5573.055079 kJ/mol
# Density = 1.778159 g / cm^3
# Si number density = 17.822152 Si / 1000 Ang^3
#
#
#
# Elastic Constant Matrix: (Units=GPa)
#
#
# Indices 1 2 3 4 5 6 
#
# 1 109.0093 27.5043 48.7755 0.0000 0.0000 0.0000
# 2 27.5043 54.6841 12.8632 0.0000 0.0000 0.0000
# 3 48.7755 12.8632 94.0694 0.0000 0.0000 0.0000
# 4 0.0000 0.0000 0.0000 15.3482 0.0000 0.0000
# 5 0.0000 0.0000 0.0000 0.0000 32.7143 0.0000
# 6 0.0000 0.0000 0.0000 0.0000 0.0000 9.5227
#
#
#
# Elastic Compliance Matrix: (Units=1/GPa)
#
#
# Indices 1 2 3 4 5 6 
#
# 1 0.013242 -0.005213 -0.006153 0.000000 0.000000 0.000000
# 2 -0.005213 0.020947 -0.000161 0.000000 0.000000 0.000000
# 3 -0.006153 -0.000161 0.013843 0.000000 0.000000 0.000000
# 4 0.000000 0.000000 0.000000 0.065154 0.000000 0.000000
# 5 0.000000 0.000000 0.000000 0.000000 0.030568 0.000000
# 6 0.000000 0.000000 0.000000 0.000000 0.000000 0.105012
#
#
# Mechanical properties :
#
#
# Convention : Reuss Voigt Hill
#
# Bulk Modulus (GPa) = 40.03723 48.44986 44.24355
# Shear Modulus (GPa) = 17.84779 22.75835 20.30307
#
# Velocity S-wave (km/s) = 3.16798 3.57735 3.37887
# Velocity P-wave (km/s) = 5.99126 6.65638 6.33256
#
# Compressibility (1/GPa) = 0.02497675
#
# Stress axis : x y z
#
# Youngs Moduli (GPa) = 75.51699 47.74011 72.23856
#
# Poissons Ratio (x) = 0.24887 0.44450
# Poissons Ratio (y) = 0.39366 0.01166
# Poissons Ratio (z) = 0.46468 0.00770
#
# Static dielectric constant tensor:
#      x y z
#    x 1.588440 0.000000 0.000000 
#    y 0.000000 1.634020 0.000000 
#    z 0.000000 0.000000 1.648560 
# 
# From -- ./inp_files/24947.got.cif
#   From: 2010.05.17/outbox.cif.g08.bks.cpg/sg47_13_cif.got.tgz:24947.got - 2010.06.03 20:15:42.
