data_PCOD9383603
_publ_section_title
;
Structure prediction by ZEFSAII (Michael W. Deem and Ramdas Pophale) SiO2 
 PCOD9383603
Probable space group: P M M M
;
_chemical_formula_sum "Si O2"
_cell_formula_units_Z 64
_cell_length_a 26.996417
_cell_length_b 7.684563
_cell_length_c 15.030822
_cell_angle_alpha 90.000000
_cell_angle_beta 90.000000
_cell_angle_gamma 90.000000
_cell_volume 3118.229207
_symmetry_space_group_name_H-M "P M M M"
_symmetry_group_IT_number 47
_symmetry_cell_setting 'orthorhombic'
loop_
_space_group_symop_operation_xyz
x,y,z
-x,-y,z
x,-y,-z
-x,y,-z
-x,-y,-z
x,y,-z
-x,y,z
x,-y,z
loop_
_atom_site_type_symbol
_atom_site_label
_atom_site_fract_x
_atom_site_fract_y
_atom_site_fract_z
Si Si1 0.758430 0.708256 0.399438
Si Si2 0.696300 0.207529 0.900688
Si Si3 0.555279 0.290847 0.288298
Si Si4 0.944037 0.790550 0.600425
Si Si5 0.850329 0.291864 0.282828
Si Si6 0.660637 0.206635 0.288984
Si Si7 0.559520 0.700657 0.093462
Si Si8 0.812117 0.710584 0.098345
O O1 0.757350 0.777478 0.500000
O O2 0.764587 0.500000 0.405028
O O3 0.805136 0.777309 0.343317
O O4 0.707388 0.739586 0.347834
O O5 0.669133 0.278277 0.812307
O O6 0.754843 0.238025 0.887174
O O7 0.687506 0.000000 0.903798
O O8 0.684557 0.278687 0.000000
O O9 0.500000 0.232002 0.318343
O O10 0.551571 0.500000 0.280620
O O11 0.607884 0.255462 0.333511
O O12 0.566017 0.214938 0.189372
O O13 0.931257 0.729669 0.500000
O O14 0.902379 0.741236 0.670411
O O15 0.000000 0.730069 0.621068
O O16 0.945427 0.000000 0.597649
O O17 0.844155 0.500000 0.278263
O O18 0.843751 0.226208 0.182124
O O19 0.661797 0.000000 0.282101
O O20 0.500000 0.690579 0.088852
O O21 0.577294 0.500000 0.095202
O O22 0.576368 0.782752 0.000000
O O23 0.813717 0.500000 0.096521
O O24 0.826955 0.773332 0.000000
#
# Coordination Sequence:
#
# PCOD9383603 Si02
#       8
#     8   8   8   8   8   8   8   8
#     4  10  21  37  56  79 107 135 165 208 262 316
#     4   9  18  32  48  69 101 139 176 211 250 301
#     4   9  18  32  50  70  93 126 167 208 253 307
#     4   9  19  35  53  76 109 148 188 228 269 315
#     4  10  19  32  54  83 112 140 176 220 264 313
#     4  11  22  34  51  75 104 136 169 209 256 308
#     4   7  10  19  37  61  87 114 149 194 237 278
#     4   9  17  30  50  76 106 139 175 217 262 306
#
# _framework density 20.524470999999998
#
# number of rings (size 3 to 8) (size 9 to 14) (size 15 to 20)
#    0.000    2.750    1.250    2.250    0.000    3.500 
#    0.000    0.625    0.000    0.750    0.000    8.750 
#    0.000    0.000    0.000    0.000    0.000    0.000 
#
# Total GULP energy -356651.683270 kJ/mol
# GULP energy per Si atom -5572.682551 kJ/mol
# Density = 2.047776 g / cm^3
# Si number density = 20.524471 Si / 1000 Ang^3
#
#
#
# Elastic Constant Matrix: (Units=GPa)
#
#
# Indices 1 2 3 4 5 6 
#
# 1 149.5769 -3.8866 90.9770 0.0000 0.0000 0.0000
# 2 -3.8866 38.7348 11.3277 0.0000 0.0000 0.0000
# 3 90.9770 11.3277 123.7743 0.0000 0.0000 0.0000
# 4 0.0000 0.0000 0.0000 6.6728 0.0000 0.0000
# 5 0.0000 0.0000 0.0000 0.0000 -4.7535 0.0000
# 6 0.0000 0.0000 0.0000 0.0000 0.0000 25.6019
#
#
#
# Elastic Compliance Matrix: (Units=1/GPa)
#
#
# Indices 1 2 3 4 5 6 
#
# 1 0.012698 0.004114 -0.009710 0.000000 0.000000 0.000000
# 2 0.004114 0.027859 -0.005573 0.000000 0.000000 0.000000
# 3 -0.009710 -0.005573 0.015726 0.000000 0.000000 0.000000
# 4 0.000000 0.000000 0.000000 0.149862 0.000000 0.000000
# 5 0.000000 0.000000 0.000000 0.000000 -0.210370 0.000000
# 6 0.000000 0.000000 0.000000 0.000000 0.000000 0.039060
#
#
# Mechanical properties :
#
#
# Convention : Reuss Voigt Hill
#
# Bulk Modulus (GPa) = 29.45969 56.54691 43.00330
# Shear Modulus (GPa) = 73.00360 19.74876 46.37618
#
# Velocity S-wave (km/s) = 5.97045 3.10531 4.75864
# Velocity P-wave (km/s) = 7.86848 6.36145 7.15475
#
# Compressibility (1/GPa) = 0.03394469
#
# Stress axis : x y z
#
# Youngs Moduli (GPa) = 78.75027 35.89473 63.58723
#
# Poissons Ratio (x) = -0.14766 0.61744
# Poissons Ratio (y) = -0.32396 0.35440
# Poissons Ratio (z) = 0.76467 0.20006
#
# Static dielectric constant tensor:
#      x y z
#    x 1.731780 0.000000 0.000000 
#    y 0.000000 1.766910 0.000000 
#    z 0.000000 0.000000 1.800380 
# 
# From -- ./inp_files/25616.got.cif
#   From: 2010.05.17/outbox.cif.g08.bks.cpg/sg47_13_cif.got.tgz:25616.got - 2010.06.03 20:15:42.
