data_PCOD9383273
_publ_section_title
;
Structure prediction by ZEFSAII (Michael W. Deem and Ramdas Pophale) SiO2 
 PCOD9383273
Probable space group: P M M M
;
_chemical_formula_sum "Si O2"
_cell_formula_units_Z 40
_cell_length_a 9.541622
_cell_length_b 15.657723
_cell_length_c 19.998943
_cell_angle_alpha 90.000000
_cell_angle_beta 90.000000
_cell_angle_gamma 90.000000
_cell_volume 2987.843569
_symmetry_space_group_name_H-M "P M M M"
_symmetry_group_IT_number 47
_symmetry_cell_setting 'orthorhombic'
loop_
_space_group_symop_operation_xyz
x,y,z
-x,-y,z
x,-y,-z
-x,y,-z
-x,-y,-z
x,y,-z
-x,y,z
x,-y,z
loop_
_atom_site_type_symbol
_atom_site_label
_atom_site_fract_x
_atom_site_fract_y
_atom_site_fract_z
Si Si1 0.665867 0.101390 0.702857
Si Si2 0.332431 0.846217 0.148704
Si Si3 0.665111 0.334025 0.079350
Si Si4 0.163844 0.103660 0.426033
Si Si5 0.161220 0.500000 0.918651
Si Si6 0.834339 0.000000 0.080171
O O1 0.500000 0.109352 0.690685
O O2 0.699806 0.147233 0.772477
O O3 0.749163 0.132809 0.637993
O O4 0.695582 0.000000 0.712616
O O5 0.500000 0.864118 0.140822
O O6 0.304643 0.752955 0.118670
O O7 0.242973 0.917426 0.110452
O O8 0.500000 0.354177 0.087235
O O9 0.757468 0.414305 0.101750
O O10 0.689480 0.319512 0.000000
O O11 0.212434 0.132114 0.500000
O O12 0.000000 0.125433 0.419207
O O13 0.172696 0.000000 0.426160
O O14 0.000000 0.500000 0.897018
O O15 0.163289 0.500000 0.000000
O O16 0.000000 0.000000 0.096788
O O17 0.820771 0.000000 0.000000
#
# Coordination Sequence:
#
# PCOD9383273 Si02
#       6
#     8   8   8   8   4   4
#     4   9  16  26  39  56  78 103 134 170 204 238
#     4  10  19  32  46  60  80 109 142 174 208 246
#     4   9  17  29  46  64  79 101 136 172 205 247
#     4   8  14  24  37  53  73  99 132 166 199 237
#     4   9  17  29  45  63  83 103 122 159 214 259
#     4  11  23  33  41  57  80 107 142 181 213 242
#
# _framework density 13.387581000000001
#
# number of rings (size 3 to 8) (size 9 to 14) (size 15 to 20)
#    0.000    2.800    1.000    1.800    0.000    4.800 
#    0.000    4.000    0.000    0.000    0.000    0.000 
#    0.000    0.000    0.000    0.900    0.000   18.800 
#
# Total GULP energy -222767.055119 kJ/mol
# GULP energy per Si atom -5569.176378 kJ/mol
# Density = 1.335711 g / cm^3
# Si number density = 13.387581 Si / 1000 Ang^3
#
#
#
# Elastic Constant Matrix: (Units=GPa)
#
#
# Indices 1 2 3 4 5 6 
#
# 1 64.1119 58.7807 61.1193 0.0000 0.0000 0.0000
# 2 58.7807 83.1494 53.8175 0.0000 0.0000 0.0000
# 3 61.1193 53.8175 103.2449 0.0000 0.0000 0.0000
# 4 0.0000 0.0000 0.0000 3.6968 0.0000 0.0000
# 5 0.0000 0.0000 0.0000 0.0000 21.8189 0.0000
# 6 0.0000 0.0000 0.0000 0.0000 0.0000 8.4481
#
#
#
# Elastic Compliance Matrix: (Units=1/GPa)
#
#
# Indices 1 2 3 4 5 6 
#
# 1 0.067679 -0.033070 -0.022827 0.000000 0.000000 0.000000
# 2 -0.033070 0.034309 0.001693 0.000000 0.000000 0.000000
# 3 -0.022827 0.001693 0.022316 0.000000 0.000000 0.000000
# 4 0.000000 0.000000 0.000000 0.270504 0.000000 0.000000
# 5 0.000000 0.000000 0.000000 0.000000 0.045832 0.000000
# 6 0.000000 0.000000 0.000000 0.000000 0.000000 0.118370
#
#
# Mechanical properties :
#
#
# Convention : Reuss Voigt Hill
#
# Bulk Modulus (GPa) = 62.90600 66.43792 64.67196
# Shear Modulus (GPa) = 7.43255 11.91199 9.67227
#
# Velocity S-wave (km/s) = 2.35879 2.98615 2.69082
# Velocity P-wave (km/s) = 7.38301 7.85008 7.62012
#
# Compressibility (1/GPa) = 0.01589673
#
# Stress axis : x y z
#
# Youngs Moduli (GPa) = 14.77561 29.14708 44.81006
#
# Poissons Ratio (x) = 0.96389 1.02288
# Poissons Ratio (y) = 0.48863 -0.07586
# Poissons Ratio (z) = 0.33728 -0.04935
#
# Static dielectric constant tensor:
#      x y z
#    x 1.447630 0.000000 0.000000 
#    y 0.000000 1.410840 0.000000 
#    z 0.000000 0.000000 1.437870 
# 
# From -- ./inp_files/6653.got.cif
#   From: 2010.05.17/outbox.cif.g08.bks.cpg/sg47_4_cif.got.tgz:6653.got - 2010.06.03 20:15:42.
