data_PCOD9383597
_publ_section_title
;
Structure prediction by ZEFSAII (Michael W. Deem and Ramdas Pophale) SiO2 
 PCOD9383597
Probable space group: P M M M
;
_chemical_formula_sum "Si O2"
_cell_formula_units_Z 56
_cell_length_a 22.438722
_cell_length_b 14.191253
_cell_length_c 8.166505
_cell_angle_alpha 90.000000
_cell_angle_beta 90.000000
_cell_angle_gamma 90.000000
_cell_volume 2600.489431
_symmetry_space_group_name_H-M "P M M M"
_symmetry_group_IT_number 47
_symmetry_cell_setting 'orthorhombic'
loop_
_space_group_symop_operation_xyz
x,y,z
-x,-y,z
x,-y,-z
-x,y,-z
-x,-y,-z
x,y,-z
-x,y,z
x,-y,z
loop_
_atom_site_type_symbol
_atom_site_label
_atom_site_fract_x
_atom_site_fract_y
_atom_site_fract_z
Si Si1 0.142211 0.685177 0.196161
Si Si2 0.300890 0.111095 0.319632
Si Si3 0.827221 0.890517 0.807564
Si Si4 0.430085 0.500000 0.185137
Si Si5 0.270010 0.609303 0.697945
Si Si6 0.564752 0.865481 0.186357
Si Si7 0.391148 0.307781 0.688008
Si Si8 0.930651 0.500000 0.199698
O O1 0.139596 0.795050 0.258313
O O2 0.207949 0.645748 0.234078
O O3 0.099778 0.598879 0.256041
O O4 0.133911 0.691124 0.000000
O O5 0.292794 0.154195 0.500000
O O6 0.243302 0.134798 0.211394
O O7 0.370363 0.117603 0.266130
O O8 0.293693 0.000000 0.334610
O O9 0.837231 0.000000 0.743300
O O10 0.840752 0.895958 0.000000
O O11 0.500000 0.500000 0.167495
O O12 0.411298 0.587311 0.291929
O O13 0.403981 0.500000 0.000000
O O14 0.268925 0.607606 0.500000
O O15 0.280750 0.500000 0.751198
O O16 0.322177 0.683795 0.741966
O O17 0.500000 0.895412 0.256760
O O18 0.567459 0.753298 0.196336
O O19 0.566969 0.897819 0.000000
O O20 0.398128 0.276904 0.500000
O O21 0.000000 0.500000 0.243215
O O22 0.925655 0.500000 0.000000
#
# Coordination Sequence:
#
# PCOD9383597 Si02
#       8
#     8   8   8   4   8   8   8   4
#     4  10  19  32  54  82 109 144 190 227 263 321
#     4  10  21  37  57  80 104 132 171 219 273 336
#     4   9  18  33  54  81 113 145 178 225 283 336
#     4  11  23  36  49  66  90 123 164 209 258 315
#     4  10  20  34  50  74 107 136 166 215 278 333
#     4  11  24  39  53  72  99 132 173 220 274 335
#     4  11  22  37  54  72  96 129 168 211 265 327
#     4   9  18  33  53  80 116 155 194 235 272 307
#
# _framework density 21.534407000000002
#
# number of rings (size 3 to 8) (size 9 to 14) (size 15 to 20)
#    0.000    1.857    1.429    2.786    0.000    8.571 
#    0.000    1.429    0.000    1.286    0.000    3.000 
#    0.000    0.000    0.000    4.857    0.000    5.143 
#
# Total GULP energy -311736.930111 kJ/mol
# GULP energy per Si atom -5566.730895 kJ/mol
# Density = 2.148539 g / cm^3
# Si number density = 21.534407 Si / 1000 Ang^3
#
#
#
# Elastic Constant Matrix: (Units=GPa)
#
#
# Indices 1 2 3 4 5 6 
#
# 1 104.8373 51.1642 7.2133 0.0000 0.0000 0.0000
# 2 51.1642 164.9544 8.5134 0.0000 0.0000 0.0000
# 3 7.2133 8.5134 26.1310 0.0000 0.0000 0.0000
# 4 0.0000 0.0000 0.0000 4.9746 0.0000 0.0000
# 5 0.0000 0.0000 0.0000 0.0000 -136.9970 0.0000
# 6 0.0000 0.0000 0.0000 0.0000 0.0000 68.1609
#
#
#
# Elastic Compliance Matrix: (Units=1/GPa)
#
#
# Indices 1 2 3 4 5 6 
#
# 1 0.011344 -0.003414 -0.002019 0.000000 0.000000 0.000000
# 2 -0.003414 0.007194 -0.001401 0.000000 0.000000 0.000000
# 3 -0.002019 -0.001401 0.039283 0.000000 0.000000 0.000000
# 4 0.000000 0.000000 0.000000 0.201022 0.000000 0.000000
# 5 0.000000 0.000000 0.000000 0.000000 -0.007299 0.000000
# 6 0.000000 0.000000 0.000000 0.000000 0.000000 0.014671
#
#
# Mechanical properties :
#
#
# Convention : Reuss Voigt Hill
#
# Bulk Modulus (GPa) = 22.64956 47.74496 35.19726
# Shear Modulus (GPa) = 16.97218 2.49649 9.73434
#
# Velocity S-wave (km/s) = 2.81043 1.07788 2.12842
# Velocity P-wave (km/s) = 4.59043 4.87532 4.73502
#
# Compressibility (1/GPa) = 0.04415096
#
# Stress axis : x y z
#
# Youngs Moduli (GPa) = 88.15370 139.01195 25.45661
#
# Poissons Ratio (x) = 0.47463 0.05140
# Poissons Ratio (y) = 0.30099 0.03567
# Poissons Ratio (z) = 0.17798 0.19478
#
# Static dielectric constant tensor:
#      x y z
#    x 1.779850 0.000000 0.000000 
#    y 0.000000 1.950080 0.000000 
#    z 0.000000 0.000000 1.811770 
# 
# From -- ./inp_files/11388.got.cif
#   From: 2010.05.17/outbox.cif.g08.bks.cpg/sg47_6_cif.got.tgz:11388.got - 2010.06.03 20:15:42.
