data_PCOD9383786
_publ_section_title
;
Structure prediction by ZEFSAII (Michael W. Deem and Ramdas Pophale) SiO2 
 PCOD9383786
Probable space group: P M M M
;
_chemical_formula_sum "Si O2"
_cell_formula_units_Z 52
_cell_length_a 28.653536
_cell_length_b 13.167627
_cell_length_c 7.949779
_cell_angle_alpha 90.000000
_cell_angle_beta 90.000000
_cell_angle_gamma 90.000000
_cell_volume 2999.444257
_symmetry_space_group_name_H-M "P M M M"
_symmetry_group_IT_number 47
_symmetry_cell_setting 'orthorhombic'
loop_
_space_group_symop_operation_xyz
x,y,z
-x,-y,z
x,-y,-z
-x,y,-z
-x,-y,-z
x,y,-z
-x,y,z
x,-y,z
loop_
_atom_site_type_symbol
_atom_site_label
_atom_site_fract_x
_atom_site_fract_y
_atom_site_fract_z
Si Si1 0.732392 0.881378 0.703614
Si Si2 0.086512 0.120494 0.193951
Si Si3 0.553060 0.718013 0.199187
Si Si4 0.373065 0.886071 0.298103
Si Si5 0.819754 0.247841 0.809645
Si Si6 0.948195 0.747242 0.500000
Si Si7 0.553199 0.500000 0.299963
Si Si8 0.853842 0.621324 0.500000
O O1 0.735172 0.872983 0.500000
O O2 0.679304 0.857465 0.758196
O O3 0.770809 0.808231 0.781043
O O4 0.741201 0.000000 0.745458
O O5 0.139353 0.163163 0.207381
O O6 0.058607 0.182205 0.335069
O O7 0.084942 0.000000 0.225105
O O8 0.071102 0.138402 0.000000
O O9 0.500000 0.726212 0.270953
O O10 0.587174 0.806717 0.254665
O O11 0.573505 0.607417 0.245035
O O12 0.549283 0.722694 0.000000
O O13 0.370505 0.891355 0.500000
O O14 0.383546 0.000000 0.235114
O O15 0.829531 0.330492 0.665456
O O16 0.822589 0.288780 0.000000
O O17 0.906839 0.664666 0.500000
O O18 0.000000 0.702965 0.500000
O O19 0.500000 0.500000 0.229908
O O20 0.551242 0.500000 0.500000
O O21 0.852432 0.500000 0.500000
#
# Coordination Sequence:
#
# PCOD9383786 Si02
#       8
#     8   8   8   8   8   4   4   4
#     4   9  17  31  53  80 110 140 167 204 256 313
#     4   9  18  31  48  76 112 144 175 212 257 315
#     4  10  20  33  50  72 100 133 171 219 268 313
#     4   9  19  34  51  74 105 140 175 210 254 311
#     4  10  19  33  56  82 106 137 177 219 265 320
#     4  10  21  35  52  77 105 140 185 224 262 313
#     4   9  17  31  53  75  91 117 163 213 261 311
#     4  10  22  40  59  78 104 139 178 230 282 313
#
# _framework density 17.336545000000001
#
# number of rings (size 3 to 8) (size 9 to 14) (size 15 to 20)
#    0.000    2.538    0.769    2.308    0.000    5.385 
#    0.000    3.846    1.692    0.000    0.000    4.308 
#    0.000    0.000    0.000    0.000    0.000    0.000 
#
# Total GULP energy -289892.397606 kJ/mol
# GULP energy per Si atom -5574.853800 kJ/mol
# Density = 1.729709 g / cm^3
# Si number density = 17.336545 Si / 1000 Ang^3
#
#
#
# Elastic Constant Matrix: (Units=GPa)
#
#
# Indices 1 2 3 4 5 6 
#
# 1 99.9740 65.8579 35.9615 0.0000 0.0000 0.0000
# 2 65.8579 106.4797 42.1695 0.0000 0.0000 0.0000
# 3 35.9615 42.1695 76.5948 0.0000 0.0000 0.0000
# 4 0.0000 0.0000 0.0000 66.4074 0.0000 0.0000
# 5 0.0000 0.0000 0.0000 0.0000 15.1741 0.0000
# 6 0.0000 0.0000 0.0000 0.0000 0.0000 10.1099
#
#
#
# Elastic Compliance Matrix: (Units=1/GPa)
#
#
# Indices 1 2 3 4 5 6 
#
# 1 0.017358 -0.009602 -0.002863 0.000000 0.000000 0.000000
# 2 -0.009602 0.017322 -0.005028 0.000000 0.000000 0.000000
# 3 -0.002863 -0.005028 0.017168 0.000000 0.000000 0.000000
# 4 0.000000 0.000000 0.000000 0.015059 0.000000 0.000000
# 5 0.000000 0.000000 0.000000 0.000000 0.065902 0.000000
# 6 0.000000 0.000000 0.000000 0.000000 0.000000 0.098913
#
#
# Mechanical properties :
#
#
# Convention : Reuss Voigt Hill
#
# Bulk Modulus (GPa) = 59.30878 63.44739 61.37809
# Shear Modulus (GPa) = 18.36022 27.60892 22.98457
#
# Velocity S-wave (km/s) = 3.25783 3.99498 3.64509
# Velocity P-wave (km/s) = 6.95958 7.61293 7.29358
#
# Compressibility (1/GPa) = 0.01686091
#
# Stress axis : x y z
#
# Youngs Moduli (GPa) = 57.61111 57.73120 58.24662
#
# Poissons Ratio (x) = 0.55433 0.16677
# Poissons Ratio (y) = 0.55318 0.29289
# Poissons Ratio (z) = 0.16495 0.29029
#
# Static dielectric constant tensor:
#      x y z
#    x 1.598060 0.000000 0.000000 
#    y 0.000000 1.581720 0.000000 
#    z 0.000000 0.000000 1.612870 
# 
# From -- ./inp_files/13353.got.cif
#   From: 2010.05.17/outbox.cif.g08.bks.cpg/sg47_7_cif.got.tgz:13353.got - 2010.06.03 20:15:42.
