data_PCOD9383830
_publ_section_title
;
Structure prediction by ZEFSAII (Michael W. Deem and Ramdas Pophale) SiO2 
 PCOD9383830
Probable space group: P M M M
;
_chemical_formula_sum "Si O2"
_cell_formula_units_Z 56
_cell_length_a 14.464057
_cell_length_b 8.830134
_cell_length_c 23.191820
_cell_angle_alpha 90.000000
_cell_angle_beta 90.000000
_cell_angle_gamma 90.000000
_cell_volume 2962.049081
_symmetry_space_group_name_H-M "P M M M"
_symmetry_group_IT_number 47
_symmetry_cell_setting 'orthorhombic'
loop_
_space_group_symop_operation_xyz
x,y,z
-x,-y,z
x,-y,-z
-x,y,-z
-x,-y,-z
x,y,-z
-x,y,z
x,-y,z
loop_
_atom_site_type_symbol
_atom_site_label
_atom_site_fract_x
_atom_site_fract_y
_atom_site_fract_z
Si Si1 0.897605 0.260876 0.233828
Si Si2 0.896106 0.824589 0.367540
Si Si3 0.728885 0.679797 0.565484
Si Si4 0.293994 0.000000 0.068444
Si Si5 0.610739 0.679090 0.109820
Si Si6 0.604468 0.178075 0.340952
Si Si7 0.897959 0.000000 0.138467
Si Si8 0.309599 0.337429 0.762510
O O1 0.892647 0.191870 0.298260
O O2 0.895704 0.140624 0.182275
O O3 0.800095 0.342995 0.227343
O O4 0.000000 0.334195 0.230856
O O5 0.820211 0.726884 0.399525
O O6 0.000000 0.781653 0.385306
O O7 0.880182 0.000000 0.381728
O O8 0.730837 0.738689 0.500000
O O9 0.723582 0.500000 0.563605
O O10 0.644861 0.742264 0.603034
O O11 0.344337 0.836607 0.084207
O O12 0.193273 0.000000 0.099280
O O13 0.283384 0.000000 0.000000
O O14 0.500000 0.688901 0.102060
O O15 0.636446 0.500000 0.091722
O O16 0.638974 0.686515 0.177154
O O17 0.500000 0.226648 0.328460
O O18 0.665651 0.214702 0.285016
O O19 0.606452 0.000000 0.351082
O O20 0.000000 0.000000 0.109050
O O21 0.339523 0.500000 0.738056
#
# Coordination Sequence:
#
# PCOD9383830 Si02
#       8
#     8   8   8   4   8   8   4   8
#     4  10  19  33  59  92 123 156 194 242 303 366
#     4  10  20  35  59  89 117 148 190 238 291 353
#     4  11  25  42  59  81 112 154 199 243 296 360
#     4  12  25  41  68  99 129 173 225 272 316 370
#     4  10  23  42  64  94 132 173 216 265 322 382
#     4  11  25  41  61  88 115 149 195 250 309 370
#     4  10  20  38  63  94 131 169 207 256 313 375
#     4  11  22  37  61  93 126 160 196 247 314 376
#
# _framework density 18.905832
#
# number of rings (size 3 to 8) (size 9 to 14) (size 15 to 20)
#    0.000    1.429    3.571    1.500    2.000    5.000 
#    0.000    5.000    0.000    0.429    0.000    1.000 
#    0.000    0.000    0.000    0.000    0.000    0.000 
#
# Total GULP energy -312042.491969 kJ/mol
# GULP energy per Si atom -5572.187357 kJ/mol
# Density = 1.886280 g / cm^3
# Si number density = 18.905832 Si / 1000 Ang^3
#
#
#
# Elastic Constant Matrix: (Units=GPa)
#
#
# Indices 1 2 3 4 5 6 
#
# 1 123.1971 61.2671 47.1664 0.0000 0.0000 0.0000
# 2 61.2671 85.8151 37.7308 0.0000 0.0000 0.0000
# 3 47.1664 37.7308 86.1373 0.0000 0.0000 0.0000
# 4 0.0000 0.0000 0.0000 4.9047 0.0000 0.0000
# 5 0.0000 0.0000 0.0000 0.0000 -1.9779 0.0000
# 6 0.0000 0.0000 0.0000 0.0000 0.0000 59.2746
#
#
#
# Elastic Compliance Matrix: (Units=1/GPa)
#
#
# Indices 1 2 3 4 5 6 
#
# 1 0.013592 -0.007966 -0.003953 0.000000 0.000000 0.000000
# 2 -0.007966 0.019101 -0.004005 0.000000 0.000000 0.000000
# 3 -0.003953 -0.004005 0.015528 0.000000 0.000000 0.000000
# 4 0.000000 0.000000 0.000000 0.203884 0.000000 0.000000
# 5 0.000000 0.000000 0.000000 0.000000 -0.505592 0.000000
# 6 0.000000 0.000000 0.000000 0.000000 0.000000 0.016871
#
#
# Mechanical properties :
#
#
# Convention : Reuss Voigt Hill
#
# Bulk Modulus (GPa) = 61.07538 65.27534 63.17536
# Shear Modulus (GPa) = -25.08655 22.37264 -1.35696
#
# Velocity S-wave (km/s) = -3.64665 3.44375 -0.84812
# Velocity P-wave (km/s) = 3.82681 7.10029 5.70344
#
# Compressibility (1/GPa) = 0.01637321
#
# Stress axis : x y z
#
# Youngs Moduli (GPa) = 73.57211 52.35342 64.39802
#
# Poissons Ratio (x) = 0.41704 0.25459
# Poissons Ratio (y) = 0.58606 0.25791
# Poissons Ratio (z) = 0.29086 0.20967
#
# Static dielectric constant tensor:
#      x y z
#    x 1.682660 0.000000 0.000000 
#    y 0.000000 1.677450 0.000000 
#    z 0.000000 0.000000 1.611260 
# 
# From -- ./inp_files/31008.got.cif
#   From: 2010.05.17/outbox.cif.g08.bks.cpg/sg47_16_cif.got.tgz:31008.got - 2010.06.03 20:15:42.
