data_PCOD9383249
_publ_section_title
;
Structure prediction by ZEFSAII (Michael W. Deem and Ramdas Pophale) SiO2 
 PCOD9383249
Probable space group: P M M M
;
_chemical_formula_sum "Si O2"
_cell_formula_units_Z 64
_cell_length_a 8.718905
_cell_length_b 25.020963
_cell_length_c 15.710721
_cell_angle_alpha 90.000000
_cell_angle_beta 90.000000
_cell_angle_gamma 90.000000
_cell_volume 3427.378615
_symmetry_space_group_name_H-M "P M M M"
_symmetry_group_IT_number 47
_symmetry_cell_setting 'orthorhombic'
loop_
_space_group_symop_operation_xyz
x,y,z
-x,-y,z
x,-y,-z
-x,y,-z
-x,-y,-z
x,y,-z
-x,y,z
x,-y,z
loop_
_atom_site_type_symbol
_atom_site_label
_atom_site_fract_x
_atom_site_fract_y
_atom_site_fract_z
Si Si1 0.682495 0.648548 0.777272
Si Si2 0.682778 0.144852 0.901788
Si Si3 0.184416 0.232001 0.778315
Si Si4 0.178957 0.936001 0.228290
Si Si5 0.817064 0.223081 0.408197
Si Si6 0.682300 0.658941 0.408810
Si Si7 0.815184 0.560231 0.098763
Si Si8 0.677803 0.064898 0.593460
O O1 0.500000 0.652661 0.787348
O O2 0.752943 0.707792 0.787104
O O3 0.716724 0.630476 0.679841
O O4 0.747870 0.606172 0.842865
O O5 0.500000 0.151136 0.900689
O O6 0.758045 0.195181 0.854477
O O7 0.728550 0.094054 0.844678
O O8 0.732926 0.139695 0.000000
O O9 0.238719 0.207692 0.686449
O O10 0.000000 0.233469 0.777007
O O11 0.230255 0.918705 0.323117
O O12 0.000000 0.923577 0.217748
O O13 0.200093 0.000000 0.222608
O O14 0.755023 0.202573 0.500000
O O15 0.778101 0.286269 0.408979
O O16 0.000000 0.214635 0.409250
O O17 0.710024 0.631505 0.500000
O O18 0.500000 0.672829 0.405995
O O19 0.767169 0.500000 0.123977
O O20 0.000000 0.562130 0.102846
O O21 0.771438 0.568003 0.000000
O O22 0.738610 0.080690 0.500000
O O23 0.500000 0.081763 0.600202
O O24 0.677985 0.000000 0.593913
#
# Coordination Sequence:
#
# PCOD9383249 Si02
#       8
#     8   8   8   8   8   8   8   8
#     4  10  19  31  52  81 109 138 174 215 257 306
#     4  11  25  43  60  77 101 136 178 226 276 321
#     4  10  20  35  56  80 108 142 176 212 259 314
#     4  10  21  37  59  86 112 139 174 217 265 320
#     4   8  14  26  46  73 103 133 166 204 246 295
#     4   8  14  25  42  67 100 136 171 205 244 293
#     4   9  19  36  55  74  99 133 173 218 268 318
#     4   8  14  27  50  80 113 147 179 211 251 302
#
# _framework density 18.673162999999999
#
# number of rings (size 3 to 8) (size 9 to 14) (size 15 to 20)
#    0.000    2.750    0.000    2.250    0.000    4.250 
#    0.000    3.750    0.000    2.625    0.000    2.625 
#    0.000    0.000    0.000    0.000    0.000    0.000 
#
# Total GULP energy -356649.129795 kJ/mol
# GULP energy per Si atom -5572.642653 kJ/mol
# Density = 1.863066 g / cm^3
# Si number density = 18.673163 Si / 1000 Ang^3
#
#
#
# Elastic Constant Matrix: (Units=GPa)
#
#
# Indices 1 2 3 4 5 6 
#
# 1 33.8979 26.8980 41.5018 0.0000 0.0000 0.0000
# 2 26.8980 66.8605 48.1758 0.0000 0.0000 0.0000
# 3 41.5018 48.1758 152.2350 0.0000 0.0000 0.0000
# 4 0.0000 0.0000 0.0000 76.4250 0.0000 0.0000
# 5 0.0000 0.0000 0.0000 0.0000 22.2661 0.0000
# 6 0.0000 0.0000 0.0000 0.0000 0.0000 18.2397
#
#
#
# Elastic Compliance Matrix: (Units=1/GPa)
#
#
# Indices 1 2 3 4 5 6 
#
# 1 0.052873 -0.014100 -0.009952 0.000000 0.000000 0.000000
# 2 -0.014100 0.023134 -0.003477 0.000000 0.000000 0.000000
# 3 -0.009952 -0.003477 0.010382 0.000000 0.000000 0.000000
# 4 0.000000 0.000000 0.000000 0.013085 0.000000 0.000000
# 5 0.000000 0.000000 0.000000 0.000000 0.044911 0.000000
# 6 0.000000 0.000000 0.000000 0.000000 0.000000 0.054825
#
#
# Mechanical properties :
#
#
# Convention : Reuss Voigt Hill
#
# Bulk Modulus (GPa) = 31.91690 54.01607 42.96648
# Shear Modulus (GPa) = 18.88836 32.48068 25.68452
#
# Velocity S-wave (km/s) = 3.18390 4.17517 3.71277
# Velocity P-wave (km/s) = 5.53586 7.22722 6.43733
#
# Compressibility (1/GPa) = 0.03133137
#
# Stress axis : x y z
#
# Youngs Moduli (GPa) = 18.91322 43.22572 96.31830
#
# Poissons Ratio (x) = 0.60948 0.95856
# Poissons Ratio (y) = 0.26668 0.33491
# Poissons Ratio (z) = 0.18822 0.15030
#
# Static dielectric constant tensor:
#      x y z
#    x 1.640510 0.000000 0.000000 
#    y 0.000000 1.630620 0.000000 
#    z 0.000000 0.000000 1.686090 
# 
# From -- ./inp_files/21904.got.cif
#   From: 2010.05.17/outbox.cif.g08.bks.cpg/sg47_11_cif.got.tgz:21904.got - 2010.06.03 20:15:42.
