data_PCOD9383820
_publ_section_title
;
Structure prediction by ZEFSAII (Michael W. Deem and Ramdas Pophale) SiO2 
 PCOD9383820
Probable space group: P M M M
;
_chemical_formula_sum "Si O2"
_cell_formula_units_Z 52
_cell_length_a 15.430650
_cell_length_b 8.193267
_cell_length_c 20.849968
_cell_angle_alpha 90.000000
_cell_angle_beta 90.000000
_cell_angle_gamma 90.000000
_cell_volume 2636.007983
_symmetry_space_group_name_H-M "P M M M"
_symmetry_group_IT_number 47
_symmetry_cell_setting 'orthorhombic'
loop_
_space_group_symop_operation_xyz
x,y,z
-x,-y,z
x,-y,-z
-x,y,-z
-x,-y,-z
x,y,-z
-x,y,z
x,-y,z
loop_
_atom_site_type_symbol
_atom_site_label
_atom_site_fract_x
_atom_site_fract_y
_atom_site_fract_z
Si Si1 0.827881 0.313020 0.129452
Si Si2 0.100126 0.805456 0.265453
Si Si3 0.000000 0.182984 0.074547
Si Si4 0.594183 0.694752 0.791674
Si Si5 0.653938 0.190199 0.927081
Si Si6 0.598188 0.301080 0.573431
Si Si7 0.728108 0.697744 0.684555
O O1 0.797891 0.500000 0.129135
O O2 0.856634 0.265176 0.200893
O O3 0.753912 0.208961 0.094821
O O4 0.915971 0.283862 0.092091
O O5 0.173182 0.758770 0.317179
O O6 0.000000 0.747520 0.273376
O O7 0.096855 0.000000 0.260187
O O8 0.000000 0.000000 0.105902
O O9 0.000000 0.159263 0.000000
O O10 0.500000 0.758864 0.770558
O O11 0.593294 0.500000 0.782801
O O12 0.605466 0.728916 0.867113
O O13 0.673964 0.754989 0.747932
O O14 0.630354 0.000000 0.928123
O O15 0.641798 0.254581 0.000000
O O16 0.615030 0.250648 0.500000
O O17 0.500000 0.250460 0.590915
O O18 0.598123 0.500000 0.574314
O O19 0.670090 0.249088 0.624196
O O20 0.731232 0.500000 0.686252
#
# Coordination Sequence:
#
# PCOD9383820 Si02
#       7
#     8   8   4   8   8   8   8
#     4  12  23  36  56  79 103 134 178 232 288 344
#     4  11  23  38  57  79 109 147 186 231 286 344
#     4  11  23  37  53  75 105 139 174 219 282 351
#     4  10  21  36  55  81 111 143 183 233 286 338
#     4  11  24  40  56  74 102 142 186 233 285 341
#     4   8  14  27  52  89 129 162 189 221 269 329
#     4  10  19  33  57  87 117 149 188 233 277 328
#
# _framework density 19.726799
#
# number of rings (size 3 to 8) (size 9 to 14) (size 15 to 20)
#    0.000    1.615    2.308    3.923    0.000    7.077 
#    0.000    1.538    0.000    2.308    0.000    4.308 
#    0.000    0.000    0.000    0.000    0.000    0.000 
#
# Total GULP energy -290120.688711 kJ/mol
# GULP energy per Si atom -5579.244014 kJ/mol
# Density = 1.968190 g / cm^3
# Si number density = 19.726799 Si / 1000 Ang^3
#
#
#
# Elastic Constant Matrix: (Units=GPa)
#
#
# Indices 1 2 3 4 5 6 
#
# 1 119.7790 1.3338 49.6562 0.0000 0.0000 0.0000
# 2 1.3338 28.6506 4.2611 0.0000 0.0000 0.0000
# 3 49.6562 4.2611 95.9631 0.0000 0.0000 0.0000
# 4 0.0000 0.0000 0.0000 24.6536 0.0000 0.0000
# 5 0.0000 0.0000 0.0000 0.0000 27.4564 0.0000
# 6 0.0000 0.0000 0.0000 0.0000 0.0000 2319.4219
#
#
#
# Elastic Compliance Matrix: (Units=1/GPa)
#
#
# Indices 1 2 3 4 5 6 
#
# 1 0.010632 0.000325 -0.005516 0.000000 0.000000 0.000000
# 2 0.000325 0.035145 -0.001729 0.000000 0.000000 0.000000
# 3 -0.005516 -0.001729 0.013352 0.000000 0.000000 0.000000
# 4 0.000000 0.000000 0.000000 0.040562 0.000000 0.000000
# 5 0.000000 0.000000 0.000000 0.000000 0.036421 0.000000
# 6 0.000000 0.000000 0.000000 0.000000 0.000000 0.000431
#
#
# Mechanical properties :
#
#
# Convention : Reuss Voigt Hill
#
# Bulk Modulus (GPa) = 22.08000 39.43276 30.75638
# Shear Modulus (GPa) = 30.21537 486.91583 258.56560
#
# Velocity S-wave (km/s) = 3.91793 15.72786 11.46114
# Velocity P-wave (km/s) = 5.62886 18.70437 13.81191
#
# Compressibility (1/GPa) = 0.04528985
#
# Stress axis : x y z
#
# Youngs Moduli (GPa) = 94.05764 28.45332 74.89715
#
# Poissons Ratio (x) = -0.00926 0.41312
# Poissons Ratio (y) = -0.03061 0.12949
# Poissons Ratio (z) = 0.51881 0.04919
#
# Static dielectric constant tensor:
#      x y z
#    x 1.738670 0.000000 0.000000 
#    y 0.000000 1.717890 0.000000 
#    z 0.000000 0.000000 1.713370 
# 
# From -- ./inp_files/30861.got.cif
#   From: 2010.05.17/outbox.cif.g08.bks.cpg/sg47_16_cif.got.tgz:30861.got - 2010.06.03 20:15:42.
