data_PCOD9383461
_publ_section_title
;
Structure prediction by ZEFSAII (Michael W. Deem and Ramdas Pophale) SiO2 
 PCOD9383461
Probable space group: P M M M
;
_chemical_formula_sum "Si O2"
_cell_formula_units_Z 64
_cell_length_a 7.565111
_cell_length_b 20.305691
_cell_length_c 21.096335
_cell_angle_alpha 90.000000
_cell_angle_beta 90.000000
_cell_angle_gamma 90.000000
_cell_volume 3240.709416
_symmetry_space_group_name_H-M "P M M M"
_symmetry_group_IT_number 47
_symmetry_cell_setting 'orthorhombic'
loop_
_space_group_symop_operation_xyz
x,y,z
-x,-y,z
x,-y,-z
-x,y,-z
-x,-y,-z
x,y,-z
-x,y,z
x,-y,z
loop_
_atom_site_type_symbol
_atom_site_label
_atom_site_fract_x
_atom_site_fract_y
_atom_site_fract_z
Si Si1 0.286226 0.882930 0.756754
Si Si2 0.208743 0.212813 0.431712
Si Si3 0.713687 0.927932 0.381870
Si Si4 0.795447 0.736908 0.797376
Si Si5 0.789930 0.313062 0.329399
Si Si6 0.209354 0.218599 0.068482
Si Si7 0.713088 0.424168 0.570546
Si Si8 0.286787 0.928912 0.894320
O O1 0.500000 0.878049 0.755683
O O2 0.230231 0.915153 0.690942
O O3 0.212073 0.809725 0.766105
O O4 0.238955 0.922776 0.819931
O O5 0.285148 0.231654 0.500000
O O6 0.228174 0.135227 0.421037
O O7 0.284418 0.253877 0.373049
O O8 0.000000 0.227625 0.433258
O O9 0.500000 0.928175 0.382924
O O10 0.774303 0.000000 0.403320
O O11 0.717688 0.690281 0.742342
O O12 0.715772 0.747786 0.867587
O O13 0.000000 0.718097 0.807559
O O14 0.767566 0.377793 0.371826
O O15 0.000000 0.302216 0.321896
O O16 0.226439 0.139419 0.075332
O O17 0.000000 0.232223 0.067844
O O18 0.283775 0.238320 0.000000
O O19 0.773818 0.401763 0.500000
O O20 0.500000 0.423895 0.569268
O O21 0.770331 0.500000 0.578689
O O22 0.500000 0.928504 0.899060
O O23 0.224774 0.000000 0.918959
#
# Coordination Sequence:
#
# PCOD9383461 Si02
#       8
#     8   8   8   8   8   8   8   8
#     4   9  16  28  45  63  83 108 142 187 238 288
#     4  10  21  35  48  64  88 117 150 190 237 285
#     4  10  20  32  46  63  83 109 146 195 247 293
#     4   9  17  30  48  68  91 117 150 192 233 273
#     4  10  19  32  52  75  98 125 160 199 234 271
#     4   9  18  31  45  62  87 118 149 185 233 286
#     4   9  19  35  53  76 108 141 167 190 221 267
#     4   9  17  28  42  60  82 109 143 184 233 289
#
# _framework density 19.748760999999998
#
# number of rings (size 3 to 8) (size 9 to 14) (size 15 to 20)
#    0.000    2.625    1.250    1.125    0.000    5.000 
#    0.000    3.125    0.000    2.250    0.000    0.000 
#    0.000    0.500    0.000    6.250    0.000    1.000 
#
# Total GULP energy -356925.993226 kJ/mol
# GULP energy per Si atom -5576.968644 kJ/mol
# Density = 1.970381 g / cm^3
# Si number density = 19.748761 Si / 1000 Ang^3
#
#
#
# Elastic Constant Matrix: (Units=GPa)
#
#
# Indices 1 2 3 4 5 6 
#
# 1 44.9834 -4.5905 9.8520 0.0000 0.0000 0.0000
# 2 -4.5905 66.8007 54.5618 0.0000 0.0000 0.0000
# 3 9.8520 54.5618 171.5380 0.0000 0.0000 0.0000
# 4 0.0000 0.0000 0.0000 10.7535 0.0000 0.0000
# 5 0.0000 0.0000 0.0000 0.0000 5.6017 0.0000
# 6 0.0000 0.0000 0.0000 0.0000 0.0000 18.8418
#
#
#
# Elastic Compliance Matrix: (Units=1/GPa)
#
#
# Indices 1 2 3 4 5 6 
#
# 1 0.023142 0.003615 -0.002479 0.000000 0.000000 0.000000
# 2 0.003615 0.020789 -0.006820 0.000000 0.000000 0.000000
# 3 -0.002479 -0.006820 0.008141 0.000000 0.000000 0.000000
# 4 0.000000 0.000000 0.000000 0.092993 0.000000 0.000000
# 5 0.000000 0.000000 0.000000 0.000000 0.178518 0.000000
# 6 0.000000 0.000000 0.000000 0.000000 0.000000 0.053073
#
#
# Mechanical properties :
#
#
# Convention : Reuss Voigt Hill
#
# Bulk Modulus (GPa) = 24.56724 44.77429 34.67076
# Shear Modulus (GPa) = 12.45043 21.93933 17.19488
#
# Velocity S-wave (km/s) = 2.51358 3.33667 2.95393
# Velocity P-wave (km/s) = 4.57067 6.12908 5.40632
#
# Compressibility (1/GPa) = 0.04070462
#
# Stress axis : x y z
#
# Youngs Moduli (GPa) = 43.21092 48.10276 122.83103
#
# Poissons Ratio (x) = -0.17390 0.30450
# Poissons Ratio (y) = -0.15621 0.83771
# Poissons Ratio (z) = 0.10712 0.32806
#
# Static dielectric constant tensor:
#      x y z
#    x 1.740180 0.000000 0.000000 
#    y 0.000000 1.668680 0.000000 
#    z 0.000000 0.000000 1.767930 
# 
# From -- ./inp_files/24701.got.cif
#   From: 2010.05.17/outbox.cif.g08.bks.cpg/sg47_13_cif.got.tgz:24701.got - 2010.06.03 20:15:42.
