data_PCOD9383306
_publ_section_title
;
Structure prediction by ZEFSAII (Michael W. Deem and Ramdas Pophale) SiO2 
 PCOD9383306
Probable space group: P M M M
;
_chemical_formula_sum "Si O2"
_cell_formula_units_Z 60
_cell_length_a 13.595338
_cell_length_b 13.150722
_cell_length_c 16.433447
_cell_angle_alpha 90.000000
_cell_angle_beta 90.000000
_cell_angle_gamma 90.000000
_cell_volume 2938.111512
_symmetry_space_group_name_H-M "P M M M"
_symmetry_group_IT_number 47
_symmetry_cell_setting 'orthorhombic'
loop_
_space_group_symop_operation_xyz
x,y,z
-x,-y,z
x,-y,-z
-x,y,-z
-x,-y,-z
x,y,-z
-x,y,z
x,-y,z
loop_
_atom_site_type_symbol
_atom_site_label
_atom_site_fract_x
_atom_site_fract_y
_atom_site_fract_z
Si Si1 0.607880 0.879517 0.269382
Si Si2 0.616165 0.384659 0.144069
Si Si3 0.764831 0.119930 0.593973
Si Si4 0.686347 0.171098 0.091783
Si Si5 0.114188 0.235220 0.856906
Si Si6 0.110889 0.312345 0.594344
Si Si7 0.793310 0.612613 0.260325
Si Si8 0.116423 0.391311 0.000000
O O1 0.500000 0.834391 0.285053
O O2 0.689148 0.845392 0.335133
O O3 0.632084 0.866524 0.173483
O O4 0.602871 0.000000 0.283402
O O5 0.500000 0.371831 0.157916
O O6 0.630100 0.500000 0.111719
O O7 0.655549 0.290755 0.091098
O O8 0.683541 0.377463 0.225094
O O9 0.727065 0.130431 0.500000
O O10 0.858314 0.193772 0.600113
O O11 0.787061 0.000000 0.605835
O O12 0.801770 0.156844 0.115470
O O13 0.667077 0.131570 0.000000
O O14 0.144207 0.292726 0.774863
O O15 0.133501 0.325068 0.921372
O O16 0.000000 0.203775 0.859208
O O17 0.113620 0.339704 0.500000
O O18 0.189633 0.376462 0.644701
O O19 0.000000 0.330227 0.624648
O O20 0.829030 0.500000 0.233424
O O21 0.166341 0.500000 0.000000
O O22 0.000000 0.404795 0.000000
#
# Coordination Sequence:
#
# PCOD9383306 Si02
#       8
#     8   8   8   8   8   8   8   4
#     4  10  22  39  58  81 108 136 171 218 267 315
#     4   9  19  35  53  74 101 134 174 223 274 317
#     4   9  18  35  60  86 109 133 165 210 266 323
#     4  11  22  35  52  77 106 144 184 218 257 310
#     4  10  19  32  49  72 101 135 174 219 265 306
#     4  10  21  35  51  76 110 143 174 209 251 305
#     4  10  20  33  51  74 101 139 184 222 259 308
#     4   9  16  26  42  66  96 127 160 204 256 303
#
# _framework density 20.421281
#
# number of rings (size 3 to 8) (size 9 to 14) (size 15 to 20)
#    0.000    2.200    0.667    2.800    0.000    4.533 
#    0.000    4.667    0.000    2.400    0.000    2.800 
#    0.000    0.000    0.000    0.000    0.000    0.133 
#
# Total GULP energy -334148.849279 kJ/mol
# GULP energy per Si atom -5569.147488 kJ/mol
# Density = 2.037480 g / cm^3
# Si number density = 20.421281 Si / 1000 Ang^3
#
#
#
# Elastic Constant Matrix: (Units=GPa)
#
#
# Indices 1 2 3 4 5 6 
#
# 1 97.4148 -0.8021 27.0761 0.0000 0.0000 0.0000
# 2 -0.8021 22.9688 2.5653 0.0000 0.0000 0.0000
# 3 27.0761 2.5653 94.1621 0.0000 0.0000 0.0000
# 4 0.0000 0.0000 0.0000 23.1528 0.0000 0.0000
# 5 0.0000 0.0000 0.0000 0.0000 20.1811 0.0000
# 6 0.0000 0.0000 0.0000 0.0000 0.0000 17.6062
#
#
#
# Elastic Compliance Matrix: (Units=1/GPa)
#
#
# Indices 1 2 3 4 5 6 
#
# 1 0.011170 0.000751 -0.003232 0.000000 0.000000 0.000000
# 2 0.000751 0.043721 -0.001407 0.000000 0.000000 0.000000
# 3 -0.003232 -0.001407 0.011588 0.000000 0.000000 0.000000
# 4 0.000000 0.000000 0.000000 0.043191 0.000000 0.000000
# 5 0.000000 0.000000 0.000000 0.000000 0.049551 0.000000
# 6 0.000000 0.000000 0.000000 0.000000 0.000000 0.056798
#
#
# Mechanical properties :
#
#
# Convention : Reuss Voigt Hill
#
# Bulk Modulus (GPa) = 17.03528 30.24715 23.64121
# Shear Modulus (GPa) = 20.54542 24.56845 22.55693
#
# Velocity S-wave (km/s) = 3.17532 3.47231 3.32713
# Velocity P-wave (km/s) = 4.66943 5.56054 5.13435
#
# Compressibility (1/GPa) = 0.05870170
#
# Stress axis : x y z
#
# Youngs Moduli (GPa) = 89.52561 22.87249 86.29781
#
# Poissons Ratio (x) = -0.01718 0.27895
# Poissons Ratio (y) = -0.06724 0.12143
# Poissons Ratio (z) = 0.28938 0.03218
#
# Static dielectric constant tensor:
#      x y z
#    x 1.740970 0.000000 0.000000 
#    y 0.000000 1.902030 0.000000 
#    z 0.000000 0.000000 1.709570 
# 
# From -- ./inp_files/23968.got.cif
#   From: 2010.05.17/outbox.cif.g08.bks.cpg/sg47_12_cif.got.tgz:23968.got - 2010.06.03 20:15:42.
