data_PCOD9383339
_publ_section_title
;
Structure prediction by ZEFSAII (Michael W. Deem and Ramdas Pophale) SiO2 
 PCOD9383339
Probable space group: P M M M
;
_chemical_formula_sum "Si O2"
_cell_formula_units_Z 32
_cell_length_a 7.409740
_cell_length_b 22.561007
_cell_length_c 8.492783
_cell_angle_alpha 90.000000
_cell_angle_beta 90.000000
_cell_angle_gamma 90.000000
_cell_volume 1419.748692
_symmetry_space_group_name_H-M "P M M M"
_symmetry_group_IT_number 47
_symmetry_cell_setting 'orthorhombic'
loop_
_space_group_symop_operation_xyz
x,y,z
-x,-y,z
x,-y,-z
-x,y,-z
-x,-y,-z
x,y,-z
-x,y,z
x,-y,z
loop_
_atom_site_type_symbol
_atom_site_label
_atom_site_fract_x
_atom_site_fract_y
_atom_site_fract_z
Si Si1 0.785158 0.249112 0.325534
Si Si2 0.279458 0.000000 0.318556
Si Si3 0.716276 0.123956 0.824319
Si Si4 0.780389 0.568803 0.500000
Si Si5 0.220238 0.367306 0.174808
O O1 0.712190 0.261040 0.500000
O O2 0.753561 0.181450 0.279126
O O3 0.723107 0.298871 0.203172
O O4 0.000000 0.256873 0.333031
O O5 0.217181 0.060958 0.239587
O O6 0.500000 0.000000 0.312003
O O7 0.227457 0.000000 0.500000
O O8 0.500000 0.118746 0.830866
O O9 0.784961 0.134642 0.000000
O O10 0.730189 0.500000 0.500000
O O11 0.722311 0.598628 0.334413
O O12 0.000000 0.572964 0.500000
O O13 0.000000 0.370560 0.172719
O O14 0.279289 0.387528 0.000000
#
# Coordination Sequence:
#
# PCOD9383339 Si02
#       5
#     8   4   8   4   8
#     4  10  19  32  50  71  97 130 167 205 246 295
#     4   9  17  31  50  69  92 125 160 196 246 301
#     4  10  20  33  50  73  99 126 160 203 248 296
#     4   9  16  26  40  62  93 126 163 202 238 287
#     4   9  16  27  43  63  91 127 163 200 245 293
#
# _framework density 22.539200999999998
#
# number of rings (size 3 to 8) (size 9 to 14) (size 15 to 20)
#    0.000    2.500    1.250    1.875    0.000    5.000 
#    0.000    3.125    0.000    3.750    0.000    0.000 
#    0.000    2.000    0.000    5.250    0.000    5.000 
#
# Total GULP energy -178642.824804 kJ/mol
# GULP energy per Si atom -5582.588275 kJ/mol
# Density = 2.248790 g / cm^3
# Si number density = 22.539201 Si / 1000 Ang^3
#
#
#
# Elastic Constant Matrix: (Units=GPa)
#
#
# Indices 1 2 3 4 5 6 
#
# 1 71.8531 -2.9002 5.8224 0.0000 0.0000 0.0000
# 2 -2.9002 136.5383 73.8477 0.0000 0.0000 0.0000
# 3 5.8224 73.8477 189.9817 0.0000 0.0000 0.0000
# 4 0.0000 0.0000 0.0000 8.0446 0.0000 0.0000
# 5 0.0000 0.0000 0.0000 0.0000 -0.1934 0.0000
# 6 0.0000 0.0000 0.0000 0.0000 0.0000 -2.4879
#
#
#
# Elastic Compliance Matrix: (Units=1/GPa)
#
#
# Indices 1 2 3 4 5 6 
#
# 1 0.014000 0.000670 -0.000690 0.000000 0.000000 0.000000
# 2 0.000670 0.009306 -0.003638 0.000000 0.000000 0.000000
# 3 -0.000690 -0.003638 0.006699 0.000000 0.000000 0.000000
# 4 0.000000 0.000000 0.000000 0.124307 0.000000 0.000000
# 5 0.000000 0.000000 0.000000 0.000000 -5.170879 0.000000
# 6 0.000000 0.000000 0.000000 0.000000 0.000000 -0.401952
#
#
# Mechanical properties :
#
#
# Convention : Reuss Voigt Hill
#
# Bulk Modulus (GPa) = 44.07093 61.32366 52.69729
# Shear Modulus (GPa) = -0.92530 22.51289 10.79379
#
# Velocity S-wave (km/s) = -0.64142 3.16386 2.19073
# Velocity P-wave (km/s) = 4.36428 6.37286 5.46169
#
# Compressibility (1/GPa) = 0.02269069
#
# Stress axis : x y z
#
# Youngs Moduli (GPa) = 71.42744 107.46102 149.27975
#
# Poissons Ratio (x) = -0.07204 0.10295
# Poissons Ratio (y) = -0.04788 0.54304
# Poissons Ratio (z) = 0.04926 0.39092
#
# Static dielectric constant tensor:
#      x y z
#    x 1.883780 0.000000 0.000000 
#    y 0.000000 1.819590 0.000000 
#    z 0.000000 0.000000 1.836580 
# 
# From -- ./inp_files/3567.got.cif
#   From: 2010.05.17/outbox.cif.g08.bks.cpg/sg47_2_cif.got.tgz:3567.got - 2010.06.03 20:15:42.
