data_PCOD9383211
_publ_section_title
;
Structure prediction by ZEFSAII (Michael W. Deem and Ramdas Pophale) SiO2 
 PCOD9383211
Probable space group: P M M M
;
_chemical_formula_sum "Si O2"
_cell_formula_units_Z 64
_cell_length_a 20.821304
_cell_length_b 19.262744
_cell_length_c 7.752018
_cell_angle_alpha 90.000000
_cell_angle_beta 90.000000
_cell_angle_gamma 90.000000
_cell_volume 3109.144098
_symmetry_space_group_name_H-M "P M M M"
_symmetry_group_IT_number 47
_symmetry_cell_setting 'orthorhombic'
loop_
_space_group_symop_operation_xyz
x,y,z
-x,-y,z
x,-y,-z
-x,y,-z
-x,-y,-z
x,y,-z
-x,y,z
x,-y,z
loop_
_atom_site_type_symbol
_atom_site_label
_atom_site_fract_x
_atom_site_fract_y
_atom_site_fract_z
Si Si1 0.694113 0.332207 0.711967
Si Si2 0.426836 0.079502 0.289072
Si Si3 0.427715 0.420304 0.710273
Si Si4 0.926930 0.840538 0.296784
Si Si5 0.312611 0.175680 0.702171
Si Si6 0.197387 0.921742 0.798651
Si Si7 0.927155 0.316204 0.206197
Si Si8 0.815595 0.421323 0.706688
O O1 0.695998 0.332351 0.500000
O O2 0.627931 0.368634 0.765930
O O3 0.697483 0.252859 0.773244
O O4 0.754219 0.378231 0.771492
O O5 0.425565 0.079645 0.500000
O O6 0.500000 0.096768 0.238130
O O7 0.372750 0.132307 0.225215
O O8 0.412955 0.000000 0.236204
O O9 0.427764 0.419820 0.500000
O O10 0.500000 0.401926 0.765926
O O11 0.414438 0.500000 0.762118
O O12 0.928583 0.854588 0.500000
O O13 0.873867 0.890656 0.218483
O O14 0.907319 0.760079 0.271497
O O15 0.000000 0.847894 0.228179
O O16 0.327094 0.185395 0.500000
O O17 0.248709 0.129787 0.715561
O O18 0.200838 0.000000 0.727735
O O19 0.213732 0.924256 0.000000
O O20 0.878768 0.376368 0.257976
O O21 0.000000 0.328935 0.268742
O O22 0.928295 0.312361 0.000000
O O23 0.808743 0.425956 0.500000
O O24 0.818710 0.500000 0.774373
#
# Coordination Sequence:
#
# PCOD9383211 Si02
#       8
#     8   8   8   8   8   8   8   8
#     4   9  17  28  43  67  98 130 168 215 263 308
#     4   8  14  25  42  67  99 131 164 209 268 327
#     4   8  13  22  38  62  96 137 172 202 246 306
#     4  10  21  38  61  86 110 137 171 211 254 306
#     4  10  19  31  51  76 101 134 177 224 271 319
#     4  11  24  39  55  77 107 142 177 216 263 312
#     4  10  21  37  57  80 107 138 170 209 260 315
#     4  10  20  33  50  72 101 139 180 222 267 314
#
# _framework density 20.584441999999999
#
# number of rings (size 3 to 8) (size 9 to 14) (size 15 to 20)
#    0.000    2.500    0.000    3.375    0.000    6.750 
#    0.000    5.000    0.000    0.375    0.000    1.750 
#    0.000    1.500    0.000    6.875    0.000    6.250 
#
# Total GULP energy -357319.317738 kJ/mol
# GULP energy per Si atom -5583.114340 kJ/mol
# Density = 2.053759 g / cm^3
# Si number density = 20.584442 Si / 1000 Ang^3
#
#
#
# Elastic Constant Matrix: (Units=GPa)
#
#
# Indices 1 2 3 4 5 6 
#
# 1 106.7156 86.7710 -7.6600 0.0000 0.0000 0.0000
# 2 86.7710 143.4252 -4.2525 0.0000 0.0000 0.0000
# 3 -7.6600 -4.2525 28.8030 0.0000 0.0000 0.0000
# 4 0.0000 0.0000 0.0000 31.3055 0.0000 0.0000
# 5 0.0000 0.0000 0.0000 0.0000 -25.9886 0.0000
# 6 0.0000 0.0000 0.0000 0.0000 0.0000 49.4255
#
#
#
# Elastic Compliance Matrix: (Units=1/GPa)
#
#
# Indices 1 2 3 4 5 6 
#
# 1 0.018756 -0.011248 0.003327 0.000000 0.000000 0.000000
# 2 -0.011248 0.013749 -0.000962 0.000000 0.000000 0.000000
# 3 0.003327 -0.000962 0.035462 0.000000 0.000000 0.000000
# 4 0.000000 0.000000 0.000000 0.031943 0.000000 0.000000
# 5 0.000000 0.000000 0.000000 0.000000 -0.038478 0.000000
# 6 0.000000 0.000000 0.000000 0.000000 0.000000 0.020232
#
#
# Mechanical properties :
#
#
# Convention : Reuss Voigt Hill
#
# Bulk Modulus (GPa) = 19.91998 47.62898 33.77448
# Shear Modulus (GPa) = 43.04319 24.55414 33.79867
#
# Velocity S-wave (km/s) = 4.57777 3.45751 4.05650
# Velocity P-wave (km/s) = 6.13510 6.25522 6.19545
#
# Compressibility (1/GPa) = 0.05020085
#
# Stress axis : x y z
#
# Youngs Moduli (GPa) = 53.31732 72.73295 28.19954
#
# Poissons Ratio (x) = 0.81813 -0.09383
# Poissons Ratio (y) = 0.59973 0.02712
# Poissons Ratio (z) = -0.17740 0.06994
#
# Static dielectric constant tensor:
#      x y z
#    x 1.716940 0.000000 0.000000 
#    y 0.000000 1.713820 0.000000 
#    z 0.000000 0.000000 1.785940 
# 
# From -- ./inp_files/11552.got.cif
#   From: 2010.05.17/outbox.cif.g08.bks.cpg/sg47_6_cif.got.tgz:11552.got - 2010.06.03 20:15:42.
