data_PCOD9383522
_publ_section_title
;
Structure prediction by ZEFSAII (Michael W. Deem and Ramdas Pophale) SiO2 
 PCOD9383522
Probable space group: P M M M
;
_chemical_formula_sum "Si O2"
_cell_formula_units_Z 64
_cell_length_a 24.316449
_cell_length_b 7.541023
_cell_length_c 15.365273
_cell_angle_alpha 90.000000
_cell_angle_beta 90.000000
_cell_angle_gamma 90.000000
_cell_volume 2817.543957
_symmetry_space_group_name_H-M "P M M M"
_symmetry_group_IT_number 47
_symmetry_cell_setting 'orthorhombic'
loop_
_space_group_symop_operation_xyz
x,y,z
-x,-y,z
x,-y,-z
-x,y,-z
-x,-y,-z
x,y,-z
-x,y,z
x,-y,z
loop_
_atom_site_type_symbol
_atom_site_label
_atom_site_fract_x
_atom_site_fract_y
_atom_site_fract_z
Si Si1 0.683927 0.283502 0.597754
Si Si2 0.559353 0.787104 0.847538
Si Si3 0.248996 0.716391 0.760884
Si Si4 0.161063 0.293682 0.098746
Si Si5 0.062507 0.790990 0.213658
Si Si6 0.674545 0.706109 0.909699
Si Si7 0.935816 0.713310 0.405714
Si Si8 0.438887 0.293081 0.356147
O O1 0.699616 0.238104 0.500000
O O2 0.681155 0.500000 0.605638
O O3 0.730549 0.223916 0.666176
O O4 0.620521 0.220994 0.613357
O O5 0.500000 0.734600 0.882511
O O6 0.609779 0.719810 0.902423
O O7 0.563375 0.719317 0.748623
O O8 0.562169 0.000000 0.844653
O O9 0.243508 0.500000 0.754025
O O10 0.198344 0.779490 0.821403
O O11 0.299940 0.773764 0.821639
O O12 0.176813 0.500000 0.091405
O O13 0.099868 0.284657 0.137353
O O14 0.165706 0.219671 0.000000
O O15 0.087063 0.764088 0.311255
O O16 0.000000 0.719054 0.213936
O O17 0.059812 0.000000 0.199609
O O18 0.690018 0.500000 0.911441
O O19 0.694467 0.787930 0.000000
O O20 0.912660 0.773284 0.500000
O O21 0.935113 0.500000 0.407206
O O22 0.000000 0.771500 0.404526
O O23 0.500000 0.219279 0.381402
O O24 0.439877 0.500000 0.382240
#
# Coordination Sequence:
#
# PCOD9383522 Si02
#       8
#     8   8   8   8   8   8   8   8
#     4   9  16  27  49  81 110 135 167 213 269 321
#     4  10  20  32  46  67  99 136 171 210 260 313
#     4   9  17  33  54  77 105 133 167 218 270 315
#     4  10  21  37  58  81 105 140 185 230 277 329
#     4  10  21  36  55  82 117 153 184 221 275 333
#     4  10  19  32  53  76  96 126 169 214 261 311
#     4   8  14  27  50  80 113 149 188 226 260 299
#     4   9  16  28  48  73 102 136 175 217 261 312
#
# _framework density 22.714818000000001
#
# number of rings (size 3 to 8) (size 9 to 14) (size 15 to 20)
#    0.000    2.625    1.250    1.500    0.000    4.500 
#    0.000    6.250    0.000    4.125    0.000    1.750 
#    0.000    0.000    0.000    0.000    0.000    0.000 
#
# Total GULP energy -356583.638406 kJ/mol
# GULP energy per Si atom -5571.619350 kJ/mol
# Density = 2.266312 g / cm^3
# Si number density = 22.714818 Si / 1000 Ang^3
#
#
#
# Elastic Constant Matrix: (Units=GPa)
#
#
# Indices 1 2 3 4 5 6 
#
# 1 93.2105 1.0583 69.7839 0.0000 0.0000 0.0000
# 2 1.0583 57.3652 1.3412 0.0000 0.0000 0.0000
# 3 69.7839 1.3412 178.5620 0.0000 0.0000 0.0000
# 4 0.0000 0.0000 0.0000 -157.7721 0.0000 0.0000
# 5 0.0000 0.0000 0.0000 0.0000 1.3730 0.0000
# 6 0.0000 0.0000 0.0000 0.0000 0.0000 76.8963
#
#
#
# Elastic Compliance Matrix: (Units=1/GPa)
#
#
# Indices 1 2 3 4 5 6 
#
# 1 0.015167 -0.000141 -0.005926 0.000000 0.000000 0.000000
# 2 -0.000141 0.017437 -0.000076 0.000000 0.000000 0.000000
# 3 -0.005926 -0.000076 0.007917 0.000000 0.000000 0.000000
# 4 0.000000 0.000000 0.000000 -0.006338 0.000000 0.000000
# 5 0.000000 0.000000 0.000000 0.000000 0.728353 0.000000
# 6 0.000000 0.000000 0.000000 0.000000 0.000000 0.013005
#
#
# Mechanical properties :
#
#
# Convention : Reuss Voigt Hill
#
# Bulk Modulus (GPa) = 35.41870 52.61163 44.01516
# Shear Modulus (GPa) = 6.27166 1.22971 3.75068
#
# Velocity S-wave (km/s) = 1.66344 0.73658 1.28639
# Velocity P-wave (km/s) = 4.39500 4.89239 4.65035
#
# Compressibility (1/GPa) = 0.02823368
#
# Stress axis : x y z
#
# Youngs Moduli (GPa) = 65.93323 57.35083 126.31162
#
# Poissons Ratio (x) = 0.00810 0.74856
# Poissons Ratio (y) = 0.00931 0.00957
# Poissons Ratio (z) = 0.39074 0.00435
#
# Static dielectric constant tensor:
#      x y z
#    x 2.058960 0.000000 0.000000 
#    y 0.000000 1.872640 0.000000 
#    z 0.000000 0.000000 1.877060 
# 
# From -- ./inp_files/12699.got.cif
#   From: 2010.05.17/outbox.cif.g08.bks.cpg/sg47_7_cif.got.tgz:12699.got - 2010.06.03 20:15:42.
