data_PCOD9383314
_publ_section_title
;
Structure prediction by ZEFSAII (Michael W. Deem and Ramdas Pophale) SiO2 
 PCOD9383314
Probable space group: P M M M
;
_chemical_formula_sum "Si O2"
_cell_formula_units_Z 36
_cell_length_a 25.393662
_cell_length_b 7.382488
_cell_length_c 8.489753
_cell_angle_alpha 90.000000
_cell_angle_beta 90.000000
_cell_angle_gamma 90.000000
_cell_volume 1591.560454
_symmetry_space_group_name_H-M "P M M M"
_symmetry_group_IT_number 47
_symmetry_cell_setting 'orthorhombic'
loop_
_space_group_symop_operation_xyz
x,y,z
-x,-y,z
x,-y,-z
-x,y,-z
-x,-y,-z
x,y,-z
-x,y,z
x,-y,z
loop_
_atom_site_type_symbol
_atom_site_label
_atom_site_fract_x
_atom_site_fract_y
_atom_site_fract_z
Si Si1 0.666924 0.217117 0.174982
Si Si2 0.117758 0.279010 0.174599
Si Si3 0.557327 0.779607 0.684384
Si Si4 0.777599 0.284610 0.674001
Si Si5 0.938873 0.279630 0.500000
O O1 0.610431 0.285654 0.233896
O O2 0.717227 0.254207 0.281747
O O3 0.662184 0.000000 0.169248
O O4 0.678106 0.285032 0.000000
O O5 0.114819 0.500000 0.172444
O O6 0.178602 0.222145 0.202459
O O7 0.087616 0.221382 0.334387
O O8 0.099647 0.219650 0.000000
O O9 0.559769 0.732191 0.500000
O O10 0.500000 0.720904 0.747113
O O11 0.557520 0.000000 0.692570
O O12 0.788632 0.210951 0.500000
O O13 0.784771 0.500000 0.666551
O O14 0.935168 0.500000 0.500000
O O15 0.000000 0.229310 0.500000
#
# Coordination Sequence:
#
# PCOD9383314 Si02
#       5
#     8   8   8   8   4
#     4  10  20  31  45  70 100 125 154 196 242 288
#     4   9  16  27  43  63  90 124 160 198 240 286
#     4   8  14  26  44  64  87 118 154 190 233 286
#     4  10  19  32  50  69  92 126 166 202 239 289
#     4   9  16  26  40  62  93 125 160 199 236 282
#
# _framework density 22.619309999999999
#
# number of rings (size 3 to 8) (size 9 to 14) (size 15 to 20)
#    0.000    2.778    1.111    2.000    0.000    3.556 
#    0.000    4.444    0.000    0.667    0.000    4.667 
#    0.000    1.778    0.000    4.667    0.000    4.444 
#
# Total GULP energy -200869.409716 kJ/mol
# GULP energy per Si atom -5579.705825 kJ/mol
# Density = 2.256783 g / cm^3
# Si number density = 22.619310 Si / 1000 Ang^3
#
#
#
# Elastic Constant Matrix: (Units=GPa)
#
#
# Indices 1 2 3 4 5 6 
#
# 1 138.9961 -2.2215 73.4373 0.0000 0.0000 0.0000
# 2 -2.2215 76.4799 5.3169 0.0000 0.0000 0.0000
# 3 73.4373 5.3169 161.8275 0.0000 0.0000 0.0000
# 4 0.0000 0.0000 0.0000 -2.8270 0.0000 0.0000
# 5 0.0000 0.0000 0.0000 0.0000 -0.0217 0.0000
# 6 0.0000 0.0000 0.0000 0.0000 0.0000 5.8798
#
#
#
# Elastic Compliance Matrix: (Units=1/GPa)
#
#
# Indices 1 2 3 4 5 6 
#
# 1 0.009489 0.000576 -0.004325 0.000000 0.000000 0.000000
# 2 0.000576 0.013140 -0.000693 0.000000 0.000000 0.000000
# 3 -0.004325 -0.000693 0.008165 0.000000 0.000000 0.000000
# 4 0.000000 0.000000 0.000000 -0.353728 0.000000 0.000000
# 5 0.000000 0.000000 0.000000 0.000000-45.986332 0.000000
# 6 0.000000 0.000000 0.000000 0.000000 0.000000 0.170075
#
#
# Mechanical properties :
#
#
# Convention : Reuss Voigt Hill
#
# Bulk Modulus (GPa) = 45.64114 58.92988 52.28551
# Shear Modulus (GPa) = -0.10841 20.65760 10.27459
#
# Velocity S-wave (km/s) = -0.21916 3.02532 2.13360
# Velocity P-wave (km/s) = 4.48973 6.18974 5.40697
#
# Compressibility (1/GPa) = 0.02191006
#
# Stress axis : x y z
#
# Youngs Moduli (GPa) = 105.38886 76.10201 122.47658
#
# Poissons Ratio (x) = -0.04386 0.52970
# Poissons Ratio (y) = -0.06073 0.08491
# Poissons Ratio (z) = 0.45579 0.05276
#
# Static dielectric constant tensor:
#      x y z
#    x 1.814050 0.000000 0.000000 
#    y 0.000000 1.909570 0.000000 
#    z 0.000000 0.000000 1.840570 
# 
# From -- ./inp_files/1455.got.cif
#   From: 2010.05.17/outbox.cif.g08.bks.cpg/sg47_1_cif.got.tgz:1455.got - 2010.06.03 20:15:42.
