data_PCOD9383317
_publ_section_title
;
Structure prediction by ZEFSAII (Michael W. Deem and Ramdas Pophale) SiO2 
 PCOD9383317
Probable space group: P M M M
;
_chemical_formula_sum "Si O2"
_cell_formula_units_Z 52
_cell_length_a 7.524738
_cell_length_b 29.984206
_cell_length_c 12.182981
_cell_angle_alpha 90.000000
_cell_angle_beta 90.000000
_cell_angle_gamma 90.000000
_cell_volume 2748.764307
_symmetry_space_group_name_H-M "P M M M"
_symmetry_group_IT_number 47
_symmetry_cell_setting 'orthorhombic'
loop_
_space_group_symop_operation_xyz
x,y,z
-x,-y,z
x,-y,-z
-x,y,-z
-x,-y,-z
x,y,-z
-x,y,z
x,-y,z
loop_
_atom_site_type_symbol
_atom_site_label
_atom_site_fract_x
_atom_site_fract_y
_atom_site_fract_z
Si Si1 0.787306 0.865200 0.375809
Si Si2 0.282271 0.090980 0.000000
Si Si3 0.217608 0.306506 0.628082
Si Si4 0.211206 0.220264 0.242218
Si Si5 0.786920 0.596006 0.368090
Si Si6 0.216274 0.500000 0.630438
Si Si7 0.289156 0.806763 0.000000
Si Si8 0.286560 0.049772 0.230226
O O1 0.718051 0.862957 0.500000
O O2 0.717904 0.824718 0.300205
O O3 0.754531 0.912551 0.319053
O O4 0.000000 0.860104 0.381485
O O5 0.223653 0.066544 0.889120
O O6 0.500000 0.090947 0.000000
O O7 0.220183 0.142257 0.000000
O O8 0.267383 0.300615 0.500000
O O9 0.280210 0.265100 0.700598
O O10 0.278560 0.355441 0.668789
O O11 0.000000 0.307296 0.629751
O O12 0.237570 0.217217 0.112350
O O13 0.000000 0.220598 0.261271
O O14 0.759734 0.595994 0.500000
O O15 0.719800 0.548021 0.325586
O O16 0.000000 0.595724 0.350823
O O17 0.256290 0.500000 0.500000
O O18 0.000000 0.500000 0.638587
O O19 0.500000 0.810227 0.000000
O O20 0.500000 0.047518 0.223577
O O21 0.220572 0.000000 0.255355
#
# Coordination Sequence:
#
# PCOD9383317 Si02
#       8
#     8   4   8   8   8   4   4   8
#     4  10  21  35  50  69  95 124 149 176 214 258
#     4   9  17  33  54  73  91 111 138 176 220 260
#     4   8  13  22  38  60  86 117 152 185 215 254
#     4  10  19  32  50  70  91 116 150 185 217 257
#     4   7   9  13  23  43  73 110 148 180 210 248
#     4   7   8  10  18  36  68 109 147 178 208 247
#     4  11  21  34  53  71  90 115 143 179 227 270
#     4  10  20  35  55  75  93 116 148 183 217 257
#
# _framework density 18.917591000000002
#
# number of rings (size 3 to 8) (size 9 to 14) (size 15 to 20)
#    0.000    3.000    1.538    2.769    0.000    3.692 
#    0.000    1.923    0.000    2.308    0.000    0.000 
#    0.000    0.615    0.000    8.538    0.000   12.385 
#
# Total GULP energy -289787.221342 kJ/mol
# GULP energy per Si atom -5572.831180 kJ/mol
# Density = 1.887453 g / cm^3
# Si number density = 18.917591 Si / 1000 Ang^3
#
#
#
# Elastic Constant Matrix: (Units=GPa)
#
#
# Indices 1 2 3 4 5 6 
#
# 1 46.0807 7.3913 -1.2031 0.0000 0.0000 0.0000
# 2 7.3913 222.9306 86.0356 0.0000 0.0000 0.0000
# 3 -1.2031 86.0356 109.3133 0.0000 0.0000 0.0000
# 4 0.0000 0.0000 0.0000 2.6478 0.0000 0.0000
# 5 0.0000 0.0000 0.0000 0.0000 25.2871 0.0000
# 6 0.0000 0.0000 0.0000 0.0000 0.0000 -39.9099
#
#
#
# Elastic Compliance Matrix: (Units=1/GPa)
#
#
# Indices 1 2 3 4 5 6 
#
# 1 0.021920 -0.001178 0.001168 0.000000 0.000000 0.000000
# 2 -0.001178 0.006506 -0.005133 0.000000 0.000000 0.000000
# 3 0.001168 -0.005133 0.013201 0.000000 0.000000 0.000000
# 4 0.000000 0.000000 0.000000 0.377673 0.000000 0.000000
# 5 0.000000 0.000000 0.000000 0.000000 0.039546 0.000000
# 6 0.000000 0.000000 0.000000 0.000000 0.000000 -0.025056
#
#
# Mechanical properties :
#
#
# Convention : Reuss Voigt Hill
#
# Bulk Modulus (GPa) = 31.90647 62.53023 47.21835
# Shear Modulus (GPa) = 11.00055 16.67838 13.83947
#
# Velocity S-wave (km/s) = 2.41404 2.97245 2.70768
# Velocity P-wave (km/s) = 4.96717 6.70122 5.89827
#
# Compressibility (1/GPa) = 0.03134160
#
# Stress axis : x y z
#
# Youngs Moduli (GPa) = 45.61955 153.70664 75.75073
#
# Poissons Ratio (x) = 0.18100 -0.08848
# Poissons Ratio (y) = 0.05372 0.38886
# Poissons Ratio (z) = -0.05329 0.78905
#
# Static dielectric constant tensor:
#      x y z
#    x 1.734130 0.000000 0.000000 
#    y 0.000000 1.711770 0.000000 
#    z 0.000000 0.000000 1.564340 
# 
# From -- ./inp_files/15680.got.cif
#   From: 2010.05.17/outbox.cif.g08.bks.cpg/sg47_8_cif.got.tgz:15680.got - 2010.06.03 20:15:42.
