data_PCOD9383394
_publ_section_title
;
Structure prediction by ZEFSAII (Michael W. Deem and Ramdas Pophale) SiO2 
 PCOD9383394
Probable space group: P M M M
;
_chemical_formula_sum "Si O2"
_cell_formula_units_Z 32
_cell_length_a 7.336450
_cell_length_b 17.277925
_cell_length_c 11.254504
_cell_angle_alpha 90.000000
_cell_angle_beta 90.000000
_cell_angle_gamma 90.000000
_cell_volume 1426.605541
_symmetry_space_group_name_H-M "P M M M"
_symmetry_group_IT_number 47
_symmetry_cell_setting 'orthorhombic'
loop_
_space_group_symop_operation_xyz
x,y,z
-x,-y,z
x,-y,-z
-x,y,-z
-x,-y,-z
x,y,-z
-x,y,z
x,-y,z
loop_
_atom_site_type_symbol
_atom_site_label
_atom_site_fract_x
_atom_site_fract_y
_atom_site_fract_z
Si Si1 0.721254 0.908913 0.868572
Si Si2 0.221552 0.500000 0.365835
Si Si3 0.289260 0.820975 0.635116
Si Si4 0.779599 0.341828 0.751299
Si Si5 0.221931 0.592160 0.000000
O O1 0.500000 0.901787 0.868845
O O2 0.789292 0.867465 0.748730
O O3 0.764212 0.000000 0.862658
O O4 0.781928 0.879892 0.000000
O O5 0.275789 0.500000 0.500000
O O6 0.281999 0.421053 0.308414
O O7 0.000000 0.500000 0.357162
O O8 0.213587 0.828323 0.500000
O O9 0.500000 0.845751 0.626358
O O10 0.285196 0.732409 0.679542
O O11 0.000000 0.337581 0.748581
O O12 0.723412 0.357088 0.886563
O O13 0.279338 0.500000 0.000000
O O14 0.000000 0.587381 0.000000
#
# Coordination Sequence:
#
# PCOD9383394 Si02
#       5
#     8   4   8   8   4
#     4   8  15  30  52  75  98 128 166 203 241 291
#     4   9  16  27  46  68  89 123 170 207 234 278
#     4  10  21  34  49  75 107 133 162 204 250 294
#     4  10  19  32  51  73  99 130 167 208 249 295
#     4   9  16  30  51  75  96 121 166 220 257 285
#
# _framework density 22.430869000000001
#
# number of rings (size 3 to 8) (size 9 to 14) (size 15 to 20)
#    0.000    2.750    1.250    1.500    1.750    2.000 
#    0.000    3.125    0.000    3.750    0.000    3.500 
#    0.000    0.000    0.000    0.000    0.000    0.000 
#
# Total GULP energy -178448.434903 kJ/mol
# GULP energy per Si atom -5576.513591 kJ/mol
# Density = 2.237982 g / cm^3
# Si number density = 22.430869 Si / 1000 Ang^3
#
#
#
# Elastic Constant Matrix: (Units=GPa)
#
#
# Indices 1 2 3 4 5 6 
#
# 1 85.3139 -4.6895 9.5015 0.0000 0.0000 0.0000
# 2 -4.6895 86.2160 91.7785 0.0000 0.0000 0.0000
# 3 9.5015 91.7785 271.9350 0.0000 0.0000 0.0000
# 4 0.0000 0.0000 0.0000 88.3961 0.0000 0.0000
# 5 0.0000 0.0000 0.0000 0.0000 -18.9149 0.0000
# 6 0.0000 0.0000 0.0000 0.0000 0.0000 34.5314
#
#
#
# Elastic Compliance Matrix: (Units=1/GPa)
#
#
# Indices 1 2 3 4 5 6 
#
# 1 0.011926 0.001705 -0.000992 0.000000 0.000000 0.000000
# 2 0.001705 0.018346 -0.006251 0.000000 0.000000 0.000000
# 3 -0.000992 -0.006251 0.005822 0.000000 0.000000 0.000000
# 4 0.000000 0.000000 0.000000 0.011313 0.000000 0.000000
# 5 0.000000 0.000000 0.000000 0.000000 -0.052868 0.000000
# 6 0.000000 0.000000 0.000000 0.000000 0.000000 0.028959
#
#
# Mechanical properties :
#
#
# Convention : Reuss Voigt Hill
#
# Bulk Modulus (GPa) = 39.97411 70.73843 55.35627
# Shear Modulus (GPa) = 116.51348 43.92749 80.22049
#
# Velocity S-wave (km/s) = 7.21499 4.43013 5.98674
# Velocity P-wave (km/s) = 9.34173 7.60083 8.51588
#
# Compressibility (1/GPa) = 0.02501619
#
# Stress axis : x y z
#
# Youngs Moduli (GPa) = 83.85315 54.50695 171.76556
#
# Poissons Ratio (x) = -0.09292 0.17039
# Poissons Ratio (y) = -0.14294 1.07379
# Poissons Ratio (z) = 0.08318 0.34075
#
# Static dielectric constant tensor:
#      x y z
#    x 1.912850 0.000000 0.000000 
#    y 0.000000 1.759460 0.000000 
#    z 0.000000 0.000000 1.955910 
# 
# From -- ./inp_files/14697.got.cif
#   From: 2010.05.17/outbox.cif.g08.bks.cpg/sg47_8_cif.got.tgz:14697.got - 2010.06.03 20:15:42.
