data_PCOD9383660
_publ_section_title
;
Structure prediction by ZEFSAII (Michael W. Deem and Ramdas Pophale) SiO2 
 PCOD9383660
Probable space group: P M M M
;
_chemical_formula_sum "Si O2"
_cell_formula_units_Z 28
_cell_length_a 14.360460
_cell_length_b 7.290217
_cell_length_c 14.597722
_cell_angle_alpha 90.000000
_cell_angle_beta 90.000000
_cell_angle_gamma 90.000000
_cell_volume 1528.248211
_symmetry_space_group_name_H-M "P M M M"
_symmetry_group_IT_number 47
_symmetry_cell_setting 'orthorhombic'
loop_
_space_group_symop_operation_xyz
x,y,z
-x,-y,z
x,-y,-z
-x,y,-z
-x,-y,-z
x,y,-z
-x,y,z
x,-y,z
loop_
_atom_site_type_symbol
_atom_site_label
_atom_site_fract_x
_atom_site_fract_y
_atom_site_fract_z
Si Si1 0.894151 0.277484 0.895446
Si Si2 0.110281 0.000000 0.396521
Si Si3 0.393709 0.722587 0.395636
Si Si4 0.781053 0.279371 0.721209
O O1 0.895160 0.500000 0.896309
O O2 0.815472 0.223887 0.822612
O O3 0.000000 0.220637 0.868846
O O4 0.877504 0.217871 0.000000
O O5 0.147572 0.179285 0.345720
O O6 0.144824 0.000000 0.500000
O O7 0.000000 0.000000 0.395713
O O8 0.367614 0.778559 0.500000
O O9 0.500000 0.781719 0.378759
O O10 0.394157 0.500000 0.396242
O O11 0.320001 0.777034 0.317978
O O12 0.787026 0.500000 0.715350
#
# Coordination Sequence:
#
# PCOD9383660 Si02
#       4
#     8   4   8   8
#     4   8  14  26  46  71  95 121 159 204 243 282
#     4  11  24  36  46  70 104 129 160 206 242 281
#     4   8  14  26  46  71  95 121 159 204 243 282
#     4  10  19  33  53  71  94 132 167 195 241 297
#
# _framework density 18.321632999999999
#
# number of rings (size 3 to 8) (size 9 to 14) (size 15 to 20)
#    0.000    3.000    0.000    3.429    0.000    3.429 
#    0.000    2.857    0.000    6.000    0.000    6.000 
#    0.000    2.286    0.000    0.286    0.000    0.000 
#
# Total GULP energy -156056.913283 kJ/mol
# GULP energy per Si atom -5573.461189 kJ/mol
# Density = 1.827993 g / cm^3
# Si number density = 18.321633 Si / 1000 Ang^3
#
#
#
# Elastic Constant Matrix: (Units=GPa)
#
#
# Indices 1 2 3 4 5 6 
#
# 1 136.1974 12.5136 96.1567 0.0000 0.0000 0.0000
# 2 12.5136 73.0439 13.3616 0.0000 0.0000 0.0000
# 3 96.1567 13.3616 152.7526 0.0000 0.0000 0.0000
# 4 0.0000 0.0000 0.0000 -6.1424 0.0000 0.0000
# 5 0.0000 0.0000 0.0000 0.0000 38.3026 0.0000
# 6 0.0000 0.0000 0.0000 0.0000 0.0000 0.7916
#
#
#
# Elastic Compliance Matrix: (Units=1/GPa)
#
#
# Indices 1 2 3 4 5 6 
#
# 1 0.013257 -0.000757 -0.008279 0.000000 0.000000 0.000000
# 2 -0.000757 0.013956 -0.000744 0.000000 0.000000 0.000000
# 3 -0.008279 -0.000744 0.011823 0.000000 0.000000 0.000000
# 4 0.000000 0.000000 0.000000 -0.162804 0.000000 0.000000
# 5 0.000000 0.000000 0.000000 0.000000 0.026108 0.000000
# 6 0.000000 0.000000 0.000000 0.000000 0.000000 1.263273
#
#
# Mechanical properties :
#
#
# Convention : Reuss Voigt Hill
#
# Bulk Modulus (GPa) = 51.34493 67.33976 59.34234
# Shear Modulus (GPa) = 4.19581 22.58784 13.39183
#
# Velocity S-wave (km/s) = 1.51494 3.51501 2.70650
# Velocity P-wave (km/s) = 5.58078 7.30121 6.49819
#
# Compressibility (1/GPa) = 0.01947612
#
# Stress axis : x y z
#
# Youngs Moduli (GPa) = 75.43325 71.65273 84.58000
#
# Poissons Ratio (x) = 0.05422 0.70022
# Poissons Ratio (y) = 0.05708 0.06297
# Poissons Ratio (z) = 0.62450 0.05334
#
# Static dielectric constant tensor:
#      x y z
#    x 1.623520 0.000000 0.000000 
#    y 0.000000 1.651450 0.000000 
#    z 0.000000 0.000000 1.627530 
# 
# From -- ./inp_files/3106.got.cif
#   From: 2010.05.17/outbox.cif.g08.bks.cpg/sg47_2_cif.got.tgz:3106.got - 2010.06.03 20:15:42.
