data_PCOD9383514
_publ_section_title
;
Structure prediction by ZEFSAII (Michael W. Deem and Ramdas Pophale) SiO2 
 PCOD9383514
Probable space group: P M M M
;
_chemical_formula_sum "Si O2"
_cell_formula_units_Z 48
_cell_length_a 7.923355
_cell_length_b 8.775813
_cell_length_c 35.886794
_cell_angle_alpha 90.000000
_cell_angle_beta 90.000000
_cell_angle_gamma 90.000000
_cell_volume 2495.348093
_symmetry_space_group_name_H-M "P M M M"
_symmetry_group_IT_number 47
_symmetry_cell_setting 'orthorhombic'
loop_
_space_group_symop_operation_xyz
x,y,z
-x,-y,z
x,-y,-z
-x,y,-z
-x,-y,-z
x,y,-z
-x,y,z
x,-y,z
loop_
_atom_site_type_symbol
_atom_site_label
_atom_site_fract_x
_atom_site_fract_y
_atom_site_fract_z
Si Si1 0.200021 0.172675 0.619878
Si Si2 0.297967 0.670653 0.696484
Si Si3 0.000000 0.681698 0.177584
Si Si4 0.000000 0.814689 0.094867
Si Si5 0.691443 0.814566 0.957321
Si Si6 0.702819 0.821828 0.459896
Si Si7 0.301501 0.181554 0.773949
O O1 0.253606 0.262230 0.656408
O O2 0.245281 0.244893 0.579829
O O3 0.000000 0.161003 0.620792
O O4 0.273233 0.000000 0.621304
O O5 0.500000 0.662844 0.697783
O O6 0.228589 0.500000 0.700829
O O7 0.249333 0.772819 0.731816
O O8 0.831951 0.741169 0.198580
O O9 0.000000 0.500000 0.177686
O O10 0.000000 0.746023 0.135798
O O11 0.165455 0.766778 0.071484
O O12 0.000000 0.000000 0.097314
O O13 0.500000 0.766442 0.947973
O O14 0.692113 0.000000 0.957348
O O15 0.728659 0.767710 0.000000
O O16 0.761083 0.757389 0.500000
O O17 0.500000 0.821257 0.460501
O O18 0.758657 0.000000 0.459183
O O19 0.500000 0.226579 0.779618
O O20 0.292577 0.000000 0.778248
#
# Coordination Sequence:
#
# PCOD9383514 Si02
#       7
#     8   8   4   4   8   8   8
#     4  10  20  31  47  75 107 138 171 211 260 317
#     4  10  21  37  57  80 106 137 173 216 271 333
#     4  12  26  41  59  85 122 164 199 239 294 358
#     4  10  19  32  52  80 112 150 198 247 293 344
#     4   8  14  26  48  80 114 147 189 246 305 349
#     4   8  14  26  45  68  95 130 172 216 260 306
#     4  10  22  42  67  90 112 144 191 246 297 347
#
# _framework density 19.235793000000001
#
# number of rings (size 3 to 8) (size 9 to 14) (size 15 to 20)
#    0.000    2.500    0.000    3.500    1.167    5.000 
#    0.000    3.333    0.000    1.500    0.000    4.667 
#    0.000    0.000    0.000    0.000    0.000    0.000 
#
# Total GULP energy -267618.534654 kJ/mol
# GULP energy per Si atom -5575.386139 kJ/mol
# Density = 1.919201 g / cm^3
# Si number density = 19.235793 Si / 1000 Ang^3
#
#
#
# Elastic Constant Matrix: (Units=GPa)
#
#
# Indices 1 2 3 4 5 6 
#
# 1 88.1392 36.9580 89.8863 0.0000 0.0000 0.0000
# 2 36.9580 49.1389 44.6387 0.0000 0.0000 0.0000
# 3 89.8863 44.6387 191.9039 0.0000 0.0000 0.0000
# 4 0.0000 0.0000 0.0000 -67.0274 0.0000 0.0000
# 5 0.0000 0.0000 0.0000 0.0000 17.6347 0.0000
# 6 0.0000 0.0000 0.0000 0.0000 0.0000 14.2867
#
#
#
# Elastic Compliance Matrix: (Units=1/GPa)
#
#
# Indices 1 2 3 4 5 6 
#
# 1 0.025387 -0.010513 -0.009445 0.000000 0.000000 0.000000
# 2 -0.010513 0.030157 -0.002090 0.000000 0.000000 0.000000
# 3 -0.009445 -0.002090 0.010121 0.000000 0.000000 0.000000
# 4 0.000000 0.000000 0.000000 -0.014919 0.000000 0.000000
# 5 0.000000 0.000000 0.000000 0.000000 0.056706 0.000000
# 6 0.000000 0.000000 0.000000 0.000000 0.000000 0.069995
#
#
# Mechanical properties :
#
#
# Convention : Reuss Voigt Hill
#
# Bulk Modulus (GPa) = 46.36823 74.68309 60.52566
# Shear Modulus (GPa) = 21.85947 3.49208 12.67577
#
# Velocity S-wave (km/s) = 3.37470 1.34883 2.56982
# Velocity P-wave (km/s) = 6.27235 6.42924 6.35128
#
# Compressibility (1/GPa) = 0.02156649
#
# Stress axis : x y z
#
# Youngs Moduli (GPa) = 39.39067 33.16026 98.80093
#
# Poissons Ratio (x) = 0.34862 0.93322
# Poissons Ratio (y) = 0.41412 0.20653
# Poissons Ratio (z) = 0.37206 0.06932
#
# Static dielectric constant tensor:
#      x y z
#    x 1.673890 0.000000 0.000000 
#    y 0.000000 1.675030 0.000000 
#    z 0.000000 0.000000 1.675390 
# 
# From -- ./inp_files/34198.got.cif
#   From: 2010.05.17/outbox.cif.g08.bks.cpg/sg47_18_cif.got.tgz:34198.got - 2010.06.03 20:15:42.
