data_PCOD9383272
_publ_section_title
;
Structure prediction by ZEFSAII (Michael W. Deem and Ramdas Pophale) SiO2 
 PCOD9383272
Probable space group: P M M M
;
_chemical_formula_sum "Si O2"
_cell_formula_units_Z 40
_cell_length_a 17.065492
_cell_length_b 18.576402
_cell_length_c 9.548710
_cell_angle_alpha 90.000000
_cell_angle_beta 90.000000
_cell_angle_gamma 90.000000
_cell_volume 3027.088499
_symmetry_space_group_name_H-M "P M M M"
_symmetry_group_IT_number 47
_symmetry_cell_setting 'orthorhombic'
loop_
_space_group_symop_operation_xyz
x,y,z
-x,-y,z
x,-y,-z
-x,y,-z
-x,-y,-z
x,y,-z
-x,y,z
x,-y,z
loop_
_atom_site_type_symbol
_atom_site_label
_atom_site_fract_x
_atom_site_fract_y
_atom_site_fract_z
Si Si1 0.151283 0.586026 0.336003
Si Si2 0.000000 0.412352 0.838903
Si Si3 0.326629 0.369909 0.332502
Si Si4 0.404889 0.079782 0.163426
Si Si5 0.406028 0.500000 0.834460
Si Si6 0.407620 0.780988 0.666522
O O1 0.132057 0.596237 0.500000
O O2 0.163289 0.500000 0.315176
O O3 0.233847 0.623650 0.305712
O O4 0.078729 0.610089 0.241506
O O5 0.000000 0.500000 0.835580
O O6 0.000000 0.389616 0.000000
O O7 0.338520 0.383253 0.500000
O O8 0.370564 0.430440 0.242970
O O9 0.360668 0.291386 0.299204
O O10 0.500000 0.079350 0.170914
O O11 0.378947 0.148156 0.252719
O O12 0.378717 0.000000 0.210884
O O13 0.384205 0.088018 0.000000
O O14 0.500000 0.500000 0.821101
O O15 0.386426 0.500000 0.000000
O O16 0.401811 0.793042 0.500000
O O17 0.500000 0.769649 0.699349
#
# Coordination Sequence:
#
# PCOD9383272 Si02
#       6
#     8   4   8   8   4   8
#     4   9  16  28  44  60  76  99 132 165 198 241
#     4   9  17  27  41  61  81  99 120 155 204 247
#     4  10  19  32  46  59  77 106 140 172 207 244
#     4   8  14  25  40  56  75 101 131 162 199 243
#     4  11  23  33  41  56  77 104 141 181 214 239
#     4   9  17  27  40  59  80 103 134 171 206 238
#
# _framework density 13.214017
#
# number of rings (size 3 to 8) (size 9 to 14) (size 15 to 20)
#    0.000    2.800    1.000    1.800    0.000    4.800 
#    0.000    4.000    0.000    0.000    0.000    0.000 
#    0.000    0.000    0.000    0.900    0.000   18.800 
#
# Total GULP energy -222771.833762 kJ/mol
# GULP energy per Si atom -5569.295844 kJ/mol
# Density = 1.318394 g / cm^3
# Si number density = 13.214017 Si / 1000 Ang^3
#
#
#
# Elastic Constant Matrix: (Units=GPa)
#
#
# Indices 1 2 3 4 5 6 
#
# 1 75.3498 52.2904 53.1785 0.0000 0.0000 0.0000
# 2 52.2904 113.7680 63.1064 0.0000 0.0000 0.0000
# 3 53.1785 63.1064 61.8497 0.0000 0.0000 0.0000
# 4 0.0000 0.0000 0.0000 16.4600 0.0000 0.0000
# 5 0.0000 0.0000 0.0000 0.0000 14.1712 0.0000
# 6 0.0000 0.0000 0.0000 0.0000 0.0000 2.0657
#
#
#
# Elastic Compliance Matrix: (Units=1/GPa)
#
#
# Indices 1 2 3 4 5 6 
#
# 1 0.033843 0.001349 -0.030475 0.000000 0.000000 0.000000
# 2 0.001349 0.020305 -0.021878 0.000000 0.000000 0.000000
# 3 -0.030475 -0.021878 0.064693 0.000000 0.000000 0.000000
# 4 0.000000 0.000000 0.000000 0.060753 0.000000 0.000000
# 5 0.000000 0.000000 0.000000 0.000000 0.070565 0.000000
# 6 0.000000 0.000000 0.000000 0.000000 0.000000 0.484109
#
#
# Mechanical properties :
#
#
# Convention : Reuss Voigt Hill
#
# Bulk Modulus (GPa) = 59.40313 65.34645 62.37479
# Shear Modulus (GPa) = 5.93904 12.03219 8.98561
#
# Velocity S-wave (km/s) = 2.12232 3.02083 2.61052
# Velocity P-wave (km/s) = 7.14548 7.85665 7.50949
#
# Compressibility (1/GPa) = 0.01683413
#
# Stress axis : x y z
#
# Youngs Moduli (GPa) = 29.54828 49.24857 15.45764
#
# Poissons Ratio (x) = -0.06645 0.47107
# Poissons Ratio (y) = -0.03987 0.33818
# Poissons Ratio (z) = 0.90048 1.07745
#
# Static dielectric constant tensor:
#      x y z
#    x 1.414490 0.000000 0.000000 
#    y 0.000000 1.420020 0.000000 
#    z 0.000000 0.000000 1.441250 
# 
# From -- ./inp_files/9338.got.cif
#   From: 2010.05.17/outbox.cif.g08.bks.cpg/sg47_5_cif.got.tgz:9338.got - 2010.06.03 20:15:42.
