data_PCOD9383668
_publ_section_title
;
Structure prediction by ZEFSAII (Michael W. Deem and Ramdas Pophale) SiO2 
 PCOD9383668
Probable space group: P M M M
;
_chemical_formula_sum "Si O2"
_cell_formula_units_Z 52
_cell_length_a 9.096055
_cell_length_b 29.365587
_cell_length_c 12.110716
_cell_angle_alpha 90.000000
_cell_angle_beta 90.000000
_cell_angle_gamma 90.000000
_cell_volume 3234.905394
_symmetry_space_group_name_H-M "P M M M"
_symmetry_group_IT_number 47
_symmetry_cell_setting 'orthorhombic'
loop_
_space_group_symop_operation_xyz
x,y,z
-x,-y,z
x,-y,-z
-x,y,-z
-x,-y,-z
x,y,-z
-x,y,z
x,-y,z
loop_
_atom_site_type_symbol
_atom_site_label
_atom_site_fract_x
_atom_site_fract_y
_atom_site_fract_z
Si Si1 0.823433 0.867302 0.371850
Si Si2 0.322088 0.088492 0.000000
Si Si3 0.179294 0.308131 0.627293
Si Si4 0.177603 0.221636 0.226942
Si Si5 0.830391 0.591447 0.365617
Si Si6 0.331039 0.500000 0.634559
Si Si7 0.323196 0.804698 0.000000
Si Si8 0.322253 0.052036 0.238126
O O1 0.783411 0.861014 0.500000
O O2 0.785121 0.822737 0.300305
O O3 0.746915 0.911299 0.319904
O O4 0.000000 0.872659 0.365986
O O5 0.280656 0.141608 0.000000
O O6 0.274099 0.064599 0.886875
O O7 0.500000 0.086495 0.000000
O O8 0.225737 0.300451 0.500000
O O9 0.221727 0.266871 0.706151
O O10 0.228094 0.358491 0.665481
O O11 0.000000 0.309590 0.625444
O O12 0.000000 0.222317 0.212829
O O13 0.256199 0.217255 0.109816
O O14 0.828993 0.591690 0.500000
O O15 0.744974 0.546721 0.328197
O O16 0.000000 0.587567 0.331147
O O17 0.500000 0.500000 0.666331
O O18 0.322815 0.500000 0.500000
O O19 0.500000 0.801989 0.000000
O O20 0.500000 0.055506 0.242091
O O21 0.281945 0.000000 0.263874
#
# Coordination Sequence:
#
# PCOD9383668 Si02
#       8
#     8   4   8   8   8   4   4   8
#     4  10  21  35  51  72  99 128 154 185 230 281
#     4   9  17  33  54  73  93 117 148 190 236 275
#     4   8  14  26  46  70  94 122 158 198 235 273
#     4  10  19  33  53  74  95 121 157 194 231 278
#     4   8  13  22  37  57  82 116 157 195 229 267
#     4   9  15  21  31  51  83 122 159 194 231 269
#     4  11  21  34  53  73  96 123 151 189 238 281
#     4  10  20  35  55  75  94 121 158 195 230 273
#
# _framework density 16.074660000000002
#
# number of rings (size 3 to 8) (size 9 to 14) (size 15 to 20)
#    0.000    2.692    1.538    2.077    0.000    4.615 
#    0.000    2.692    0.000    3.231    0.000    0.000 
#    0.000    0.615    0.000    7.077    0.000    4.615 
#
# Total GULP energy -289755.951204 kJ/mol
# GULP energy per Si atom -5572.229831 kJ/mol
# Density = 1.603807 g / cm^3
# Si number density = 16.074660 Si / 1000 Ang^3
#
#
#
# Elastic Constant Matrix: (Units=GPa)
#
#
# Indices 1 2 3 4 5 6 
#
# 1 27.8917 51.5820 33.1420 0.0000 0.0000 0.0000
# 2 51.5820 179.2684 73.9314 0.0000 0.0000 0.0000
# 3 33.1420 73.9314 103.6709 0.0000 0.0000 0.0000
# 4 0.0000 0.0000 0.0000 3.8814 0.0000 0.0000
# 5 0.0000 0.0000 0.0000 0.0000 18.4076 0.0000
# 6 0.0000 0.0000 0.0000 0.0000 0.0000 12.6312
#
#
#
# Elastic Compliance Matrix: (Units=1/GPa)
#
#
# Indices 1 2 3 4 5 6 
#
# 1 0.089891 -0.019852 -0.014580 0.000000 0.000000 0.000000
# 2 -0.019852 0.012287 -0.002416 0.000000 0.000000 0.000000
# 3 -0.014580 -0.002416 0.016029 0.000000 0.000000 0.000000
# 4 0.000000 0.000000 0.000000 0.257640 0.000000 0.000000
# 5 0.000000 0.000000 0.000000 0.000000 0.054325 0.000000
# 6 0.000000 0.000000 0.000000 0.000000 0.000000 0.079169
#
#
# Mechanical properties :
#
#
# Convention : Reuss Voigt Hill
#
# Bulk Modulus (GPa) = 22.46561 69.79351 46.12956
# Shear Modulus (GPa) = 8.36297 17.12908 12.74602
#
# Velocity S-wave (km/s) = 2.28339 3.26789 2.81895
# Velocity P-wave (km/s) = 4.57799 7.59943 6.27333
#
# Compressibility (1/GPa) = 0.04451248
#
# Stress axis : x y z
#
# Youngs Moduli (GPa) = 11.12458 81.38937 62.38538
#
# Poissons Ratio (x) = 1.61576 0.90955
# Poissons Ratio (y) = 0.22085 0.15070
# Poissons Ratio (z) = 0.16219 0.19660
#
# Static dielectric constant tensor:
#      x y z
#    x 1.537690 0.000000 0.000000 
#    y 0.000000 1.546120 0.000000 
#    z 0.000000 0.000000 1.515330 
# 
# From -- ./inp_files/15679.got.cif
#   From: 2010.05.17/outbox.cif.g08.bks.cpg/sg47_8_cif.got.tgz:15679.got - 2010.06.03 20:15:42.
