data_PCOD9383058
_publ_section_title
;
Structure prediction by ZEFSAII (Michael W. Deem and Ramdas Pophale) SiO2 
 PCOD9383058
Probable space group: P M M M
;
_chemical_formula_sum "Si O2"
_cell_formula_units_Z 48
_cell_length_a 16.994531
_cell_length_b 8.528785
_cell_length_c 19.055769
_cell_angle_alpha 90.000000
_cell_angle_beta 90.000000
_cell_angle_gamma 90.000000
_cell_volume 2761.994630
_symmetry_space_group_name_H-M "P M M M"
_symmetry_group_IT_number 47
_symmetry_cell_setting 'orthorhombic'
loop_
_space_group_symop_operation_xyz
x,y,z
-x,-y,z
x,-y,-z
-x,y,-z
-x,-y,-z
x,y,-z
-x,y,z
x,-y,z
loop_
_atom_site_type_symbol
_atom_site_label
_atom_site_fract_x
_atom_site_fract_y
_atom_site_fract_z
Si Si1 0.167997 0.812145 0.344259
Si Si2 0.411086 0.810549 0.712006
Si Si3 0.000000 0.691115 0.155150
Si Si4 0.318381 0.312157 0.420608
Si Si5 0.839139 0.310837 0.080129
Si Si6 0.000000 0.687931 0.681830
Si Si7 0.739468 0.811282 0.796169
O O1 0.231330 0.744012 0.398377
O O2 0.200637 0.765597 0.266792
O O3 0.080002 0.750218 0.352394
O O4 0.169527 0.000000 0.348237
O O5 0.500000 0.755664 0.724042
O O6 0.377855 0.756083 0.636998
O O7 0.346725 0.759808 0.769759
O O8 0.410927 0.000000 0.712186
O O9 0.921456 0.743001 0.114879
O O10 0.000000 0.741225 0.236299
O O11 0.000000 0.500000 0.155074
O O12 0.336486 0.262090 0.500000
O O13 0.321136 0.500000 0.417198
O O14 0.840925 0.500000 0.079257
O O15 0.769754 0.257168 0.131253
O O16 0.831878 0.255943 0.000000
O O17 0.000000 0.500000 0.680716
O O18 0.740055 0.000000 0.800430
#
# Coordination Sequence:
#
# PCOD9383058 Si02
#       7
#     8   8   4   8   8   4   8
#     4  10  20  34  52  74 101 136 177 217 255 300
#     4   9  19  36  57  80 104 133 169 207 251 306
#     4   9  17  29  46  70 100 134 169 208 251 295
#     4  10  21  36  54  78 108 137 166 205 254 306
#     4  10  19  31  48  71 101 137 175 211 251 303
#     4  11  19  30  52  76 100 135 176 219 264 303
#     4   9  18  32  50  72  99 130 166 211 255 299
#
# _framework density 17.378744999999999
#
# number of rings (size 3 to 8) (size 9 to 14) (size 15 to 20)
#    0.000    2.333    1.667    2.500    0.000    6.000 
#    0.000    2.500    0.000    4.000    0.000    3.500 
#    0.000    0.000    0.000    0.000    0.000    0.000 
#
# Total GULP energy -267794.483057 kJ/mol
# GULP energy per Si atom -5579.051730 kJ/mol
# Density = 1.733919 g / cm^3
# Si number density = 17.378745 Si / 1000 Ang^3
#
#
#
# Elastic Constant Matrix: (Units=GPa)
#
#
# Indices 1 2 3 4 5 6 
#
# 1 144.3295 13.1031 40.9952 0.0000 0.0000 0.0000
# 2 13.1031 7.8008 5.5620 0.0000 0.0000 0.0000
# 3 40.9952 5.5620 76.5450 0.0000 0.0000 0.0000
# 4 0.0000 0.0000 0.0000 20.1741 0.0000 0.0000
# 5 0.0000 0.0000 0.0000 0.0000 13.1915 0.0000
# 6 0.0000 0.0000 0.0000 0.0000 0.0000 19.2274
#
#
#
# Elastic Compliance Matrix: (Units=1/GPa)
#
#
# Indices 1 2 3 4 5 6 
#
# 1 0.009215 -0.012613 -0.004019 0.000000 0.000000 0.000000
# 2 -0.012613 0.152461 -0.004323 0.000000 0.000000 0.000000
# 3 -0.004019 -0.004323 0.015531 0.000000 0.000000 0.000000
# 4 0.000000 0.000000 0.000000 0.049568 0.000000 0.000000
# 5 0.000000 0.000000 0.000000 0.000000 0.075806 0.000000
# 6 0.000000 0.000000 0.000000 0.000000 0.000000 0.052009
#
#
# Mechanical properties :
#
#
# Convention : Reuss Voigt Hill
#
# Bulk Modulus (GPa) = 7.39119 38.66622 23.02870
# Shear Modulus (GPa) = 11.32246 21.78628 16.55437
#
# Velocity S-wave (km/s) = 2.55524 3.54449 3.08971
# Velocity P-wave (km/s) = 3.60110 6.24889 5.09983
#
# Compressibility (1/GPa) = 0.13529626
#
# Stress axis : x y z
#
# Youngs Moduli (GPa) = 108.51612 6.55906 64.38860
#
# Poissons Ratio (x) = 0.08273 0.25877
# Poissons Ratio (y) = 1.36876 0.27835
# Poissons Ratio (z) = 0.43611 0.02835
#
# Static dielectric constant tensor:
#      x y z
#    x 1.587730 0.000000 0.000000 
#    y 0.000000 1.592910 0.000000 
#    z 0.000000 0.000000 1.578090 
# 
# From -- ./inp_files/9217.got.cif
#   From: 2010.05.17/outbox.cif.g08.bks.cpg/sg47_5_cif.got.tgz:9217.got - 2010.06.03 20:15:42.
