data_PCOD9383212
_publ_section_title
;
Structure prediction by ZEFSAII (Michael W. Deem and Ramdas Pophale) SiO2 
 PCOD9383212
Probable space group: P M M M
;
_chemical_formula_sum "Si O2"
_cell_formula_units_Z 52
_cell_length_a 7.411294
_cell_length_b 15.092221
_cell_length_c 20.832830
_cell_angle_alpha 90.000000
_cell_angle_beta 90.000000
_cell_angle_gamma 90.000000
_cell_volume 2330.212179
_symmetry_space_group_name_H-M "P M M M"
_symmetry_group_IT_number 47
_symmetry_cell_setting 'orthorhombic'
loop_
_space_group_symop_operation_xyz
x,y,z
-x,-y,z
x,-y,-z
-x,y,-z
-x,-y,-z
x,y,-z
-x,y,z
x,-y,z
loop_
_atom_site_type_symbol
_atom_site_label
_atom_site_fract_x
_atom_site_fract_y
_atom_site_fract_z
Si Si1 0.219030 0.601948 0.809894
Si Si2 0.721191 0.897167 0.500000
Si Si3 0.282557 0.101064 0.256041
Si Si4 0.216618 0.400077 0.664984
Si Si5 0.778927 0.714680 0.930528
Si Si6 0.208866 0.902788 0.892670
Si Si7 0.713783 0.789315 0.376065
O O1 0.265322 0.500000 0.822849
O O2 0.281321 0.622091 0.737508
O O3 0.283465 0.662813 0.867644
O O4 0.000000 0.607860 0.808685
O O5 0.500000 0.896719 0.500000
O O6 0.782320 0.844109 0.436890
O O7 0.775694 0.000000 0.500000
O O8 0.500000 0.106841 0.251445
O O9 0.212630 0.113935 0.184081
O O10 0.215438 0.170079 0.309077
O O11 0.238227 0.000000 0.276047
O O12 0.279753 0.500000 0.648093
O O13 0.260903 0.316225 0.621138
O O14 0.000000 0.404799 0.667369
O O15 0.715021 0.815893 0.925356
O O16 0.000000 0.714912 0.928151
O O17 0.728325 0.676776 0.000000
O O18 0.000000 0.907629 0.912562
O O19 0.289791 0.000000 0.904246
O O20 0.500000 0.805340 0.374446
#
# Coordination Sequence:
#
# PCOD9383212 Si02
#       7
#     8   4   8   8   8   8   8
#     4   8  14  25  41  61  85 114 148 184 224 273
#     4   9  18  34  54  75 102 134 163 189 226 281
#     4   9  17  29  46  69  94 118 149 191 236 280
#     4   9  18  33  52  72  96 128 161 193 235 283
#     4   9  16  24  36  57  84 113 145 183 227 272
#     4   9  17  28  42  61  85 115 151 188 227 272
#     4  10  19  31  51  76  98 124 158 195 233 272
#
# _framework density 22.315564999999999
#
# number of rings (size 3 to 8) (size 9 to 14) (size 15 to 20)
#    0.000    3.000    0.000    2.308    0.000    4.615 
#    0.000    3.846    0.000    4.615    0.000    2.154 
#    0.000    0.000    0.000   13.231    0.000   10.769 
#
# Total GULP energy -290243.927852 kJ/mol
# GULP energy per Si atom -5581.613997 kJ/mol
# Density = 2.226477 g / cm^3
# Si number density = 22.315565 Si / 1000 Ang^3
#
#
#
# Elastic Constant Matrix: (Units=GPa)
#
#
# Indices 1 2 3 4 5 6 
#
# 1 73.5260 -2.6102 -0.9152 0.0000 0.0000 0.0000
# 2 -2.6102 137.2711 71.2866 0.0000 0.0000 0.0000
# 3 -0.9152 71.2866 66.1382 0.0000 0.0000 0.0000
# 4 0.0000 0.0000 0.0000 14.2357 0.0000 0.0000
# 5 0.0000 0.0000 0.0000 0.0000 -1.9645 0.0000
# 6 0.0000 0.0000 0.0000 0.0000 0.0000 7.4121
#
#
#
# Elastic Compliance Matrix: (Units=1/GPa)
#
#
# Indices 1 2 3 4 5 6 
#
# 1 0.013611 0.000366 -0.000206 0.000000 0.000000 0.000000
# 2 0.000366 0.016556 -0.017840 0.000000 0.000000 0.000000
# 3 -0.000206 -0.017840 0.034346 0.000000 0.000000 0.000000
# 4 0.000000 0.000000 0.000000 0.070246 0.000000 0.000000
# 5 0.000000 0.000000 0.000000 0.000000 -0.509028 0.000000
# 6 0.000000 0.000000 0.000000 0.000000 0.000000 0.134914
#
#
# Mechanical properties :
#
#
# Convention : Reuss Voigt Hill
#
# Bulk Modulus (GPa) = 34.30202 45.82863 40.06533
# Shear Modulus (GPa) = -25.73650 17.88161 -3.92745
#
# Velocity S-wave (km/s) = -3.39971 2.83381 -1.32807
# Velocity P-wave (km/s) = 0.07733 5.59361 3.95490
#
# Compressibility (1/GPa) = 0.02915280
#
# Stress axis : x y z
#
# Youngs Moduli (GPa) = 73.46974 60.39959 29.11560
#
# Poissons Ratio (x) = -0.02209 0.00599
# Poissons Ratio (y) = -0.02687 0.51943
# Poissons Ratio (z) = 0.01512 1.07754
#
# Static dielectric constant tensor:
#      x y z
#    x 1.884140 0.000000 0.000000 
#    y 0.000000 1.818570 0.000000 
#    z 0.000000 0.000000 1.805660 
# 
# From -- ./inp_files/21487.got.cif
#   From: 2010.05.17/outbox.cif.g08.bks.cpg/sg47_11_cif.got.tgz:21487.got - 2010.06.03 20:15:42.
