data_PCOD9383183
_publ_section_title
;
Structure prediction by ZEFSAII (Michael W. Deem and Ramdas Pophale) SiO2 
 PCOD9383183
Probable space group: P M M M
;
_chemical_formula_sum "Si O2"
_cell_formula_units_Z 52
_cell_length_a 7.825978
_cell_length_b 24.284498
_cell_length_c 14.905918
_cell_angle_alpha 90.000000
_cell_angle_beta 90.000000
_cell_angle_gamma 90.000000
_cell_volume 2832.868927
_symmetry_space_group_name_H-M "P M M M"
_symmetry_group_IT_number 47
_symmetry_cell_setting 'orthorhombic'
loop_
_space_group_symop_operation_xyz
x,y,z
-x,-y,z
x,-y,-z
-x,y,-z
-x,-y,-z
x,y,-z
-x,y,z
x,-y,z
loop_
_atom_site_type_symbol
_atom_site_label
_atom_site_fract_x
_atom_site_fract_y
_atom_site_fract_z
Si Si1 0.206379 0.060547 0.712568
Si Si2 0.705289 0.168623 0.602007
Si Si3 0.208495 0.107247 0.099586
Si Si4 0.295250 0.725009 0.289387
Si Si5 0.205662 0.234992 0.099073
Si Si6 0.796709 0.500000 0.397680
Si Si7 0.704829 0.619354 0.397004
O O1 0.256346 0.110826 0.649167
O O2 0.266076 0.073359 0.814171
O O3 0.000000 0.059709 0.714621
O O4 0.266080 0.000000 0.683623
O O5 0.770232 0.170737 0.500000
O O6 0.500000 0.173838 0.598351
O O7 0.771252 0.219885 0.661094
O O8 0.260529 0.171187 0.111550
O O9 0.000000 0.106052 0.099418
O O10 0.263320 0.088909 0.000000
O O11 0.500000 0.725034 0.299950
O O12 0.259696 0.729790 0.184093
O O13 0.229493 0.669891 0.337499
O O14 0.000000 0.234239 0.097741
O O15 0.264924 0.252997 0.000000
O O16 0.725238 0.500000 0.500000
O O17 0.742785 0.558686 0.358511
O O18 0.000000 0.500000 0.401962
O O19 0.770984 0.622411 0.500000
O O20 0.500000 0.624271 0.401992
#
# Coordination Sequence:
#
# PCOD9383183 Si02
#       7
#     8   8   8   8   8   4   8
#     4  10  20  33  50  71  92 117 155 200 241 285
#     4  10  21  36  51  67  91 124 159 196 240 287
#     4   8  14  27  47  69  92 117 146 184 234 290
#     4  10  19  31  50  75  98 123 160 203 239 277
#     4   9  17  30  49  71  96 126 156 189 236 293
#     4   9  17  29  45  69 102 135 168 203 235 272
#     4   9  17  30  48  70  99 135 169 199 235 279
#
# _framework density 18.35595
#
# number of rings (size 3 to 8) (size 9 to 14) (size 15 to 20)
#    0.000    2.692    1.538    1.615    0.000    4.923 
#    0.000    3.077    0.000    3.231    0.000    1.615 
#    0.000    4.308    0.000    0.000    0.000    0.000 
#
# Total GULP energy -289925.556308 kJ/mol
# GULP energy per Si atom -5575.491467 kJ/mol
# Density = 1.831417 g / cm^3
# Si number density = 18.355950 Si / 1000 Ang^3
#
#
#
# Elastic Constant Matrix: (Units=GPa)
#
#
# Indices 1 2 3 4 5 6 
#
# 1 21.3844 8.2672 5.7591 0.0000 0.0000 0.0000
# 2 8.2672 153.2618 80.9089 0.0000 0.0000 0.0000
# 3 5.7591 80.9089 122.3517 0.0000 0.0000 0.0000
# 4 0.0000 0.0000 0.0000 23.7785 0.0000 0.0000
# 5 0.0000 0.0000 0.0000 0.0000 17.8721 0.0000
# 6 0.0000 0.0000 0.0000 0.0000 0.0000 9.0519
#
#
#
# Elastic Compliance Matrix: (Units=1/GPa)
#
#
# Indices 1 2 3 4 5 6 
#
# 1 0.047815 -0.002137 -0.000837 0.000000 0.000000 0.000000
# 2 -0.002137 0.010120 -0.006591 0.000000 0.000000 0.000000
# 3 -0.000837 -0.006591 0.012571 0.000000 0.000000 0.000000
# 4 0.000000 0.000000 0.000000 0.042055 0.000000 0.000000
# 5 0.000000 0.000000 0.000000 0.000000 0.055953 0.000000
# 6 0.000000 0.000000 0.000000 0.000000 0.000000 0.110474
#
#
# Mechanical properties :
#
#
# Convention : Reuss Voigt Hill
#
# Bulk Modulus (GPa) = 19.46509 54.09646 36.78078
# Shear Modulus (GPa) = 15.86073 23.61135 19.73604
#
# Velocity S-wave (km/s) = 2.94269 3.59040 3.28256
# Velocity P-wave (km/s) = 4.70884 6.83540 5.86924
#
# Compressibility (1/GPa) = 0.05137403
#
# Stress axis : x y z
#
# Youngs Moduli (GPa) = 20.91403 98.81665 79.54594
#
# Poissons Ratio (x) = 0.21119 0.06661
# Poissons Ratio (y) = 0.04470 0.52432
# Poissons Ratio (z) = 0.01751 0.65134
#
# Static dielectric constant tensor:
#      x y z
#    x 1.678970 0.000000 0.000000 
#    y 0.000000 1.635620 0.000000 
#    z 0.000000 0.000000 1.635680 
# 
# From -- ./inp_files/7012.got.cif
#   From: 2010.05.17/outbox.cif.g08.bks.cpg/sg47_4_cif.got.tgz:7012.got - 2010.06.03 20:15:42.
