data_PCOD9383354
_publ_section_title
;
Structure prediction by ZEFSAII (Michael W. Deem and Ramdas Pophale) SiO2 
 PCOD9383354
Probable space group: P M M M
;
_chemical_formula_sum "Si O2"
_cell_formula_units_Z 48
_cell_length_a 15.032501
_cell_length_b 9.499535
_cell_length_c 15.607560
_cell_angle_alpha 90.000000
_cell_angle_beta 90.000000
_cell_angle_gamma 90.000000
_cell_volume 2228.787184
_symmetry_space_group_name_H-M "P M M M"
_symmetry_group_IT_number 47
_symmetry_cell_setting 'orthorhombic'
loop_
_space_group_symop_operation_xyz
x,y,z
-x,-y,z
x,-y,-z
-x,y,-z
-x,-y,-z
x,y,-z
-x,y,z
x,-y,z
loop_
_atom_site_type_symbol
_atom_site_label
_atom_site_fract_x
_atom_site_fract_y
_atom_site_fract_z
Si Si1 0.643436 0.156322 0.835093
Si Si2 0.844034 0.338481 0.331655
Si Si3 0.394166 0.657786 0.000000
Si Si4 0.105831 0.338585 0.000000
Si Si5 0.401456 0.234530 0.500000
Si Si6 0.630277 0.347461 0.685286
Si Si7 0.855140 0.160686 0.170575
Si Si8 0.191529 0.163091 0.500000
O O1 0.631959 0.257132 0.915733
O O2 0.602959 0.225693 0.750204
O O3 0.748930 0.145945 0.819956
O O4 0.608905 0.000000 0.852378
O O5 0.876934 0.500000 0.340076
O O6 0.737698 0.349917 0.314862
O O7 0.885565 0.252560 0.252310
O O8 0.845863 0.246128 0.417758
O O9 0.356773 0.500000 0.000000
O O10 0.500000 0.648794 0.000000
O O11 0.130558 0.249463 0.084191
O O12 0.141256 0.500000 0.000000
O O13 0.000000 0.349236 0.000000
O O14 0.500000 0.161880 0.500000
O O15 0.398973 0.321517 0.411817
O O16 0.301544 0.165065 0.500000
O O17 0.600138 0.500000 0.716273
O O18 0.890885 0.000000 0.166520
O O19 0.165434 0.000000 0.500000
#
# Coordination Sequence:
#
# PCOD9383354 Si02
#       8
#     8   8   4   4   4   8   8   4
#     4  10  21  37  57  80 104 132 171 221 274 327
#     4   9  17  31  52  77 104 135 173 218 268 317
#     4  11  24  39  54  72  94 125 168 217 270 326
#     4  11  24  39  56  84 122 159 190 219 258 314
#     4  10  21  33  47  69  99 138 181 225 277 334
#     4   9  18  32  50  72  97 128 169 216 263 314
#     4  10  20  35  57  84 111 142 182 224 268 320
#     4  10  19  32  50  74 105 137 177 232 283 329
#
# _framework density 21.536376000000001
#
# number of rings (size 3 to 8) (size 9 to 14) (size 15 to 20)
#    0.000    2.167    0.000    3.000    0.000   12.833 
#    0.000    0.000    0.000    0.000    0.000    0.583 
#    0.000    4.667    0.000    0.000    0.000    0.000 
#
# Total GULP energy -267827.082137 kJ/mol
# GULP energy per Si atom -5579.730878 kJ/mol
# Density = 2.148736 g / cm^3
# Si number density = 21.536376 Si / 1000 Ang^3
#
#
#
# Elastic Constant Matrix: (Units=GPa)
#
#
# Indices 1 2 3 4 5 6 
#
# 1 44.0020 9.9183 6.8582 0.0000 0.0000 0.0000
# 2 9.9183 245.7776 121.9932 0.0000 0.0000 0.0000
# 3 6.8582 121.9932 179.5193 0.0000 0.0000 0.0000
# 4 0.0000 0.0000 0.0000 21.6543 0.0000 0.0000
# 5 0.0000 0.0000 0.0000 0.0000 -65.8169 0.0000
# 6 0.0000 0.0000 0.0000 0.0000 0.0000 0.0664
#
#
#
# Elastic Compliance Matrix: (Units=1/GPa)
#
#
# Indices 1 2 3 4 5 6 
#
# 1 0.022951 -0.000741 -0.000373 0.000000 0.000000 0.000000
# 2 -0.000741 0.006164 -0.004160 0.000000 0.000000 0.000000
# 3 -0.000373 -0.004160 0.008412 0.000000 0.000000 0.000000
# 4 0.000000 0.000000 0.000000 0.046180 0.000000 0.000000
# 5 0.000000 0.000000 0.000000 0.000000 -0.015194 0.000000
# 6 0.000000 0.000000 0.000000 0.000000 0.000000 15.051351
#
#
# Mechanical properties :
#
#
# Convention : Reuss Voigt Hill
#
# Bulk Modulus (GPa) = 37.06731 82.98204 60.02468
# Shear Modulus (GPa) = 0.33026 13.21603 6.77315
#
# Velocity S-wave (km/s) = 0.39203 2.47991 1.77533
# Velocity P-wave (km/s) = 4.17777 6.84212 5.66870
#
# Compressibility (1/GPa) = 0.02697795
#
# Stress axis : x y z
#
# Youngs Moduli (GPa) = 43.57024 162.24446 118.88128
#
# Poissons Ratio (x) = 0.12021 0.04438
# Poissons Ratio (y) = 0.03228 0.49457
# Poissons Ratio (z) = 0.01627 0.67496
#
# Static dielectric constant tensor:
#      x y z
#    x 1.806420 0.000000 0.000000 
#    y 0.000000 1.792180 0.000000 
#    z 0.000000 0.000000 1.736300 
# 
# From -- ./inp_files/24523.got.cif
#   From: 2010.05.17/outbox.cif.g08.bks.cpg/sg47_13_cif.got.tgz:24523.got - 2010.06.03 20:15:42.
