data_PCOD9383092
_publ_section_title
;
Structure prediction by ZEFSAII (Michael W. Deem and Ramdas Pophale) SiO2 
 PCOD9383092
Probable space group: P M M M
;
_chemical_formula_sum "Si O2"
_cell_formula_units_Z 36
_cell_length_a 7.296575
_cell_length_b 25.109061
_cell_length_c 8.492096
_cell_angle_alpha 90.000000
_cell_angle_beta 90.000000
_cell_angle_gamma 90.000000
_cell_volume 1555.838155
_symmetry_space_group_name_H-M "P M M M"
_symmetry_group_IT_number 47
_symmetry_cell_setting 'orthorhombic'
loop_
_space_group_symop_operation_xyz
x,y,z
-x,-y,z
x,-y,-z
-x,y,-z
-x,-y,-z
x,y,-z
-x,y,z
x,-y,z
loop_
_atom_site_type_symbol
_atom_site_label
_atom_site_fract_x
_atom_site_fract_y
_atom_site_fract_z
Si Si1 0.277406 0.441989 0.184576
Si Si2 0.721389 0.220147 0.824128
Si Si3 0.212134 0.112069 0.673200
Si Si4 0.777945 0.062456 0.000000
Si Si5 0.723179 0.669979 0.320576
O O1 0.500000 0.441884 0.193723
O O2 0.217498 0.500000 0.246432
O O3 0.213562 0.388225 0.266790
O O4 0.230293 0.439316 0.000000
O O5 0.500000 0.220122 0.822410
O O6 0.781512 0.175547 0.701459
O O7 0.781710 0.279831 0.782998
O O8 0.782316 0.205220 0.000000
O O9 0.290414 0.099292 0.500000
O O10 0.000000 0.094991 0.668449
O O11 0.290231 0.087636 0.835293
O O12 0.000000 0.069601 0.000000
O O13 0.738479 0.000000 0.000000
O O14 0.775130 0.679846 0.500000
O O15 0.500000 0.668851 0.312914
#
# Coordination Sequence:
#
# PCOD9383092 Si02
#       5
#     8   8   8   4   8
#     4   8  13  21  32  46  69 105 147 189 234 285
#     4  10  19  31  49  71  97 132 169 204 246 295
#     4  10  20  34  54  79 105 133 165 203 246 290
#     4   9  18  34  55  79 107 135 164 201 242 286
#     4   9  16  24  35  55  83 114 151 195 240 288
#
# _framework density 23.138653999999999
#
# number of rings (size 3 to 8) (size 9 to 14) (size 15 to 20)
#    0.000    2.778    1.111    2.000    0.000    4.889 
#    0.000    4.444    0.000    1.333    0.000    1.556 
#    0.000    0.889    0.000    9.333    0.000   12.889 
#
# Total GULP energy -201018.357717 kJ/mol
# GULP energy per Si atom -5583.843270 kJ/mol
# Density = 2.308599 g / cm^3
# Si number density = 23.138654 Si / 1000 Ang^3
#
#
#
# Elastic Constant Matrix: (Units=GPa)
#
#
# Indices 1 2 3 4 5 6 
#
# 1 96.8028 -3.4379 8.7057 0.0000 0.0000 0.0000
# 2 -3.4379 117.1257 64.4811 0.0000 0.0000 0.0000
# 3 8.7057 64.4811 166.8500 0.0000 0.0000 0.0000
# 4 0.0000 0.0000 0.0000 11.1865 0.0000 0.0000
# 5 0.0000 0.0000 0.0000 0.0000 -7.1186 0.0000
# 6 0.0000 0.0000 0.0000 0.0000 0.0000 4.0539
#
#
#
# Elastic Compliance Matrix: (Units=1/GPa)
#
#
# Indices 1 2 3 4 5 6 
#
# 1 0.010433 0.000770 -0.000842 0.000000 0.000000 0.000000
# 2 0.000770 0.010902 -0.004253 0.000000 0.000000 0.000000
# 3 -0.000842 -0.004253 0.007681 0.000000 0.000000 0.000000
# 4 0.000000 0.000000 0.000000 0.089393 0.000000 0.000000
# 5 0.000000 0.000000 0.000000 0.000000 -0.140478 0.000000
# 6 0.000000 0.000000 0.000000 0.000000 0.000000 0.246675
#
#
# Mechanical properties :
#
#
# Convention : Reuss Voigt Hill
#
# Bulk Modulus (GPa) = 49.10285 57.80850 53.45567
# Shear Modulus (GPa) = 20.82929 22.35968 21.59448
#
# Velocity S-wave (km/s) = 3.00358 3.11196 3.05825
# Velocity P-wave (km/s) = 5.77026 6.16037 5.96850
#
# Compressibility (1/GPa) = 0.02036542
#
# Stress axis : x y z
#
# Youngs Moduli (GPa) = 95.84672 91.72597 130.18973
#
# Poissons Ratio (x) = -0.07060 0.10960
# Poissons Ratio (y) = -0.07377 0.55375
# Poissons Ratio (z) = 0.08069 0.39015
#
# Static dielectric constant tensor:
#      x y z
#    x 1.963820 0.000000 0.000000 
#    y 0.000000 1.826960 0.000000 
#    z 0.000000 0.000000 1.839690 
# 
# From -- ./inp_files/1385.got.cif
#   From: 2010.05.17/outbox.cif.g08.bks.cpg/sg47_1_cif.got.tgz:1385.got - 2010.06.03 20:15:42.
