data_PCOD9383834
_publ_section_title
;
Structure prediction by ZEFSAII (Michael W. Deem and Ramdas Pophale) SiO2 
 PCOD9383834
Probable space group: P M M M
;
_chemical_formula_sum "Si O2"
_cell_formula_units_Z 44
_cell_length_a 17.193312
_cell_length_b 16.096889
_cell_length_c 9.068847
_cell_angle_alpha 90.000000
_cell_angle_beta 90.000000
_cell_angle_gamma 90.000000
_cell_volume 2509.883529
_symmetry_space_group_name_H-M "P M M M"
_symmetry_group_IT_number 47
_symmetry_cell_setting 'orthorhombic'
loop_
_space_group_symop_operation_xyz
x,y,z
-x,-y,z
x,-y,-z
-x,y,-z
-x,-y,-z
x,y,-z
-x,y,z
x,-y,z
loop_
_atom_site_type_symbol
_atom_site_label
_atom_site_fract_x
_atom_site_fract_y
_atom_site_fract_z
Si Si1 0.750293 0.409696 0.177300
Si Si2 0.703652 0.772447 0.822898
Si Si3 0.000000 0.097817 0.835050
Si Si4 0.592679 0.905659 0.323876
Si Si5 0.135635 0.186090 0.670361
Si Si6 0.913206 0.376264 0.671370
O O1 0.716785 0.500000 0.221041
O O2 0.705095 0.325577 0.223604
O O3 0.838320 0.406066 0.239077
O O4 0.754053 0.406978 0.000000
O O5 0.637446 0.831580 0.756819
O O6 0.785062 0.807119 0.761033
O O7 0.701479 0.775600 0.000000
O O8 0.075785 0.125091 0.746567
O O9 0.000000 0.000000 0.847779
O O10 0.000000 0.135543 0.000000
O O11 0.605957 0.899243 0.500000
O O12 0.500000 0.899473 0.299073
O O13 0.616798 0.000000 0.278703
O O14 0.151384 0.164918 0.500000
O O15 0.095034 0.276528 0.673345
O O16 0.906484 0.402052 0.500000
O O17 0.000000 0.399273 0.724226
#
# Coordination Sequence:
#
# PCOD9383834 Si02
#       6
#     8   8   4   8   8   8
#     4   9  19  34  49  70 102 139 178 216 258 311
#     4  10  20  34  55  82 108 139 176 217 264 309
#     4  11  23  35  47  67  96 129 170 223 273 312
#     4   9  19  37  60  85 112 140 169 205 256 319
#     4  10  19  34  52  69  94 133 177 216 259 314
#     4   9  17  30  47  68  93 123 166 219 268 310
#
# _framework density 17.530694
#
# number of rings (size 3 to 8) (size 9 to 14) (size 15 to 20)
#    0.000    2.455    0.909    1.909    0.000    4.727 
#    0.000    2.727    0.000    0.545    0.000    3.818 
#    0.000    0.000    0.000    0.000    0.000    0.000 
#
# Total GULP energy -245247.141467 kJ/mol
# GULP energy per Si atom -5573.798670 kJ/mol
# Density = 1.749079 g / cm^3
# Si number density = 17.530694 Si / 1000 Ang^3
#
#
#
# Elastic Constant Matrix: (Units=GPa)
#
#
# Indices 1 2 3 4 5 6 
#
# 1 65.5841 60.5516 31.3720 0.0000 0.0000 0.0000
# 2 60.5516 138.8521 50.7722 0.0000 0.0000 0.0000
# 3 31.3720 50.7722 48.2418 0.0000 0.0000 0.0000
# 4 0.0000 0.0000 0.0000 13.2177 0.0000 0.0000
# 5 0.0000 0.0000 0.0000 0.0000 144.4313 0.0000
# 6 0.0000 0.0000 0.0000 0.0000 0.0000 34.9765
#
#
#
# Elastic Compliance Matrix: (Units=1/GPa)
#
#
# Indices 1 2 3 4 5 6 
#
# 1 0.027543 -0.008878 -0.008567 0.000000 0.000000 0.000000
# 2 -0.008878 0.014569 -0.009560 0.000000 0.000000 0.000000
# 3 -0.008567 -0.009560 0.036361 0.000000 0.000000 0.000000
# 4 0.000000 0.000000 0.000000 0.075656 0.000000 0.000000
# 5 0.000000 0.000000 0.000000 0.000000 0.006924 0.000000
# 6 0.000000 0.000000 0.000000 0.000000 0.000000 0.028591
#
#
# Mechanical properties :
#
#
# Convention : Reuss Voigt Hill
#
# Bulk Modulus (GPa) = 40.87846 59.78551 50.33198
# Shear Modulus (GPa) = 19.85630 45.85724 32.85677
#
# Velocity S-wave (km/s) = 3.36915 5.12006 4.33395
# Velocity P-wave (km/s) = 6.20514 8.31449 7.33602
#
# Compressibility (1/GPa) = 0.02446276
#
# Stress axis : x y z
#
# Youngs Moduli (GPa) = 36.30707 68.63771 27.50165
#
# Poissons Ratio (x) = 0.60939 0.23561
# Poissons Ratio (y) = 0.32235 0.26291
# Poissons Ratio (z) = 0.31105 0.65616
#
# Static dielectric constant tensor:
#      x y z
#    x 1.561090 0.000000 0.000000 
#    y 0.000000 1.637990 0.000000 
#    z 0.000000 0.000000 1.593830 
# 
# From -- ./inp_files/8950.got.cif
#   From: 2010.05.17/outbox.cif.g08.bks.cpg/sg47_5_cif.got.tgz:8950.got - 2010.06.03 20:15:42.
