data_PCOD9383656
_publ_section_title
;
Structure prediction by ZEFSAII (Michael W. Deem and Ramdas Pophale) SiO2 
 PCOD9383656
Probable space group: P M M M
;
_chemical_formula_sum "Si O2"
_cell_formula_units_Z 56
_cell_length_a 23.659355
_cell_length_b 8.864610
_cell_length_c 15.532644
_cell_angle_alpha 90.000000
_cell_angle_beta 90.000000
_cell_angle_gamma 90.000000
_cell_volume 3257.676259
_symmetry_space_group_name_H-M "P M M M"
_symmetry_group_IT_number 47
_symmetry_cell_setting 'orthorhombic'
loop_
_space_group_symop_operation_xyz
x,y,z
-x,-y,z
x,-y,-z
-x,y,-z
-x,-y,-z
x,y,-z
-x,y,z
x,-y,z
loop_
_atom_site_type_symbol
_atom_site_label
_atom_site_fract_x
_atom_site_fract_y
_atom_site_fract_z
Si Si1 0.179469 0.677331 0.602810
Si Si2 0.273588 0.820324 0.279247
Si Si3 0.629831 0.180327 0.593515
Si Si4 0.500000 0.671915 0.188422
Si Si5 0.937345 0.824095 0.395630
Si Si6 0.500000 0.822393 0.640021
Si Si7 0.723165 0.320656 0.096100
Si Si8 0.602225 0.828416 0.902391
O O1 0.183899 0.703578 0.500000
O O2 0.188158 0.500000 0.618782
O O3 0.225677 0.773526 0.653060
O O4 0.116438 0.726827 0.631029
O O5 0.333124 0.766083 0.324161
O O6 0.257394 0.750998 0.186304
O O7 0.276522 0.000000 0.268823
O O8 0.649433 0.241648 0.500000
O O9 0.561762 0.196919 0.597469
O O10 0.639576 0.000000 0.592422
O O11 0.500000 0.500000 0.159159
O O12 0.500000 0.692900 0.289324
O O13 0.445340 0.759204 0.155951
O O14 0.938427 0.819053 0.500000
O O15 0.000000 0.774871 0.366153
O O16 0.929572 0.000000 0.371781
O O17 0.500000 0.000000 0.670737
O O18 0.730100 0.500000 0.099900
O O19 0.657383 0.273788 0.097413
O O20 0.744290 0.270008 0.000000
O O21 0.616892 0.000000 0.876751
O O22 0.580168 0.832936 0.000000
#
# Coordination Sequence:
#
# PCOD9383656 Si02
#       8
#     8   8   8   4   8   4   8   8
#     4  10  20  32  47  71 105 143 181 220 259 298
#     4  11  21  33  52  75 101 134 171 211 254 305
#     4   9  18  32  51  74  95 119 157 204 251 297
#     4  12  23  32  45  66  93 120 147 185 235 291
#     4   8  14  26  45  69  99 137 178 216 254 298
#     4  10  19  33  53  70  87 115 154 201 247 296
#     4  10  21  37  55  74  98 126 156 196 248 305
#     4  10  20  34  51  69  89 114 147 188 235 293
#
# _framework density 17.190168
#
# number of rings (size 3 to 8) (size 9 to 14) (size 15 to 20)
#    0.000    2.143    0.000    4.500    0.000    6.286 
#    0.000    2.143    0.000    2.571    0.000    0.000 
#    0.000    0.571    0.000    6.000    0.000    2.857 
#
# Total GULP energy -311894.446670 kJ/mol
# GULP energy per Si atom -5569.543691 kJ/mol
# Density = 1.715104 g / cm^3
# Si number density = 17.190168 Si / 1000 Ang^3
#
#
#
# Elastic Constant Matrix: (Units=GPa)
#
#
# Indices 1 2 3 4 5 6 
#
# 1 56.5886 15.3018 17.9281 0.0000 0.0000 0.0000
# 2 15.3018 39.1189 32.1104 0.0000 0.0000 0.0000
# 3 17.9281 32.1104 69.5158 0.0000 0.0000 0.0000
# 4 0.0000 0.0000 0.0000 22.4964 0.0000 0.0000
# 5 0.0000 0.0000 0.0000 0.0000 5.8516 0.0000
# 6 0.0000 0.0000 0.0000 0.0000 0.0000 17.5031
#
#
#
# Elastic Compliance Matrix: (Units=1/GPa)
#
#
# Indices 1 2 3 4 5 6 
#
# 1 0.020026 -0.005789 -0.002491 0.000000 0.000000 0.000000
# 2 -0.005789 0.042848 -0.018299 0.000000 0.000000 0.000000
# 3 -0.002491 -0.018299 0.023480 0.000000 0.000000 0.000000
# 4 0.000000 0.000000 0.000000 0.044452 0.000000 0.000000
# 5 0.000000 0.000000 0.000000 0.000000 0.170892 0.000000
# 6 0.000000 0.000000 0.000000 0.000000 0.000000 0.057133
#
#
# Mechanical properties :
#
#
# Convention : Reuss Voigt Hill
#
# Bulk Modulus (GPa) = 30.12353 32.87823 31.50088
# Shear Modulus (GPa) = 11.81881 15.82908 13.82394
#
# Velocity S-wave (km/s) = 2.62493 3.03780 2.83888
# Velocity P-wave (km/s) = 5.17192 5.60999 5.39540
#
# Compressibility (1/GPa) = 0.03319664
#
# Stress axis : x y z
#
# Youngs Moduli (GPa) = 49.93552 23.33813 42.58885
#
# Poissons Ratio (x) = 0.13510 0.10608
# Poissons Ratio (y) = 0.28907 0.77935
# Poissons Ratio (z) = 0.12437 0.42707
#
# Static dielectric constant tensor:
#      x y z
#    x 1.566960 0.000000 0.000000 
#    y 0.000000 1.577330 0.000000 
#    z 0.000000 0.000000 1.640180 
# 
# From -- ./inp_files/25192.got.cif
#   From: 2010.05.17/outbox.cif.g08.bks.cpg/sg47_13_cif.got.tgz:25192.got - 2010.06.03 20:15:42.
