data_PCOD9383159
_publ_section_title
;
Structure prediction by ZEFSAII (Michael W. Deem and Ramdas Pophale) SiO2 
 PCOD9383159
Probable space group: P M M M
;
_chemical_formula_sum "Si O2"
_cell_formula_units_Z 52
_cell_length_a 7.397559
_cell_length_b 16.147949
_cell_length_c 20.410241
_cell_angle_alpha 90.000000
_cell_angle_beta 90.000000
_cell_angle_gamma 90.000000
_cell_volume 2438.113614
_symmetry_space_group_name_H-M "P M M M"
_symmetry_group_IT_number 47
_symmetry_cell_setting 'orthorhombic'
loop_
_space_group_symop_operation_xyz
x,y,z
-x,-y,z
x,-y,-z
-x,y,-z
-x,-y,-z
x,y,-z
-x,y,z
x,-y,z
loop_
_atom_site_type_symbol
_atom_site_label
_atom_site_fract_x
_atom_site_fract_y
_atom_site_fract_z
Si Si1 0.218867 0.824208 0.571899
Si Si2 0.283906 0.248091 0.206136
Si Si3 0.784342 0.091804 0.704115
Si Si4 0.711021 0.371106 0.571596
Si Si5 0.721516 0.317952 0.925687
Si Si6 0.721098 0.410097 0.715492
Si Si7 0.295130 0.500000 0.079793
O O1 0.275089 0.855191 0.500000
O O2 0.285203 0.875551 0.633979
O O3 0.277078 0.728602 0.577265
O O4 0.000000 0.824136 0.573190
O O5 0.500000 0.256323 0.204769
O O6 0.246107 0.162710 0.242450
O O7 0.222014 0.255583 0.131077
O O8 0.216608 0.328206 0.246600
O O9 0.000000 0.085787 0.697186
O O10 0.715611 0.000000 0.720207
O O11 0.788461 0.393637 0.500000
O O12 0.500000 0.394503 0.569832
O O13 0.783535 0.405331 0.639847
O O14 0.500000 0.321347 0.927581
O O15 0.783385 0.410397 0.904728
O O16 0.779894 0.300510 0.000000
O O17 0.500000 0.407225 0.714988
O O18 0.771994 0.500000 0.743706
O O19 0.500000 0.500000 0.106759
O O20 0.305227 0.500000 0.000000
#
# Coordination Sequence:
#
# PCOD9383159 Si02
#       7
#     8   8   8   8   8   8   4
#     4   9  17  30  49  70  91 117 151 193 240 287
#     4  10  19  31  50  74 100 128 158 196 240 283
#     4  10  21  36  53  72  95 124 157 196 243 292
#     4   9  16  27  44  64  90 125 162 197 231 270
#     4   8  14  24  41  68 100 130 159 192 231 276
#     4   9  17  27  41  67  99 128 161 197 232 272
#     4   7  10  18  34  62  99 131 156 185 224 270
#
# _framework density 21.327964999999999
#
# number of rings (size 3 to 8) (size 9 to 14) (size 15 to 20)
#    0.000    3.000    1.538    0.923    1.077    0.923 
#    0.000    3.077    0.000    2.769    0.000    8.615 
#    0.000    1.846    0.000    0.000    0.000    0.000 
#
# Total GULP energy -290126.156192 kJ/mol
# GULP energy per Si atom -5579.349158 kJ/mol
# Density = 2.127942 g / cm^3
# Si number density = 21.327965 Si / 1000 Ang^3
#
#
#
# Elastic Constant Matrix: (Units=GPa)
#
#
# Indices 1 2 3 4 5 6 
#
# 1 72.3497 -0.1801 5.6161 0.0000 0.0000 0.0000
# 2 -0.1801 157.0352 98.5485 0.0000 0.0000 0.0000
# 3 5.6161 98.5485 157.0719 0.0000 0.0000 0.0000
# 4 0.0000 0.0000 0.0000 5.3188 0.0000 0.0000
# 5 0.0000 0.0000 0.0000 0.0000 9.8478 0.0000
# 6 0.0000 0.0000 0.0000 0.0000 0.0000 13.9846
#
#
#
# Elastic Compliance Matrix: (Units=1/GPa)
#
#
# Indices 1 2 3 4 5 6 
#
# 1 0.013888 0.000540 -0.000836 0.000000 0.000000 0.000000
# 2 0.000540 0.010525 -0.006623 0.000000 0.000000 0.000000
# 3 -0.000836 -0.006623 0.010551 0.000000 0.000000 0.000000
# 4 0.000000 0.000000 0.000000 0.188013 0.000000 0.000000
# 5 0.000000 0.000000 0.000000 0.000000 0.101546 0.000000
# 6 0.000000 0.000000 0.000000 0.000000 0.000000 0.071507
#
#
# Mechanical properties :
#
#
# Convention : Reuss Voigt Hill
#
# Bulk Modulus (GPa) = 47.32972 66.04732 56.68852
# Shear Modulus (GPa) = 11.99305 24.66173 18.32739
#
# Velocity S-wave (km/s) = 2.37389 3.40414 2.93458
# Velocity P-wave (km/s) = 5.45467 6.81804 6.17410
#
# Compressibility (1/GPa) = 0.02112837
#
# Stress axis : x y z
#
# Youngs Moduli (GPa) = 72.00482 95.01467 94.77341
#
# Poissons Ratio (x) = -0.05133 0.07919
# Poissons Ratio (y) = -0.03890 0.62765
# Poissons Ratio (z) = 0.06016 0.62925
#
# Static dielectric constant tensor:
#      x y z
#    x 1.905300 0.000000 0.000000 
#    y 0.000000 1.765520 0.000000 
#    z 0.000000 0.000000 1.794940 
# 
# From -- ./inp_files/29602.got.cif
#   From: 2010.05.17/outbox.cif.g08.bks.cpg/sg47_15_cif.got.tgz:29602.got - 2010.06.03 20:15:42.
