data_PCOD9383095
_publ_section_title
;
Structure prediction by ZEFSAII (Michael W. Deem and Ramdas Pophale) SiO2 
 PCOD9383095
Probable space group: P M M M
;
_chemical_formula_sum "Si O2"
_cell_formula_units_Z 52
_cell_length_a 19.267851
_cell_length_b 7.485775
_cell_length_c 19.596059
_cell_angle_alpha 90.000000
_cell_angle_beta 90.000000
_cell_angle_gamma 90.000000
_cell_volume 2826.433598
_symmetry_space_group_name_H-M "P M M M"
_symmetry_group_IT_number 47
_symmetry_cell_setting 'orthorhombic'
loop_
_space_group_symop_operation_xyz
x,y,z
-x,-y,z
x,-y,-z
-x,y,-z
-x,-y,-z
x,y,-z
-x,y,z
x,-y,z
loop_
_atom_site_type_symbol
_atom_site_label
_atom_site_fract_x
_atom_site_fract_y
_atom_site_fract_z
Si Si1 0.360299 0.207888 0.130262
Si Si2 0.195096 0.000000 0.580180
Si Si3 0.500000 0.798948 0.079046
Si Si4 0.081797 0.000000 0.694764
Si Si5 0.720699 0.712504 0.339256
Si Si6 0.419302 0.715855 0.277821
Si Si7 0.833889 0.714535 0.776298
Si Si8 0.789090 0.294381 0.077176
O O1 0.428864 0.291424 0.097905
O O2 0.381298 0.219479 0.209188
O O3 0.290793 0.293187 0.102056
O O4 0.353985 0.000000 0.110136
O O5 0.239379 0.828973 0.605238
O O6 0.183641 0.000000 0.500000
O O7 0.124362 0.000000 0.624010
O O8 0.500000 0.000000 0.112156
O O9 0.500000 0.823176 0.000000
O O10 0.108141 0.172550 0.737217
O O11 0.000000 0.000000 0.685523
O O12 0.725454 0.500000 0.351493
O O13 0.639238 0.762386 0.333782
O O14 0.762950 0.746104 0.267766
O O15 0.500000 0.776475 0.283692
O O16 0.421636 0.500000 0.274717
O O17 0.845264 0.500000 0.775529
O O18 0.826710 0.778944 0.854814
O O19 0.811639 0.500000 0.072267
O O20 0.795551 0.217837 0.000000
#
# Coordination Sequence:
#
# PCOD9383095 Si02
#       8
#     8   4   4   4   8   8   8   8
#     4  11  20  28  43  65  94 134 179 236 292 336
#     4  10  22  39  63  93 119 144 172 204 254 322
#     4   9  18  30  35  49  89 135 177 222 287 352
#     4  10  22  39  63  93 119 144 172 204 254 322
#     4   9  18  34  56  81 112 149 189 230 268 315
#     4  10  19  31  49  72 102 140 185 237 286 324
#     4   9  18  34  56  81 112 149 189 230 268 315
#     4  10  20  33  49  71 101 139 185 237 286 324
#
# _framework density 18.397742999999998
#
# number of rings (size 3 to 8) (size 9 to 14) (size 15 to 20)
#    0.000    2.231    2.308    0.923    2.154    1.692 
#    0.000    0.000    0.000    3.692    0.000    8.615 
#    0.000    0.000    0.000    0.000    0.000    0.000 
#
# Total GULP energy -289552.678258 kJ/mol
# GULP energy per Si atom -5568.320736 kJ/mol
# Density = 1.835587 g / cm^3
# Si number density = 18.397743 Si / 1000 Ang^3
#
#
#
# Elastic Constant Matrix: (Units=GPa)
#
#
# Indices 1 2 3 4 5 6 
#
# 1 106.0401 30.3729 65.0753 0.0000 0.0000 0.0000
# 2 30.3729 62.9345 32.2245 0.0000 0.0000 0.0000
# 3 65.0753 32.2245 139.6450 0.0000 0.0000 0.0000
# 4 0.0000 0.0000 0.0000 15.6102 0.0000 0.0000
# 5 0.0000 0.0000 0.0000 0.0000 12.0194 0.0000
# 6 0.0000 0.0000 0.0000 0.0000 0.0000 16.9434
#
#
#
# Elastic Compliance Matrix: (Units=1/GPa)
#
#
# Indices 1 2 3 4 5 6 
#
# 1 0.013993 -0.003872 -0.005627 0.000000 0.000000 0.000000
# 2 -0.003872 0.019090 -0.002601 0.000000 0.000000 0.000000
# 3 -0.005627 -0.002601 0.010384 0.000000 0.000000 0.000000
# 4 0.000000 0.000000 0.000000 0.064061 0.000000 0.000000
# 5 0.000000 0.000000 0.000000 0.000000 0.083199 0.000000
# 6 0.000000 0.000000 0.000000 0.000000 0.000000 0.059020
#
#
# Mechanical properties :
#
#
# Convention : Reuss Voigt Hill
#
# Bulk Modulus (GPa) = 51.90411 62.66278 57.28345
# Shear Modulus (GPa) = 17.83375 20.97773 19.40574
#
# Velocity S-wave (km/s) = 3.11681 3.38040 3.25128
# Velocity P-wave (km/s) = 6.42076 7.02639 6.73039
#
# Compressibility (1/GPa) = 0.01926630
#
# Stress axis : x y z
#
# Youngs Moduli (GPa) = 71.46572 52.38394 96.30628
#
# Poissons Ratio (x) = 0.20281 0.54194
# Poissons Ratio (y) = 0.27669 0.25049
# Poissons Ratio (z) = 0.40216 0.13625
#
# Static dielectric constant tensor:
#      x y z
#    x 1.638810 0.000000 0.000000 
#    y 0.000000 1.636880 0.000000 
#    z 0.000000 0.000000 1.650980 
# 
# From -- ./inp_files/28578.got.cif
#   From: 2010.05.17/outbox.cif.g08.bks.cpg/sg47_15_cif.got.tgz:28578.got - 2010.06.03 20:15:42.
