data_PCOD9383736
_publ_section_title
;
Structure prediction by ZEFSAII (Michael W. Deem and Ramdas Pophale) SiO2 
 PCOD9383736
Probable space group: P M M M
;
_chemical_formula_sum "Si O2"
_cell_formula_units_Z 40
_cell_length_a 8.118756
_cell_length_b 23.034235
_cell_length_c 11.284063
_cell_angle_alpha 90.000000
_cell_angle_beta 90.000000
_cell_angle_gamma 90.000000
_cell_volume 2110.225102
_symmetry_space_group_name_H-M "P M M M"
_symmetry_group_IT_number 47
_symmetry_cell_setting 'orthorhombic'
loop_
_space_group_symop_operation_xyz
x,y,z
-x,-y,z
x,-y,-z
-x,y,-z
-x,-y,-z
x,y,-z
-x,y,z
x,-y,z
loop_
_atom_site_type_symbol
_atom_site_label
_atom_site_fract_x
_atom_site_fract_y
_atom_site_fract_z
Si Si1 0.694245 0.766452 0.638482
Si Si2 0.303169 0.883346 0.752277
Si Si3 0.801559 0.931636 0.000000
Si Si4 0.806895 0.635864 0.633915
Si Si5 0.308241 0.000000 0.360243
Si Si6 0.698099 0.433055 0.132186
O O1 0.706885 0.782689 0.500000
O O2 0.500000 0.757690 0.665437
O O3 0.761427 0.820741 0.712584
O O4 0.778871 0.704485 0.654256
O O5 0.500000 0.880537 0.727950
O O6 0.233540 0.939660 0.684010
O O7 0.268944 0.899013 0.886763
O O8 0.000000 0.929726 0.000000
O O9 0.752928 0.000000 0.000000
O O10 0.736962 0.622752 0.500000
O O11 0.743081 0.602108 0.749492
O O12 0.000000 0.623894 0.627634
O O13 0.500000 0.000000 0.317482
O O14 0.309950 0.000000 0.500000
O O15 0.500000 0.433459 0.127787
O O16 0.754477 0.500000 0.144090
O O17 0.754408 0.411989 0.000000
#
# Coordination Sequence:
#
# PCOD9383736 Si02
#       6
#     8   8   4   8   4   8
#     4   9  18  34  56  81 107 136 173 219 269 317
#     4  10  19  33  55  78 100 130 171 216 262 315
#     4  11  23  37  51  69 101 139 172 211 260 315
#     4  10  21  36  55  82 116 152 187 223 267 323
#     4   9  16  27  49  80 104 121 154 211 268 313
#     4   9  19  37  60  85 113 146 186 232 278 321
#
# _framework density 18.955324000000001
#
# number of rings (size 3 to 8) (size 9 to 14) (size 15 to 20)
#    0.000    2.400    1.000    2.100    0.000    6.000 
#    1.800    3.000    0.000    2.400    0.000    0.000 
#    0.000    0.000    0.000    0.000    0.000    0.000 
#
# Total GULP energy -222858.616618 kJ/mol
# GULP energy per Si atom -5571.465415 kJ/mol
# Density = 1.891218 g / cm^3
# Si number density = 18.955324 Si / 1000 Ang^3
#
#
#
# Elastic Constant Matrix: (Units=GPa)
#
#
# Indices 1 2 3 4 5 6 
#
# 1 15.1022 8.9951 9.2966 0.0000 0.0000 0.0000
# 2 8.9951 95.6967 85.8457 0.0000 0.0000 0.0000
# 3 9.2966 85.8457 133.9781 0.0000 0.0000 0.0000
# 4 0.0000 0.0000 0.0000 57.2332 0.0000 0.0000
# 5 0.0000 0.0000 0.0000 0.0000 5.9975 0.0000
# 6 0.0000 0.0000 0.0000 0.0000 0.0000 174.5441
#
#
#
# Elastic Compliance Matrix: (Units=1/GPa)
#
#
# Indices 1 2 3 4 5 6 
#
# 1 0.070273 -0.005247 -0.001514 0.000000 0.000000 0.000000
# 2 -0.005247 0.024967 -0.015633 0.000000 0.000000 0.000000
# 3 -0.001514 -0.015633 0.017586 0.000000 0.000000 0.000000
# 4 0.000000 0.000000 0.000000 0.017472 0.000000 0.000000
# 5 0.000000 0.000000 0.000000 0.000000 0.166737 0.000000
# 6 0.000000 0.000000 0.000000 0.000000 0.000000 0.005729
#
#
# Mechanical properties :
#
#
# Convention : Reuss Voigt Hill
#
# Bulk Modulus (GPa) = 14.69798 50.33907 32.51853
# Shear Modulus (GPa) = 13.50506 56.93095 35.21800
#
# Velocity S-wave (km/s) = 2.67210 5.48630 4.31507
# Velocity P-wave (km/s) = 4.15825 8.16988 6.48221
#
# Compressibility (1/GPa) = 0.06803654
#
# Stress axis : x y z
#
# Youngs Moduli (GPa) = 14.23027 40.05299 56.86363
#
# Poissons Ratio (x) = 0.21016 0.08610
# Poissons Ratio (y) = 0.07467 0.88897
# Poissons Ratio (z) = 0.02155 0.62616
#
# Static dielectric constant tensor:
#      x y z
#    x 1.689460 0.000000 0.000000 
#    y 0.000000 1.657240 0.000000 
#    z 0.000000 0.000000 1.633580 
# 
# From -- ./inp_files/15115.got.cif
#   From: 2010.05.17/outbox.cif.g08.bks.cpg/sg47_8_cif.got.tgz:15115.got - 2010.06.03 20:15:42.
