data_PCOD9383772
_publ_section_title
;
Structure prediction by ZEFSAII (Michael W. Deem and Ramdas Pophale) SiO2 
 PCOD9383772
Probable space group: P M M M
;
_chemical_formula_sum "Si O2"
_cell_formula_units_Z 48
_cell_length_a 8.470730
_cell_length_b 16.391847
_cell_length_c 17.280413
_cell_angle_alpha 90.000000
_cell_angle_beta 90.000000
_cell_angle_gamma 90.000000
_cell_volume 2399.401073
_symmetry_space_group_name_H-M "P M M M"
_symmetry_group_IT_number 47
_symmetry_cell_setting 'orthorhombic'
loop_
_space_group_symop_operation_xyz
x,y,z
-x,-y,z
x,-y,-z
-x,y,-z
-x,-y,-z
x,y,-z
-x,y,z
x,-y,z
loop_
_atom_site_type_symbol
_atom_site_label
_atom_site_fract_x
_atom_site_fract_y
_atom_site_fract_z
Si Si1 0.188092 0.089871 0.676594
Si Si2 0.311248 0.249848 0.588828
Si Si3 0.312057 0.845805 0.166915
Si Si4 0.189870 0.410069 0.323516
Si Si5 0.190411 0.333052 0.163730
Si Si6 0.691797 0.905211 0.000000
Si Si7 0.192403 0.406223 0.000000
O O1 0.256558 0.167593 0.631717
O O2 0.232893 0.100844 0.766587
O O3 0.000000 0.092618 0.668765
O O4 0.243977 0.000000 0.649987
O O5 0.255182 0.248791 0.500000
O O6 0.500000 0.250664 0.589748
O O7 0.253317 0.332301 0.630328
O O8 0.500000 0.859133 0.169927
O O9 0.271251 0.752170 0.183390
O O10 0.253936 0.865332 0.080107
O O11 0.247042 0.500000 0.348246
O O12 0.225626 0.395771 0.232645
O O13 0.000000 0.409201 0.331048
O O14 0.242486 0.362917 0.079166
O O15 0.000000 0.321678 0.162333
O O16 0.500000 0.899753 0.000000
O O17 0.734539 0.000000 0.000000
O O18 0.243546 0.500000 0.000000
O O19 0.000000 0.406012 0.000000
#
# Coordination Sequence:
#
# PCOD9383772 Si02
#       7
#     8   8   8   8   8   4   4
#     4  11  24  42  65  93 124 159 201 250 305 364
#     4  11  25  44  66  93 124 158 198 247 303 366
#     4  11  21  35  58  85 118 161 206 249 299 357
#     4  10  21  38  62  91 124 165 209 250 297 358
#     4  10  19  33  55  83 118 159 204 251 298 350
#     4   9  19  34  51  77 114 157 204 249 294 349
#     4   9  17  30  51  81 116 157 206 254 297 345
#
# _framework density 20.004994
#
# number of rings (size 3 to 8) (size 9 to 14) (size 15 to 20)
#    0.000    1.667    1.667    3.000    0.000    6.333 
#    0.000    4.583    0.000    5.000    0.000    0.000 
#    0.000    0.000    0.000    0.000    0.000    0.000 
#
# Total GULP energy -268132.532423 kJ/mol
# GULP energy per Si atom -5586.094425 kJ/mol
# Density = 1.995946 g / cm^3
# Si number density = 20.004994 Si / 1000 Ang^3
#
#
#
# Elastic Constant Matrix: (Units=GPa)
#
#
# Indices 1 2 3 4 5 6 
#
# 1 17.1894 25.1537 23.0991 0.0000 0.0000 0.0000
# 2 25.1537 163.9418 62.8834 0.0000 0.0000 0.0000
# 3 23.0991 62.8834 125.2872 0.0000 0.0000 0.0000
# 4 0.0000 0.0000 0.0000 9.7934 0.0000 0.0000
# 5 0.0000 0.0000 0.0000 0.0000 20.2031 0.0000
# 6 0.0000 0.0000 0.0000 0.0000 0.0000 -157.2399
#
#
#
# Elastic Compliance Matrix: (Units=1/GPa)
#
#
# Indices 1 2 3 4 5 6 
#
# 1 0.086642 -0.008875 -0.011520 0.000000 0.000000 0.000000
# 2 -0.008875 0.008463 -0.002611 0.000000 0.000000 0.000000
# 3 -0.011520 -0.002611 0.011416 0.000000 0.000000 0.000000
# 4 0.000000 0.000000 0.000000 0.102110 0.000000 0.000000
# 5 0.000000 0.000000 0.000000 0.000000 0.049497 0.000000
# 6 0.000000 0.000000 0.000000 0.000000 0.000000 -0.006360
#
#
# Mechanical properties :
#
#
# Convention : Reuss Voigt Hill
#
# Bulk Modulus (GPa) = 16.52634 58.74342 37.63488
# Shear Modulus (GPa) = 15.72569 -12.42984 1.64792
#
# Velocity S-wave (km/s) = 2.80677 -2.49537 0.90859
# Velocity P-wave (km/s) = 4.33393 4.59626 4.46702
#
# Compressibility (1/GPa) = 0.06050945
#
# Stress axis : x y z
#
# Youngs Moduli (GPa) = 11.54170 118.16000 87.59420
#
# Poissons Ratio (x) = 1.04866 1.00906
# Poissons Ratio (y) = 0.10243 0.22875
# Poissons Ratio (z) = 0.13296 0.30857
#
# Static dielectric constant tensor:
#      x y z
#    x 1.681000 0.000000 0.000000 
#    y 0.000000 1.700040 0.000000 
#    z 0.000000 0.000000 1.718510 
# 
# From -- ./inp_files/26541.got.cif
#   From: 2010.05.17/outbox.cif.g08.bks.cpg/sg47_14_cif.got.tgz:26541.got - 2010.06.03 20:15:42.
