data_PCOD9383506
_publ_section_title
;
Structure prediction by ZEFSAII (Michael W. Deem and Ramdas Pophale) SiO2 
 PCOD9383506
Probable space group: P M M M
;
_chemical_formula_sum "Si O2"
_cell_formula_units_Z 56
_cell_length_a 14.858924
_cell_length_b 8.969503
_cell_length_c 23.108585
_cell_angle_alpha 90.000000
_cell_angle_beta 90.000000
_cell_angle_gamma 90.000000
_cell_volume 3079.846659
_symmetry_space_group_name_H-M "P M M M"
_symmetry_group_IT_number 47
_symmetry_cell_setting 'orthorhombic'
loop_
_space_group_symop_operation_xyz
x,y,z
-x,-y,z
x,-y,-z
-x,y,-z
-x,-y,-z
x,y,-z
-x,y,z
x,-y,z
loop_
_atom_site_type_symbol
_atom_site_label
_atom_site_fract_x
_atom_site_fract_y
_atom_site_fract_z
Si Si1 0.104314 0.681341 0.721949
Si Si2 0.600986 0.823368 0.385180
Si Si3 0.892641 0.173405 0.500000
Si Si4 0.812946 0.177697 0.066233
Si Si5 0.000000 0.666608 0.930400
Si Si6 0.235801 0.323436 0.177786
Si Si7 0.210138 0.678796 0.604853
Si Si8 0.600148 0.670617 0.263706
O O1 0.103653 0.500000 0.722236
O O2 0.152066 0.728011 0.781900
O O3 0.167995 0.724048 0.667519
O O4 0.000000 0.730324 0.716393
O O5 0.500000 0.777290 0.405646
O O6 0.689627 0.740199 0.407501
O O7 0.603655 0.782950 0.317039
O O8 0.609278 0.000000 0.394536
O O9 0.854359 0.255116 0.556179
O O10 0.000000 0.179765 0.500000
O O11 0.864580 0.000000 0.500000
O O12 0.910304 0.244069 0.082931
O O13 0.752175 0.240214 0.117359
O O14 0.815653 0.000000 0.066765
O O15 0.791908 0.225333 0.000000
O O16 0.000000 0.500000 0.904922
O O17 0.000000 0.653037 0.000000
O O18 0.224029 0.500000 0.166436
O O19 0.323040 0.303220 0.217568
O O20 0.211455 0.500000 0.603128
O O21 0.500000 0.677407 0.238215
O O22 0.613154 0.500000 0.286623
#
# Coordination Sequence:
#
# PCOD9383506 Si02
#       8
#     8   8   4   8   4   8   8   8
#     4   9  18  32  51  79 113 143 176 224 274 318
#     4  10  20  34  55  84 117 151 185 228 285 342
#     4  11  25  43  62  87 120 157 195 236 280 327
#     4  10  21  35  49  69 102 141 179 223 272 323
#     4   9  17  31  51  71  91 127 177 220 259 310
#     4  10  19  32  52  79 106 138 181 225 276 331
#     4  11  21  38  62  86 114 152 196 237 278 328
#     4   9  17  32  54  80 109 140 180 230 280 332
#
# _framework density 18.182725000000001
#
# number of rings (size 3 to 8) (size 9 to 14) (size 15 to 20)
#    0.000    2.143    1.429    2.143    1.000    4.286 
#    0.000    0.357    0.000    4.286    0.000    3.000 
#    0.000    0.000    0.000    0.000    0.000    0.000 
#
# Total GULP energy -312258.663867 kJ/mol
# GULP energy per Si atom -5576.047569 kJ/mol
# Density = 1.814134 g / cm^3
# Si number density = 18.182725 Si / 1000 Ang^3
#
#
#
# Elastic Constant Matrix: (Units=GPa)
#
#
# Indices 1 2 3 4 5 6 
#
# 1 87.6441 27.3223 15.7007 0.0000 0.0000 0.0000
# 2 27.3223 46.2944 22.2586 0.0000 0.0000 0.0000
# 3 15.7007 22.2586 71.0339 0.0000 0.0000 0.0000
# 4 0.0000 0.0000 0.0000 21.1611 0.0000 0.0000
# 5 0.0000 0.0000 0.0000 0.0000 10.7514 0.0000
# 6 0.0000 0.0000 0.0000 0.0000 0.0000 23.4497
#
#
#
# Elastic Compliance Matrix: (Units=1/GPa)
#
#
# Indices 1 2 3 4 5 6 
#
# 1 0.014004 -0.007979 -0.000595 0.000000 0.000000 0.000000
# 2 -0.007979 0.029978 -0.007630 0.000000 0.000000 0.000000
# 3 -0.000595 -0.007630 0.016600 0.000000 0.000000 0.000000
# 4 0.000000 0.000000 0.000000 0.047257 0.000000 0.000000
# 5 0.000000 0.000000 0.000000 0.000000 0.093011 0.000000
# 6 0.000000 0.000000 0.000000 0.000000 0.000000 0.042644
#
#
# Mechanical properties :
#
#
# Convention : Reuss Voigt Hill
#
# Bulk Modulus (GPa) = 35.49326 37.28170 36.38748
# Shear Modulus (GPa) = 17.52578 20.38516 18.95547
#
# Velocity S-wave (km/s) = 3.10799 3.35196 3.23228
# Velocity P-wave (km/s) = 5.69580 5.96064 5.82973
#
# Compressibility (1/GPa) = 0.02817437
#
# Stress axis : x y z
#
# Youngs Moduli (GPa) = 71.40993 33.35730 60.23994
#
# Poissons Ratio (x) = 0.26615 0.03585
# Poissons Ratio (y) = 0.56975 0.45965
# Poissons Ratio (z) = 0.04250 0.25453
#
# Static dielectric constant tensor:
#      x y z
#    x 1.650580 0.000000 0.000000 
#    y 0.000000 1.618220 0.000000 
#    z 0.000000 0.000000 1.634590 
# 
# From -- ./inp_files/31028.got.cif
#   From: 2010.05.17/outbox.cif.g08.bks.cpg/sg47_16_cif.got.tgz:31028.got - 2010.06.03 20:15:42.
