data_PCOD9383294
_publ_section_title
;
Structure prediction by ZEFSAII (Michael W. Deem and Ramdas Pophale) SiO2 
 PCOD9383294
Probable space group: P M M M
;
_chemical_formula_sum "Si O2"
_cell_formula_units_Z 52
_cell_length_a 8.791590
_cell_length_b 18.543462
_cell_length_c 18.072550
_cell_angle_alpha 90.000000
_cell_angle_beta 90.000000
_cell_angle_gamma 90.000000
_cell_volume 2946.304845
_symmetry_space_group_name_H-M "P M M M"
_symmetry_group_IT_number 47
_symmetry_cell_setting 'orthorhombic'
loop_
_space_group_symop_operation_xyz
x,y,z
-x,-y,z
x,-y,-z
-x,y,-z
-x,-y,-z
x,y,-z
-x,y,z
x,-y,z
loop_
_atom_site_type_symbol
_atom_site_label
_atom_site_fract_x
_atom_site_fract_y
_atom_site_fract_z
Si Si1 0.683479 0.079844 0.736376
Si Si2 0.180889 0.869733 0.417632
Si Si3 0.823594 0.719027 0.345447
Si Si4 0.322999 0.581012 0.588980
Si Si5 0.320124 0.228069 0.802676
Si Si6 0.183889 0.341824 0.086147
Si Si7 0.177605 0.500000 0.090123
O O1 0.500000 0.082674 0.734656
O O2 0.741513 0.093285 0.652782
O O3 0.735254 0.145735 0.788735
O O4 0.730993 0.000000 0.760721
O O5 0.235771 0.889603 0.500000
O O6 0.201018 0.783917 0.403767
O O7 0.000000 0.884564 0.414542
O O8 0.782811 0.642380 0.378872
O O9 0.718262 0.734395 0.275322
O O10 0.000000 0.722618 0.322277
O O11 0.314384 0.582519 0.500000
O O12 0.500000 0.594584 0.608714
O O13 0.282991 0.500000 0.613492
O O14 0.500000 0.226641 0.815789
O O15 0.242701 0.275831 0.865521
O O16 0.240687 0.421512 0.112734
O O17 0.000000 0.343725 0.089295
O O18 0.227143 0.333634 0.000000
O O19 0.000000 0.500000 0.112181
O O20 0.180743 0.500000 0.000000
#
# Coordination Sequence:
#
# PCOD9383294 Si02
#       7
#     8   8   8   8   8   8   4
#     4   9  19  35  52  70  95 129 168 207 246 294
#     4   9  18  31  47  70  98 125 156 200 252 301
#     4  10  19  32  49  68  93 126 166 206 245 294
#     4   9  18  32  48  66  91 124 162 207 257 300
#     4  10  20  34  52  74 100 130 164 203 250 298
#     4   9  17  32  55  80 105 133 165 201 240 287
#     4   7  12  26  49  75 101 129 158 187 224 273
#
# _framework density 17.649225999999999
#
# number of rings (size 3 to 8) (size 9 to 14) (size 15 to 20)
#    0.000    2.846    0.000    2.769    0.000    3.692 
#    1.385    2.692    0.000    1.846    0.000    3.231 
#    0.000    0.000    0.000    0.000    0.000    0.000 
#
# Total GULP energy -289691.890841 kJ/mol
# GULP energy per Si atom -5570.997901 kJ/mol
# Density = 1.760906 g / cm^3
# Si number density = 17.649226 Si / 1000 Ang^3
#
#
#
# Elastic Constant Matrix: (Units=GPa)
#
#
# Indices 1 2 3 4 5 6 
#
# 1 8.6593 24.0576 11.7722 0.0000 0.0000 0.0000
# 2 24.0576 139.7266 49.3839 0.0000 0.0000 0.0000
# 3 11.7722 49.3839 57.9090 0.0000 0.0000 0.0000
# 4 0.0000 0.0000 0.0000 11.0100 0.0000 0.0000
# 5 0.0000 0.0000 0.0000 0.0000 8.5685 0.0000
# 6 0.0000 0.0000 0.0000 0.0000 0.0000 22.7938
#
#
#
# Elastic Compliance Matrix: (Units=1/GPa)
#
#
# Indices 1 2 3 4 5 6 
#
# 1 0.235134 -0.033768 -0.019003 0.000000 0.000000 0.000000
# 2 -0.033768 0.015094 -0.006007 0.000000 0.000000 0.000000
# 3 -0.019003 -0.006007 0.026255 0.000000 0.000000 0.000000
# 4 0.000000 0.000000 0.000000 0.090826 0.000000 0.000000
# 5 0.000000 0.000000 0.000000 0.000000 0.116707 0.000000
# 6 0.000000 0.000000 0.000000 0.000000 0.000000 0.043872
#
#
# Mechanical properties :
#
#
# Convention : Reuss Voigt Hill
#
# Bulk Modulus (GPa) = 6.29225 41.85805 24.07515
# Shear Modulus (GPa) = 7.15902 16.54654 11.85278
#
# Velocity S-wave (km/s) = 2.01621 3.06522 2.59429
# Velocity P-wave (km/s) = 2.99884 6.02458 4.75860
#
# Compressibility (1/GPa) = 0.15892565
#
# Stress axis : x y z
#
# Youngs Moduli (GPa) = 4.25289 66.25100 38.08868
#
# Poissons Ratio (x) = 2.23718 0.72380
# Poissons Ratio (y) = 0.14361 0.22881
# Poissons Ratio (z) = 0.08082 0.39799
#
# Static dielectric constant tensor:
#      x y z
#    x 1.604260 0.000000 0.000000 
#    y 0.000000 1.638470 0.000000 
#    z 0.000000 0.000000 1.577470 
# 
# From -- ./inp_files/9562.got.cif
#   From: 2010.05.17/outbox.cif.g08.bks.cpg/sg47_5_cif.got.tgz:9562.got - 2010.06.03 20:15:42.
