data_PCOD9383785
_publ_section_title
;
Structure prediction by ZEFSAII (Michael W. Deem and Ramdas Pophale) SiO2 
 PCOD9383785
Probable space group: P M M M
;
_chemical_formula_sum "Si O2"
_cell_formula_units_Z 44
_cell_length_a 14.836853
_cell_length_b 7.585695
_cell_length_c 18.685647
_cell_angle_alpha 90.000000
_cell_angle_beta 90.000000
_cell_angle_gamma 90.000000
_cell_volume 2103.029239
_symmetry_space_group_name_H-M "P M M M"
_symmetry_group_IT_number 47
_symmetry_cell_setting 'orthorhombic'
loop_
_space_group_symop_operation_xyz
x,y,z
-x,-y,z
x,-y,-z
-x,y,-z
-x,-y,-z
x,y,-z
-x,y,z
x,-y,z
loop_
_atom_site_type_symbol
_atom_site_label
_atom_site_fract_x
_atom_site_fract_y
_atom_site_fract_z
Si Si1 0.104534 0.783739 0.000000
Si Si2 0.599427 0.288036 0.187560
Si Si3 0.399811 0.715119 0.646773
Si Si4 0.793448 0.790458 0.141441
Si Si5 0.102111 0.211252 0.719253
Si Si6 0.784831 0.712117 0.421053
O O1 0.156039 0.722474 0.928764
O O2 0.000000 0.731436 0.000000
O O3 0.105928 0.000000 0.000000
O O4 0.500000 0.226499 0.163806
O O5 0.597116 0.500000 0.188893
O O6 0.612325 0.230127 0.270287
O O7 0.686386 0.236867 0.142586
O O8 0.500000 0.770065 0.623195
O O9 0.399226 0.500000 0.645988
O O10 0.315144 0.775961 0.600789
O O11 0.836861 0.719720 0.215204
O O12 0.808249 0.000000 0.141754
O O13 0.147725 0.245562 0.643061
O O14 0.000000 0.279333 0.723049
O O15 0.097929 0.000000 0.726824
O O16 0.810906 0.776454 0.500000
O O17 0.780275 0.500000 0.424091
#
# Coordination Sequence:
#
# PCOD9383785 Si02
#       6
#     4   8   8   8   8   8
#     4   9  18  34  56  81 108 136 169 215 266 309
#     4   9  17  31  53  78 105 139 173 205 249 306
#     4   8  14  27  48  73 100 130 164 202 247 298
#     4  10  19  33  56  82 104 131 170 215 258 303
#     4  10  21  36  53  73  98 132 172 210 255 312
#     4  10  20  33  51  76 103 131 169 216 258 297
#
# _framework density 20.922201000000001
#
# number of rings (size 3 to 8) (size 9 to 14) (size 15 to 20)
#    0.000    2.636    1.818    1.636    0.000    4.000 
#    0.000    4.545    0.000    5.455    0.000    1.273 
#    0.000    0.000    0.000    0.000    0.000    0.000 
#
# Total GULP energy -245564.563644 kJ/mol
# GULP energy per Si atom -5581.012810 kJ/mol
# Density = 2.087458 g / cm^3
# Si number density = 20.922201 Si / 1000 Ang^3
#
#
#
# Elastic Constant Matrix: (Units=GPa)
#
#
# Indices 1 2 3 4 5 6 
#
# 1 179.5780 2.6700 105.2525 0.0000 0.0000 0.0000
# 2 2.6700 44.4686 7.0937 0.0000 0.0000 0.0000
# 3 105.2525 7.0937 149.3043 0.0000 0.0000 0.0000
# 4 0.0000 0.0000 0.0000 -4.5116 0.0000 0.0000
# 5 0.0000 0.0000 0.0000 0.0000 15.7727 0.0000
# 6 0.0000 0.0000 0.0000 0.0000 0.0000 20.5847
#
#
#
# Elastic Compliance Matrix: (Units=1/GPa)
#
#
# Indices 1 2 3 4 5 6 
#
# 1 0.009501 0.000502 -0.006721 0.000000 0.000000 0.000000
# 2 0.000502 0.022686 -0.001432 0.000000 0.000000 0.000000
# 3 -0.006721 -0.001432 0.011504 0.000000 0.000000 0.000000
# 4 0.000000 0.000000 0.000000 -0.221651 0.000000 0.000000
# 5 0.000000 0.000000 0.000000 0.000000 0.063401 0.000000
# 6 0.000000 0.000000 0.000000 0.000000 0.000000 0.048580
#
#
# Mechanical properties :
#
#
# Convention : Reuss Voigt Hill
#
# Bulk Modulus (GPa) = 35.22576 67.04259 51.13417
# Shear Modulus (GPa) = -121.31460 23.59147 -48.86157
#
# Velocity S-wave (km/s) = -7.62296 3.36159 -4.83783
# Velocity P-wave (km/s) = 7.78501 6.86880 2.59094
#
# Compressibility (1/GPa) = 0.02838832
#
# Stress axis : x y z
#
# Youngs Moduli (GPa) = 105.25677 44.08004 86.92664
#
# Poissons Ratio (x) = -0.02212 0.58426
# Poissons Ratio (y) = -0.05281 0.12444
# Poissons Ratio (z) = 0.70746 0.06310
#
# Static dielectric constant tensor:
#      x y z
#    x 1.744330 0.000000 0.000000 
#    y 0.000000 1.808130 0.000000 
#    z 0.000000 0.000000 1.733630 
# 
# From -- ./inp_files/6150.got.cif
#   From: 2010.05.17/outbox.cif.g08.bks.cpg/sg47_4_cif.got.tgz:6150.got - 2010.06.03 20:15:42.
