data_PCOD9383985
_publ_section_title
;
Structure prediction by ZEFSAII (Michael W. Deem and Ramdas Pophale) SiO2 
 PCOD9383985
Probable space group: P M M M
;
_chemical_formula_sum "Si O2"
_cell_formula_units_Z 52
_cell_length_a 15.010998
_cell_length_b 8.615381
_cell_length_c 25.096010
_cell_angle_alpha 90.000000
_cell_angle_beta 90.000000
_cell_angle_gamma 90.000000
_cell_volume 3245.553212
_symmetry_space_group_name_H-M "P M M M"
_symmetry_group_IT_number 47
_symmetry_cell_setting 'orthorhombic'
loop_
_space_group_symop_operation_xyz
x,y,z
-x,-y,z
x,-y,-z
-x,y,-z
-x,-y,-z
x,y,-z
-x,y,z
x,-y,z
loop_
_atom_site_type_symbol
_atom_site_label
_atom_site_fract_x
_atom_site_fract_y
_atom_site_fract_z
Si Si1 0.171372 0.687965 0.500000
Si Si2 0.603031 0.185874 0.775081
Si Si3 0.261161 0.819917 0.686097
Si Si4 0.599210 0.320979 0.387644
Si Si5 0.391466 0.179937 0.000000
Si Si6 0.899804 0.313489 0.618397
Si Si7 0.632430 0.183611 0.500000
Si Si8 0.392201 0.323818 0.888628
O O1 0.188204 0.500000 0.500000
O O2 0.123610 0.724501 0.556372
O O3 0.262226 0.783672 0.500000
O O4 0.500000 0.242946 0.765569
O O5 0.681819 0.246235 0.736365
O O6 0.627223 0.225150 0.836007
O O7 0.599775 0.000000 0.767859
O O8 0.333837 0.796050 0.639899
O O9 0.172378 0.745366 0.661239
O O10 0.242570 0.000000 0.696445
O O11 0.500000 0.310473 0.364596
O O12 0.630305 0.500000 0.382721
O O13 0.596330 0.270313 0.448439
O O14 0.360195 0.258039 0.054830
O O15 0.500000 0.188905 0.000000
O O16 0.367495 0.000000 0.000000
O O17 0.898800 0.500000 0.620881
O O18 0.000000 0.257891 0.629928
O O19 0.613117 0.000000 0.500000
O O20 0.500000 0.325535 0.892149
O O21 0.361715 0.500000 0.881077
#
# Coordination Sequence:
#
# PCOD9383985 Si02
#       8
#     4   8   8   8   4   8   4   8
#     4  10  19  35  57  75  95 119 145 181 231 292
#     4   9  18  32  47  64  91 128 165 197 234 280
#     4  11  22  35  52  73  97 123 154 196 239 279
#     4  11  23  37  52  69  92 124 157 188 227 277
#     4   9  15  23  37  57  85 123 162 199 240 281
#     4  10  21  37  57  77  96 121 151 186 235 294
#     4  12  23  34  51  73  95 118 147 187 233 275
#     4   9  16  25  39  61  88 119 160 206 242 271
#
# _framework density 16.021922
#
# number of rings (size 3 to 8) (size 9 to 14) (size 15 to 20)
#    0.000    1.923    1.538    3.231    0.000    8.000 
#    0.000    1.538    0.000    1.385    0.000    0.000 
#    0.000    0.000    0.000    0.692    0.000   13.000 
#
# Total GULP energy -289720.941430 kJ/mol
# GULP energy per Si atom -5571.556566 kJ/mol
# Density = 1.598546 g / cm^3
# Si number density = 16.021922 Si / 1000 Ang^3
#
#
#
# Elastic Constant Matrix: (Units=GPa)
#
#
# Indices 1 2 3 4 5 6 
#
# 1 88.0871 15.7695 41.1170 0.0000 0.0000 0.0000
# 2 15.7695 19.8308 5.3052 0.0000 0.0000 0.0000
# 3 41.1170 5.3052 106.2080 0.0000 0.0000 0.0000
# 4 0.0000 0.0000 0.0000 2.6888 0.0000 0.0000
# 5 0.0000 0.0000 0.0000 0.0000 -9.6397 0.0000
# 6 0.0000 0.0000 0.0000 0.0000 0.0000 -112.1125
#
#
#
# Elastic Compliance Matrix: (Units=1/GPa)
#
#
# Indices 1 2 3 4 5 6 
#
# 1 0.015986 -0.011206 -0.005629 0.000000 0.000000 0.000000
# 2 -0.011206 0.058965 0.001393 0.000000 0.000000 0.000000
# 3 -0.005629 0.001393 0.011525 0.000000 0.000000 0.000000
# 4 0.000000 0.000000 0.000000 0.371914 0.000000 0.000000
# 5 0.000000 0.000000 0.000000 0.000000 -0.103737 0.000000
# 6 0.000000 0.000000 0.000000 0.000000 0.000000 -0.008920
#
#
# Mechanical properties :
#
#
# Convention : Reuss Voigt Hill
#
# Bulk Modulus (GPa) = 17.98827 37.61215 27.80021
# Shear Modulus (GPa) = 12.65347 -13.68373 -0.51513
#
# Velocity S-wave (km/s) = 2.81332 -2.92561 -0.56764
# Velocity P-wave (km/s) = 4.66955 3.48054 4.11818
#
# Compressibility (1/GPa) = 0.05559177
#
# Stress axis : x y z
#
# Youngs Moduli (GPa) = 62.55451 16.95914 86.76717
#
# Poissons Ratio (x) = 0.19005 0.48841
# Poissons Ratio (y) = 0.70100 -0.12087
# Poissons Ratio (z) = 0.35212 -0.02362
#
# Static dielectric constant tensor:
#      x y z
#    x 1.547710 0.000000 0.000000 
#    y 0.000000 1.550650 0.000000 
#    z 0.000000 0.000000 1.565660 
# 
# From -- ./inp_files/12607.got.cif
#   From: 2010.05.17/outbox.cif.g08.bks.cpg/sg47_7_cif.got.tgz:12607.got - 2010.06.03 20:15:42.
