data_PCOD9383012
_publ_section_title
;
Structure prediction by ZEFSAII (Michael W. Deem and Ramdas Pophale) SiO2 
 PCOD9383012
Probable space group: P M M M
;
_chemical_formula_sum "Si O2"
_cell_formula_units_Z 56
_cell_length_a 30.651858
_cell_length_b 7.451097
_cell_length_c 14.136295
_cell_angle_alpha 90.000000
_cell_angle_beta 90.000000
_cell_angle_gamma 90.000000
_cell_volume 3228.587951
_symmetry_space_group_name_H-M "P M M M"
_symmetry_group_IT_number 47
_symmetry_cell_setting 'orthorhombic'
loop_
_space_group_symop_operation_xyz
x,y,z
-x,-y,z
x,-y,-z
-x,y,-z
-x,-y,-z
x,y,-z
-x,y,z
x,-y,z
loop_
_atom_site_type_symbol
_atom_site_label
_atom_site_fract_x
_atom_site_fract_y
_atom_site_fract_z
Si Si1 0.909525 0.789514 0.802206
Si Si2 0.132416 0.283681 0.394317
Si Si3 0.000000 0.780625 0.889842
Si Si4 0.221677 0.719944 0.704080
Si Si5 0.406021 0.283520 0.613012
Si Si6 0.311074 0.719127 0.389719
Si Si7 0.818612 0.708239 0.104592
Si Si8 0.500000 0.282118 0.612585
O O1 0.899930 0.766714 0.690796
O O2 0.868481 0.711325 0.858959
O O3 0.955979 0.719578 0.837616
O O4 0.908514 0.000000 0.823366
O O5 0.121810 0.219712 0.500000
O O6 0.132919 0.500000 0.396511
O O7 0.181117 0.226071 0.362657
O O8 0.000000 0.000000 0.887092
O O9 0.000000 0.728524 0.000000
O O10 0.221507 0.500000 0.704154
O O11 0.268508 0.778633 0.666590
O O12 0.209816 0.784329 0.809362
O O13 0.405778 0.248436 0.500000
O O14 0.406369 0.500000 0.623516
O O15 0.358630 0.220604 0.647623
O O16 0.452993 0.218116 0.650498
O O17 0.306993 0.770434 0.500000
O O18 0.311312 0.500000 0.388082
O O19 0.805934 0.500000 0.097650
O O20 0.814988 0.788196 0.000000
O O21 0.500000 0.500000 0.620025
O O22 0.500000 0.242416 0.500000
#
# Coordination Sequence:
#
# PCOD9383012 Si02
#       8
#     8   8   4   8   8   8   8   4
#     4  10  19  31  48  67  84 102 127 158 188 220
#     4   9  17  30  46  62  83 110 134 156 185 221
#     4   9  18  32  48  65  84 104 125 153 192 231
#     4   8  13  21  34  51  69  91 119 149 182 218
#     4   7   9  11  15  25  43  69 101 136 172 208
#     4   8  11  14  22  38  58  79 107 143 178 211
#     4   9  17  29  43  59  80 103 125 151 186 228
#     4   7   8  10  14  20  36  66 101 133 168 209
#
# _framework density 17.345041999999999
#
# number of rings (size 3 to 8) (size 9 to 14) (size 15 to 20)
#    0.000    3.571    0.000    3.857    0.000    2.857 
#    0.000    1.786    0.000    4.714    0.000    0.000 
#    0.000    0.000    0.000    0.643    0.000   20.643 
#
# Total GULP energy -311745.387659 kJ/mol
# GULP energy per Si atom -5566.881922 kJ/mol
# Density = 1.730556 g / cm^3
# Si number density = 17.345042 Si / 1000 Ang^3
#
#
#
# Elastic Constant Matrix: (Units=GPa)
#
#
# Indices 1 2 3 4 5 6 
#
# 1 180.3451 -0.9192 69.6099 0.0000 0.0000 0.0000
# 2 -0.9192 49.5250 -1.6999 0.0000 0.0000 0.0000
# 3 69.6099 -1.6999 98.4399 0.0000 0.0000 0.0000
# 4 0.0000 0.0000 0.0000 -42.7443 0.0000 0.0000
# 5 0.0000 0.0000 0.0000 0.0000 13.0760 0.0000
# 6 0.0000 0.0000 0.0000 0.0000 0.0000 18.5997
#
#
#
# Elastic Compliance Matrix: (Units=1/GPa)
#
#
# Indices 1 2 3 4 5 6 
#
# 1 0.007627 -0.000044 -0.005394 0.000000 0.000000 0.000000
# 2 -0.000044 0.020204 0.000380 0.000000 0.000000 0.000000
# 3 -0.005394 0.000380 0.013979 0.000000 0.000000 0.000000
# 4 0.000000 0.000000 0.000000 -0.023395 0.000000 0.000000
# 5 0.000000 0.000000 0.000000 0.000000 0.076476 0.000000
# 6 0.000000 0.000000 0.000000 0.000000 0.000000 0.053764
#
#
# Mechanical properties :
#
#
# Convention : Reuss Voigt Hill
#
# Bulk Modulus (GPa) = 31.55120 51.36573 41.45847
# Shear Modulus (GPa) = 29.52721 15.20756 22.36738
#
# Velocity S-wave (km/s) = 4.13042 2.96424 3.59493
# Velocity P-wave (km/s) = 6.40133 6.43381 6.41759
#
# Compressibility (1/GPa) = 0.03169451
#
# Stress axis : x y z
#
# Youngs Moduli (GPa) = 131.12014 49.49507 71.53520
#
# Poissons Ratio (x) = 0.00216 0.38584
# Poissons Ratio (y) = 0.00571 -0.02716
# Poissons Ratio (z) = 0.70723 -0.01879
#
# Static dielectric constant tensor:
#      x y z
#    x 1.622310 0.000000 0.000000 
#    y 0.000000 1.702220 0.000000 
#    z 0.000000 0.000000 1.572500 
# 
# From -- ./inp_files/25826.got.cif
#   From: 2010.05.17/outbox.cif.g08.bks.cpg/sg47_13_cif.got.tgz:25826.got - 2010.06.03 20:15:42.
