data_PCOD9383413
_publ_section_title
;
Structure prediction by ZEFSAII (Michael W. Deem and Ramdas Pophale) SiO2 
 PCOD9383413
Probable space group: P M M M
;
_chemical_formula_sum "Si O2"
_cell_formula_units_Z 52
_cell_length_a 18.642879
_cell_length_b 7.774449
_cell_length_c 19.337274
_cell_angle_alpha 90.000000
_cell_angle_beta 90.000000
_cell_angle_gamma 90.000000
_cell_volume 2802.707985
_symmetry_space_group_name_H-M "P M M M"
_symmetry_group_IT_number 47
_symmetry_cell_setting 'orthorhombic'
loop_
_space_group_symop_operation_xyz
x,y,z
-x,-y,z
x,-y,-z
-x,y,-z
-x,-y,-z
x,y,-z
-x,y,z
x,-y,z
loop_
_atom_site_type_symbol
_atom_site_label
_atom_site_fract_x
_atom_site_fract_y
_atom_site_fract_z
Si Si1 0.578705 0.205102 0.358509
Si Si2 0.650645 0.291713 0.781783
Si Si3 0.087285 0.500000 0.921089
Si Si4 0.272001 0.791890 0.577607
Si Si5 0.800342 0.296079 0.716646
Si Si6 0.583605 0.290250 0.923558
Si Si7 0.084223 0.806351 0.820701
O O1 0.500000 0.274691 0.376955
O O2 0.595291 0.236208 0.277710
O O3 0.648648 0.271639 0.399164
O O4 0.576907 0.000000 0.370276
O O5 0.651159 0.500000 0.781995
O O6 0.729080 0.233088 0.757121
O O7 0.628137 0.230481 0.857508
O O8 0.109034 0.666965 0.877090
O O9 0.000000 0.500000 0.923921
O O10 0.113496 0.500000 0.000000
O O11 0.255518 0.734285 0.500000
O O12 0.216048 0.738230 0.636451
O O13 0.274227 0.000000 0.577961
O O14 0.806340 0.500000 0.726694
O O15 0.869368 0.213361 0.751564
O O16 0.500000 0.242315 0.915373
O O17 0.585756 0.500000 0.923244
O O18 0.607773 0.233966 0.000000
O O19 0.000000 0.774630 0.806620
O O20 0.091424 0.000000 0.847644
#
# Coordination Sequence:
#
# PCOD9383413 Si02
#       7
#     8   8   4   8   8   8   8
#     4   9  17  28  43  65  92 124 163 209 263 318
#     4   9  17  28  44  65  91 121 163 207 254 309
#     4   9  18  34  56  84 117 147 178 219 263 309
#     4   9  18  32  49  70  97 132 173 217 269 327
#     4  10  19  32  51  74 104 135 172 216 266 319
#     4   8  13  22  38  60  85 115 155 203 249 291
#     4  10  20  35  58  85 112 146 185 223 266 316
#
# _framework density 18.553485999999999
#
# number of rings (size 3 to 8) (size 9 to 14) (size 15 to 20)
#    0.000    2.846    0.769    1.385    0.000    2.462 
#    0.000    3.846    0.000    0.923    0.000    9.692 
#    0.000    0.000    0.000    0.000    0.000    0.000 
#
# Total GULP energy -289924.050474 kJ/mol
# GULP energy per Si atom -5575.462509 kJ/mol
# Density = 1.851126 g / cm^3
# Si number density = 18.553486 Si / 1000 Ang^3
#
#
#
# Elastic Constant Matrix: (Units=GPa)
#
#
# Indices 1 2 3 4 5 6 
#
# 1 56.4828 26.4832 46.2227 0.0000 0.0000 0.0000
# 2 26.4832 50.7404 24.4818 0.0000 0.0000 0.0000
# 3 46.2227 24.4818 146.0217 0.0000 0.0000 0.0000
# 4 0.0000 0.0000 0.0000 49.5550 0.0000 0.0000
# 5 0.0000 0.0000 0.0000 0.0000 13.5600 0.0000
# 6 0.0000 0.0000 0.0000 0.0000 0.0000 10.3869
#
#
#
# Elastic Compliance Matrix: (Units=1/GPa)
#
#
# Indices 1 2 3 4 5 6 
#
# 1 0.029133 -0.011703 -0.007260 0.000000 0.000000 0.000000
# 2 -0.011703 0.026144 -0.000679 0.000000 0.000000 0.000000
# 3 -0.007260 -0.000679 0.009260 0.000000 0.000000 0.000000
# 4 0.000000 0.000000 0.000000 0.020180 0.000000 0.000000
# 5 0.000000 0.000000 0.000000 0.000000 0.073746 0.000000
# 6 0.000000 0.000000 0.000000 0.000000 0.000000 0.096275
#
#
# Mechanical properties :
#
#
# Convention : Reuss Voigt Hill
#
# Bulk Modulus (GPa) = 39.59751 49.73560 44.66656
# Shear Modulus (GPa) = 16.53231 25.10417 20.81824
#
# Velocity S-wave (km/s) = 2.98831 3.68240 3.35336
# Velocity P-wave (km/s) = 5.77021 6.70410 6.25461
#
# Compressibility (1/GPa) = 0.02525411
#
# Stress axis : x y z
#
# Youngs Moduli (GPa) = 34.32588 38.25016 107.98936
#
# Poissons Ratio (x) = 0.44762 0.78398
# Poissons Ratio (y) = 0.40170 0.07331
# Poissons Ratio (z) = 0.24920 0.02597
#
# Static dielectric constant tensor:
#      x y z
#    x 1.636120 0.000000 0.000000 
#    y 0.000000 1.677900 0.000000 
#    z 0.000000 0.000000 1.634590 
# 
# From -- ./inp_files/26777.got.cif
#   From: 2010.05.17/outbox.cif.g08.bks.cpg/sg47_14_cif.got.tgz:26777.got - 2010.06.03 20:15:42.
