data_PCOD9383839
_publ_section_title
;
Structure prediction by ZEFSAII (Michael W. Deem and Ramdas Pophale) SiO2 
 PCOD9383839
Probable space group: P M M M
;
_chemical_formula_sum "Si O2"
_cell_formula_units_Z 56
_cell_length_a 19.021220
_cell_length_b 14.474235
_cell_length_c 10.104392
_cell_angle_alpha 90.000000
_cell_angle_beta 90.000000
_cell_angle_gamma 90.000000
_cell_volume 2781.917038
_symmetry_space_group_name_H-M "P M M M"
_symmetry_group_IT_number 47
_symmetry_cell_setting 'orthorhombic'
loop_
_space_group_symop_operation_xyz
x,y,z
-x,-y,z
x,-y,-z
-x,y,-z
-x,-y,-z
x,y,-z
-x,y,z
x,-y,z
loop_
_atom_site_type_symbol
_atom_site_label
_atom_site_fract_x
_atom_site_fract_y
_atom_site_fract_z
Si Si1 0.770804 0.607536 0.850153
Si Si2 0.579489 0.112732 0.347364
Si Si3 0.136044 0.150788 0.850117
Si Si4 0.916116 0.000000 0.350295
Si Si5 0.347163 0.386266 0.652378
Si Si6 0.076796 0.646399 0.153978
Si Si7 0.500000 0.393287 0.339337
Si Si8 0.295060 0.888679 0.847226
O O1 0.752843 0.500000 0.864709
O O2 0.713027 0.646113 0.751177
O O3 0.849611 0.609768 0.791372
O O4 0.771501 0.648103 0.000000
O O5 0.590776 0.141626 0.500000
O O6 0.500000 0.141659 0.308666
O O7 0.643143 0.140126 0.251955
O O8 0.579174 0.000000 0.346187
O O9 0.108970 0.086378 0.734714
O O10 0.091275 0.244266 0.846116
O O11 0.219889 0.161107 0.829363
O O12 0.128254 0.112396 0.000000
O O13 0.888286 0.000000 0.500000
O O14 0.000000 0.000000 0.355684
O O15 0.334533 0.359364 0.500000
O O16 0.349281 0.500000 0.651881
O O17 0.424501 0.352951 0.697206
O O18 0.000000 0.624352 0.211497
O O19 0.075181 0.615523 0.000000
O O20 0.500000 0.500000 0.293072
O O21 0.500000 0.395331 0.500000
O O22 0.281887 0.000000 0.829102
O O23 0.317046 0.876010 0.000000
#
# Coordination Sequence:
#
# PCOD9383839 Si02
#       8
#     8   8   8   4   8   8   4   8
#     4   9  17  29  46  71 101 127 156 201 251 291
#     4   8  14  24  38  59  88 121 154 185 222 271
#     4  10  19  34  53  72  94 124 164 202 235 283
#     4  11  23  35  49  73 102 127 152 189 241 292
#     4   8  13  23  41  65  93 125 160 194 232 283
#     4   9  18  32  51  73  94 124 166 204 240 287
#     4   7  10  18  35  61  91 121 155 194 229 268
#     4   9  16  26  41  65  92 114 146 192 235 270
#
# _framework density 20.130004
#
# number of rings (size 3 to 8) (size 9 to 14) (size 15 to 20)
#    0.000    3.143    0.714    1.929    0.000    2.286 
#    0.000    3.929    0.000    3.429    1.857    2.000 
#    0.000    0.000    0.000    0.000    0.000    0.000 
#
# Total GULP energy -312113.041375 kJ/mol
# GULP energy per Si atom -5573.447167 kJ/mol
# Density = 2.008419 g / cm^3
# Si number density = 20.130004 Si / 1000 Ang^3
#
#
#
# Elastic Constant Matrix: (Units=GPa)
#
#
# Indices 1 2 3 4 5 6 
#
# 1 184.6405 8.8645 77.1481 0.0000 0.0000 0.0000
# 2 8.8645 44.3696 17.5796 0.0000 0.0000 0.0000
# 3 77.1481 17.5796 90.0059 0.0000 0.0000 0.0000
# 4 0.0000 0.0000 0.0000 2.2694 0.0000 0.0000
# 5 0.0000 0.0000 0.0000 0.0000 22.0676 0.0000
# 6 0.0000 0.0000 0.0000 0.0000 0.0000 21.2899
#
#
#
# Elastic Compliance Matrix: (Units=1/GPa)
#
#
# Indices 1 2 3 4 5 6 
#
# 1 0.008505 0.001289 -0.007542 0.000000 0.000000 0.000000
# 2 0.001289 0.024624 -0.005914 0.000000 0.000000 0.000000
# 3 -0.007542 -0.005914 0.018730 0.000000 0.000000 0.000000
# 4 0.000000 0.000000 0.000000 0.440635 0.000000 0.000000
# 5 0.000000 0.000000 0.000000 0.000000 0.045315 0.000000
# 6 0.000000 0.000000 0.000000 0.000000 0.000000 0.046971
#
#
# Mechanical properties :
#
#
# Convention : Reuss Voigt Hill
#
# Bulk Modulus (GPa) = 36.33124 58.46674 47.39899
# Shear Modulus (GPa) = 8.08682 23.48696 15.78689
#
# Velocity S-wave (km/s) = 2.00649 3.41950 2.80348
# Velocity P-wave (km/s) = 4.84309 6.68568 5.83754
#
# Compressibility (1/GPa) = 0.02752452
#
# Stress axis : x y z
#
# Youngs Moduli (GPa) = 117.57315 40.61130 53.38977
#
# Poissons Ratio (x) = -0.05235 0.40267
# Poissons Ratio (y) = -0.15155 0.31576
# Poissons Ratio (z) = 0.88675 0.24018
#
# Static dielectric constant tensor:
#      x y z
#    x 1.726240 0.000000 0.000000 
#    y 0.000000 1.816390 0.000000 
#    z 0.000000 0.000000 1.674400 
# 
# From -- ./inp_files/11379.got.cif
#   From: 2010.05.17/outbox.cif.g08.bks.cpg/sg47_6_cif.got.tgz:11379.got - 2010.06.03 20:15:42.
