data_PCOD9383708
_publ_section_title
;
Structure prediction by ZEFSAII (Michael W. Deem and Ramdas Pophale) SiO2 
 PCOD9383708
Probable space group: P M M M
;
_chemical_formula_sum "Si O2"
_cell_formula_units_Z 48
_cell_length_a 8.154437
_cell_length_b 9.238372
_cell_length_c 33.345123
_cell_angle_alpha 90.000000
_cell_angle_beta 90.000000
_cell_angle_gamma 90.000000
_cell_volume 2512.012241
_symmetry_space_group_name_H-M "P M M M"
_symmetry_group_IT_number 47
_symmetry_cell_setting 'orthorhombic'
loop_
_space_group_symop_operation_xyz
x,y,z
-x,-y,z
x,-y,-z
-x,y,-z
-x,-y,-z
x,y,-z
-x,y,z
x,-y,z
loop_
_atom_site_type_symbol
_atom_site_label
_atom_site_fract_x
_atom_site_fract_y
_atom_site_fract_z
Si Si1 0.801938 0.665629 0.579408
Si Si2 0.198533 0.166342 0.658837
Si Si3 0.696259 0.333814 0.738472
Si Si4 0.303800 0.165393 0.500000
Si Si5 0.806037 0.831829 0.182712
Si Si6 0.000000 0.823187 0.046381
Si Si7 0.682148 0.176360 0.096379
O O1 0.742681 0.500000 0.578268
O O2 0.744144 0.747518 0.619440
O O3 0.752922 0.751233 0.539656
O O4 0.000000 0.662118 0.580865
O O5 0.253414 0.244783 0.699243
O O6 0.000000 0.165778 0.658324
O O7 0.254511 0.000000 0.657843
O O8 0.500000 0.332013 0.741788
O O9 0.751896 0.500000 0.734599
O O10 0.768094 0.261326 0.778326
O O11 0.500000 0.161735 0.500000
O O12 0.241503 0.000000 0.500000
O O13 0.713616 0.782042 0.142617
O O14 0.000000 0.828326 0.173922
O O15 0.761053 0.000000 0.190623
O O16 0.165230 0.775350 0.069222
O O17 0.000000 0.000000 0.047407
O O18 0.000000 0.779416 0.000000
O O19 0.500000 0.222136 0.083298
O O20 0.685223 0.000000 0.095807
#
# Coordination Sequence:
#
# PCOD9383708 Si02
#       7
#     8   8   8   4   8   4   8
#     4  10  21  38  61  86 111 142 181 225 275 329
#     4  10  21  38  60  84 108 139 180 222 267 323
#     4  11  24  38  52  76 110 144 179 221 270 325
#     4  11  24  39  56  82 114 147 184 225 272 326
#     4  10  19  33  54  77 102 136 181 229 275 329
#     4   9  16  26  40  64 101 141 183 229 277 336
#     4   9  16  27  44  67  98 137 180 227 279 333
#
# _framework density 19.108187000000001
#
# number of rings (size 3 to 8) (size 9 to 14) (size 15 to 20)
#    0.000    2.000    0.833    3.000    0.000    9.000 
#    0.000    1.667    0.000    0.000    0.000    0.000 
#    0.000    1.333    0.000    3.500    0.000    3.333 
#
# Total GULP energy -268087.903195 kJ/mol
# GULP energy per Si atom -5585.164650 kJ/mol
# Density = 1.906470 g / cm^3
# Si number density = 19.108187 Si / 1000 Ang^3
#
#
#
# Elastic Constant Matrix: (Units=GPa)
#
#
# Indices 1 2 3 4 5 6 
#
# 1 71.6443 30.2249 53.1285 0.0000 0.0000 0.0000
# 2 30.2249 111.8250 63.0272 0.0000 0.0000 0.0000
# 3 53.1285 63.0272 159.6465 0.0000 0.0000 0.0000
# 4 0.0000 0.0000 0.0000 -46.0241 0.0000 0.0000
# 5 0.0000 0.0000 0.0000 0.0000 -10.6909 0.0000
# 6 0.0000 0.0000 0.0000 0.0000 0.0000 19.0355
#
#
#
# Elastic Compliance Matrix: (Units=1/GPa)
#
#
# Indices 1 2 3 4 5 6 
#
# 1 0.018875 -0.002008 -0.005489 0.000000 0.000000 0.000000
# 2 -0.002008 0.011716 -0.003957 0.000000 0.000000 0.000000
# 3 -0.005489 -0.003957 0.009653 0.000000 0.000000 0.000000
# 4 0.000000 0.000000 0.000000 -0.021728 0.000000 0.000000
# 5 0.000000 0.000000 0.000000 0.000000 -0.093538 0.000000
# 6 0.000000 0.000000 0.000000 0.000000 0.000000 0.052533
#
#
# Mechanical properties :
#
#
# Convention : Reuss Voigt Hill
#
# Bulk Modulus (GPa) = 57.68402 70.65299 64.16850
# Shear Modulus (GPa) = 806.82454 5.57980 406.20217
#
# Velocity S-wave (km/s) = 20.57078 1.71069 14.59595
# Velocity P-wave (km/s) = 24.38161 6.39980 17.82443
#
# Compressibility (1/GPa) = 0.01733582
#
# Stress axis : x y z
#
# Youngs Moduli (GPa) = 52.97959 85.35678 103.59968
#
# Poissons Ratio (x) = 0.17141 0.56862
# Poissons Ratio (y) = 0.10639 0.40993
# Poissons Ratio (z) = 0.29078 0.33775
#
# Static dielectric constant tensor:
#      x y z
#    x 1.681030 0.000000 0.000000 
#    y 0.000000 1.647860 0.000000 
#    z 0.000000 0.000000 1.621430 
# 
# From -- ./inp_files/34064.got.cif
#   From: 2010.05.17/outbox.cif.g08.bks.cpg/sg47_18_cif.got.tgz:34064.got - 2010.06.03 20:15:42.
