data_PCOD9383494
_publ_section_title
;
Structure prediction by ZEFSAII (Michael W. Deem and Ramdas Pophale) SiO2 
 PCOD9383494
Probable space group: P M M M
;
_chemical_formula_sum "Si O2"
_cell_formula_units_Z 52
_cell_length_a 39.708845
_cell_length_b 8.082819
_cell_length_c 7.411164
_cell_angle_alpha 90.000000
_cell_angle_beta 90.000000
_cell_angle_gamma 90.000000
_cell_volume 2378.682801
_symmetry_space_group_name_H-M "P M M M"
_symmetry_group_IT_number 47
_symmetry_cell_setting 'orthorhombic'
loop_
_space_group_symop_operation_xyz
x,y,z
-x,-y,z
x,-y,-z
-x,y,-z
-x,-y,-z
x,y,-z
-x,y,z
x,-y,z
loop_
_atom_site_type_symbol
_atom_site_label
_atom_site_fract_x
_atom_site_fract_y
_atom_site_fract_z
Si Si1 0.610240 0.318395 0.786105
Si Si2 0.084043 0.689785 0.719780
Si Si3 0.202497 0.500000 0.284679
Si Si4 0.718387 0.500000 0.215547
Si Si5 0.038789 0.000000 0.279666
Si Si6 0.321095 0.822150 0.220623
Si Si7 0.158841 0.189452 0.279916
Si Si8 0.463802 0.190603 0.283336
O O1 0.616159 0.500000 0.709237
O O2 0.639857 0.199211 0.721890
O O3 0.571392 0.272556 0.762678
O O4 0.615250 0.326670 0.000000
O O5 0.083300 0.687042 0.500000
O O6 0.077741 0.500000 0.778626
O O7 0.058067 0.832559 0.777553
O O8 0.121460 0.749684 0.771425
O O9 0.197234 0.500000 0.500000
O O10 0.242077 0.500000 0.250126
O O11 0.184806 0.331144 0.218248
O O12 0.700203 0.334491 0.283415
O O13 0.713324 0.500000 0.000000
O O14 0.039558 0.000000 0.500000
O O15 0.000000 0.000000 0.223583
O O16 0.308037 0.000000 0.280304
O O17 0.320147 0.822247 0.000000
O O18 0.159641 0.186038 0.500000
O O19 0.165031 0.000000 0.220560
O O20 0.464977 0.190142 0.500000
O O21 0.500000 0.261746 0.220976
O O22 0.462385 0.000000 0.222148
#
# Coordination Sequence:
#
# PCOD9383494 Si02
#       8
#     8   8   4   4   4   8   8   8
#     4  10  19  32  52  78 102 124 162 211 246 281
#     4   9  14  21  34  49  69 103 147 190 232 279
#     4  10  20  32  48  72  97 119 153 200 240 275
#     4  10  20  36  54  74 101 130 159 190 236 300
#     4   9  16  22  28  44  72 106 149 199 239 275
#     4   9  17  32  55  77  98 128 163 198 237 285
#     4   9  15  25  42  62  84 114 151 192 235 280
#     4   9  19  35  51  69  99 137 172 205 245 295
#
# _framework density 21.860837
#
# number of rings (size 3 to 8) (size 9 to 14) (size 15 to 20)
#    0.000    2.692    2.308    0.923    0.000    2.769 
#    0.000    4.615    0.000    0.923    0.000    0.000 
#    0.000    0.000    0.000    0.000    0.000    2.308 
#
# Total GULP energy -290172.089158 kJ/mol
# GULP energy per Si atom -5580.232484 kJ/mol
# Density = 2.181108 g / cm^3
# Si number density = 21.860837 Si / 1000 Ang^3
#
#
#
# Elastic Constant Matrix: (Units=GPa)
#
#
# Indices 1 2 3 4 5 6 
#
# 1 174.0947 116.4521 -2.7471 0.0000 0.0000 0.0000
# 2 116.4521 230.1552 7.8558 0.0000 0.0000 0.0000
# 3 -2.7471 7.8558 68.4773 0.0000 0.0000 0.0000
# 4 0.0000 0.0000 0.0000 -7.0676 0.0000 0.0000
# 5 0.0000 0.0000 0.0000 0.0000 -12.3000 0.0000
# 6 0.0000 0.0000 0.0000 0.0000 0.0000 41.4009
#
#
#
# Elastic Compliance Matrix: (Units=1/GPa)
#
#
# Indices 1 2 3 4 5 6 
#
# 1 0.008733 -0.004448 0.000861 0.000000 0.000000 0.000000
# 2 -0.004448 0.006627 -0.000939 0.000000 0.000000 0.000000
# 3 0.000861 -0.000939 0.014746 0.000000 0.000000 0.000000
# 4 0.000000 0.000000 0.000000 -0.141490 0.000000 0.000000
# 5 0.000000 0.000000 0.000000 0.000000 -0.081301 0.000000
# 6 0.000000 0.000000 0.000000 0.000000 0.000000 0.024154
#
#
# Mechanical properties :
#
#
# Convention : Reuss Voigt Hill
#
# Bulk Modulus (GPa) = 47.49754 79.53873 63.51813
# Shear Modulus (GPa) = -32.79525 27.81776 -2.48874
#
# Velocity S-wave (km/s) = -3.87742 3.57107 -1.06814
# Velocity P-wave (km/s) = 1.31474 7.31208 5.25333
#
# Compressibility (1/GPa) = 0.02105372
#
# Stress axis : x y z
#
# Youngs Moduli (GPa) = 114.51074 150.88726 67.81688
#
# Poissons Ratio (x) = 0.67114 -0.05836
# Poissons Ratio (y) = 0.50934 0.06366
# Poissons Ratio (z) = -0.09855 0.14165
#
# Static dielectric constant tensor:
#      x y z
#    x 1.766560 0.000000 0.000000 
#    y 0.000000 1.797840 0.000000 
#    z 0.000000 0.000000 1.908280 
# 
# From -- ./inp_files/19907.got.cif
#   From: 2010.05.17/outbox.cif.g08.bks.cpg/sg47_10_cif.got.tgz:19907.got - 2010.06.03 20:15:42.
