data_PCOD9383084
_publ_section_title
;
Structure prediction by ZEFSAII (Michael W. Deem and Ramdas Pophale) SiO2 
 PCOD9383084
Probable space group: P M M M
;
_chemical_formula_sum "Si O2"
_cell_formula_units_Z 52
_cell_length_a 14.181966
_cell_length_b 27.689063
_cell_length_c 7.734508
_cell_angle_alpha 90.000000
_cell_angle_beta 90.000000
_cell_angle_gamma 90.000000
_cell_volume 3037.227981
_symmetry_space_group_name_H-M "P M M M"
_symmetry_group_IT_number 47
_symmetry_cell_setting 'orthorhombic'
loop_
_space_group_symop_operation_xyz
x,y,z
-x,-y,z
x,-y,-z
-x,y,-z
-x,-y,-z
x,y,-z
-x,y,z
x,-y,z
loop_
_atom_site_type_symbol
_atom_site_label
_atom_site_fract_x
_atom_site_fract_y
_atom_site_fract_z
Si Si1 0.105670 0.853067 0.208922
Si Si2 0.892175 0.656518 0.291880
Si Si3 0.885978 0.551977 0.706121
Si Si4 0.609678 0.000000 0.711559
Si Si5 0.700869 0.099827 0.705196
Si Si6 0.604417 0.800725 0.796132
Si Si7 0.793455 0.244196 0.207949
O O1 0.189161 0.889411 0.259969
O O2 0.138589 0.799509 0.268152
O O3 0.000000 0.864180 0.270564
O O4 0.103536 0.852427 0.000000
O O5 0.896671 0.652715 0.500000
O O6 0.854748 0.604415 0.226500
O O7 0.831531 0.703231 0.250141
O O8 0.000000 0.663538 0.229179
O O9 0.866227 0.550942 0.500000
O O10 0.853280 0.500000 0.778144
O O11 0.000000 0.552840 0.723246
O O12 0.662725 0.048532 0.769488
O O13 0.500000 0.000000 0.763673
O O14 0.611157 0.000000 0.500000
O O15 0.686292 0.101291 0.500000
O O16 0.641568 0.144464 0.780420
O O17 0.500000 0.795503 0.720332
O O18 0.688788 0.767747 0.723962
O O19 0.597927 0.789910 0.000000
O O20 0.790773 0.240190 0.000000
#
# Coordination Sequence:
#
# PCOD9383084 Si02
#       7
#     8   8   8   4   8   8   8
#     4   9  18  33  49  63  85 118 150 176 204 243
#     4   9  16  24  36  57  83 109 138 171 202 234
#     4   7  10  18  32  49  71 102 138 170 198 231
#     4   9  18  32  48  67  92 116 135 163 210 263
#     4  10  19  31  49  71  91 111 138 172 209 250
#     4   9  18  33  49  63  83 111 141 172 207 250
#     4   9  17  28  42  60  81 107 137 167 204 248
#
# _framework density 17.120874000000001
#
# number of rings (size 3 to 8) (size 9 to 14) (size 15 to 20)
#    0.000    3.154    0.000    3.692    0.000    4.615 
#    0.000    1.923    0.000    5.538    0.000    2.154 
#    0.000    0.615    0.000    7.692    0.000    0.308 
#
# Total GULP energy -289552.729600 kJ/mol
# GULP energy per Si atom -5568.321723 kJ/mol
# Density = 1.708191 g / cm^3
# Si number density = 17.120874 Si / 1000 Ang^3
#
#
#
# Elastic Constant Matrix: (Units=GPa)
#
#
# Indices 1 2 3 4 5 6 
#
# 1 118.4573 76.7462 1.3699 0.0000 0.0000 0.0000
# 2 76.7462 163.7296 -3.5611 0.0000 0.0000 0.0000
# 3 1.3699 -3.5611 23.0535 0.0000 0.0000 0.0000
# 4 0.0000 0.0000 0.0000 29.3603 0.0000 0.0000
# 5 0.0000 0.0000 0.0000 0.0000 13.7202 0.0000
# 6 0.0000 0.0000 0.0000 0.0000 0.0000 13.1678
#
#
#
# Elastic Compliance Matrix: (Units=1/GPa)
#
#
# Indices 1 2 3 4 5 6 
#
# 1 0.012183 -0.005746 -0.001612 0.000000 0.000000 0.000000
# 2 -0.005746 0.008838 0.001707 0.000000 0.000000 0.000000
# 3 -0.001612 0.001707 0.043737 0.000000 0.000000 0.000000
# 4 0.000000 0.000000 0.000000 0.034060 0.000000 0.000000
# 5 0.000000 0.000000 0.000000 0.000000 0.072885 0.000000
# 6 0.000000 0.000000 0.000000 0.000000 0.000000 0.075943
#
#
# Mechanical properties :
#
#
# Convention : Reuss Voigt Hill
#
# Bulk Modulus (GPa) = 18.70677 50.48339 34.59508
# Shear Modulus (GPa) = 18.06585 26.62868 22.34727
#
# Velocity S-wave (km/s) = 3.25190 3.94805 3.61676
# Velocity P-wave (km/s) = 5.00498 7.09460 6.13934
#
# Compressibility (1/GPa) = 0.05345659
#
# Stress axis : x y z
#
# Youngs Moduli (GPa) = 82.08139 113.14807 22.86409
#
# Poissons Ratio (x) = 0.65011 0.03685
# Poissons Ratio (y) = 0.47161 -0.03902
# Poissons Ratio (z) = 0.13227 -0.19310
#
# Static dielectric constant tensor:
#      x y z
#    x 1.581310 0.000000 0.000000 
#    y 0.000000 1.602030 0.000000 
#    z 0.000000 0.000000 1.636680 
# 
# From -- ./inp_files/7700.got.cif
#   From: 2010.05.17/outbox.cif.g08.bks.cpg/sg47_4_cif.got.tgz:7700.got - 2010.06.03 20:15:42.
