data_PCOD9383596
_publ_section_title
;
Structure prediction by ZEFSAII (Michael W. Deem and Ramdas Pophale) SiO2 
 PCOD9383596
Probable space group: P M M M
;
_chemical_formula_sum "Si O2"
_cell_formula_units_Z 52
_cell_length_a 15.521765
_cell_length_b 20.935521
_cell_length_c 8.784037
_cell_angle_alpha 90.000000
_cell_angle_beta 90.000000
_cell_angle_gamma 90.000000
_cell_volume 2854.427610
_symmetry_space_group_name_H-M "P M M M"
_symmetry_group_IT_number 47
_symmetry_cell_setting 'orthorhombic'
loop_
_space_group_symop_operation_xyz
x,y,z
-x,-y,z
x,-y,-z
-x,y,-z
-x,-y,-z
x,y,-z
-x,y,z
x,-y,z
loop_
_atom_site_type_symbol
_atom_site_label
_atom_site_fract_x
_atom_site_fract_y
_atom_site_fract_z
Si Si1 0.656914 0.074294 0.683657
Si Si2 0.274578 0.314773 0.815702
Si Si3 0.595238 0.796792 0.817226
Si Si4 0.101166 0.280857 0.317224
Si Si5 0.000000 0.930807 0.180093
Si Si6 0.839326 0.862648 0.318253
Si Si7 0.401841 0.572708 0.814676
O O1 0.648799 0.074438 0.500000
O O2 0.599824 0.131594 0.750648
O O3 0.751525 0.101670 0.724999
O O4 0.644103 0.000000 0.732863
O O5 0.327939 0.250713 0.764677
O O6 0.177144 0.323022 0.755382
O O7 0.333652 0.374341 0.766539
O O8 0.271524 0.312119 0.000000
O O9 0.500000 0.769551 0.782092
O O10 0.602420 0.801245 0.000000
O O11 0.100538 0.288600 0.500000
O O12 0.141293 0.211051 0.281982
O O13 0.000000 0.285944 0.267456
O O14 0.915713 0.897225 0.235876
O O15 0.000000 0.000000 0.251229
O O16 0.000000 0.933590 0.000000
O O17 0.846436 0.868316 0.500000
O O18 0.500000 0.587431 0.766795
O O19 0.381393 0.500000 0.767840
O O20 0.402035 0.573563 0.000000
#
# Coordination Sequence:
#
# PCOD9383596 Si02
#       7
#     8   8   8   8   4   8   8
#     4  10  21  36  53  71  92 124 170 220 263 306
#     4  10  19  32  54  82 109 137 171 213 256 301
#     4  10  21  35  51  74 104 136 168 206 258 316
#     4  10  20  35  54  75 100 133 173 215 260 311
#     4  11  23  33  45  71 101 125 156 207 270 329
#     4  10  19  35  54  69  90 126 170 214 263 318
#     4   8  14  27  51  84 118 147 174 206 247 298
#
# _framework density 18.217312
#
# number of rings (size 3 to 8) (size 9 to 14) (size 15 to 20)
#    0.000    2.231    2.308    1.615    0.000    5.538 
#    0.000    1.538    0.000    2.308    0.000    4.308 
#    0.000    0.000    0.000    0.000    0.000    0.000 
#
# Total GULP energy -289510.172047 kJ/mol
# GULP energy per Si atom -5567.503309 kJ/mol
# Density = 1.817585 g / cm^3
# Si number density = 18.217312 Si / 1000 Ang^3
#
#
#
# Elastic Constant Matrix: (Units=GPa)
#
#
# Indices 1 2 3 4 5 6 
#
# 1 144.7969 60.5317 38.2558 0.0000 0.0000 0.0000
# 2 60.5317 98.2779 48.9678 0.0000 0.0000 0.0000
# 3 38.2558 48.9678 -390.4450 0.0000 0.0000 0.0000
# 4 0.0000 0.0000 0.0000 12.6408 0.0000 0.0000
# 5 0.0000 0.0000 0.0000 0.0000 25.2230 0.0000
# 6 0.0000 0.0000 0.0000 0.0000 0.0000 30.2410
#
#
#
# Elastic Compliance Matrix: (Units=1/GPa)
#
#
# Indices 1 2 3 4 5 6 
#
# 1 0.009287 -0.005811 0.000181 0.000000 0.000000 0.000000
# 2 -0.005811 0.013212 0.001088 0.000000 0.000000 0.000000
# 3 0.000181 0.001088 -0.002407 0.000000 0.000000 0.000000
# 4 0.000000 0.000000 0.000000 0.079109 0.000000 0.000000
# 5 0.000000 0.000000 0.000000 0.000000 0.039646 0.000000
# 6 0.000000 0.000000 0.000000 0.000000 0.000000 0.033068
#
#
# Mechanical properties :
#
#
# Convention : Reuss Voigt Hill
#
# Bulk Modulus (GPa) = 90.83342 16.46004 53.64673
# Shear Modulus (GPa) = 27.07553 -6.05406 10.51073
#
# Velocity S-wave (km/s) = 3.85938 -1.82496 2.40461
# Velocity P-wave (km/s) = 8.35638 2.14811 6.10096
#
# Compressibility (1/GPa) = 0.01100916
#
# Stress axis : x y z
#
# Youngs Moduli (GPa) = 107.67204 75.68761 -415.45312
#
# Poissons Ratio (x) = 0.43980 0.07530
# Poissons Ratio (y) = 0.62565 0.45188
# Poissons Ratio (z) = -0.01951 -0.08232
#
# Static dielectric constant tensor:
#      x y z
#    x 1.655340 0.000000 0.000000 
#    y 0.000000 1.673090 0.000000 
#    z 0.000000 0.000000 1.620580 
# 
# From -- ./inp_files/7070.got.cif
#   From: 2010.05.17/outbox.cif.g08.bks.cpg/sg47_4_cif.got.tgz:7070.got - 2010.06.03 20:15:42.
