data_PCOD9383636
_publ_section_title
;
Structure prediction by ZEFSAII (Michael W. Deem and Ramdas Pophale) SiO2 
 PCOD9383636
Probable space group: P M M M
;
_chemical_formula_sum "Si O2"
_cell_formula_units_Z 32
_cell_length_a 7.256286
_cell_length_b 14.000075
_cell_length_c 18.949650
_cell_angle_alpha 90.000000
_cell_angle_beta 90.000000
_cell_angle_gamma 90.000000
_cell_volume 1925.067433
_symmetry_space_group_name_H-M "P M M M"
_symmetry_group_IT_number 47
_symmetry_cell_setting 'orthorhombic'
loop_
_space_group_symop_operation_xyz
x,y,z
-x,-y,z
x,-y,-z
-x,y,-z
-x,-y,-z
x,y,-z
-x,y,z
x,-y,z
loop_
_atom_site_type_symbol
_atom_site_label
_atom_site_fract_x
_atom_site_fract_y
_atom_site_fract_z
Si Si1 0.221741 0.886116 0.924149
Si Si2 0.776904 0.108182 0.500000
Si Si3 0.775650 0.888939 0.769086
Si Si4 0.778212 0.764934 0.634394
Si Si5 0.500000 0.612736 0.585091
O O1 0.285206 0.854105 0.846873
O O2 0.000000 0.874854 0.924581
O O3 0.257705 0.000000 0.924431
O O4 0.288885 0.847744 0.000000
O O5 0.725232 0.165409 0.430152
O O6 0.000000 0.104656 0.500000
O O7 0.710304 0.000000 0.500000
O O8 0.722746 0.818506 0.706310
O O9 0.000000 0.891184 0.769373
O O10 0.718881 0.000000 0.758110
O O11 0.675007 0.666446 0.618968
O O12 0.000000 0.753136 0.634197
O O13 0.500000 0.500000 0.598306
O O14 0.500000 0.626984 0.500000
#
# Coordination Sequence:
#
# PCOD9383636 Si02
#       5
#     8   4   8   8   4
#     4   7   9  14  27  52  88 127 161 186 210 247
#     4   9  16  27  45  68  95 125 150 176 212 258
#     4   8  13  22  39  64  96 131 158 184 220 262
#     4  10  19  33  51  71  94 121 154 188 226 274
#     4  11  24  40  54  68  87 112 151 201 246 285
#
# _framework density 16.622796000000001
#
# number of rings (size 3 to 8) (size 9 to 14) (size 15 to 20)
#    0.000    3.250    1.250    3.000    0.000    3.500 
#    0.000    4.375    0.000    0.000    0.000    0.875 
#    0.000    6.000    0.000   10.250    0.000    0.500 
#
# Total GULP energy -178238.812368 kJ/mol
# GULP energy per Si atom -5569.962886 kJ/mol
# Density = 1.658496 g / cm^3
# Si number density = 16.622796 Si / 1000 Ang^3
#
#
#
# Elastic Constant Matrix: (Units=GPa)
#
#
# Indices 1 2 3 4 5 6 
#
# 1 81.3367 28.1350 28.1076 0.0000 0.0000 0.0000
# 2 28.1350 102.0512 72.4605 0.0000 0.0000 0.0000
# 3 28.1076 72.4605 193.2561 0.0000 0.0000 0.0000
# 4 0.0000 0.0000 0.0000 5.2922 0.0000 0.0000
# 5 0.0000 0.0000 0.0000 0.0000 -28.4159 0.0000
# 6 0.0000 0.0000 0.0000 0.0000 0.0000 20.8898
#
#
#
# Elastic Compliance Matrix: (Units=1/GPa)
#
#
# Indices 1 2 3 4 5 6 
#
# 1 0.013677 -0.003214 -0.000784 0.000000 0.000000 0.000000
# 2 -0.003214 0.014109 -0.004823 0.000000 0.000000 0.000000
# 3 -0.000784 -0.004823 0.007097 0.000000 0.000000 0.000000
# 4 0.000000 0.000000 0.000000 0.188956 0.000000 0.000000
# 5 0.000000 0.000000 0.000000 0.000000 -0.035192 0.000000
# 6 0.000000 0.000000 0.000000 0.000000 0.000000 0.047870
#
#
# Mechanical properties :
#
#
# Convention : Reuss Voigt Hill
#
# Bulk Modulus (GPa) = 57.99913 70.45002 64.22458
# Shear Modulus (GPa) = 19.23760 16.08262 17.66011
#
# Velocity S-wave (km/s) = 3.40561 3.11385 3.26299
# Velocity P-wave (km/s) = 7.10150 7.44323 7.27437
#
# Compressibility (1/GPa) = 0.01724164
#
# Stress axis : x y z
#
# Youngs Moduli (GPa) = 73.11380 70.87432 140.90784
#
# Poissons Ratio (x) = 0.22779 0.11050
# Poissons Ratio (y) = 0.23498 0.67958
# Poissons Ratio (z) = 0.05734 0.34182
#
# Static dielectric constant tensor:
#      x y z
#    x 1.637810 0.000000 0.000000 
#    y 0.000000 1.495850 0.000000 
#    z 0.000000 0.000000 1.605950 
# 
# From -- ./inp_files/26092.got.cif
#   From: 2010.05.17/outbox.cif.g08.bks.cpg/sg47_14_cif.got.tgz:26092.got - 2010.06.03 20:15:42.
