data_PCOD9383993
_publ_section_title
;
Structure prediction by ZEFSAII (Michael W. Deem and Ramdas Pophale) SiO2 
 PCOD9383993
Probable space group: P M M M
;
_chemical_formula_sum "Si O2"
_cell_formula_units_Z 52
_cell_length_a 13.659228
_cell_length_b 27.790930
_cell_length_c 7.654511
_cell_angle_alpha 90.000000
_cell_angle_beta 90.000000
_cell_angle_gamma 90.000000
_cell_volume 2905.672654
_symmetry_space_group_name_H-M "P M M M"
_symmetry_group_IT_number 47
_symmetry_cell_setting 'orthorhombic'
loop_
_space_group_symop_operation_xyz
x,y,z
-x,-y,z
x,-y,-z
-x,y,-z
-x,-y,-z
x,y,-z
-x,y,z
x,-y,z
loop_
_atom_site_type_symbol
_atom_site_label
_atom_site_fract_x
_atom_site_fract_y
_atom_site_fract_z
Si Si1 0.115828 0.557398 0.500000
Si Si2 0.609727 0.500000 0.788785
Si Si3 0.388087 0.318017 0.787344
Si Si4 0.500000 0.943954 0.285745
Si Si5 0.611211 0.790408 0.210224
Si Si6 0.742225 0.408407 0.788802
Si Si7 0.694847 0.890226 0.295426
Si Si8 0.891171 0.054507 0.791163
O O1 0.137471 0.500000 0.500000
O O2 0.163450 0.581168 0.671904
O O3 0.000000 0.563267 0.500000
O O4 0.500000 0.500000 0.718846
O O5 0.668464 0.452034 0.743808
O O6 0.603846 0.500000 0.000000
O O7 0.500000 0.328743 0.731437
O O8 0.363341 0.263632 0.730482
O O9 0.311412 0.358852 0.738027
O O10 0.389791 0.318183 0.000000
O O11 0.500000 0.942032 0.500000
O O12 0.598917 0.917643 0.220765
O O13 0.500000 0.000000 0.236908
O O14 0.500000 0.801129 0.272025
O O15 0.681287 0.833707 0.261224
O O16 0.608356 0.789095 0.000000
O O17 0.759331 0.408947 0.000000
O O18 0.689015 0.898196 0.500000
O O19 0.799234 0.911494 0.242641
O O20 0.000000 0.069566 0.727352
O O21 0.872064 0.000000 0.725183
O O22 0.897822 0.051509 0.000000
#
# Coordination Sequence:
#
# PCOD9383993 Si02
#       8
#     4   4   8   4   8   8   8   8
#     4  11  24  40  56  78 110 144 188 242 280 317
#     4   9  16  27  49  80 113 147 174 208 262 322
#     4   8  15  30  54  81 109 141 174 211 257 314
#     4   9  18  30  43  65 101 141 171 202 253 310
#     4   9  17  31  51  75 105 141 178 211 250 305
#     4  10  19  35  57  81 110 145 184 223 272 330
#     4  11  20  31  49  73 106 140 171 211 257 311
#     4   9  19  36  55  74  97 126 165 215 266 314
#
# _framework density 17.896028000000001
#
# number of rings (size 3 to 8) (size 9 to 14) (size 15 to 20)
#    0.000    2.538    1.538    2.769    0.000    3.385 
#    1.385    3.462    0.000    2.769    0.000    2.154 
#    0.000    0.000    0.000    0.000    0.000    0.000 
#
# Total GULP energy -289928.924593 kJ/mol
# GULP energy per Si atom -5575.556242 kJ/mol
# Density = 1.785530 g / cm^3
# Si number density = 17.896028 Si / 1000 Ang^3
#
#
#
# Elastic Constant Matrix: (Units=GPa)
#
#
# Indices 1 2 3 4 5 6 
#
# 1 148.0976 101.1953 34.3137 0.0000 0.0000 0.0000
# 2 101.1953 136.2409 19.4871 0.0000 0.0000 0.0000
# 3 34.3137 19.4871 48.5947 0.0000 0.0000 0.0000
# 4 0.0000 0.0000 0.0000 -3.9874 0.0000 0.0000
# 5 0.0000 0.0000 0.0000 0.0000 44.9448 0.0000
# 6 0.0000 0.0000 0.0000 0.0000 0.0000 20.9968
#
#
#
# Elastic Compliance Matrix: (Units=1/GPa)
#
#
# Indices 1 2 3 4 5 6 
#
# 1 0.015542 -0.010581 -0.006731 0.000000 0.000000 0.000000
# 2 -0.010581 0.014991 0.001460 0.000000 0.000000 0.000000
# 3 -0.006731 0.001460 0.024746 0.000000 0.000000 0.000000
# 4 0.000000 0.000000 0.000000 -0.250791 0.000000 0.000000
# 5 0.000000 0.000000 0.000000 0.000000 0.022250 0.000000
# 6 0.000000 0.000000 0.000000 0.000000 0.000000 0.047626
#
#
# Mechanical properties :
#
#
# Convention : Reuss Voigt Hill
#
# Bulk Modulus (GPa) = 42.41995 71.43615 56.92805
# Shear Modulus (GPa) = -58.08993 24.25333 -16.91830
#
# Velocity S-wave (km/s) = -5.70352 3.68535 -3.07802
# Velocity P-wave (km/s) = 4.42928 7.62319 4.38717
#
# Compressibility (1/GPa) = 0.02357381
#
# Stress axis : x y z
#
# Youngs Moduli (GPa) = 64.34064 66.70836 40.41061
#
# Poissons Ratio (x) = 0.70587 0.27202
# Poissons Ratio (y) = 0.68082 -0.05901
# Poissons Ratio (z) = 0.43310 -0.09742
#
# Static dielectric constant tensor:
#      x y z
#    x 1.619330 0.000000 0.000000 
#    y 0.000000 1.618260 0.000000 
#    z 0.000000 0.000000 1.655710 
# 
# From -- ./inp_files/4637.got.cif
#   From: 2010.05.17/outbox.cif.g08.bks.cpg/sg47_3_cif.got.tgz:4637.got - 2010.06.03 20:15:42.
