data_PCOD9383023
_publ_section_title
;
Structure prediction by ZEFSAII (Michael W. Deem and Ramdas Pophale) SiO2 
 PCOD9383023
Probable space group: P M M M
;
_chemical_formula_sum "Si O2"
_cell_formula_units_Z 52
_cell_length_a 7.726720
_cell_length_b 27.685099
_cell_length_c 14.144951
_cell_angle_alpha 90.000000
_cell_angle_beta 90.000000
_cell_angle_gamma 90.000000
_cell_volume 3025.817308
_symmetry_space_group_name_H-M "P M M M"
_symmetry_group_IT_number 47
_symmetry_cell_setting 'orthorhombic'
loop_
_space_group_symop_operation_xyz
x,y,z
-x,-y,z
x,-y,-z
-x,y,-z
-x,-y,-z
x,y,-z
-x,y,z
x,-y,z
loop_
_atom_site_type_symbol
_atom_site_label
_atom_site_fract_x
_atom_site_fract_y
_atom_site_fract_z
Si Si1 0.208153 0.947971 0.389960
Si Si2 0.291016 0.646880 0.393981
Si Si3 0.293260 0.843156 0.607913
Si Si4 0.287716 0.254107 0.705342
Si Si5 0.795103 0.399999 0.799915
Si Si6 0.788224 0.500000 0.890015
Si Si7 0.703886 0.699735 0.895321
O O1 0.266795 0.947132 0.500000
O O2 0.260681 0.896245 0.349315
O O3 0.000000 0.948655 0.390336
O O4 0.267029 0.000000 0.349802
O O5 0.229345 0.636019 0.500000
O O6 0.500000 0.646841 0.395392
O O7 0.237024 0.700814 0.361293
O O8 0.237051 0.610722 0.310582
O O9 0.223921 0.842079 0.500000
O O10 0.500000 0.837756 0.601713
O O11 0.227985 0.797257 0.666098
O O12 0.500000 0.253984 0.706509
O O13 0.225573 0.267170 0.810655
O O14 0.729826 0.451373 0.837273
O O15 0.719104 0.355188 0.858550
O O16 0.000000 0.398581 0.816161
O O17 0.000000 0.500000 0.888100
O O18 0.736617 0.500000 0.000000
O O19 0.500000 0.710603 0.901451
O O20 0.779740 0.705021 0.000000
#
# Coordination Sequence:
#
# PCOD9383023 Si02
#       7
#     8   8   8   8   8   4   8
#     4   8  14  24  35  47  69 103 136 163 196 237
#     4   9  17  31  49  65  86 117 146 171 203 246
#     4   9  15  22  35  55  77 102 133 166 196 230
#     4   8  14  25  41  61  83 107 136 167 201 243
#     4  10  19  31  48  68  88 110 139 175 211 249
#     4   9  18  32  48  65  86 112 139 169 212 261
#     4   9  17  30  47  65  86 112 140 169 205 252
#
# _framework density 17.185438999999999
#
# number of rings (size 3 to 8) (size 9 to 14) (size 15 to 20)
#    0.000    3.154    0.000    2.769    0.000    3.385 
#    0.000    6.538    0.000    8.769    0.000    0.000 
#    0.000    0.615    0.000    7.692    0.000    1.538 
#
# Total GULP energy -289586.902102 kJ/mol
# GULP energy per Si atom -5568.978887 kJ/mol
# Density = 1.714632 g / cm^3
# Si number density = 17.185439 Si / 1000 Ang^3
#
#
#
# Elastic Constant Matrix: (Units=GPa)
#
#
# Indices 1 2 3 4 5 6 
#
# 1 23.8469 -0.8745 0.0088 0.0000 0.0000 0.0000
# 2 -0.8745 161.3001 71.1293 0.0000 0.0000 0.0000
# 3 0.0088 71.1293 111.7250 0.0000 0.0000 0.0000
# 4 0.0000 0.0000 0.0000 14.2770 0.0000 0.0000
# 5 0.0000 0.0000 0.0000 0.0000 9.6933 0.0000
# 6 0.0000 0.0000 0.0000 0.0000 0.0000 20.9571
#
#
#
# Elastic Compliance Matrix: (Units=1/GPa)
#
#
# Indices 1 2 3 4 5 6 
#
# 1 0.041946 0.000318 -0.000206 0.000000 0.000000 0.000000
# 2 0.000318 0.008622 -0.005489 0.000000 0.000000 0.000000
# 3 -0.000206 -0.005489 0.012445 0.000000 0.000000 0.000000
# 4 0.000000 0.000000 0.000000 0.070043 0.000000 0.000000
# 5 0.000000 0.000000 0.000000 0.000000 0.103164 0.000000
# 6 0.000000 0.000000 0.000000 0.000000 0.000000 0.047716
#
#
# Mechanical properties :
#
#
# Convention : Reuss Voigt Hill
#
# Bulk Modulus (GPa) = 19.13533 48.59993 33.86763
# Shear Modulus (GPa) = 16.02003 24.09271 20.05637
#
# Velocity S-wave (km/s) = 3.05649 3.74829 3.41993
# Velocity P-wave (km/s) = 4.85952 6.86105 5.94512
#
# Compressibility (1/GPa) = 0.05225934
#
# Stress axis : x y z
#
# Youngs Moduli (GPa) = 23.84024 115.98337 80.35219
#
# Poissons Ratio (x) = -0.03691 0.01654
# Poissons Ratio (y) = -0.00759 0.44106
# Poissons Ratio (z) = 0.00491 0.63665
#
# Static dielectric constant tensor:
#      x y z
#    x 1.637880 0.000000 0.000000 
#    y 0.000000 1.599470 0.000000 
#    z 0.000000 0.000000 1.583970 
# 
# From -- ./inp_files/22027.got.cif
#   From: 2010.05.17/outbox.cif.g08.bks.cpg/sg47_12_cif.got.tgz:22027.got - 2010.06.03 20:15:42.
