data_PCOD9383941
_publ_section_title
;
Structure prediction by ZEFSAII (Michael W. Deem and Ramdas Pophale) SiO2 
 PCOD9383941
Probable space group: P M M M
;
_chemical_formula_sum "Si O2"
_cell_formula_units_Z 40
_cell_length_a 10.072019
_cell_length_b 7.595409
_cell_length_c 24.808797
_cell_angle_alpha 90.000000
_cell_angle_beta 90.000000
_cell_angle_gamma 90.000000
_cell_volume 1897.900353
_symmetry_space_group_name_H-M "P M M M"
_symmetry_group_IT_number 47
_symmetry_cell_setting 'orthorhombic'
loop_
_space_group_symop_operation_xyz
x,y,z
-x,-y,z
x,-y,-z
-x,y,-z
-x,-y,-z
x,y,-z
-x,y,z
x,-y,z
loop_
_atom_site_type_symbol
_atom_site_label
_atom_site_fract_x
_atom_site_fract_y
_atom_site_fract_z
Si Si1 0.757569 0.290254 0.868405
Si Si2 0.844780 0.284172 0.750879
Si Si3 0.851782 0.787649 0.562048
Si Si4 0.348313 0.708780 0.344223
Si Si5 0.000000 0.716286 0.938941
Si Si6 0.500000 0.208892 0.061940
O O1 0.774232 0.500000 0.863998
O O2 0.779611 0.225849 0.807562
O O3 0.873393 0.221714 0.906424
O O4 0.624486 0.259555 0.901338
O O5 0.846614 0.500000 0.749567
O O6 0.749924 0.221947 0.702499
O O7 0.000000 0.229974 0.746998
O O8 0.834793 0.730093 0.500000
O O9 0.732263 0.732205 0.600345
O O10 0.000000 0.728537 0.580517
O O11 0.853826 0.000000 0.562052
O O12 0.500000 0.778887 0.344721
O O13 0.359598 0.500000 0.334665
O O14 0.000000 0.500000 0.939574
O O15 0.000000 0.775162 0.000000
O O16 0.500000 0.000000 0.056772
O O17 0.500000 0.280979 0.000000
#
# Coordination Sequence:
#
# PCOD9383941 Si02
#       6
#     8   8   8   8   4   4
#     4  10  19  34  59  85 106 136 179 225 271 321
#     4   9  17  32  55  83 111 139 175 223 276 323
#     4   9  19  37  59  81 107 143 188 233 274 317
#     4  10  21  34  52  82 117 149 181 219 267 325
#     4   9  16  28  51  85 113 127 162 227 278 314
#     4  11  25  41  53  73 111 151 182 217 266 325
#
# _framework density 21.07592
#
# number of rings (size 3 to 8) (size 9 to 14) (size 15 to 20)
#    0.000    2.400    1.000    2.100    1.400    4.000 
#    0.000    4.500    0.000    3.000    0.000    0.000 
#    0.000    0.000    0.000    0.000    0.000    0.000 
#
# Total GULP energy -223194.984580 kJ/mol
# GULP energy per Si atom -5579.874614 kJ/mol
# Density = 2.102795 g / cm^3
# Si number density = 21.075920 Si / 1000 Ang^3
#
#
#
# Elastic Constant Matrix: (Units=GPa)
#
#
# Indices 1 2 3 4 5 6 
#
# 1 225.7989 -3.9292 120.5884 0.0000 0.0000 0.0000
# 2 -3.9292 40.9786 0.3070 0.0000 0.0000 0.0000
# 3 120.5884 0.3070 163.8633 0.0000 0.0000 0.0000
# 4 0.0000 0.0000 0.0000 35.5042 0.0000 0.0000
# 5 0.0000 0.0000 0.0000 0.0000 34.9355 0.0000
# 6 0.0000 0.0000 0.0000 0.0000 0.0000 -0.9008
#
#
#
# Elastic Compliance Matrix: (Units=1/GPa)
#
#
# Indices 1 2 3 4 5 6 
#
# 1 0.007319 0.000742 -0.005387 0.000000 0.000000 0.000000
# 2 0.000742 0.024479 -0.000592 0.000000 0.000000 0.000000
# 3 -0.005387 -0.000592 0.010068 0.000000 0.000000 0.000000
# 4 0.000000 0.000000 0.000000 0.028166 0.000000 0.000000
# 5 0.000000 0.000000 0.000000 0.000000 0.028624 0.000000
# 6 0.000000 0.000000 0.000000 0.000000 0.000000 -1.110134
#
#
# Mechanical properties :
#
#
# Convention : Reuss Voigt Hill
#
# Bulk Modulus (GPa) = 31.85599 73.84147 52.84873
# Shear Modulus (GPa) = -5.04775 34.81943 14.88584
#
# Velocity S-wave (km/s) = -1.54927 4.06901 2.66051
# Velocity P-wave (km/s) = 3.45650 7.56226 5.87942
#
# Compressibility (1/GPa) = 0.03139127
#
# Stress axis : x y z
#
# Youngs Moduli (GPa) = 136.63562 40.85204 99.32143
#
# Poissons Ratio (x) = -0.03032 0.53508
# Poissons Ratio (y) = -0.10140 0.05880
# Poissons Ratio (z) = 0.73610 0.02418
#
# Static dielectric constant tensor:
#      x y z
#    x 1.715870 0.000000 0.000000 
#    y 0.000000 1.810000 0.000000 
#    z 0.000000 0.000000 1.749430 
# 
# From -- ./inp_files/33025.got.cif
#   From: 2010.05.17/outbox.cif.g08.bks.cpg/sg47_17_cif.got.tgz:33025.got - 2010.06.03 20:15:42.
