data_PCOD9383492
_publ_section_title
;
Structure prediction by ZEFSAII (Michael W. Deem and Ramdas Pophale) SiO2 
 PCOD9383492
Probable space group: P M M M
;
_chemical_formula_sum "Si O2"
_cell_formula_units_Z 52
_cell_length_a 14.698374
_cell_length_b 25.643653
_cell_length_c 7.818882
_cell_angle_alpha 90.000000
_cell_angle_beta 90.000000
_cell_angle_gamma 90.000000
_cell_volume 2947.093023
_symmetry_space_group_name_H-M "P M M M"
_symmetry_group_IT_number 47
_symmetry_cell_setting 'orthorhombic'
loop_
_space_group_symop_operation_xyz
x,y,z
-x,-y,z
x,-y,-z
-x,y,-z
-x,-y,-z
x,y,-z
-x,y,z
x,-y,z
loop_
_atom_site_type_symbol
_atom_site_label
_atom_site_fract_x
_atom_site_fract_y
_atom_site_fract_z
Si Si1 0.218075 0.259753 0.801029
Si Si2 0.398813 0.912416 0.298640
Si Si3 0.797843 0.056633 0.800771
Si Si4 0.601370 0.208992 0.792200
Si Si5 0.891384 0.638909 0.796158
Si Si6 0.889844 0.440715 0.500000
Si Si7 0.896479 0.161247 0.300307
O O1 0.316343 0.244516 0.726596
O O2 0.163082 0.309654 0.736275
O O3 0.157679 0.207654 0.789155
O O4 0.233744 0.271400 0.000000
O O5 0.395658 0.924559 0.500000
O O6 0.500000 0.926769 0.233875
O O7 0.311116 0.937704 0.214075
O O8 0.389199 0.850009 0.274927
O O9 0.844914 0.106446 0.717669
O O10 0.824566 0.000000 0.729301
O O11 0.822488 0.058143 0.000000
O O12 0.500000 0.227577 0.747577
O O13 0.607017 0.205564 0.000000
O O14 0.865381 0.591521 0.670997
O O15 0.000000 0.648389 0.777801
O O16 0.875764 0.629101 0.000000
O O17 0.855421 0.500000 0.500000
O O18 0.000000 0.443081 0.500000
O O19 0.898574 0.174988 0.500000
O O20 0.000000 0.156865 0.236982
#
# Coordination Sequence:
#
# PCOD9383492 Si02
#       7
#     8   8   8   8   8   4   8
#     4  10  19  32  52  77 106 138 170 208 254 304
#     4  10  20  34  53  76 100 125 156 198 250 307
#     4  11  24  40  56  73  94 124 164 208 253 307
#     4   9  17  30  50  75 103 134 165 199 245 304
#     4   9  18  31  48  74 107 143 182 222 261 302
#     4   9  18  32  50  74 107 147 186 222 260 303
#     4  11  24  38  54  76  98 126 163 205 258 313
#
# _framework density 17.644506
#
# number of rings (size 3 to 8) (size 9 to 14) (size 15 to 20)
#    0.000    2.077    1.538    1.846    1.077    4.923 
#    0.000    4.615    0.000    0.000    0.000    0.000 
#    0.000    1.231    0.000    6.000    0.000    0.154 
#
# Total GULP energy -290089.339795 kJ/mol
# GULP energy per Si atom -5578.641150 kJ/mol
# Density = 1.760435 g / cm^3
# Si number density = 17.644506 Si / 1000 Ang^3
#
#
#
# Elastic Constant Matrix: (Units=GPa)
#
#
# Indices 1 2 3 4 5 6 
#
# 1 82.8475 38.5715 5.5627 0.0000 0.0000 0.0000
# 2 38.5715 110.5230 12.9994 0.0000 0.0000 0.0000
# 3 5.5627 12.9994 36.7519 0.0000 0.0000 0.0000
# 4 0.0000 0.0000 0.0000 25.2566 0.0000 0.0000
# 5 0.0000 0.0000 0.0000 0.0000 16.4631 0.0000
# 6 0.0000 0.0000 0.0000 0.0000 0.0000 17.9728
#
#
#
# Elastic Compliance Matrix: (Units=1/GPa)
#
#
# Indices 1 2 3 4 5 6 
#
# 1 0.014418 -0.004982 -0.000420 0.000000 0.000000 0.000000
# 2 -0.004982 0.011162 -0.003194 0.000000 0.000000 0.000000
# 3 -0.000420 -0.003194 0.028403 0.000000 0.000000 0.000000
# 4 0.000000 0.000000 0.000000 0.039594 0.000000 0.000000
# 5 0.000000 0.000000 0.000000 0.000000 0.060742 0.000000
# 6 0.000000 0.000000 0.000000 0.000000 0.000000 0.055640
#
#
# Mechanical properties :
#
#
# Convention : Reuss Voigt Hill
#
# Bulk Modulus (GPa) = 27.18099 38.26551 32.72325
# Shear Modulus (GPa) = 20.88422 23.47109 22.17765
#
# Velocity S-wave (km/s) = 3.44410 3.65118 3.54915
# Velocity P-wave (km/s) = 5.59052 6.28560 5.94822
#
# Compressibility (1/GPa) = 0.03679042
#
# Stress axis : x y z
#
# Youngs Moduli (GPa) = 69.35653 89.58654 35.20779
#
# Poissons Ratio (x) = 0.44636 0.01479
# Poissons Ratio (y) = 0.34556 0.11246
# Poissons Ratio (z) = 0.02913 0.28615
#
# Static dielectric constant tensor:
#      x y z
#    x 1.624820 0.000000 0.000000 
#    y 0.000000 1.584270 0.000000 
#    z 0.000000 0.000000 1.627720 
# 
# From -- ./inp_files/6964.got.cif
#   From: 2010.05.17/outbox.cif.g08.bks.cpg/sg47_4_cif.got.tgz:6964.got - 2010.06.03 20:15:42.
