data_PCOD9383529
_publ_section_title
;
Structure prediction by ZEFSAII (Michael W. Deem and Ramdas Pophale) SiO2 
 PCOD9383529
Probable space group: P M M M
;
_chemical_formula_sum "Si O2"
_cell_formula_units_Z 28
_cell_length_a 21.708779
_cell_length_b 7.724238
_cell_length_c 8.049849
_cell_angle_alpha 90.000000
_cell_angle_beta 90.000000
_cell_angle_gamma 90.000000
_cell_volume 1349.829074
_symmetry_space_group_name_H-M "P M M M"
_symmetry_group_IT_number 47
_symmetry_cell_setting 'orthorhombic'
loop_
_space_group_symop_operation_xyz
x,y,z
-x,-y,z
x,-y,-z
-x,y,-z
-x,-y,-z
x,y,-z
-x,y,z
x,-y,z
loop_
_atom_site_type_symbol
_atom_site_label
_atom_site_fract_x
_atom_site_fract_y
_atom_site_fract_z
Si Si1 0.000000 0.288742 0.693257
Si Si2 0.428689 0.711307 0.185983
Si Si3 0.133151 0.709327 0.184130
Si Si4 0.216487 0.800021 0.500000
Si Si5 0.644922 0.298848 0.500000
O O1 0.936771 0.231677 0.778582
O O2 0.000000 0.500000 0.697433
O O3 0.000000 0.237351 0.500000
O O4 0.500000 0.756804 0.219427
O O5 0.426087 0.500000 0.181403
O O6 0.384546 0.775618 0.331897
O O7 0.412296 0.770783 0.000000
O O8 0.132189 0.500000 0.182847
O O9 0.176512 0.760787 0.336237
O O10 0.152599 0.767872 0.000000
O O11 0.281686 0.705622 0.500000
O O12 0.232142 0.000000 0.500000
O O13 0.625753 0.500000 0.500000
#
# Coordination Sequence:
#
# PCOD9383529 Si02
#       5
#     4   8   8   4   4
#     4   9  15  29  59  91 115 132 163 224 287 334
#     4   8  14  26  48  80 110 130 158 212 276 325
#     4  10  20  37  62  87 109 138 181 230 278 329
#     4  12  26  40  52  73 113 157 192 227 270 321
#     4  10  19  32  53  77 102 137 183 223 262 312
#
# _framework density 20.743366999999999
#
# number of rings (size 3 to 8) (size 9 to 14) (size 15 to 20)
#    0.000    2.429    1.429    3.000    0.000    5.143 
#    0.000    4.286    0.000    3.429    0.000    2.000 
#    0.000    0.000    0.000    0.000    0.000    0.000 
#
# Total GULP energy -156293.438020 kJ/mol
# GULP energy per Si atom -5581.908501 kJ/mol
# Density = 2.069615 g / cm^3
# Si number density = 20.743367 Si / 1000 Ang^3
#
#
#
# Elastic Constant Matrix: (Units=GPa)
#
#
# Indices 1 2 3 4 5 6 
#
# 1 106.4879 -14.0605 92.7051 0.0000 0.0000 0.0000
# 2 -14.0605 31.4792 1.0894 0.0000 0.0000 0.0000
# 3 92.7051 1.0894 198.6083 0.0000 0.0000 0.0000
# 4 0.0000 0.0000 0.0000 -11.6962 0.0000 0.0000
# 5 0.0000 0.0000 0.0000 0.0000 0.0339 0.0000
# 6 0.0000 0.0000 0.0000 0.0000 0.0000 -51.6996
#
#
#
# Elastic Compliance Matrix: (Units=1/GPa)
#
#
# Indices 1 2 3 4 5 6 
#
# 1 0.017708 0.008197 -0.008311 0.000000 0.000000 0.000000
# 2 0.008197 0.035567 -0.004021 0.000000 0.000000 0.000000
# 3 -0.008311 -0.004021 0.008936 0.000000 0.000000 0.000000
# 4 0.000000 0.000000 0.000000 -0.085498 0.000000 0.000000
# 5 0.000000 0.000000 0.000000 0.000000 29.525691 0.000000
# 6 0.000000 0.000000 0.000000 0.000000 0.000000 -0.019343
#
#
# Mechanical properties :
#
#
# Convention : Reuss Voigt Hill
#
# Bulk Modulus (GPa) = 18.53839 55.11593 36.82716
# Shear Modulus (GPa) = 0.16944 4.45039 2.30991
#
# Velocity S-wave (km/s) = 0.28611 1.46632 1.05640
# Velocity P-wave (km/s) = 3.01091 5.43092 4.39093
#
# Compressibility (1/GPa) = 0.05394212
#
# Stress axis : x y z
#
# Youngs Moduli (GPa) = 56.47164 28.11560 111.90372
#
# Poissons Ratio (x) = -0.23046 0.92999
# Poissons Ratio (y) = -0.46290 0.44999
# Poissons Ratio (z) = 0.46931 0.11306
#
# Static dielectric constant tensor:
#      x y z
#    x 1.698240 0.000000 0.000000 
#    y 0.000000 1.771270 0.000000 
#    z 0.000000 0.000000 1.754910 
# 
# From -- ./inp_files/10291.got.cif
#   From: 2010.05.17/outbox.cif.g08.bks.cpg/sg47_6_cif.got.tgz:10291.got - 2010.06.03 20:15:42.
