data_PCOD9383110
_publ_section_title
;
Structure prediction by ZEFSAII (Michael W. Deem and Ramdas Pophale) SiO2 
 PCOD9383110
Probable space group: P M M M
;
_chemical_formula_sum "Si O2"
_cell_formula_units_Z 64
_cell_length_a 18.917052
_cell_length_b 21.088178
_cell_length_c 7.729066
_cell_angle_alpha 90.000000
_cell_angle_beta 90.000000
_cell_angle_gamma 90.000000
_cell_volume 3083.326618
_symmetry_space_group_name_H-M "P M M M"
_symmetry_group_IT_number 47
_symmetry_cell_setting 'orthorhombic'
loop_
_space_group_symop_operation_xyz
x,y,z
-x,-y,z
x,-y,-z
-x,y,-z
-x,-y,-z
x,y,-z
-x,y,z
x,-y,z
loop_
_atom_site_type_symbol
_atom_site_label
_atom_site_fract_x
_atom_site_fract_y
_atom_site_fract_z
Si Si1 0.320448 0.686340 0.700237
Si Si2 0.918480 0.818254 0.787635
Si Si3 0.839654 0.692991 0.203014
Si Si4 0.579412 0.200870 0.202384
Si Si5 0.418740 0.572348 0.288766
Si Si6 0.917975 0.570401 0.788883
Si Si7 0.348801 0.928248 0.704266
Si Si8 0.186130 0.928370 0.790627
O O1 0.306379 0.672342 0.500000
O O2 0.244368 0.697177 0.783043
O O3 0.367404 0.749542 0.712473
O O4 0.365372 0.626801 0.772209
O O5 0.879885 0.754346 0.726040
O O6 0.871254 0.877759 0.731201
O O7 0.000000 0.821199 0.733891
O O8 0.918058 0.818666 0.000000
O O9 0.869160 0.627045 0.275782
O O10 0.857808 0.692250 0.000000
O O11 0.500000 0.207173 0.272467
O O12 0.605754 0.128694 0.219395
O O13 0.578578 0.216993 0.000000
O O14 0.418671 0.573804 0.500000
O O15 0.500000 0.585175 0.235270
O O16 0.400559 0.500000 0.237434
O O17 0.897585 0.500000 0.729024
O O18 0.000000 0.581823 0.743510
O O19 0.915065 0.569005 0.000000
O O20 0.362599 0.929336 0.500000
O O21 0.265905 0.913590 0.732851
O O22 0.361571 0.000000 0.772521
O O23 0.169720 0.000000 0.733655
O O24 0.186772 0.927580 0.000000
#
# Coordination Sequence:
#
# PCOD9383110 Si02
#       8
#     8   8   8   8   8   8   8   8
#     4  11  22  35  54  79 107 140 177 217 261 314
#     4   9  17  29  47  71  96 125 167 216 259 300
#     4  10  19  31  49  72  99 132 170 215 265 313
#     4  11  24  40  58  80 107 139 175 218 266 313
#     4   8  15  30  52  76 101 131 169 211 254 303
#     4   8  14  26  46  72 100 132 174 222 268 314
#     4  10  21  37  58  83 111 143 177 213 254 306
#     4   9  17  30  50  75 103 135 169 208 256 307
#
# _framework density 20.756802
#
# number of rings (size 3 to 8) (size 9 to 14) (size 15 to 20)
#    0.000    2.500    0.000    3.375    0.000    5.750 
#    0.000    2.500    0.000    3.750    0.000    7.000 
#    0.000    0.000    0.000    0.000    0.000    0.000 
#
# Total GULP energy -357314.960734 kJ/mol
# GULP energy per Si atom -5583.046261 kJ/mol
# Density = 2.070956 g / cm^3
# Si number density = 20.756802 Si / 1000 Ang^3
#
#
#
# Elastic Constant Matrix: (Units=GPa)
#
#
# Indices 1 2 3 4 5 6 
#
# 1 70.9006 54.3043 -12.3653 0.0000 0.0000 0.0000
# 2 54.3043 101.6254 -5.1993 0.0000 0.0000 0.0000
# 3 -12.3653 -5.1993 30.6117 0.0000 0.0000 0.0000
# 4 0.0000 0.0000 0.0000 -19.5124 0.0000 0.0000
# 5 0.0000 0.0000 0.0000 0.0000-1710.7525 0.0000
# 6 0.0000 0.0000 0.0000 0.0000 0.0000 45.5285
#
#
#
# Elastic Compliance Matrix: (Units=1/GPa)
#
#
# Indices 1 2 3 4 5 6 
#
# 1 0.025737 -0.013337 0.008131 0.000000 0.000000 0.000000
# 2 -0.013337 0.016837 -0.002528 0.000000 0.000000 0.000000
# 3 0.008131 -0.002528 0.035522 0.000000 0.000000 0.000000
# 4 0.000000 0.000000 0.000000 -0.051250 0.000000 0.000000
# 5 0.000000 0.000000 0.000000 0.000000 -0.000585 0.000000
# 6 0.000000 0.000000 0.000000 0.000000 0.000000 0.021964
#
#
# Mechanical properties :
#
#
# Convention : Reuss Voigt Hill
#
# Bulk Modulus (GPa) = 15.96663 30.73522 23.35093
# Shear Modulus (GPa) = 59.12176 -325.85407 -133.36615
#
# Velocity S-wave (km/s) = 5.34274 -12.54302 -8.02442
# Velocity P-wave (km/s) = 6.76527 13.96175 8.63602
#
# Compressibility (1/GPa) = 0.06263061
#
# Stress axis : x y z
#
# Youngs Moduli (GPa) = 38.85385 59.39138 28.15120
#
# Poissons Ratio (x) = 0.79210 -0.22890
# Poissons Ratio (y) = 0.51819 0.07115
# Poissons Ratio (z) = -0.31593 0.15012
#
# Static dielectric constant tensor:
#      x y z
#    x 1.696660 0.000000 0.000000 
#    y 0.000000 1.747170 0.000000 
#    z 0.000000 0.000000 1.765540 
# 
# From -- ./inp_files/9905.got.cif
#   From: 2010.05.17/outbox.cif.g08.bks.cpg/sg47_5_cif.got.tgz:9905.got - 2010.06.03 20:15:42.
