data_PCOD9383998
_publ_section_title
;
Structure prediction by ZEFSAII (Michael W. Deem and Ramdas Pophale) SiO2 
 PCOD9383998
Probable space group: P M M M
;
_chemical_formula_sum "Si O2"
_cell_formula_units_Z 52
_cell_length_a 7.603156
_cell_length_b 14.499695
_cell_length_c 22.235480
_cell_angle_alpha 90.000000
_cell_angle_beta 90.000000
_cell_angle_gamma 90.000000
_cell_volume 2451.315873
_symmetry_space_group_name_H-M "P M M M"
_symmetry_group_IT_number 47
_symmetry_cell_setting 'orthorhombic'
loop_
_space_group_symop_operation_xyz
x,y,z
-x,-y,z
x,-y,-z
-x,y,-z
-x,-y,-z
x,y,-z
-x,y,z
x,-y,z
loop_
_atom_site_type_symbol
_atom_site_label
_atom_site_fract_x
_atom_site_fract_y
_atom_site_fract_z
Si Si1 0.292864 0.709584 0.122694
Si Si2 0.211371 0.606009 0.000000
Si Si3 0.291610 0.601880 0.571187
Si Si4 0.785264 0.107909 0.432878
Si Si5 0.285141 0.103676 0.930187
Si Si6 0.709014 0.395498 0.761477
Si Si7 0.193410 0.749738 0.659370
O O1 0.500000 0.721029 0.135958
O O2 0.275203 0.656754 0.059767
O O3 0.221269 0.812606 0.111179
O O4 0.217859 0.647886 0.176608
O O5 0.269896 0.500000 0.000000
O O6 0.000000 0.608254 0.000000
O O7 0.268717 0.604096 0.500000
O O8 0.500000 0.614440 0.583740
O O9 0.242727 0.500000 0.593124
O O10 0.186077 0.680066 0.603337
O O11 0.728553 0.141421 0.500000
O O12 0.718796 0.163293 0.374350
O O13 0.000000 0.114893 0.432092
O O14 0.740943 0.000000 0.429180
O O15 0.500000 0.105114 0.929718
O O16 0.230743 0.000000 0.913078
O O17 0.233476 0.119502 0.000000
O O18 0.500000 0.406245 0.768259
O O19 0.777326 0.500000 0.748801
O O20 0.731865 0.316662 0.710927
O O21 0.000000 0.778498 0.680344
#
# Coordination Sequence:
#
# PCOD9383998 Si02
#       7
#     8   4   8   8   8   8   8
#     4  10  19  35  58  79  99 134 183 222 250 303
#     4  11  23  35  50  77 110 136 161 211 282 333
#     4   9  18  32  49  70  99 134 167 202 251 307
#     4   8  15  30  52  77 104 133 167 210 261 315
#     4   8  13  24  48  82 110 127 152 200 258 306
#     4  10  22  38  53  71 101 142 183 220 260 308
#     4  11  21  32  51  77 101 131 173 217 257 303
#
# _framework density 21.213097000000001
#
# number of rings (size 3 to 8) (size 9 to 14) (size 15 to 20)
#    0.000    2.538    0.769    3.462    0.000    5.231 
#    0.000    1.538    0.000    3.692    0.000    5.385 
#    0.000    0.000    0.000    0.000    0.000    0.000 
#
# Total GULP energy -289876.719187 kJ/mol
# GULP energy per Si atom -5574.552292 kJ/mol
# Density = 2.116482 g / cm^3
# Si number density = 21.213097 Si / 1000 Ang^3
#
#
#
# Elastic Constant Matrix: (Units=GPa)
#
#
# Indices 1 2 3 4 5 6 
#
# 1 35.5241 4.4352 4.2475 0.0000 0.0000 0.0000
# 2 4.4352 143.6265 75.6063 0.0000 0.0000 0.0000
# 3 4.2475 75.6063 111.6274 0.0000 0.0000 0.0000
# 4 0.0000 0.0000 0.0000 22.0127 0.0000 0.0000
# 5 0.0000 0.0000 0.0000 0.0000 19.5469 0.0000
# 6 0.0000 0.0000 0.0000 0.0000 0.0000 8.2138
#
#
#
# Elastic Compliance Matrix: (Units=1/GPa)
#
#
# Indices 1 2 3 4 5 6 
#
# 1 0.028300 -0.000477 -0.000754 0.000000 0.000000 0.000000
# 2 -0.000477 0.010828 -0.007316 0.000000 0.000000 0.000000
# 3 -0.000754 -0.007316 0.013942 0.000000 0.000000 0.000000
# 4 0.000000 0.000000 0.000000 0.045428 0.000000 0.000000
# 5 0.000000 0.000000 0.000000 0.000000 0.051159 0.000000
# 6 0.000000 0.000000 0.000000 0.000000 0.000000 0.121747
#
#
# Mechanical properties :
#
#
# Convention : Reuss Voigt Hill
#
# Bulk Modulus (GPa) = 27.79585 51.03957 39.41771
# Shear Modulus (GPa) = 16.63945 23.72059 20.18002
#
# Velocity S-wave (km/s) = 2.80374 3.34758 3.08766
# Velocity P-wave (km/s) = 4.85931 6.24935 5.59765
#
# Compressibility (1/GPa) = 0.03597660
#
# Stress axis : x y z
#
# Youngs Moduli (GPa) = 35.33621 92.34901 71.72417
#
# Poissons Ratio (x) = 0.04407 0.05405
# Poissons Ratio (y) = 0.01686 0.52474
# Poissons Ratio (z) = 0.02663 0.67563
#
# Static dielectric constant tensor:
#      x y z
#    x 1.837080 0.000000 0.000000 
#    y 0.000000 1.825840 0.000000 
#    z 0.000000 0.000000 1.765430 
# 
# From -- ./inp_files/29561.got.cif
#   From: 2010.05.17/outbox.cif.g08.bks.cpg/sg47_15_cif.got.tgz:29561.got - 2010.06.03 20:15:42.
