data_PCOD9383932
_publ_section_title
;
Structure prediction by ZEFSAII (Michael W. Deem and Ramdas Pophale) SiO2 
 PCOD9383932
Probable space group: P M M M
;
_chemical_formula_sum "Si O2"
_cell_formula_units_Z 56
_cell_length_a 20.885648
_cell_length_b 8.251082
_cell_length_c 15.986837
_cell_angle_alpha 90.000000
_cell_angle_beta 90.000000
_cell_angle_gamma 90.000000
_cell_volume 2754.998739
_symmetry_space_group_name_H-M "P M M M"
_symmetry_group_IT_number 47
_symmetry_cell_setting 'orthorhombic'
loop_
_space_group_symop_operation_xyz
x,y,z
-x,-y,z
x,-y,-z
-x,y,-z
-x,-y,-z
x,y,-z
-x,y,z
x,-y,z
loop_
_atom_site_type_symbol
_atom_site_label
_atom_site_fract_x
_atom_site_fract_y
_atom_site_fract_z
Si Si1 0.929295 0.304891 0.730491
Si Si2 0.829987 0.809076 0.407841
Si Si3 0.120054 0.302322 0.090973
Si Si4 0.735291 0.307239 0.868011
Si Si5 0.599017 0.190766 0.089544
Si Si6 0.429837 0.196039 0.724160
Si Si7 0.706086 0.309794 0.326622
O O1 0.930243 0.500000 0.734961
O O2 0.874420 0.260930 0.665038
O O3 0.914090 0.245174 0.824579
O O4 0.000000 0.248394 0.704272
O O5 0.844999 0.741105 0.500000
O O6 0.755606 0.778598 0.386709
O O7 0.841269 0.000000 0.409069
O O8 0.116791 0.500000 0.091690
O O9 0.195138 0.260135 0.099431
O O10 0.095618 0.248381 0.000000
O O11 0.726479 0.500000 0.883926
O O12 0.675537 0.213703 0.906252
O O13 0.731236 0.281952 0.768239
O O14 0.575278 0.256073 0.178956
O O15 0.583090 0.000000 0.089318
O O16 0.576822 0.259519 0.000000
O O17 0.500000 0.242408 0.691446
O O18 0.367858 0.256693 0.674752
O O19 0.426284 0.000000 0.726399
O O20 0.709942 0.500000 0.343720
#
# Coordination Sequence:
#
# PCOD9383932 Si02
#       7
#     8   8   8   8   8   8   8
#     4  10  21  38  59  85 119 155 192 235 282 331
#     4  11  24  41  63  89 115 145 183 229 285 350
#     4   9  16  28  49  78 112 149 190 233 276 325
#     4   9  16  28  47  70 100 139 181 228 281 330
#     4   9  17  27  40  64  99 138 185 237 281 324
#     4   9  18  32  50  74 108 151 192 229 277 336
#     4  10  19  34  58  84 111 142 182 233 282 332
#
# _framework density 20.326688000000001
#
# number of rings (size 3 to 8) (size 9 to 14) (size 15 to 20)
#    0.000    2.429    1.429    1.286    0.000    4.000 
#    0.000    4.286    0.000    0.857    0.000    8.000 
#    0.000    0.000    0.000    0.000    0.000    0.000 
#
# Total GULP energy -312387.905989 kJ/mol
# GULP energy per Si atom -5578.355464 kJ/mol
# Density = 2.028042 g / cm^3
# Si number density = 20.326688 Si / 1000 Ang^3
#
#
#
# Elastic Constant Matrix: (Units=GPa)
#
#
# Indices 1 2 3 4 5 6 
#
# 1 108.6936 4.0696 47.0574 0.0000 0.0000 0.0000
# 2 4.0696 6.3642 15.4441 0.0000 0.0000 0.0000
# 3 47.0574 15.4441 88.5583 0.0000 0.0000 0.0000
# 4 0.0000 0.0000 0.0000 11.1504 0.0000 0.0000
# 5 0.0000 0.0000 0.0000 0.0000 -17.0095 0.0000
# 6 0.0000 0.0000 0.0000 0.0000 0.0000 21.4282
#
#
#
# Elastic Compliance Matrix: (Units=1/GPa)
#
#
# Indices 1 2 3 4 5 6 
#
# 1 0.012654 0.014261 -0.009211 0.000000 0.000000 0.000000
# 2 0.014261 0.288486 -0.057888 0.000000 0.000000 0.000000
# 3 -0.009211 -0.057888 0.026282 0.000000 0.000000 0.000000
# 4 0.000000 0.000000 0.000000 0.089683 0.000000 0.000000
# 5 0.000000 0.000000 0.000000 0.000000 -0.058791 0.000000
# 6 0.000000 0.000000 0.000000 0.000000 0.000000 0.046667
#
#
# Mechanical properties :
#
#
# Convention : Reuss Voigt Hill
#
# Bulk Modulus (GPa) = 4.50968 37.41761 20.96365
# Shear Modulus (GPa) = 8.55324 12.25015 10.40169
#
# Velocity S-wave (km/s) = 2.05354 2.45758 2.26459
# Velocity P-wave (km/s) = 2.80109 5.14792 4.14410
#
# Compressibility (1/GPa) = 0.22174500
#
# Stress axis : x y z
#
# Youngs Moduli (GPa) = 79.02646 3.46637 38.04911
#
# Poissons Ratio (x) = -0.04943 0.35047
# Poissons Ratio (y) = -1.12696 2.20259
# Poissons Ratio (z) = 0.72791 0.20066
#
# Static dielectric constant tensor:
#      x y z
#    x 1.714850 0.000000 0.000000 
#    y 0.000000 1.715780 0.000000 
#    z 0.000000 0.000000 1.753130 
# 
# From -- ./inp_files/7257.got.cif
#   From: 2010.05.17/outbox.cif.g08.bks.cpg/sg47_4_cif.got.tgz:7257.got - 2010.06.03 20:15:42.
