data_PCOD9383002
_publ_section_title
;
Structure prediction by ZEFSAII (Michael W. Deem and Ramdas Pophale) SiO2 
 PCOD9383002
Probable space group: P M M M
;
_chemical_formula_sum "Si O2"
_cell_formula_units_Z 64
_cell_length_a 13.812535
_cell_length_b 18.578225
_cell_length_c 14.776231
_cell_angle_alpha 90.000000
_cell_angle_beta 90.000000
_cell_angle_gamma 90.000000
_cell_volume 3791.763849
_symmetry_space_group_name_H-M "P M M M"
_symmetry_group_IT_number 47
_symmetry_cell_setting 'orthorhombic'
loop_
_space_group_symop_operation_xyz
x,y,z
-x,-y,z
x,-y,-z
-x,y,-z
-x,-y,-z
x,y,-z
-x,y,z
x,-y,z
loop_
_atom_site_type_symbol
_atom_site_label
_atom_site_fract_x
_atom_site_fract_y
_atom_site_fract_z
Si Si1 0.225504 0.226828 0.603715
Si Si2 0.614076 0.809369 0.253719
Si Si3 0.756038 0.919693 0.172350
Si Si4 0.207333 0.414468 0.103970
Si Si5 0.887448 0.688141 0.752318
Si Si6 0.115713 0.080833 0.352269
Si Si7 0.388194 0.687876 0.101842
Si Si8 0.890770 0.190199 0.096944
O O1 0.239773 0.248319 0.500000
O O2 0.324794 0.209699 0.656977
O O3 0.171875 0.287796 0.663825
O O4 0.163000 0.152208 0.604789
O O5 0.500000 0.816140 0.269915
O O6 0.661604 0.880990 0.211947
O O7 0.630205 0.746925 0.178808
O O8 0.834890 0.921296 0.253722
O O9 0.808946 0.869425 0.100942
O O10 0.736755 0.000000 0.141250
O O11 0.212687 0.500000 0.115111
O O12 0.147368 0.378026 0.185352
O O13 0.312397 0.376667 0.109721
O O14 0.171132 0.401031 0.000000
O O15 0.876842 0.755847 0.820643
O O16 0.000000 0.679825 0.729293
O O17 0.000000 0.089844 0.347981
O O18 0.134227 0.000000 0.391811
O O19 0.500000 0.664255 0.110236
O O20 0.376538 0.718906 0.000000
O O21 0.000000 0.159820 0.104094
O O22 0.885125 0.228886 0.000000
#
# Coordination Sequence:
#
# PCOD9383002 Si02
#       8
#     8   8   8   8   8   8   8   8
#     4  11  22  36  55  80 105 135 180 229 276 324
#     4  10  20  36  56  78 104 138 177 220 270 320
#     4  10  19  31  47  70 104 143 178 217 262 314
#     4  10  20  34  55  85 119 150 178 210 255 317
#     4  11  21  36  54  77 110 144 178 219 264 313
#     4   9  17  31  51  74 102 134 170 218 275 327
#     4   9  17  32  57  85 110 138 175 218 264 316
#     4  10  19  31  51  77 104 139 180 219 264 318
#
# _framework density 16.878688
#
# number of rings (size 3 to 8) (size 9 to 14) (size 15 to 20)
#    0.000    2.000    3.750    1.125    0.000    5.500 
#    0.000    3.125    0.000    0.375    0.000    7.000 
#    0.000    2.000    0.000    0.000    0.000    0.000 
#
# Total GULP energy -356709.572821 kJ/mol
# GULP energy per Si atom -5573.587075 kJ/mol
# Density = 1.684027 g / cm^3
# Si number density = 16.878688 Si / 1000 Ang^3
#
#
#
# Elastic Constant Matrix: (Units=GPa)
#
#
# Indices 1 2 3 4 5 6 
#
# 1 110.1498 42.2118 43.1461 0.0000 0.0000 0.0000
# 2 42.2118 83.0641 31.9074 0.0000 0.0000 0.0000
# 3 43.1461 31.9074 96.0339 0.0000 0.0000 0.0000
# 4 0.0000 0.0000 0.0000 6.8630 0.0000 0.0000
# 5 0.0000 0.0000 0.0000 0.0000 -1.1598 0.0000
# 6 0.0000 0.0000 0.0000 0.0000 0.0000 12.2011
#
#
#
# Elastic Compliance Matrix: (Units=1/GPa)
#
#
# Indices 1 2 3 4 5 6 
#
# 1 0.012494 -0.004806 -0.004016 0.000000 0.000000 0.000000
# 2 -0.004806 0.015649 -0.003040 0.000000 0.000000 0.000000
# 3 -0.004016 -0.003040 0.013227 0.000000 0.000000 0.000000
# 4 0.000000 0.000000 0.000000 0.145709 0.000000 0.000000
# 5 0.000000 0.000000 0.000000 0.000000 -0.862202 0.000000
# 6 0.000000 0.000000 0.000000 0.000000 0.000000 0.081960
#
#
# Mechanical properties :
#
#
# Convention : Reuss Voigt Hill
#
# Bulk Modulus (GPa) = 56.67318 58.19759 57.43538
# Shear Modulus (GPa) = -8.87224 15.04636 3.08706
#
# Velocity S-wave (km/s) = -2.29519 2.98894 1.35386
# Velocity P-wave (km/s) = 5.16002 6.81663 6.04534
#
# Compressibility (1/GPa) = 0.01764503
#
# Stress axis : x y z
#
# Youngs Moduli (GPa) = 80.04104 63.90119 75.60027
#
# Poissons Ratio (x) = 0.30713 0.30363
# Poissons Ratio (y) = 0.38470 0.22983
# Poissons Ratio (z) = 0.32146 0.19426
#
# Static dielectric constant tensor:
#      x y z
#    x 1.577660 0.000000 0.000000 
#    y 0.000000 1.573940 0.000000 
#    z 0.000000 0.000000 1.584770 
# 
# From -- ./inp_files/24068.got.cif
#   From: 2010.05.17/outbox.cif.g08.bks.cpg/sg47_13_cif.got.tgz:24068.got - 2010.06.03 20:15:42.
