data_PCOD9383226
_publ_section_title
;
Structure prediction by ZEFSAII (Michael W. Deem and Ramdas Pophale) SiO2 
 PCOD9383226
Probable space group: P M M M
;
_chemical_formula_sum "Si O2"
_cell_formula_units_Z 44
_cell_length_a 17.689471
_cell_length_b 15.898081
_cell_length_c 8.599425
_cell_angle_alpha 90.000000
_cell_angle_beta 90.000000
_cell_angle_gamma 90.000000
_cell_volume 2418.404622
_symmetry_space_group_name_H-M "P M M M"
_symmetry_group_IT_number 47
_symmetry_cell_setting 'orthorhombic'
loop_
_space_group_symop_operation_xyz
x,y,z
-x,-y,z
x,-y,-z
-x,y,-z
-x,-y,-z
x,y,-z
-x,y,z
x,-y,z
loop_
_atom_site_type_symbol
_atom_site_label
_atom_site_fract_x
_atom_site_fract_y
_atom_site_fract_z
Si Si1 0.299893 0.910556 0.816329
Si Si2 0.585709 0.597627 0.687443
Si Si3 0.874007 0.271196 0.314020
Si Si4 0.704639 0.728869 0.186727
Si Si5 0.000000 0.596906 0.689761
Si Si6 0.883464 0.092381 0.182549
O O1 0.324445 0.820324 0.753373
O O2 0.208302 0.908971 0.807412
O O3 0.325483 0.000000 0.747242
O O4 0.318835 0.912204 0.000000
O O5 0.589737 0.602669 0.500000
O O6 0.500000 0.621250 0.734009
O O7 0.597368 0.500000 0.730314
O O8 0.648622 0.656718 0.759580
O O9 0.870296 0.271702 0.500000
O O10 0.789816 0.282450 0.247714
O O11 0.905576 0.179559 0.262833
O O12 0.927652 0.347629 0.262309
O O13 0.708026 0.732315 0.000000
O O14 0.000000 0.500000 0.742978
O O15 0.000000 0.594965 0.500000
O O16 0.909069 0.000000 0.241409
O O17 0.903050 0.097038 0.000000
#
# Coordination Sequence:
#
# PCOD9383226 Si02
#       6
#     8   8   8   8   4   8
#     4   7  11  22  41  65  94 128 161 190 225 275
#     4   9  19  36  55  74  99 132 167 204 251 304
#     4  10  19  32  52  75  98 129 172 216 253 294
#     4  10  19  31  51  79 106 131 163 204 250 301
#     4   9  20  38  54  67  90 130 175 215 258 305
#     4   8  14  27  47  70  99 132 161 196 248 304
#
# _framework density 18.193812000000001
#
# number of rings (size 3 to 8) (size 9 to 14) (size 15 to 20)
#    0.000    3.182    0.000    3.818    0.000    1.818 
#    0.000    5.000    0.000    8.727    0.000    3.818 
#    0.000    0.000    0.000    0.000    0.000    0.000 
#
# Total GULP energy -244988.538975 kJ/mol
# GULP energy per Si atom -5567.921340 kJ/mol
# Density = 1.815240 g / cm^3
# Si number density = 18.193812 Si / 1000 Ang^3
#
#
#
# Elastic Constant Matrix: (Units=GPa)
#
#
# Indices 1 2 3 4 5 6 
#
# 1 85.1031 86.2097 25.3408 0.0000 0.0000 0.0000
# 2 86.2097 188.7330 39.7729 0.0000 0.0000 0.0000
# 3 25.3408 39.7729 27.9446 0.0000 0.0000 0.0000
# 4 0.0000 0.0000 0.0000 28.2361 0.0000 0.0000
# 5 0.0000 0.0000 0.0000 0.0000 -46.4688 0.0000
# 6 0.0000 0.0000 0.0000 0.0000 0.0000 -147.1857
#
#
#
# Elastic Compliance Matrix: (Units=1/GPa)
#
#
# Indices 1 2 3 4 5 6 
#
# 1 0.023205 -0.008807 -0.008509 0.000000 0.000000 0.000000
# 2 -0.008807 0.010911 -0.007543 0.000000 0.000000 0.000000
# 3 -0.008509 -0.007543 0.054237 0.000000 0.000000 0.000000
# 4 0.000000 0.000000 0.000000 0.035416 0.000000 0.000000
# 5 0.000000 0.000000 0.000000 0.000000 -0.021520 0.000000
# 6 0.000000 0.000000 0.000000 0.000000 0.000000 -0.006794
#
#
# Mechanical properties :
#
#
# Convention : Reuss Voigt Hill
#
# Bulk Modulus (GPa) = 25.88260 67.15864 46.52062
# Shear Modulus (GPa) = 31.63557 -23.05320 4.29119
#
# Velocity S-wave (km/s) = 4.17443 -3.56348 1.53744
# Velocity P-wave (km/s) = 6.12302 4.47904 5.36438
#
# Compressibility (1/GPa) = 0.03863600
#
# Stress axis : x y z
#
# Youngs Moduli (GPa) = 43.09388 91.65262 18.43765
#
# Poissons Ratio (x) = 0.80715 0.15688
# Poissons Ratio (y) = 0.37951 0.13908
# Poissons Ratio (z) = 0.36668 0.69134
#
# Static dielectric constant tensor:
#      x y z
#    x 1.611500 0.000000 0.000000 
#    y 0.000000 1.670890 0.000000 
#    z 0.000000 0.000000 1.621470 
# 
# From -- ./inp_files/8990.got.cif
#   From: 2010.05.17/outbox.cif.g08.bks.cpg/sg47_5_cif.got.tgz:8990.got - 2010.06.03 20:15:42.
