data_PCOD9383472
_publ_section_title
;
Structure prediction by ZEFSAII (Michael W. Deem and Ramdas Pophale) SiO2 
 PCOD9383472
Probable space group: P M M M
;
_chemical_formula_sum "Si O2"
_cell_formula_units_Z 48
_cell_length_a 7.460396
_cell_length_b 34.926338
_cell_length_c 8.290778
_cell_angle_alpha 90.000000
_cell_angle_beta 90.000000
_cell_angle_gamma 90.000000
_cell_volume 2160.280868
_symmetry_space_group_name_H-M "P M M M"
_symmetry_group_IT_number 47
_symmetry_cell_setting 'orthorhombic'
loop_
_space_group_symop_operation_xyz
x,y,z
-x,-y,z
x,-y,-z
-x,y,-z
-x,-y,-z
x,y,-z
-x,y,z
x,-y,z
loop_
_atom_site_type_symbol
_atom_site_label
_atom_site_fract_x
_atom_site_fract_y
_atom_site_fract_z
Si Si1 0.281140 0.798780 0.500000
Si Si2 0.205443 0.579928 0.807189
Si Si3 0.206585 0.500000 0.308913
Si Si4 0.290013 0.161245 0.175250
Si Si5 0.292542 0.333826 0.183396
Si Si6 0.719347 0.709549 0.500000
Si Si7 0.781371 0.000000 0.186524
Si Si8 0.783208 0.081739 0.681882
O O1 0.500000 0.801957 0.500000
O O2 0.215208 0.818992 0.663832
O O3 0.235600 0.754191 0.500000
O O4 0.287786 0.540427 0.744283
O O5 0.287633 0.621162 0.771150
O O6 0.000000 0.581663 0.746848
O O7 0.204316 0.576825 0.000000
O O8 0.199220 0.500000 0.500000
O O9 0.000000 0.500000 0.242797
O O10 0.500000 0.171440 0.170580
O O11 0.276042 0.115695 0.202107
O O12 0.212771 0.171525 0.000000
O O13 0.500000 0.322220 0.170307
O O14 0.216021 0.310395 0.334384
O O15 0.215661 0.329876 0.000000
O O16 0.500000 0.706271 0.500000
O O17 0.722312 0.039399 0.268586
O O18 0.000000 0.000000 0.193393
O O19 0.729434 0.000000 0.000000
O O20 0.723715 0.090638 0.500000
O O21 0.000000 0.081418 0.684092
#
# Coordination Sequence:
#
# PCOD9383472 Si02
#       8
#     4   8   4   8   8   4   4   8
#     4   9  18  34  53  76 103 128 162 207 249 297
#     4   9  17  30  48  68  93 127 163 198 238 283
#     4   9  17  27  42  67  94 122 161 202 234 273
#     4  10  20  34  54  78 104 135 169 208 255 303
#     4   9  18  32  50  73  99 126 159 199 242 289
#     4   9  18  32  53  76  99 128 160 199 245 293
#     4   9  17  29  46  71 102 135 174 215 249 288
#     4  10  19  32  52  76 103 137 175 212 252 298
#
# _framework density 22.219332999999999
#
# number of rings (size 3 to 8) (size 9 to 14) (size 15 to 20)
#    0.000    2.667    0.833    1.000    1.167    3.667 
#    0.000    4.167    0.000    7.000    0.000    2.333 
#    0.000    0.000    0.000    0.000    0.000    0.000 
#
# Total GULP energy -267858.429724 kJ/mol
# GULP energy per Si atom -5580.383953 kJ/mol
# Density = 2.216876 g / cm^3
# Si number density = 22.219333 Si / 1000 Ang^3
#
#
#
# Elastic Constant Matrix: (Units=GPa)
#
#
# Indices 1 2 3 4 5 6 
#
# 1 64.8495 -3.7068 10.1564 0.0000 0.0000 0.0000
# 2 -3.7068 142.1168 94.0342 0.0000 0.0000 0.0000
# 3 10.1564 94.0342 168.8259 0.0000 0.0000 0.0000
# 4 0.0000 0.0000 0.0000 7.0210 0.0000 0.0000
# 5 0.0000 0.0000 0.0000 0.0000 0.4234 0.0000
# 6 0.0000 0.0000 0.0000 0.0000 0.0000 2.8195
#
#
#
# Elastic Compliance Matrix: (Units=1/GPa)
#
#
# Indices 1 2 3 4 5 6 
#
# 1 0.015807 0.001649 -0.001870 0.000000 0.000000 0.000000
# 2 0.001649 0.011315 -0.006402 0.000000 0.000000 0.000000
# 3 -0.001870 -0.006402 0.009601 0.000000 0.000000 0.000000
# 4 0.000000 0.000000 0.000000 0.142430 0.000000 0.000000
# 5 0.000000 0.000000 0.000000 0.000000 2.361928 0.000000
# 6 0.000000 0.000000 0.000000 0.000000 0.000000 0.354675
#
#
# Mechanical properties :
#
#
# Convention : Reuss Voigt Hill
#
# Bulk Modulus (GPa) = 42.58912 64.08442 53.33677
# Shear Modulus (GPa) = 1.71419 20.40667 11.06043
#
# Velocity S-wave (km/s) = 0.87930 3.03383 2.23353
# Velocity P-wave (km/s) = 4.49890 6.41689 5.54151
#
# Compressibility (1/GPa) = 0.02348018
#
# Stress axis : x y z
#
# Youngs Moduli (GPa) = 63.26146 88.37582 104.15108
#
# Poissons Ratio (x) = -0.14577 0.19473
# Poissons Ratio (y) = -0.10434 0.66675
# Poissons Ratio (z) = 0.11828 0.56576
#
# Static dielectric constant tensor:
#      x y z
#    x 1.882920 0.000000 0.000000 
#    y 0.000000 1.781200 0.000000 
#    z 0.000000 0.000000 1.808440 
# 
# From -- ./inp_files/2859.got.cif
#   From: 2010.05.17/outbox.cif.g08.bks.cpg/sg47_2_cif.got.tgz:2859.got - 2010.06.03 20:15:42.
