data_PCOD9383202
_publ_section_title
;
Structure prediction by ZEFSAII (Michael W. Deem and Ramdas Pophale) SiO2 
 PCOD9383202
Probable space group: P M M M
;
_chemical_formula_sum "Si O2"
_cell_formula_units_Z 52
_cell_length_a 10.246747
_cell_length_b 13.999909
_cell_length_c 22.001590
_cell_angle_alpha 90.000000
_cell_angle_beta 90.000000
_cell_angle_gamma 90.000000
_cell_volume 3156.205653
_symmetry_space_group_name_H-M "P M M M"
_symmetry_group_IT_number 47
_symmetry_cell_setting 'orthorhombic'
loop_
_space_group_symop_operation_xyz
x,y,z
-x,-y,z
x,-y,-z
-x,y,-z
-x,-y,-z
x,y,-z
-x,y,z
x,-y,z
loop_
_atom_site_type_symbol
_atom_site_label
_atom_site_fract_x
_atom_site_fract_y
_atom_site_fract_z
Si Si1 0.154898 0.232763 0.118029
Si Si2 0.500000 0.886054 0.427907
Si Si3 0.652282 0.612842 0.834665
Si Si4 0.655866 0.389593 0.689989
Si Si5 0.000000 0.112981 0.573040
Si Si6 0.158146 0.890432 0.000000
Si Si7 0.250130 0.800491 0.361774
Si Si8 0.152839 0.111598 0.240571
O O1 0.247201 0.323827 0.127409
O O2 0.193452 0.169106 0.060005
O O3 0.171114 0.169044 0.178528
O O4 0.000000 0.257135 0.112827
O O5 0.500000 0.868674 0.500000
O O6 0.374495 0.840027 0.396977
O O7 0.500000 0.000000 0.418389
O O8 0.500000 0.638860 0.845201
O O9 0.666096 0.500000 0.847293
O O10 0.678426 0.625650 0.762269
O O11 0.500000 0.376655 0.680211
O O12 0.687818 0.500000 0.676251
O O13 0.733658 0.312018 0.651156
O O14 0.874650 0.165625 0.600371
O O15 0.000000 0.116712 0.500000
O O16 0.000000 0.000000 0.590774
O O17 0.000000 0.895950 0.000000
O O18 0.206406 0.000000 0.000000
O O19 0.238195 0.848525 0.295401
O O20 0.000000 0.122538 0.258274
O O21 0.177612 0.000000 0.230738
#
# Coordination Sequence:
#
# PCOD9383202 Si02
#       8
#     8   4   8   8   4   4   8   8
#     4  10  19  32  54  80 108 139 182 229 264 312
#     4  11  24  38  53  79 113 146 183 224 266 321
#     4   9  18  34  54  77 108 143 176 216 273 333
#     4   9  18  35  58  83 110 142 180 225 282 336
#     4  11  24  40  57  77 111 156 185 208 262 339
#     4   9  18  34  54  77 108 152 189 211 258 329
#     4  12  20  35  58  81 108 140 184 229 272 322
#     4  10  19  31  50  79 111 140 173 223 275 320
#
# _framework density 16.475479
#
# number of rings (size 3 to 8) (size 9 to 14) (size 15 to 20)
#    0.000    1.923    3.077    3.231    0.000    3.385 
#    0.000    1.154    0.000    6.923    0.000    0.000 
#    0.000    0.000    0.000    0.000    0.000    0.000 
#
# Total GULP energy -290085.347110 kJ/mol
# GULP energy per Si atom -5578.564367 kJ/mol
# Density = 1.643798 g / cm^3
# Si number density = 16.475479 Si / 1000 Ang^3
#
#
#
# Elastic Constant Matrix: (Units=GPa)
#
#
# Indices 1 2 3 4 5 6 
#
# 1 98.9191 71.9588 56.1711 0.0000 0.0000 0.0000
# 2 71.9588 133.6511 63.2761 0.0000 0.0000 0.0000
# 3 56.1711 63.2761 96.7123 0.0000 0.0000 0.0000
# 4 0.0000 0.0000 0.0000 27.7746 0.0000 0.0000
# 5 0.0000 0.0000 0.0000 0.0000 10.6147 0.0000
# 6 0.0000 0.0000 0.0000 0.0000 0.0000 30.5298
#
#
#
# Elastic Compliance Matrix: (Units=1/GPa)
#
#
# Indices 1 2 3 4 5 6 
#
# 1 0.018919 -0.007220 -0.006264 0.000000 0.000000 0.000000
# 2 -0.007220 0.013596 -0.004702 0.000000 0.000000 0.000000
# 3 -0.006264 -0.004702 0.017054 0.000000 0.000000 0.000000
# 4 0.000000 0.000000 0.000000 0.036004 0.000000 0.000000
# 5 0.000000 0.000000 0.000000 0.000000 0.094209 0.000000
# 6 0.000000 0.000000 0.000000 0.000000 0.000000 0.032755
#
#
# Mechanical properties :
#
#
# Convention : Reuss Voigt Hill
#
# Bulk Modulus (GPa) = 75.77695 79.12163 77.44929
# Shear Modulus (GPa) = 19.73884 22.97557 21.35720
#
# Velocity S-wave (km/s) = 3.46508 3.73839 3.60433
# Velocity P-wave (km/s) = 7.88052 8.17082 8.02698
#
# Compressibility (1/GPa) = 0.01319662
#
# Stress axis : x y z
#
# Youngs Moduli (GPa) = 52.85759 73.55329 58.63621
#
# Poissons Ratio (x) = 0.53108 0.36730
# Poissons Ratio (y) = 0.38165 0.27568
# Poissons Ratio (z) = 0.33110 0.34582
#
# Static dielectric constant tensor:
#      x y z
#    x -8.502020 0.000000 0.000000 
#    y 0.000000 1.544200 0.000000 
#    z 0.000000 0.000000 1.541810 
# 
# From -- ./inp_files/29660.got.cif
#   From: 2010.05.17/outbox.cif.g08.bks.cpg/sg47_15_cif.got.tgz:29660.got - 2010.06.03 20:15:42.
