data_PCOD9383686
_publ_section_title
;
Structure prediction by ZEFSAII (Michael W. Deem and Ramdas Pophale) SiO2 
 PCOD9383686
Probable space group: P M M M
;
_chemical_formula_sum "Si O2"
_cell_formula_units_Z 36
_cell_length_a 12.666788
_cell_length_b 8.901112
_cell_length_c 18.179083
_cell_angle_alpha 90.000000
_cell_angle_beta 90.000000
_cell_angle_gamma 90.000000
_cell_volume 2049.664315
_symmetry_space_group_name_H-M "P M M M"
_symmetry_group_IT_number 47
_symmetry_cell_setting 'orthorhombic'
loop_
_space_group_symop_operation_xyz
x,y,z
-x,-y,z
x,-y,-z
-x,y,-z
-x,-y,-z
x,y,-z
-x,y,z
x,-y,z
loop_
_atom_site_type_symbol
_atom_site_label
_atom_site_fract_x
_atom_site_fract_y
_atom_site_fract_z
Si Si1 0.124145 0.167786 0.852246
Si Si2 0.373422 0.670077 0.500000
Si Si3 0.169263 0.321860 0.699693
Si Si4 0.000000 0.181423 0.588009
Si Si5 0.623672 0.821360 0.346384
Si Si6 0.870696 0.326694 0.000000
O O1 0.130594 0.266531 0.779042
O O2 0.000000 0.151368 0.866765
O O3 0.168281 0.000000 0.839543
O O4 0.167470 0.245102 0.925821
O O5 0.328407 0.500000 0.500000
O O6 0.500000 0.654097 0.500000
O O7 0.348962 0.765973 0.571490
O O8 0.159539 0.500000 0.691361
O O9 0.290855 0.269248 0.699359
O O10 0.100757 0.244325 0.634264
O O11 0.000000 0.221461 0.500000
O O12 0.000000 0.000000 0.592432
O O13 0.500000 0.786961 0.332232
O O14 0.637628 0.000000 0.339528
O O15 0.838734 0.500000 0.000000
O O16 0.000000 0.325564 0.000000
#
# Coordination Sequence:
#
# PCOD9383686 Si02
#       6
#     8   4   8   4   8   4
#     4  10  19  33  53  77 109 145 182 219 265 324
#     4   9  17  31  51  74  99 126 165 221 276 319
#     4  12  24  37  57  81 111 145 183 231 278 324
#     4  11  25  43  59  76 105 148 193 231 272 330
#     4  10  21  37  56  77 103 138 181 227 276 328
#     4   9  17  29  49  77 110 141 176 219 266 319
#
# _framework density 17.563852000000001
#
# number of rings (size 3 to 8) (size 9 to 14) (size 15 to 20)
#    0.000    1.667    1.111    4.333    1.556    5.778 
#    0.000    0.000    0.000    0.000    0.000    0.778 
#    0.000    6.222    0.000    0.000    0.000    0.000 
#
# Total GULP energy -200669.742333 kJ/mol
# GULP energy per Si atom -5574.159509 kJ/mol
# Density = 1.752388 g / cm^3
# Si number density = 17.563852 Si / 1000 Ang^3
#
#
#
# Elastic Constant Matrix: (Units=GPa)
#
#
# Indices 1 2 3 4 5 6 
#
# 1 55.5077 39.3219 28.2969 0.0000 0.0000 0.0000
# 2 39.3219 136.3635 56.3831 0.0000 0.0000 0.0000
# 3 28.2969 56.3831 114.5580 0.0000 0.0000 0.0000
# 4 0.0000 0.0000 0.0000 17.6158 0.0000 0.0000
# 5 0.0000 0.0000 0.0000 0.0000 5.1578 0.0000
# 6 0.0000 0.0000 0.0000 0.0000 0.0000 23.0794
#
#
#
# Elastic Compliance Matrix: (Units=1/GPa)
#
#
# Indices 1 2 3 4 5 6 
#
# 1 0.023485 -0.005491 -0.003098 0.000000 0.000000 0.000000
# 2 -0.005491 0.010491 -0.003807 0.000000 0.000000 0.000000
# 3 -0.003098 -0.003807 0.011368 0.000000 0.000000 0.000000
# 4 0.000000 0.000000 0.000000 0.056767 0.000000 0.000000
# 5 0.000000 0.000000 0.000000 0.000000 0.193882 0.000000
# 6 0.000000 0.000000 0.000000 0.000000 0.000000 0.043329
#
#
# Mechanical properties :
#
#
# Convention : Reuss Voigt Hill
#
# Bulk Modulus (GPa) = 48.65923 61.60366 55.13145
# Shear Modulus (GPa) = 13.47833 21.33241 17.40537
#
# Velocity S-wave (km/s) = 2.77319 3.48884 3.15139
# Velocity P-wave (km/s) = 6.16591 7.16796 6.68573
#
# Compressibility (1/GPa) = 0.02055108
#
# Stress axis : x y z
#
# Youngs Moduli (GPa) = 42.58052 95.32106 87.96391
#
# Poissons Ratio (x) = 0.52341 0.27255
# Poissons Ratio (y) = 0.23381 0.33488
# Poissons Ratio (z) = 0.13193 0.36289
#
# Static dielectric constant tensor:
#      x y z
#    x 1.619710 0.000000 0.000000 
#    y 0.000000 1.611130 0.000000 
#    z 0.000000 0.000000 1.195940 
# 
# From -- ./inp_files/23289.got.cif
#   From: 2010.05.17/outbox.cif.g08.bks.cpg/sg47_12_cif.got.tgz:23289.got - 2010.06.03 20:15:42.
