data_PCOD9383248
_publ_section_title
;
Structure prediction by ZEFSAII (Michael W. Deem and Ramdas Pophale) SiO2 
 PCOD9383248
Probable space group: P M M M
;
_chemical_formula_sum "Si O2"
_cell_formula_units_Z 52
_cell_length_a 19.731644
_cell_length_b 16.245515
_cell_length_c 7.556985
_cell_angle_alpha 90.000000
_cell_angle_beta 90.000000
_cell_angle_gamma 90.000000
_cell_volume 2422.396972
_symmetry_space_group_name_H-M "P M M M"
_symmetry_group_IT_number 47
_symmetry_cell_setting 'orthorhombic'
loop_
_space_group_symop_operation_xyz
x,y,z
-x,-y,z
x,-y,-z
-x,y,-z
-x,-y,-z
x,y,-z
-x,y,z
x,-y,z
loop_
_atom_site_type_symbol
_atom_site_label
_atom_site_fract_x
_atom_site_fract_y
_atom_site_fract_z
Si Si1 0.578870 0.000000 0.217330
Si Si2 0.830812 0.089021 0.710702
Si Si3 0.157560 0.406373 0.783316
Si Si4 0.923965 0.246654 0.211861
Si Si5 0.426255 0.403232 0.286902
Si Si6 0.290799 0.684798 0.202431
Si Si7 0.318107 0.862451 0.205232
O O1 0.622695 0.079258 0.277691
O O2 0.500000 0.000000 0.270278
O O3 0.580210 0.000000 0.000000
O O4 0.823103 0.088440 0.500000
O O5 0.875300 0.169007 0.753573
O O6 0.755339 0.095421 0.788265
O O7 0.860817 0.000000 0.765292
O O8 0.144540 0.500000 0.723566
O O9 0.106860 0.333748 0.725419
O O10 0.231740 0.373580 0.725384
O O11 0.156004 0.409472 0.000000
O O12 0.000000 0.232777 0.280139
O O13 0.927449 0.253610 0.000000
O O14 0.421792 0.395108 0.500000
O O15 0.500000 0.370484 0.231221
O O16 0.424500 0.500000 0.246266
O O17 0.362004 0.360642 0.204254
O O18 0.304234 0.773200 0.289092
O O19 0.268439 0.701796 0.000000
O O20 0.337272 0.848488 0.000000
#
# Coordination Sequence:
#
# PCOD9383248 Si02
#       7
#     4   8   8   8   8   8   8
#     4   9  18  32  53  83 114 145 182 227 279 330
#     4  11  23  38  59  85 114 148 185 228 281 338
#     4   9  17  31  53  83 117 147 180 228 281 330
#     4  10  21  38  60  86 116 150 189 230 275 333
#     4   9  19  35  51  69 100 142 183 223 270 325
#     4  10  19  31  52  81 108 137 179 232 281 324
#     4  10  19  34  58  82 108 145 185 227 270 327
#
# _framework density 21.466341
#
# number of rings (size 3 to 8) (size 9 to 14) (size 15 to 20)
#    0.000    2.231    2.308    1.385    0.000    4.308 
#    0.000    5.385    0.000    1.385    0.000    1.077 
#    0.000    0.000    0.000    0.000    0.000    0.000 
#
# Total GULP energy -290113.721324 kJ/mol
# GULP energy per Si atom -5579.110025 kJ/mol
# Density = 2.141748 g / cm^3
# Si number density = 21.466341 Si / 1000 Ang^3
#
#
#
# Elastic Constant Matrix: (Units=GPa)
#
#
# Indices 1 2 3 4 5 6 
#
# 1 138.0690 69.5396 -4.3891 0.0000 0.0000 0.0000
# 2 69.5396 165.2552 4.4992 0.0000 0.0000 0.0000
# 3 -4.3891 4.4992 48.8875 0.0000 0.0000 0.0000
# 4 0.0000 0.0000 0.0000 2.7125 0.0000 0.0000
# 5 0.0000 0.0000 0.0000 0.0000 321.2017 0.0000
# 6 0.0000 0.0000 0.0000 0.0000 0.0000 -18.2476
#
#
#
# Elastic Compliance Matrix: (Units=1/GPa)
#
#
# Indices 1 2 3 4 5 6 
#
# 1 0.009259 -0.003929 0.001193 0.000000 0.000000 0.000000
# 2 -0.003929 0.007734 -0.001064 0.000000 0.000000 0.000000
# 3 0.001193 -0.001064 0.020660 0.000000 0.000000 0.000000
# 4 0.000000 0.000000 0.000000 0.368670 0.000000 0.000000
# 5 0.000000 0.000000 0.000000 0.000000 0.003113 0.000000
# 6 0.000000 0.000000 0.000000 0.000000 0.000000 -0.054802
#
#
# Mechanical properties :
#
#
# Convention : Reuss Voigt Hill
#
# Bulk Modulus (GPa) = 33.27534 54.61234 43.94384
# Shear Modulus (GPa) = 13.43173 79.97076 46.70125
#
# Velocity S-wave (km/s) = 2.50414 6.11023 4.66935
# Velocity P-wave (km/s) = 4.88833 8.67618 7.04172
#
# Compressibility (1/GPa) = 0.03005228
#
# Stress axis : x y z
#
# Youngs Moduli (GPa) = 107.99728 129.30744 48.40229
#
# Poissons Ratio (x) = 0.50803 -0.05774
# Poissons Ratio (y) = 0.42431 0.05152
# Poissons Ratio (z) = -0.12883 0.13764
#
# Static dielectric constant tensor:
#      x y z
#    x 1.748720 0.000000 0.000000 
#    y 0.000000 1.795020 0.000000 
#    z 0.000000 0.000000 1.824040 
# 
# From -- ./inp_files/11022.got.cif
#   From: 2010.05.17/outbox.cif.g08.bks.cpg/sg47_6_cif.got.tgz:11022.got - 2010.06.03 20:15:42.
