data_PCOD9383406
_publ_section_title
;
Structure prediction by ZEFSAII (Michael W. Deem and Ramdas Pophale) SiO2 
 PCOD9383406
Probable space group: P M M M
;
_chemical_formula_sum "Si O2"
_cell_formula_units_Z 52
_cell_length_a 7.508423
_cell_length_b 12.588243
_cell_length_c 27.754015
_cell_angle_alpha 90.000000
_cell_angle_beta 90.000000
_cell_angle_gamma 90.000000
_cell_volume 2623.249917
_symmetry_space_group_name_H-M "P M M M"
_symmetry_group_IT_number 47
_symmetry_cell_setting 'orthorhombic'
loop_
_space_group_symop_operation_xyz
x,y,z
-x,-y,z
x,-y,-z
-x,y,-z
-x,-y,-z
x,y,-z
-x,y,z
x,-y,z
loop_
_atom_site_type_symbol
_atom_site_label
_atom_site_fract_x
_atom_site_fract_y
_atom_site_fract_z
Si Si1 0.215418 0.116365 0.081923
Si Si2 0.289082 0.500000 0.244329
Si Si3 0.717590 0.500000 0.134015
Si Si4 0.292011 0.346220 0.051654
Si Si5 0.216652 0.881952 0.192870
Si Si6 0.211689 0.266680 0.723734
Si Si7 0.500000 0.871972 0.554347
Si Si8 0.213144 0.874385 0.633319
O O1 0.277760 0.220035 0.055038
O O2 0.273821 0.127744 0.137647
O O3 0.000000 0.117094 0.080787
O O4 0.273027 0.000000 0.064424
O O5 0.500000 0.500000 0.240126
O O6 0.216329 0.500000 0.189071
O O7 0.240732 0.608003 0.271998
O O8 0.500000 0.500000 0.137291
O O9 0.776646 0.599425 0.100631
O O10 0.500000 0.374735 0.050467
O O11 0.213542 0.379557 0.000000
O O12 0.282846 0.790916 0.228200
O O13 0.000000 0.878532 0.191695
O O14 0.265530 0.000000 0.210667
O O15 0.273441 0.202393 0.676771
O O16 0.000000 0.249756 0.723925
O O17 0.500000 0.828908 0.500000
O O18 0.326114 0.845679 0.586011
O O19 0.500000 0.000000 0.550789
O O20 0.000000 0.863159 0.626066
O O21 0.245301 0.000000 0.644725
#
# Coordination Sequence:
#
# PCOD9383406 Si02
#       8
#     8   4   4   8   8   8   4   8
#     4   9  18  32  49  70  97 126 154 190 241 302
#     4  11  23  34  49  72 100 135 167 206 261 315
#     4   9  19  37  54  70  94 122 159 207 256 308
#     4  10  20  34  53  71  88 118 159 203 250 300
#     4   8  14  27  49  73  95 124 161 199 245 304
#     4  10  19  32  51  74 102 135 173 215 258 312
#     4   9  18  32  52  81 119 159 193 230 273 318
#     4   9  18  32  53  82 114 150 189 230 275 320
#
# _framework density 19.822738999999999
#
# number of rings (size 3 to 8) (size 9 to 14) (size 15 to 20)
#    0.000    2.692    0.000    2.769    1.077    4.000 
#    0.000    4.231    0.000    1.846    0.000    1.077 
#    0.000    2.462    0.000    0.000    0.000    0.000 
#
# Total GULP energy -290080.633321 kJ/mol
# GULP energy per Si atom -5578.473718 kJ/mol
# Density = 1.977762 g / cm^3
# Si number density = 19.822739 Si / 1000 Ang^3
#
#
#
# Elastic Constant Matrix: (Units=GPa)
#
#
# Indices 1 2 3 4 5 6 
#
# 1 58.9589 7.4257 23.5558 0.0000 0.0000 0.0000
# 2 7.4257 134.0538 65.6624 0.0000 0.0000 0.0000
# 3 23.5558 65.6624 126.1798 0.0000 0.0000 0.0000
# 4 0.0000 0.0000 0.0000 -25.8354 0.0000 0.0000
# 5 0.0000 0.0000 0.0000 0.0000 -5.1943 0.0000
# 6 0.0000 0.0000 0.0000 0.0000 0.0000 10.5907
#
#
#
# Elastic Compliance Matrix: (Units=1/GPa)
#
#
# Indices 1 2 3 4 5 6 
#
# 1 0.018407 0.000891 -0.003900 0.000000 0.000000 0.000000
# 2 0.000891 0.010055 -0.005399 0.000000 0.000000 0.000000
# 3 -0.003900 -0.005399 0.011463 0.000000 0.000000 0.000000
# 4 0.000000 0.000000 0.000000 -0.038707 0.000000 0.000000
# 5 0.000000 0.000000 0.000000 0.000000 -0.192518 0.000000
# 6 0.000000 0.000000 0.000000 0.000000 0.000000 0.094423
#
#
# Mechanical properties :
#
#
# Convention : Reuss Voigt Hill
#
# Bulk Modulus (GPa) = 43.27391 56.94226 50.10808
# Shear Modulus (GPa) = -69.09940 10.74875 -29.17532
#
# Velocity S-wave (km/s) = -5.91053 2.33114 -3.84058
# Velocity P-wave (km/s) = 4.97004 6.00281 2.38038
#
# Compressibility (1/GPa) = 0.02310861
#
# Stress axis : x y z
#
# Youngs Moduli (GPa) = 54.32762 99.45587 87.24046
#
# Poissons Ratio (x) = -0.08857 0.34021
# Poissons Ratio (y) = -0.04838 0.47098
# Poissons Ratio (z) = 0.21186 0.53692
#
# Static dielectric constant tensor:
#      x y z
#    x 1.745530 0.000000 0.000000 
#    y 0.000000 1.983830 0.000000 
#    z 0.000000 0.000000 1.699410 
# 
# From -- ./inp_files/33290.got.cif
#   From: 2010.05.17/outbox.cif.g08.bks.cpg/sg47_17_cif.got.tgz:33290.got - 2010.06.03 20:15:42.
