data_PCOD9383934
_publ_section_title
;
Structure prediction by ZEFSAII (Michael W. Deem and Ramdas Pophale) SiO2 
 PCOD9383934
Probable space group: P M M M
;
_chemical_formula_sum "Si O2"
_cell_formula_units_Z 56
_cell_length_a 8.628939
_cell_length_b 23.224112
_cell_length_c 15.055891
_cell_angle_alpha 90.000000
_cell_angle_beta 90.000000
_cell_angle_gamma 90.000000
_cell_volume 3017.192212
_symmetry_space_group_name_H-M "P M M M"
_symmetry_group_IT_number 47
_symmetry_cell_setting 'orthorhombic'
loop_
_space_group_symop_operation_xyz
x,y,z
-x,-y,z
x,-y,-z
-x,y,-z
-x,-y,-z
x,y,-z
-x,y,z
x,-y,z
loop_
_atom_site_type_symbol
_atom_site_label
_atom_site_fract_x
_atom_site_fract_y
_atom_site_fract_z
Si Si1 0.813440 0.111507 0.290003
Si Si2 0.812271 0.227717 0.604583
Si Si3 0.189371 0.000000 0.601301
Si Si4 0.819802 0.246221 0.901547
Si Si5 0.683422 0.682737 0.259155
Si Si6 0.184171 0.566730 0.310888
Si Si7 0.324995 0.430920 0.500000
Si Si8 0.316991 0.879527 0.902258
O O1 0.763374 0.171805 0.336332
O O2 0.760849 0.057849 0.349297
O O3 0.759476 0.100624 0.189292
O O4 0.000000 0.113190 0.289914
O O5 0.769021 0.222736 0.500000
O O6 0.744578 0.283999 0.653009
O O7 0.000000 0.230579 0.607884
O O8 0.240709 0.000000 0.500000
O O9 0.000000 0.000000 0.601632
O O10 0.765161 0.286790 0.823606
O O11 0.718203 0.188671 0.901015
O O12 0.000000 0.229503 0.887806
O O13 0.807190 0.272538 0.000000
O O14 0.500000 0.689610 0.254612
O O15 0.728841 0.615755 0.256899
O O16 0.229598 0.500000 0.294243
O O17 0.230242 0.581990 0.411930
O O18 0.000000 0.571111 0.299142
O O19 0.340863 0.500000 0.500000
O O20 0.500000 0.406287 0.500000
O O21 0.500000 0.890186 0.898262
O O22 0.260285 0.900600 0.000000
#
# Coordination Sequence:
#
# PCOD9383934 Si02
#       8
#     8   8   4   8   8   8   4   8
#     4  10  19  34  58  84 112 148 190 236 284 333
#     4  10  21  36  54  78 111 150 190 233 281 334
#     4   9  18  34  58  87 114 146 193 241 282 329
#     4  10  20  36  59  85 112 143 183 230 280 339
#     4  12  24  36  55  83 116 149 184 229 282 339
#     4  10  21  37  56  76 104 146 192 234 277 331
#     4   9  17  31  51  75 103 137 181 230 277 326
#     4  10  20  34  54  81 113 147 182 226 284 342
#
# _framework density 18.560303000000001
#
# number of rings (size 3 to 8) (size 9 to 14) (size 15 to 20)
#    0.000    1.857    1.429    3.214    1.000    5.429 
#    0.000    0.714    0.000    4.286    0.000    3.000 
#    0.000    0.000    0.000    0.000    0.000    0.000 
#
# Total GULP energy -312391.038493 kJ/mol
# GULP energy per Si atom -5578.411402 kJ/mol
# Density = 1.851806 g / cm^3
# Si number density = 18.560303 Si / 1000 Ang^3
#
#
#
# Elastic Constant Matrix: (Units=GPa)
#
#
# Indices 1 2 3 4 5 6 
#
# 1 22.8816 3.1297 9.5250 0.0000 0.0000 0.0000
# 2 3.1297 73.5970 33.1612 0.0000 0.0000 0.0000
# 3 9.5250 33.1612 122.7794 0.0000 0.0000 0.0000
# 4 0.0000 0.0000 0.0000 -666.4531 0.0000 0.0000
# 5 0.0000 0.0000 0.0000 0.0000 -6.7549 0.0000
# 6 0.0000 0.0000 0.0000 0.0000 0.0000 6.3684
#
#
#
# Elastic Compliance Matrix: (Units=1/GPa)
#
#
# Indices 1 2 3 4 5 6 
#
# 1 0.045172 -0.000389 -0.003399 0.000000 0.000000 0.000000
# 2 -0.000389 0.015474 -0.004149 0.000000 0.000000 0.000000
# 3 -0.003399 -0.004149 0.009529 0.000000 0.000000 0.000000
# 4 0.000000 0.000000 0.000000 -0.001500 0.000000 0.000000
# 5 0.000000 0.000000 0.000000 0.000000 -0.148041 0.000000
# 6 0.000000 0.000000 0.000000 0.000000 0.000000 0.157025
#
#
# Mechanical properties :
#
#
# Convention : Reuss Voigt Hill
#
# Bulk Modulus (GPa) = 18.41655 34.54331 26.47993
# Shear Modulus (GPa) = 44.78972 -121.80512 -38.50770
#
# Velocity S-wave (km/s) = 4.91776 -8.10982 -4.55987
# Velocity P-wave (km/s) = 6.49538 8.30906 3.66405
#
# Compressibility (1/GPa) = 0.05429899
#
# Stress axis : x y z
#
# Youngs Moduli (GPa) = 22.13785 64.62652 104.94299
#
# Poissons Ratio (x) = 0.02516 0.35672
# Poissons Ratio (y) = 0.00862 0.43541
# Poissons Ratio (z) = 0.07525 0.26814
#
# Static dielectric constant tensor:
#      x y z
#    x 1.632100 0.000000 0.000000 
#    y 0.000000 1.646040 0.000000 
#    z 0.000000 0.000000 1.627060 
# 
# From -- ./inp_files/21592.got.cif
#   From: 2010.05.17/outbox.cif.g08.bks.cpg/sg47_11_cif.got.tgz:21592.got - 2010.06.03 20:15:42.
