data_PCOD9383733
_publ_section_title
;
Structure prediction by ZEFSAII (Michael W. Deem and Ramdas Pophale) SiO2 
 PCOD9383733
Probable space group: P M M M
;
_chemical_formula_sum "Si O2"
_cell_formula_units_Z 56
_cell_length_a 20.789390
_cell_length_b 8.481903
_cell_length_c 15.615666
_cell_angle_alpha 90.000000
_cell_angle_beta 90.000000
_cell_angle_gamma 90.000000
_cell_volume 2753.566437
_symmetry_space_group_name_H-M "P M M M"
_symmetry_group_IT_number 47
_symmetry_cell_setting 'orthorhombic'
loop_
_space_group_symop_operation_xyz
x,y,z
-x,-y,z
x,-y,-z
-x,y,-z
-x,-y,-z
x,y,-z
-x,y,z
x,-y,z
loop_
_atom_site_type_symbol
_atom_site_label
_atom_site_fract_x
_atom_site_fract_y
_atom_site_fract_z
Si Si1 0.832175 0.185843 0.649430
Si Si2 0.408781 0.182523 0.095288
Si Si3 0.858452 0.315319 0.174090
Si Si4 0.429070 0.190884 0.287567
Si Si5 0.075200 0.308735 0.000000
Si Si6 0.277226 0.674013 0.903697
Si Si7 0.308524 0.688709 0.600075
Si Si8 0.073772 0.807127 0.500000
O O1 0.865715 0.219757 0.739879
O O2 0.761533 0.261113 0.636120
O O3 0.883399 0.244338 0.580084
O O4 0.822548 0.000000 0.638041
O O5 0.429262 0.247708 0.187812
O O6 0.331802 0.197395 0.101333
O O7 0.428095 0.000000 0.092950
O O8 0.425474 0.250341 0.000000
O O9 0.876133 0.500000 0.185696
O O10 0.782059 0.308831 0.157649
O O11 0.892907 0.253695 0.088577
O O12 0.500000 0.231901 0.323962
O O13 0.368018 0.250512 0.341699
O O14 0.424489 0.000000 0.284664
O O15 0.083517 0.500000 0.000000
O O16 0.000000 0.273230 0.000000
O O17 0.307483 0.500000 0.890903
O O18 0.250178 0.674936 0.000000
O O19 0.313854 0.741910 0.500000
O O20 0.311251 0.500000 0.600997
O O21 0.000000 0.752846 0.500000
O O22 0.071869 0.000000 0.500000
#
# Coordination Sequence:
#
# PCOD9383733 Si02
#       8
#     8   8   8   8   4   8   8   4
#     4  11  22  38  63  92 119 154 197 244 299 362
#     4   9  18  32  51  78 112 149 188 232 281 335
#     4  10  19  33  54  81 114 153 197 244 290 340
#     4  10  22  39  59  86 121 160 202 247 296 356
#     4   9  18  34  55  79 115 165 210 243 286 347
#     4   9  16  28  47  71 101 139 183 229 278 329
#     4  11  24  42  65  90 118 152 194 249 308 365
#     4   9  20  40  63  87 118 155 192 233 293 366
#
# _framework density 20.337260000000001
#
# number of rings (size 3 to 8) (size 9 to 14) (size 15 to 20)
#    0.000    2.143    1.429    1.714    0.000    5.714 
#    0.000    3.214    0.000    3.429    0.000    3.000 
#    0.000    0.000    0.000    0.000    0.000    0.000 
#
# Total GULP energy -312136.456273 kJ/mol
# GULP energy per Si atom -5573.865291 kJ/mol
# Density = 2.029097 g / cm^3
# Si number density = 20.337260 Si / 1000 Ang^3
#
#
#
# Elastic Constant Matrix: (Units=GPa)
#
#
# Indices 1 2 3 4 5 6 
#
# 1 132.4544 24.7768 79.1226 0.0000 0.0000 0.0000
# 2 24.7768 22.5848 21.4547 0.0000 0.0000 0.0000
# 3 79.1226 21.4547 156.0145 0.0000 0.0000 0.0000
# 4 0.0000 0.0000 0.0000 22.0372 0.0000 0.0000
# 5 0.0000 0.0000 0.0000 0.0000 9.9870 0.0000
# 6 0.0000 0.0000 0.0000 0.0000 0.0000 6.0542
#
#
#
# Elastic Compliance Matrix: (Units=1/GPa)
#
#
# Indices 1 2 3 4 5 6 
#
# 1 0.012122 -0.008579 -0.004968 0.000000 0.000000 0.000000
# 2 -0.008579 0.057003 -0.003488 0.000000 0.000000 0.000000
# 3 -0.004968 -0.003488 0.009409 0.000000 0.000000 0.000000
# 4 0.000000 0.000000 0.000000 0.045378 0.000000 0.000000
# 5 0.000000 0.000000 0.000000 0.000000 0.100130 0.000000
# 6 0.000000 0.000000 0.000000 0.000000 0.000000 0.165175
#
#
# Mechanical properties :
#
#
# Convention : Reuss Voigt Hill
#
# Bulk Modulus (GPa) = 22.49029 62.41799 42.45414
# Shear Modulus (GPa) = 11.41267 19.99565 15.70416
#
# Velocity S-wave (km/s) = 2.37147 3.13901 2.78184
# Velocity P-wave (km/s) = 4.31059 6.62540 5.58915
#
# Compressibility (1/GPa) = 0.04446363
#
# Stress axis : x y z
#
# Youngs Moduli (GPa) = 82.49266 17.54291 106.28339
#
# Poissons Ratio (x) = 0.15051 0.52801
# Poissons Ratio (y) = 0.70774 0.37070
# Poissons Ratio (z) = 0.40982 0.06119
#
# Static dielectric constant tensor:
#      x y z
#    x 1.710590 0.000000 0.000000 
#    y 0.000000 1.732870 0.000000 
#    z 0.000000 0.000000 1.773640 
# 
# From -- ./inp_files/25240.got.cif
#   From: 2010.05.17/outbox.cif.g08.bks.cpg/sg47_13_cif.got.tgz:25240.got - 2010.06.03 20:15:42.
