data_PCOD9383349
_publ_section_title
;
Structure prediction by ZEFSAII (Michael W. Deem and Ramdas Pophale) SiO2 
 PCOD9383349
Probable space group: P M M M
;
_chemical_formula_sum "Si O2"
_cell_formula_units_Z 40
_cell_length_a 12.925999
_cell_length_b 20.795497
_cell_length_c 8.515488
_cell_angle_alpha 90.000000
_cell_angle_beta 90.000000
_cell_angle_gamma 90.000000
_cell_volume 2288.985088
_symmetry_space_group_name_H-M "P M M M"
_symmetry_group_IT_number 47
_symmetry_cell_setting 'orthorhombic'
loop_
_space_group_symop_operation_xyz
x,y,z
-x,-y,z
x,-y,-z
-x,y,-z
-x,-y,-z
x,y,-z
-x,y,z
x,-y,z
loop_
_atom_site_type_symbol
_atom_site_label
_atom_site_fract_x
_atom_site_fract_y
_atom_site_fract_z
Si Si1 0.000000 0.758560 0.181313
Si Si2 0.374221 0.000000 0.682841
Si Si3 0.000000 0.602199 0.819917
Si Si4 0.777994 0.609203 0.687972
Si Si5 0.619077 0.500000 0.308299
Si Si6 0.776272 0.246209 0.810986
Si Si7 0.379634 0.140364 0.690455
O O1 0.000000 0.680513 0.181475
O O2 0.110673 0.776851 0.250987
O O3 0.000000 0.780243 0.000000
O O4 0.343569 0.069525 0.749164
O O5 0.500000 0.000000 0.683871
O O6 0.342333 0.000000 0.500000
O O7 0.891378 0.584195 0.740738
O O8 0.000000 0.581062 0.000000
O O9 0.777827 0.612046 0.500000
O O10 0.686272 0.561900 0.740282
O O11 0.761252 0.680865 0.753375
O O12 0.500000 0.500000 0.254704
O O13 0.617007 0.500000 0.500000
O O14 0.689224 0.197775 0.754013
O O15 0.780162 0.247603 0.000000
O O16 0.375439 0.139716 0.500000
O O17 0.500000 0.148730 0.734303
#
# Coordination Sequence:
#
# PCOD9383349 Si02
#       7
#     4   4   4   8   4   8   8
#     4   7  14  29  46  63  90 128 158 186 230 281
#     4   7  12  26  47  68  93 126 162 201 244 287
#     4   9  17  32  52  75 103 127 153 198 253 298
#     4  10  19  33  54  76  97 126 167 208 246 293
#     4   9  20  37  53  70  96 131 168 207 250 293
#     4  10  19  32  50  73 101 129 160 201 249 296
#     4   9  17  30  49  73  99 128 163 202 245 293
#
# _framework density 17.474995
#
# number of rings (size 3 to 8) (size 9 to 14) (size 15 to 20)
#    0.000    3.000    0.000    3.900    0.000    1.600 
#    0.000    8.000    0.000    6.600    0.000    4.200 
#    0.000    0.000    0.000    0.000    0.000    0.000 
#
# Total GULP energy -222742.204252 kJ/mol
# GULP energy per Si atom -5568.555106 kJ/mol
# Density = 1.743522 g / cm^3
# Si number density = 17.474995 Si / 1000 Ang^3
#
#
#
# Elastic Constant Matrix: (Units=GPa)
#
#
# Indices 1 2 3 4 5 6 
#
# 1 150.3475 90.1515 31.7065 0.0000 0.0000 0.0000
# 2 90.1515 121.5888 25.5874 0.0000 0.0000 0.0000
# 3 31.7065 25.5874 33.5078 0.0000 0.0000 0.0000
# 4 0.0000 0.0000 0.0000 -11.6242 0.0000 0.0000
# 5 0.0000 0.0000 0.0000 0.0000 18.4694 0.0000
# 6 0.0000 0.0000 0.0000 0.0000 0.0000 -28.9184
#
#
#
# Elastic Compliance Matrix: (Units=1/GPa)
#
#
# Indices 1 2 3 4 5 6 
#
# 1 0.012864 -0.008312 -0.005825 0.000000 0.000000 0.000000
# 2 -0.008312 0.015170 -0.003719 0.000000 0.000000 0.000000
# 3 -0.005825 -0.003719 0.038196 0.000000 0.000000 0.000000
# 4 0.000000 0.000000 0.000000 -0.086027 0.000000 0.000000
# 5 0.000000 0.000000 0.000000 0.000000 0.054144 0.000000
# 6 0.000000 0.000000 0.000000 0.000000 0.000000 -0.034580
#
#
# Mechanical properties :
#
#
# Convention : Reuss Voigt Hill
#
# Bulk Modulus (GPa) = 32.76832 66.70389 49.73611
# Shear Modulus (GPa) = 109.52977 6.11860 57.82419
#
# Velocity S-wave (km/s) = 7.92553 1.87322 5.75860
# Velocity P-wave (km/s) = 10.12642 6.55229 8.52868
#
# Compressibility (1/GPa) = 0.03051728
#
# Stress axis : x y z
#
# Youngs Moduli (GPa) = 77.73849 65.91998 26.18107
#
# Poissons Ratio (x) = 0.54792 0.15250
# Poissons Ratio (y) = 0.64615 0.09737
# Poissons Ratio (z) = 0.45282 0.24516
#
# Static dielectric constant tensor:
#      x y z
#    x 1.605110 0.000000 0.000000 
#    y 0.000000 1.599290 0.000000 
#    z 0.000000 0.000000 1.600710 
# 
# From -- ./inp_files/4169.got.cif
#   From: 2010.05.17/outbox.cif.g08.bks.cpg/sg47_3_cif.got.tgz:4169.got - 2010.06.03 20:15:42.
