data_PCOD9383789
_publ_section_title
;
Structure prediction by ZEFSAII (Michael W. Deem and Ramdas Pophale) SiO2 
 PCOD9383789
Probable space group: P M M M
;
_chemical_formula_sum "Si O2"
_cell_formula_units_Z 56
_cell_length_a 21.733001
_cell_length_b 15.590674
_cell_length_c 8.174664
_cell_angle_alpha 90.000000
_cell_angle_beta 90.000000
_cell_angle_gamma 90.000000
_cell_volume 2769.838845
_symmetry_space_group_name_H-M "P M M M"
_symmetry_group_IT_number 47
_symmetry_cell_setting 'orthorhombic'
loop_
_space_group_symop_operation_xyz
x,y,z
-x,-y,z
x,-y,-z
-x,y,-z
-x,-y,-z
x,y,-z
-x,y,z
x,-y,z
loop_
_atom_site_type_symbol
_atom_site_label
_atom_site_fract_x
_atom_site_fract_y
_atom_site_fract_z
Si Si1 0.668167 0.236980 0.310862
Si Si2 0.428108 0.097252 0.300749
Si Si3 0.000000 0.397342 0.688263
Si Si4 0.259878 0.403706 0.698173
Si Si5 0.249820 0.093800 0.187430
Si Si6 0.000000 0.102370 0.815055
Si Si7 0.130883 0.147585 0.681854
Si Si8 0.867896 0.332939 0.191052
O O1 0.652352 0.254156 0.500000
O O2 0.612862 0.177543 0.240262
O O3 0.694828 0.326861 0.242587
O O4 0.723973 0.169602 0.296526
O O5 0.422501 0.096316 0.500000
O O6 0.500000 0.109369 0.261761
O O7 0.410909 0.000000 0.245094
O O8 0.064018 0.368648 0.770776
O O9 0.000000 0.500000 0.687282
O O10 0.000000 0.365903 0.500000
O O11 0.255844 0.396572 0.500000
O O12 0.281705 0.500000 0.737938
O O13 0.190756 0.391866 0.767285
O O14 0.176479 0.100115 0.196133
O O15 0.269221 0.000000 0.245564
O O16 0.269771 0.105707 0.000000
O O17 0.939357 0.131773 0.724125
O O18 0.000000 0.000000 0.821367
O O19 0.000000 0.137214 0.000000
O O20 0.144935 0.117462 0.500000
O O21 0.141392 0.248340 0.701786
O O22 0.865069 0.309936 0.000000
#
# Coordination Sequence:
#
# PCOD9383789 Si02
#       8
#     8   8   4   8   8   4   8   8
#     4  10  19  33  56  82 110 150 195 235 279 337
#     4   8  14  26  48  82 120 153 191 240 285 327
#     4  11  24  41  60  81 107 139 178 230 293 356
#     4  10  21  37  56  80 112 149 191 241 295 346
#     4  11  23  37  54  80 114 147 180 228 285 333
#     4  11  24  41  58  77 105 141 182 230 283 334
#     4  12  24  39  58  79 105 140 184 229 276 337
#     4  12  24  39  59  82 109 140 182 236 293 351
#
# _framework density 20.217782
#
# number of rings (size 3 to 8) (size 9 to 14) (size 15 to 20)
#    0.000    1.429    1.429    5.571    0.000    6.571 
#    0.000    0.000    0.000    0.857    0.000    5.000 
#    0.000    0.000    0.000    2.571    0.000    3.000 
#
# Total GULP energy -312619.501755 kJ/mol
# GULP energy per Si atom -5582.491103 kJ/mol
# Density = 2.017177 g / cm^3
# Si number density = 20.217782 Si / 1000 Ang^3
#
#
#
# Elastic Constant Matrix: (Units=GPa)
#
#
# Indices 1 2 3 4 5 6 
#
# 1 123.0218 55.2795 1.6318 0.0000 0.0000 0.0000
# 2 55.2795 134.1150 7.1199 0.0000 0.0000 0.0000
# 3 1.6318 7.1199 46.8598 0.0000 0.0000 0.0000
# 4 0.0000 0.0000 0.0000 13.5474 0.0000 0.0000
# 5 0.0000 0.0000 0.0000 0.0000 -0.5969 0.0000
# 6 0.0000 0.0000 0.0000 0.0000 0.0000 27.7332
#
#
#
# Elastic Compliance Matrix: (Units=1/GPa)
#
#
# Indices 1 2 3 4 5 6 
#
# 1 0.009980 -0.004128 0.000280 0.000000 0.000000 0.000000
# 2 -0.004128 0.009225 -0.001258 0.000000 0.000000 0.000000
# 3 0.000280 -0.001258 0.021522 0.000000 0.000000 0.000000
# 4 0.000000 0.000000 0.000000 0.073815 0.000000 0.000000
# 5 0.000000 0.000000 0.000000 0.000000 -1.675260 0.000000
# 6 0.000000 0.000000 0.000000 0.000000 0.000000 0.036058
#
#
# Mechanical properties :
#
#
# Convention : Reuss Voigt Hill
#
# Bulk Modulus (GPa) = 32.77257 48.00656 40.38957
# Shear Modulus (GPa) = -3.32386 24.13443 10.40529
#
# Velocity S-wave (km/s) = -1.28359 3.45878 2.27107
# Velocity P-wave (km/s) = 3.74809 6.30453 5.18629
#
# Compressibility (1/GPa) = 0.03051332
#
# Stress axis : x y z
#
# Youngs Moduli (GPa) = 100.20013 108.40439 46.46487
#
# Poissons Ratio (x) = 0.44754 -0.01300
# Poissons Ratio (y) = 0.41367 0.05845
# Poissons Ratio (z) = -0.02803 0.13636
#
# Static dielectric constant tensor:
#      x y z
#    x 1.717860 0.000000 0.000000 
#    y 0.000000 1.755540 0.000000 
#    z 0.000000 0.000000 1.714380 
# 
# From -- ./inp_files/11384.got.cif
#   From: 2010.05.17/outbox.cif.g08.bks.cpg/sg47_6_cif.got.tgz:11384.got - 2010.06.03 20:15:42.
