data_PCOD9383107
_publ_section_title
;
Structure prediction by ZEFSAII (Michael W. Deem and Ramdas Pophale) SiO2 
 PCOD9383107
Probable space group: P M M M
;
_chemical_formula_sum "Si O2"
_cell_formula_units_Z 48
_cell_length_a 7.568541
_cell_length_b 14.633772
_cell_length_c 21.287265
_cell_angle_alpha 90.000000
_cell_angle_beta 90.000000
_cell_angle_gamma 90.000000
_cell_volume 2357.698780
_symmetry_space_group_name_H-M "P M M M"
_symmetry_group_IT_number 47
_symmetry_cell_setting 'orthorhombic'
loop_
_space_group_symop_operation_xyz
x,y,z
-x,-y,z
x,-y,-z
-x,y,-z
-x,-y,-z
x,y,-z
-x,y,z
x,-y,z
loop_
_atom_site_type_symbol
_atom_site_label
_atom_site_fract_x
_atom_site_fract_y
_atom_site_fract_z
Si Si1 0.215452 0.397638 0.819698
Si Si2 0.208263 0.897967 0.752180
Si Si3 0.716636 0.893633 0.500000
Si Si4 0.216578 0.209944 0.874272
Si Si5 0.787078 0.397738 0.325400
Si Si6 0.216009 0.894130 0.000000
Si Si7 0.706836 0.205601 0.374613
O O1 0.272361 0.500000 0.837292
O O2 0.272431 0.314788 0.863834
O O3 0.269570 0.380691 0.747048
O O4 0.000000 0.397753 0.819359
O O5 0.279050 0.845529 0.812964
O O6 0.223282 0.840042 0.688890
O O7 0.000000 0.906694 0.764382
O O8 0.282138 0.000000 0.744345
O O9 0.500000 0.891635 0.500000
O O10 0.778922 0.841307 0.562527
O O11 0.768513 0.000000 0.500000
O O12 0.000000 0.210194 0.874640
O O13 0.272680 0.159762 0.937639
O O14 0.727375 0.500000 0.343233
O O15 0.732264 0.314228 0.369077
O O16 0.000000 0.398487 0.324701
O O17 0.000000 0.895106 0.000000
O O18 0.272367 0.000000 0.000000
O O19 0.500000 0.186614 0.374339
#
# Coordination Sequence:
#
# PCOD9383107 Si02
#       7
#     8   8   4   8   8   4   8
#     4   8  13  23  42  65  89 121 157 193 241 295
#     4  10  19  31  49  72  98 129 168 213 256 300
#     4   9  20  38  54  69  98 140 173 199 248 309
#     4   9  15  25  41  63  93 126 163 204 247 297
#     4   9  17  32  54  77 103 134 164 200 251 306
#     4   9  16  24  35  57  92 132 166 199 248 301
#     4  11  21  34  54  77 101 130 167 211 254 298
#
# _framework density 20.358836
#
# number of rings (size 3 to 8) (size 9 to 14) (size 15 to 20)
#    0.000    2.667    1.667    2.500    0.000    3.333 
#    0.000    2.500    0.000    8.000    0.000    0.583 
#    0.000    2.000    0.000    3.667    0.000    3.667 
#
# Total GULP energy -267837.132817 kJ/mol
# GULP energy per Si atom -5579.940267 kJ/mol
# Density = 2.031250 g / cm^3
# Si number density = 20.358836 Si / 1000 Ang^3
#
#
#
# Elastic Constant Matrix: (Units=GPa)
#
#
# Indices 1 2 3 4 5 6 
#
# 1 42.0513 -3.0790 -0.5731 0.0000 0.0000 0.0000
# 2 -3.0790 198.2437 107.5570 0.0000 0.0000 0.0000
# 3 -0.5731 107.5570 160.9352 0.0000 0.0000 0.0000
# 4 0.0000 0.0000 0.0000 15.5912 0.0000 0.0000
# 5 0.0000 0.0000 0.0000 0.0000 16.3915 0.0000
# 6 0.0000 0.0000 0.0000 0.0000 0.0000 3.6208
#
#
#
# Elastic Compliance Matrix: (Units=1/GPa)
#
#
# Indices 1 2 3 4 5 6 
#
# 1 0.023814 0.000508 -0.000255 0.000000 0.000000 0.000000
# 2 0.000508 0.007925 -0.005294 0.000000 0.000000 0.000000
# 3 -0.000255 -0.005294 0.009751 0.000000 0.000000 0.000000
# 4 0.000000 0.000000 0.000000 0.064139 0.000000 0.000000
# 5 0.000000 0.000000 0.000000 0.000000 0.061007 0.000000
# 6 0.000000 0.000000 0.000000 0.000000 0.000000 0.276179
#
#
# Mechanical properties :
#
#
# Convention : Reuss Voigt Hill
#
# Bulk Modulus (GPa) = 31.83923 67.67111 49.75517
# Shear Modulus (GPa) = 10.79059 26.94241 18.86650
#
# Velocity S-wave (km/s) = 2.30471 3.64177 3.04747
# Velocity P-wave (km/s) = 4.77025 7.14106 6.07248
#
# Compressibility (1/GPa) = 0.03140780
#
# Stress axis : x y z
#
# Youngs Moduli (GPa) = 41.99178 126.18786 102.55156
#
# Poissons Ratio (x) = -0.06411 0.02613
# Poissons Ratio (y) = -0.02134 0.54296
# Poissons Ratio (z) = 0.01070 0.66810
#
# Static dielectric constant tensor:
#      x y z
#    x 1.812430 0.000000 0.000000 
#    y 0.000000 1.734310 0.000000 
#    z 0.000000 0.000000 1.687330 
# 
# From -- ./inp_files/26572.got.cif
#   From: 2010.05.17/outbox.cif.g08.bks.cpg/sg47_14_cif.got.tgz:26572.got - 2010.06.03 20:15:42.
