data_PCOD9383286
_publ_section_title
;
Structure prediction by ZEFSAII (Michael W. Deem and Ramdas Pophale) SiO2 
 PCOD9383286
Probable space group: P M M M
;
_chemical_formula_sum "Si O2"
_cell_formula_units_Z 52
_cell_length_a 26.527291
_cell_length_b 9.026241
_cell_length_c 16.998355
_cell_angle_alpha 90.000000
_cell_angle_beta 90.000000
_cell_angle_gamma 90.000000
_cell_volume 4070.115386
_symmetry_space_group_name_H-M "P M M M"
_symmetry_group_IT_number 47
_symmetry_cell_setting 'orthorhombic'
loop_
_space_group_symop_operation_xyz
x,y,z
-x,-y,z
x,-y,-z
-x,y,-z
-x,-y,-z
x,y,-z
-x,y,z
x,-y,z
loop_
_atom_site_type_symbol
_atom_site_label
_atom_site_fract_x
_atom_site_fract_y
_atom_site_fract_z
Si Si1 0.810152 0.324504 0.405713
Si Si2 0.938829 0.170874 0.000000
Si Si3 0.060710 0.675689 0.836530
Si Si4 0.500000 0.171079 0.404154
Si Si5 0.000000 0.673127 0.594285
Si Si6 0.904805 0.177406 0.677755
Si Si7 0.705736 0.170173 0.595596
Si Si8 0.603127 0.671149 0.404102
O O1 0.816204 0.301706 0.500000
O O2 0.814305 0.500000 0.390935
O O3 0.853334 0.236508 0.360266
O O4 0.754955 0.264356 0.382913
O O5 0.924153 0.256350 0.079352
O O6 0.000000 0.169132 0.000000
O O7 0.921851 0.000000 0.000000
O O8 0.070461 0.500000 0.833536
O O9 0.087583 0.760297 0.765577
O O10 0.000000 0.696261 0.827375
O O11 0.500000 0.173908 0.500000
O O12 0.448845 0.252179 0.378680
O O13 0.500000 0.000000 0.380138
O O14 0.049160 0.753567 0.627859
O O15 0.000000 0.500000 0.619217
O O16 0.000000 0.677807 0.500000
O O17 0.907016 0.000000 0.676712
O O18 0.704318 0.169453 0.500000
O O19 0.653254 0.242864 0.621955
O O20 0.710136 0.000000 0.621462
O O21 0.603184 0.674026 0.500000
O O22 0.604799 0.500000 0.380253
#
# Coordination Sequence:
#
# PCOD9383286 Si02
#       8
#     8   4   8   4   4   8   8   8
#     4  10  20  33  46  58  74  98 128 161 197 236
#     4   9  17  29  47  69  91 107 125 149 176 213
#     4  10  19  32  49  66  86 108 129 149 179 224
#     4   9  15  21  29  43  63  85 109 139 177 220
#     4  11  23  37  49  60  77 102 129 157 193 237
#     4  12  23  33  47  64  82 101 126 159 194 229
#     4   9  16  26  39  53  68  87 115 151 188 225
#     4   9  15  22  32  46  64  86 111 140 178 224
#
# _framework density 12.776051000000001
#
# number of rings (size 3 to 8) (size 9 to 14) (size 15 to 20)
#    0.000    2.077    0.769    4.385    0.000    9.538 
#    0.000    0.000    0.000    0.000    0.000    0.000 
#    0.000    0.000    0.000    0.000    0.000    0.000 
#
# Total GULP energy -290028.000529 kJ/mol
# GULP energy per Si atom -5577.461549 kJ/mol
# Density = 1.274697 g / cm^3
# Si number density = 12.776051 Si / 1000 Ang^3
#
#
#
# Elastic Constant Matrix: (Units=GPa)
#
#
# Indices 1 2 3 4 5 6 
#
# 1 100.2295 61.1648 31.9560 0.0000 0.0000 0.0000
# 2 61.1648 131.7815 43.2714 0.0000 0.0000 0.0000
# 3 31.9560 43.2714 49.9552 0.0000 0.0000 0.0000
# 4 0.0000 0.0000 0.0000 15.2239 0.0000 0.0000
# 5 0.0000 0.0000 0.0000 0.0000 -0.4423 0.0000
# 6 0.0000 0.0000 0.0000 0.0000 0.0000 24.4639
#
#
#
# Elastic Compliance Matrix: (Units=1/GPa)
#
#
# Indices 1 2 3 4 5 6 
#
# 1 0.014728 -0.005230 -0.004891 0.000000 0.000000 0.000000
# 2 -0.005230 0.012461 -0.007449 0.000000 0.000000 0.000000
# 3 -0.004891 -0.007449 0.029599 0.000000 0.000000 0.000000
# 4 0.000000 0.000000 0.000000 0.065686 0.000000 0.000000
# 5 0.000000 0.000000 0.000000 0.000000 -2.261007 0.000000
# 6 0.000000 0.000000 0.000000 0.000000 0.000000 0.040877
#
#
# Mechanical properties :
#
#
# Convention : Reuss Voigt Hill
#
# Bulk Modulus (GPa) = 46.19191 61.63894 53.91543
# Shear Modulus (GPa) = -2.43274 17.55403 7.56065
#
# Velocity S-wave (km/s) = -1.38140 3.71074 2.43530
# Velocity P-wave (km/s) = 5.80424 8.16761 7.08517
#
# Compressibility (1/GPa) = 0.02164881
#
# Stress axis : x y z
#
# Youngs Moduli (GPa) = 67.89766 80.24730 33.78479
#
# Poissons Ratio (x) = 0.41967 0.16526
# Poissons Ratio (y) = 0.35508 0.25166
# Poissons Ratio (z) = 0.33212 0.59774
#
# Static dielectric constant tensor:
#      x y z
#    x 1.406670 0.000000 0.000000 
#    y 0.000000 1.426390 0.000000 
#    z 0.000000 0.000000 1.388930 
# 
# From -- ./inp_files/25473.got.cif
#   From: 2010.05.17/outbox.cif.g08.bks.cpg/sg47_13_cif.got.tgz:25473.got - 2010.06.03 20:15:42.
