data_PCOD9383607
_publ_section_title
;
Structure prediction by ZEFSAII (Michael W. Deem and Ramdas Pophale) SiO2 
 PCOD9383607
Probable space group: P M M M
;
_chemical_formula_sum "Si O2"
_cell_formula_units_Z 64
_cell_length_a 23.902862
_cell_length_b 15.212976
_cell_length_c 9.850157
_cell_angle_alpha 90.000000
_cell_angle_beta 90.000000
_cell_angle_gamma 90.000000
_cell_volume 3581.848700
_symmetry_space_group_name_H-M "P M M M"
_symmetry_group_IT_number 47
_symmetry_cell_setting 'orthorhombic'
loop_
_space_group_symop_operation_xyz
x,y,z
-x,-y,z
x,-y,-z
-x,y,-z
-x,-y,-z
x,y,-z
-x,y,z
x,-y,z
loop_
_atom_site_type_symbol
_atom_site_label
_atom_site_fract_x
_atom_site_fract_y
_atom_site_fract_z
Si Si1 0.434468 0.400910 0.335483
Si Si2 0.062841 0.105966 0.656020
Si Si3 0.934671 0.605761 0.350283
Si Si4 0.841776 0.650682 0.151910
Si Si5 0.704928 0.100811 0.837368
Si Si6 0.168907 0.144358 0.845677
Si Si7 0.345578 0.743626 0.339188
Si Si8 0.747853 0.404795 0.652372
O O1 0.429109 0.402526 0.500000
O O2 0.500000 0.389204 0.303366
O O3 0.418129 0.500000 0.288293
O O4 0.397572 0.317425 0.291502
O O5 0.071430 0.136260 0.500000
O O6 0.115332 0.128768 0.750646
O O7 0.000000 0.136061 0.699376
O O8 0.060871 0.000000 0.653143
O O9 0.914821 0.633789 0.500000
O O10 0.928811 0.500000 0.343021
O O11 0.899877 0.647209 0.230672
O O12 0.000000 0.626091 0.340319
O O13 0.822478 0.751235 0.148090
O O14 0.796829 0.599416 0.239983
O O15 0.846872 0.616580 0.000000
O O16 0.771217 0.106304 0.799950
O O17 0.670032 0.171777 0.750805
O O18 0.686424 0.000000 0.815567
O O19 0.701833 0.119707 0.000000
O O20 0.157531 0.112655 0.000000
O O21 0.352672 0.766277 0.500000
O O22 0.294047 0.675328 0.329979
O O23 0.771683 0.398574 0.500000
O O24 0.718721 0.500000 0.661455
#
# Coordination Sequence:
#
# PCOD9383607 Si02
#       8
#     8   8   8   8   8   8   8   8
#     4   8  14  27  51  85 123 158 188 220 264 317
#     4   9  19  35  53  74  98 122 154 203 264 327
#     4   9  19  36  54  69  89 123 166 208 254 312
#     4  11  22  34  49  71  99 128 164 212 259 308
#     4  10  21  38  57  75 103 145 187 228 278 330
#     4  10  21  36  52  71  98 131 170 214 263 323
#     4  10  19  32  54  84 113 141 181 229 267 306
#     4  10  20  33  50  74 106 141 172 206 254 313
#
# _framework density 17.867868000000001
#
# number of rings (size 3 to 8) (size 9 to 14) (size 15 to 20)
#    0.000    2.375    1.250    2.625    0.000    7.000 
#    0.000    3.750    0.000    1.875    0.000    3.500 
#    0.000    0.000    0.000    0.000    0.000    0.000 
#
# Total GULP energy -356752.405910 kJ/mol
# GULP energy per Si atom -5574.256342 kJ/mol
# Density = 1.782720 g / cm^3
# Si number density = 17.867868 Si / 1000 Ang^3
#
#
#
# Elastic Constant Matrix: (Units=GPa)
#
#
# Indices 1 2 3 4 5 6 
#
# 1 85.6525 43.4075 49.0913 0.0000 0.0000 0.0000
# 2 43.4075 109.6826 44.9263 0.0000 0.0000 0.0000
# 3 49.0913 44.9263 85.1426 0.0000 0.0000 0.0000
# 4 0.0000 0.0000 0.0000 46.6571 0.0000 0.0000
# 5 0.0000 0.0000 0.0000 0.0000 -11.8234 0.0000
# 6 0.0000 0.0000 0.0000 0.0000 0.0000 27.6374
#
#
#
# Elastic Compliance Matrix: (Units=1/GPa)
#
#
# Indices 1 2 3 4 5 6 
#
# 1 0.018593 -0.003785 -0.008723 0.000000 0.000000 0.000000
# 2 -0.003785 0.012402 -0.004361 0.000000 0.000000 0.000000
# 3 -0.008723 -0.004361 0.019076 0.000000 0.000000 0.000000
# 4 0.000000 0.000000 0.000000 0.021433 0.000000 0.000000
# 5 0.000000 0.000000 0.000000 0.000000 -0.084578 0.000000
# 6 0.000000 0.000000 0.000000 0.000000 0.000000 0.036183
#
#
# Mechanical properties :
#
#
# Convention : Reuss Voigt Hill
#
# Bulk Modulus (GPa) = 61.23240 61.70310 61.46775
# Shear Modulus (GPa) = 80.26825 22.03106 51.14966
#
# Velocity S-wave (km/s) = 6.70975 3.51522 5.35619
# Velocity P-wave (km/s) = 9.71451 7.14728 8.52805
#
# Compressibility (1/GPa) = 0.01633122
#
# Stress axis : x y z
#
# Youngs Moduli (GPa) = 53.78393 80.63413 52.42263
#
# Poissons Ratio (x) = 0.30523 0.45728
# Poissons Ratio (y) = 0.20359 0.22863
# Poissons Ratio (z) = 0.46915 0.35167
#
# Static dielectric constant tensor:
#      x y z
#    x 1.608430 0.000000 0.000000 
#    y 0.000000 1.649700 0.000000 
#    z 0.000000 0.000000 1.611610 
# 
# From -- ./inp_files/12696.got.cif
#   From: 2010.05.17/outbox.cif.g08.bks.cpg/sg47_7_cif.got.tgz:12696.got - 2010.06.03 20:15:42.
