data_PCOD9383000
_publ_section_title
;
Structure prediction by ZEFSAII (Michael W. Deem and Ramdas Pophale) SiO2 
 PCOD9383000
Probable space group: P M M M
;
_chemical_formula_sum "Si O2"
_cell_formula_units_Z 56
_cell_length_a 22.518216
_cell_length_b 9.080737
_cell_length_c 16.527629
_cell_angle_alpha 90.000000
_cell_angle_beta 90.000000
_cell_angle_gamma 90.000000
_cell_volume 3379.602587
_symmetry_space_group_name_H-M "P M M M"
_symmetry_group_IT_number 47
_symmetry_cell_setting 'orthorhombic'
loop_
_space_group_symop_operation_xyz
x,y,z
-x,-y,z
x,-y,-z
-x,y,-z
-x,-y,-z
x,y,-z
-x,y,z
x,-y,z
loop_
_atom_site_type_symbol
_atom_site_label
_atom_site_fract_x
_atom_site_fract_y
_atom_site_fract_z
Si Si1 0.928515 0.326497 0.834923
Si Si2 0.428009 0.326748 0.909525
Si Si3 0.361363 0.323761 0.406090
Si Si4 0.571512 0.827006 0.742448
Si Si5 0.236418 0.171058 0.404406
Si Si6 0.072044 0.831398 0.000000
Si Si7 0.000000 0.332221 0.596259
Si Si8 0.112335 0.176416 0.324602
O O1 0.916162 0.500000 0.831029
O O2 0.910879 0.257728 0.920477
O O3 0.896433 0.237128 0.765023
O O4 0.000000 0.307782 0.824947
O O5 0.500000 0.316217 0.910224
O O6 0.413263 0.500000 0.901926
O O7 0.408006 0.241587 0.828785
O O8 0.408229 0.276455 0.000000
O O9 0.376051 0.280240 0.500000
O O10 0.365384 0.500000 0.401654
O O11 0.401308 0.251972 0.336206
O O12 0.294113 0.269656 0.390342
O O13 0.500000 0.811416 0.739475
O O14 0.586002 0.000000 0.740382
O O15 0.223161 0.176257 0.500000
O O16 0.176964 0.217021 0.358415
O O17 0.250025 0.000000 0.383866
O O18 0.000000 0.836483 0.000000
O O19 0.093191 0.000000 0.000000
O O20 0.941148 0.249306 0.625385
O O21 0.000000 0.500000 0.628971
O O22 0.000000 0.337835 0.500000
O O23 0.106766 0.000000 0.327939
#
# Coordination Sequence:
#
# PCOD9383000 Si02
#       8
#     8   8   8   8   8   4   4   8
#     4  10  19  31  47  70 102 133 163 200 247 297
#     4   8  14  26  45  70 102 138 172 207 248 295
#     4  10  21  36  54  75  99 132 174 217 258 302
#     4  10  20  32  49  76 108 140 172 209 255 304
#     4   9  19  36  55  74  97 128 168 212 254 297
#     4   9  17  29  47  69  95 127 165 203 243 292
#     4  11  23  35  47  68 101 136 165 201 251 299
#     4  11  21  33  52  75 100 130 167 206 247 298
#
# _framework density 16.569996
#
# number of rings (size 3 to 8) (size 9 to 14) (size 15 to 20)
#    0.000    2.286    0.714    3.000    0.000    6.000 
#    0.000    4.286    0.000    0.000    1.857    0.000 
#    0.000    0.000    0.000    0.000    0.000    0.000 
#
# Total GULP energy -312221.543770 kJ/mol
# GULP energy per Si atom -5575.384710 kJ/mol
# Density = 1.653228 g / cm^3
# Si number density = 16.569996 Si / 1000 Ang^3
#
#
#
# Elastic Constant Matrix: (Units=GPa)
#
#
# Indices 1 2 3 4 5 6 
#
# 1 38.7385 37.5890 48.0956 0.0000 0.0000 0.0000
# 2 37.5890 84.1164 64.5896 0.0000 0.0000 0.0000
# 3 48.0956 64.5896 137.8532 0.0000 0.0000 0.0000
# 4 0.0000 0.0000 0.0000 29.4791 0.0000 0.0000
# 5 0.0000 0.0000 0.0000 0.0000 0.1987 0.0000
# 6 0.0000 0.0000 0.0000 0.0000 0.0000 16.4988
#
#
#
# Elastic Compliance Matrix: (Units=1/GPa)
#
#
# Indices 1 2 3 4 5 6 
#
# 1 0.056338 -0.015749 -0.012277 0.000000 0.000000 0.000000
# 2 -0.015749 0.022971 -0.005268 0.000000 0.000000 0.000000
# 3 -0.012277 -0.005268 0.014006 0.000000 0.000000 0.000000
# 4 0.000000 0.000000 0.000000 0.033922 0.000000 0.000000
# 5 0.000000 0.000000 0.000000 0.000000 5.032445 0.000000
# 6 0.000000 0.000000 0.000000 0.000000 0.000000 0.060610
#
#
# Mechanical properties :
#
#
# Convention : Reuss Voigt Hill
#
# Bulk Modulus (GPa) = 37.41536 62.36185 49.88860
# Shear Modulus (GPa) = 0.94415 16.59758 8.77087
#
# Velocity S-wave (km/s) = 0.75567 3.16834 2.30320
# Velocity P-wave (km/s) = 4.83638 7.14854 6.10296
#
# Compressibility (1/GPa) = 0.02672699
#
# Stress axis : x y z
#
# Youngs Moduli (GPa) = 17.75014 43.53267 71.39914
#
# Poissons Ratio (x) = 0.68558 0.87655
# Poissons Ratio (y) = 0.27954 0.37616
# Poissons Ratio (z) = 0.21791 0.22935
#
# Static dielectric constant tensor:
#      x y z
#    x 1.532510 0.000000 0.000000 
#    y 0.000000 1.556920 0.000000 
#    z 0.000000 0.000000 1.577450 
# 
# From -- ./inp_files/25158.got.cif
#   From: 2010.05.17/outbox.cif.g08.bks.cpg/sg47_13_cif.got.tgz:25158.got - 2010.06.03 20:15:42.
