data_PCOD9383904
_publ_section_title
;
Structure prediction by ZEFSAII (Michael W. Deem and Ramdas Pophale) SiO2 
 PCOD9383904
Probable space group: P M M M
;
_chemical_formula_sum "Si O2"
_cell_formula_units_Z 40
_cell_length_a 7.450385
_cell_length_b 24.694420
_cell_length_c 10.062882
_cell_angle_alpha 90.000000
_cell_angle_beta 90.000000
_cell_angle_gamma 90.000000
_cell_volume 1851.398579
_symmetry_space_group_name_H-M "P M M M"
_symmetry_group_IT_number 47
_symmetry_cell_setting 'orthorhombic'
loop_
_space_group_symop_operation_xyz
x,y,z
-x,-y,z
x,-y,-z
-x,y,-z
-x,-y,-z
x,y,-z
-x,y,z
x,-y,z
loop_
_atom_site_type_symbol
_atom_site_label
_atom_site_fract_x
_atom_site_fract_y
_atom_site_fract_z
Si Si1 0.779267 0.562663 0.000000
Si Si2 0.283822 0.937831 0.648216
Si Si3 0.206720 0.367626 0.245882
Si Si4 0.788214 0.156953 0.151077
Si Si5 0.716254 0.437689 0.500000
Si Si6 0.220271 0.251602 0.346261
O O1 0.716549 0.597033 0.126504
O O2 0.721351 0.500000 0.000000
O O3 0.000000 0.560759 0.000000
O O4 0.223182 0.919445 0.500000
O O5 0.500000 0.938328 0.645281
O O6 0.230936 0.898666 0.767295
O O7 0.224076 0.000000 0.666506
O O8 0.214440 0.406034 0.372858
O O9 0.281771 0.309444 0.288262
O O10 0.000000 0.356616 0.208660
O O11 0.717522 0.204109 0.248066
O O12 0.000000 0.167554 0.139052
O O13 0.715719 0.155434 0.000000
O O14 0.772534 0.500000 0.500000
O O15 0.500000 0.435748 0.500000
O O16 0.276406 0.244743 0.500000
O O17 0.000000 0.251673 0.348837
#
# Coordination Sequence:
#
# PCOD9383904 Si02
#       6
#     4   8   8   8   4   8
#     4   9  18  30  49  81 111 133 168 219 268 316
#     4   9  19  37  59  81 107 143 187 229 268 312
#     4  10  19  34  57  81 105 138 179 222 267 319
#     4  10  21  34  52  81 115 147 178 217 268 325
#     4  11  23  37  53  77 109 141 176 221 272 323
#     4   9  17  31  52  78 104 136 178 220 265 315
#
# _framework density 21.605288999999999
#
# number of rings (size 3 to 8) (size 9 to 14) (size 15 to 20)
#    0.000    2.400    1.000    2.100    1.400    4.000 
#    0.000    4.500    0.000    1.800    0.000    0.000 
#    0.000    0.000    0.000    0.000    0.000    0.000 
#
# Total GULP energy -223334.765533 kJ/mol
# GULP energy per Si atom -5583.369138 kJ/mol
# Density = 2.155611 g / cm^3
# Si number density = 21.605289 Si / 1000 Ang^3
#
#
#
# Elastic Constant Matrix: (Units=GPa)
#
#
# Indices 1 2 3 4 5 6 
#
# 1 65.6013 -2.4922 -0.9318 0.0000 0.0000 0.0000
# 2 -2.4922 164.1377 124.6207 0.0000 0.0000 0.0000
# 3 -0.9318 124.6207 239.2511 0.0000 0.0000 0.0000
# 4 0.0000 0.0000 0.0000 25.7247 0.0000 0.0000
# 5 0.0000 0.0000 0.0000 0.0000 -1.7627 0.0000
# 6 0.0000 0.0000 0.0000 0.0000 0.0000 8.2044
#
#
#
# Elastic Compliance Matrix: (Units=1/GPa)
#
#
# Indices 1 2 3 4 5 6 
#
# 1 0.015254 0.000309 -0.000101 0.000000 0.000000 0.000000
# 2 0.000309 0.010084 -0.005251 0.000000 0.000000 0.000000
# 3 -0.000101 -0.005251 0.006915 0.000000 0.000000 0.000000
# 4 0.000000 0.000000 0.000000 0.038873 0.000000 0.000000
# 5 0.000000 0.000000 0.000000 0.000000 -0.567306 0.000000
# 6 0.000000 0.000000 0.000000 0.000000 0.000000 0.121886
#
#
# Mechanical properties :
#
#
# Convention : Reuss Voigt Hill
#
# Bulk Modulus (GPa) = 45.11750 79.04263 62.08006
# Shear Modulus (GPa) = -14.01280 29.61949 7.80335
#
# Velocity S-wave (km/s) = -2.54949 3.70663 1.90253
# Velocity P-wave (km/s) = 3.50163 7.41506 5.79847
#
# Compressibility (1/GPa) = 0.02216435
#
# Stress axis : x y z
#
# Youngs Moduli (GPa) = 65.55705 99.16404 144.61938
#
# Poissons Ratio (x) = -0.03059 0.01465
# Poissons Ratio (y) = -0.02023 0.75947
# Poissons Ratio (z) = 0.00664 0.52076
#
# Static dielectric constant tensor:
#      x y z
#    x 1.846260 0.000000 0.000000 
#    y 0.000000 1.749860 0.000000 
#    z 0.000000 0.000000 1.718870 
# 
# From -- ./inp_files/1687.got.cif
#   From: 2010.05.17/outbox.cif.g08.bks.cpg/sg47_1_cif.got.tgz:1687.got - 2010.06.03 20:15:42.
