data_PCOD9383196
_publ_section_title
;
Structure prediction by ZEFSAII (Michael W. Deem and Ramdas Pophale) SiO2 
 PCOD9383196
Probable space group: P M M M
;
_chemical_formula_sum "Si O2"
_cell_formula_units_Z 52
_cell_length_a 14.755440
_cell_length_b 8.537063
_cell_length_c 23.731060
_cell_angle_alpha 90.000000
_cell_angle_beta 90.000000
_cell_angle_gamma 90.000000
_cell_volume 2989.357035
_symmetry_space_group_name_H-M "P M M M"
_symmetry_group_IT_number 47
_symmetry_cell_setting 'orthorhombic'
loop_
_space_group_symop_operation_xyz
x,y,z
-x,-y,z
x,-y,-z
-x,y,-z
-x,-y,-z
x,y,-z
-x,y,z
x,-y,z
loop_
_atom_site_type_symbol
_atom_site_label
_atom_site_fract_x
_atom_site_fract_y
_atom_site_fract_z
Si Si1 0.894196 0.189308 0.281098
Si Si2 0.208186 0.687505 0.608809
Si Si3 0.601174 0.689211 0.348736
Si Si4 0.601283 0.189309 0.221603
Si Si5 0.896219 0.311179 0.064031
Si Si6 0.786338 0.811152 0.168686
Si Si7 0.895773 0.812665 0.500000
O O1 0.842421 0.261580 0.334088
O O2 0.847240 0.236917 0.222482
O O3 0.000000 0.232279 0.281623
O O4 0.887904 0.000000 0.285260
O O5 0.207115 0.500000 0.604612
O O6 0.313093 0.740600 0.614341
O O7 0.156471 0.756295 0.555418
O O8 0.500000 0.740603 0.366702
O O9 0.601532 0.500000 0.347835
O O10 0.615398 0.748088 0.284884
O O11 0.500000 0.237002 0.203414
O O12 0.683720 0.240761 0.182103
O O13 0.603649 0.000000 0.224343
O O14 0.895605 0.500000 0.064689
O O15 0.828798 0.250758 0.111332
O O16 0.000000 0.260429 0.076357
O O17 0.874196 0.260947 0.000000
O O18 0.787455 0.000000 0.166711
O O19 0.000000 0.755018 0.500000
O O20 0.898144 0.000000 0.500000
#
# Coordination Sequence:
#
# PCOD9383196 Si02
#       7
#     8   8   8   8   8   8   4
#     4  10  20  33  49  73 107 139 166 205 258 308
#     4  11  22  36  56  80 104 133 172 215 254 300
#     4   9  18  33  53  78 107 136 166 204 254 307
#     4   9  17  30  50  76 105 136 169 207 252 301
#     4   9  19  35  52  71  99 136 176 217 260 306
#     4  10  19  31  50  77 106 134 170 212 255 306
#     4  11  25  43  60  75  98 138 179 213 256 309
#
# _framework density 17.395046000000001
#
# number of rings (size 3 to 8) (size 9 to 14) (size 15 to 20)
#    0.000    2.231    1.538    2.077    0.000    5.846 
#    0.000    1.154    0.000    2.769    0.000    3.231 
#    0.000    0.000    0.000    0.000    0.000    0.000 
#
# Total GULP energy -290116.876992 kJ/mol
# GULP energy per Si atom -5579.170711 kJ/mol
# Density = 1.735545 g / cm^3
# Si number density = 17.395046 Si / 1000 Ang^3
#
#
#
# Elastic Constant Matrix: (Units=GPa)
#
#
# Indices 1 2 3 4 5 6 
#
# 1 187.6605 32.6208 99.8747 0.0000 0.0000 0.0000
# 2 32.6208 10.0173 21.9207 0.0000 0.0000 0.0000
# 3 99.8747 21.9207 124.1977 0.0000 0.0000 0.0000
# 4 0.0000 0.0000 0.0000 30.3262 0.0000 0.0000
# 5 0.0000 0.0000 0.0000 0.0000 30.7330 0.0000
# 6 0.0000 0.0000 0.0000 0.0000 0.0000 21.2305
#
#
#
# Elastic Compliance Matrix: (Units=1/GPa)
#
#
# Indices 1 2 3 4 5 6 
#
# 1 0.014128 -0.034451 -0.005280 0.000000 0.000000 0.000000
# 2 -0.034451 0.246656 -0.015831 0.000000 0.000000 0.000000
# 3 -0.005280 -0.015831 0.015092 0.000000 0.000000 0.000000
# 4 0.000000 0.000000 0.000000 0.032975 0.000000 0.000000
# 5 0.000000 0.000000 0.000000 0.000000 0.032538 0.000000
# 6 0.000000 0.000000 0.000000 0.000000 0.000000 0.047102
#
#
# Mechanical properties :
#
#
# Convention : Reuss Voigt Hill
#
# Bulk Modulus (GPa) = 6.06972 70.07867 38.07420
# Shear Modulus (GPa) = 9.01662 27.62188 18.31925
#
# Velocity S-wave (km/s) = 2.27919 3.98919 3.24872
# Velocity P-wave (km/s) = 3.22849 7.84807 6.00064
#
# Compressibility (1/GPa) = 0.16475224
#
# Stress axis : x y z
#
# Youngs Moduli (GPa) = 70.78387 4.05423 66.26063
#
# Poissons Ratio (x) = 0.13967 0.34987
# Poissons Ratio (y) = 2.43856 1.04894
# Poissons Ratio (z) = 0.37376 0.06418
#
# Static dielectric constant tensor:
#      x y z
#    x 1.620540 0.000000 0.000000 
#    y 0.000000 1.597010 0.000000 
#    z 0.000000 0.000000 1.548360 
# 
# From -- ./inp_files/11037.got.cif
#   From: 2010.05.17/outbox.cif.g08.bks.cpg/sg47_6_cif.got.tgz:11037.got - 2010.06.03 20:15:42.
