data_PCOD9383011
_publ_section_title
;
Structure prediction by ZEFSAII (Michael W. Deem and Ramdas Pophale) SiO2 
 PCOD9383011
Probable space group: P M M M
;
_chemical_formula_sum "Si O2"
_cell_formula_units_Z 40
_cell_length_a 19.111550
_cell_length_b 18.941520
_cell_length_c 7.791441
_cell_angle_alpha 90.000000
_cell_angle_beta 90.000000
_cell_angle_gamma 90.000000
_cell_volume 2820.515718
_symmetry_space_group_name_H-M "P M M M"
_symmetry_group_IT_number 47
_symmetry_cell_setting 'orthorhombic'
loop_
_space_group_symop_operation_xyz
x,y,z
-x,-y,z
x,-y,-z
-x,y,-z
-x,-y,-z
x,y,-z
-x,y,z
x,-y,z
loop_
_atom_site_type_symbol
_atom_site_label
_atom_site_fract_x
_atom_site_fract_y
_atom_site_fract_z
Si Si1 0.081131 0.230444 0.291827
Si Si2 0.318551 0.583373 0.306227
Si Si3 0.080007 0.500000 0.790226
Si Si4 0.420284 0.585703 0.000000
Si Si5 0.170748 0.633720 0.796837
Si Si6 0.084442 0.924152 0.295328
O O1 0.080467 0.228891 0.500000
O O2 0.130814 0.293352 0.234362
O O3 0.106218 0.152874 0.229683
O O4 0.000000 0.241804 0.237024
O O5 0.345260 0.589112 0.500000
O O6 0.301927 0.500000 0.273874
O O7 0.375739 0.605966 0.167278
O O8 0.246554 0.625820 0.287021
O O9 0.121301 0.569762 0.734804
O O10 0.000000 0.500000 0.731413
O O11 0.078756 0.500000 0.000000
O O12 0.423339 0.500000 0.000000
O O13 0.500000 0.611631 0.000000
O O14 0.181421 0.623916 0.000000
O O15 0.098944 0.924941 0.500000
O O16 0.000000 0.923796 0.278124
O O17 0.109515 0.000000 0.224449
#
# Coordination Sequence:
#
# PCOD9383011 Si02
#       6
#     8   8   4   4   8   8
#     4   9  17  27  38  56  80 102 136 187 227 259
#     4  10  19  31  48  66  85 111 142 173 211 256
#     4   9  18  28  39  53  69 101 147 188 221 254
#     4   9  18  32  50  70  90 108 131 168 211 253
#     4  11  19  29  43  55  78 111 145 180 219 260
#     4   7  10  19  36  54  71  95 128 169 219 267
#
# _framework density 14.181803
#
# number of rings (size 3 to 8) (size 9 to 14) (size 15 to 20)
#    0.000    2.800    2.000    3.000    0.000    1.600 
#    0.000    2.000    0.000    3.000    0.000    2.800 
#    0.000    0.000    0.000    0.000    0.000    2.000 
#
# Total GULP energy -222791.128882 kJ/mol
# GULP energy per Si atom -5569.778222 kJ/mol
# Density = 1.414952 g / cm^3
# Si number density = 14.181803 Si / 1000 Ang^3
#
#
#
# Elastic Constant Matrix: (Units=GPa)
#
#
# Indices 1 2 3 4 5 6 
#
# 1 84.9253 35.3275 28.4534 0.0000 0.0000 0.0000
# 2 35.3275 100.0147 14.3496 0.0000 0.0000 0.0000
# 3 28.4534 14.3496 49.4881 0.0000 0.0000 0.0000
# 4 0.0000 0.0000 0.0000 -1.4894 0.0000 0.0000
# 5 0.0000 0.0000 0.0000 0.0000 5.7085 0.0000
# 6 0.0000 0.0000 0.0000 0.0000 0.0000 2.3227
#
#
#
# Elastic Compliance Matrix: (Units=1/GPa)
#
#
# Indices 1 2 3 4 5 6 
#
# 1 0.016416 -0.004637 -0.008094 0.000000 0.000000 0.000000
# 2 -0.004637 0.011742 -0.000739 0.000000 0.000000 0.000000
# 3 -0.008094 -0.000739 0.025075 0.000000 0.000000 0.000000
# 4 0.000000 0.000000 0.000000 -0.671433 0.000000 0.000000
# 5 0.000000 0.000000 0.000000 0.000000 0.175177 0.000000
# 6 0.000000 0.000000 0.000000 0.000000 0.000000 0.430533
#
#
# Mechanical properties :
#
#
# Convention : Reuss Voigt Hill
#
# Bulk Modulus (GPa) = 38.03200 43.40990 40.72095
# Shear Modulus (GPa) = 215.39308 11.72822 113.56065
#
# Velocity S-wave (km/s) = 12.33733 2.87886 8.95817
# Velocity P-wave (km/s) = 15.15988 6.45961 11.65222
#
# Compressibility (1/GPa) = 0.02629365
#
# Stress axis : x y z
#
# Youngs Moduli (GPa) = 60.91703 85.16093 39.88103
#
# Poissons Ratio (x) = 0.39491 0.32279
# Poissons Ratio (y) = 0.28248 0.02946
# Poissons Ratio (z) = 0.49305 0.06291
#
# Static dielectric constant tensor:
#      x y z
#    x 1.431550 0.000000 0.000000 
#    y 0.000000 1.491790 0.000000 
#    z 0.000000 0.000000 1.514900 
# 
# From -- ./inp_files/9358.got.cif
#   From: 2010.05.17/outbox.cif.g08.bks.cpg/sg47_5_cif.got.tgz:9358.got - 2010.06.03 20:15:42.
