data_PCOD9383377
_publ_section_title
;
Structure prediction by ZEFSAII (Michael W. Deem and Ramdas Pophale) SiO2 
 PCOD9383377
Probable space group: P M M M
;
_chemical_formula_sum "Si O2"
_cell_formula_units_Z 56
_cell_length_a 8.806446
_cell_length_b 14.497432
_cell_length_c 23.827461
_cell_angle_alpha 90.000000
_cell_angle_beta 90.000000
_cell_angle_gamma 90.000000
_cell_volume 3042.072248
_symmetry_space_group_name_H-M "P M M M"
_symmetry_group_IT_number 47
_symmetry_cell_setting 'orthorhombic'
loop_
_space_group_symop_operation_xyz
x,y,z
-x,-y,z
x,-y,-z
-x,y,-z
-x,-y,-z
x,y,-z
-x,y,z
x,-y,z
loop_
_atom_site_type_symbol
_atom_site_label
_atom_site_fract_x
_atom_site_fract_y
_atom_site_fract_z
Si Si1 0.318128 0.607027 0.000000
Si Si2 0.817117 0.210138 0.387508
Si Si3 0.818787 0.290547 0.893077
Si Si4 0.322835 0.610660 0.786565
Si Si5 0.182987 0.105104 0.159552
Si Si6 0.814325 0.107038 0.500000
Si Si7 0.676878 0.110465 0.719595
Si Si8 0.816997 0.394760 0.334734
O O1 0.258594 0.659068 0.945035
O O2 0.267207 0.500000 0.000000
O O3 0.500000 0.607480 0.000000
O O4 0.763315 0.160160 0.443996
O O5 0.757321 0.158806 0.332382
O O6 0.774820 0.317559 0.380169
O O7 0.000000 0.204904 0.387492
O O8 0.769444 0.340535 0.835689
O O9 0.773801 0.183244 0.885079
O O10 0.000000 0.295543 0.899634
O O11 0.500000 0.636707 0.789648
O O12 0.312081 0.500000 0.794091
O O13 0.256794 0.630920 0.724982
O O14 0.248647 0.131915 0.220371
O O15 0.000000 0.105442 0.163700
O O16 0.231824 0.000000 0.146759
O O17 0.000000 0.107538 0.500000
O O18 0.767027 0.000000 0.500000
O O19 0.500000 0.135722 0.720831
O O20 0.689330 0.000000 0.712397
O O21 0.772650 0.500000 0.348554
O O22 0.000000 0.393000 0.328130
#
# Coordination Sequence:
#
# PCOD9383377 Si02
#       8
#     4   8   8   8   8   4   8   8
#     4  11  25  43  60  79 106 140 175 211 254 305
#     4  10  19  32  51  72  96 132 174 211 253 306
#     4  11  22  36  57  82 106 137 176 216 257 298
#     4  10  20  33  51  77 108 140 171 206 254 310
#     4   9  19  36  56  79 108 140 173 209 252 305
#     4   9  18  32  50  72  96 125 167 215 256 301
#     4  10  20  32  49  77 109 137 167 208 258 306
#     4   9  18  32  49  72 102 132 165 209 257 304
#
# _framework density 18.408505000000002
#
# number of rings (size 3 to 8) (size 9 to 14) (size 15 to 20)
#    0.000    2.143    0.000    3.214    0.000    9.714 
#    0.000    1.071    0.000    5.571    0.000    0.000 
#    0.000    3.429    0.000    0.000    0.000    0.000 
#
# Total GULP energy -312654.017888 kJ/mol
# GULP energy per Si atom -5583.107462 kJ/mol
# Density = 1.836661 g / cm^3
# Si number density = 18.408505 Si / 1000 Ang^3
#
#
#
# Elastic Constant Matrix: (Units=GPa)
#
#
# Indices 1 2 3 4 5 6 
#
# 1 22.2245 37.3034 27.5589 0.0000 0.0000 0.0000
# 2 37.3034 130.9848 104.5443 0.0000 0.0000 0.0000
# 3 27.5589 104.5443 111.0766 0.0000 0.0000 0.0000
# 4 0.0000 0.0000 0.0000 33.2902 0.0000 0.0000
# 5 0.0000 0.0000 0.0000 0.0000 -91.0772 0.0000
# 6 0.0000 0.0000 0.0000 0.0000 0.0000 16.5236
#
#
#
# Elastic Compliance Matrix: (Units=1/GPa)
#
#
# Indices 1 2 3 4 5 6 
#
# 1 0.087540 -0.030529 0.007015 0.000000 0.000000 0.000000
# 2 -0.030529 0.041332 -0.031327 0.000000 0.000000 0.000000
# 3 0.007015 -0.031327 0.036747 0.000000 0.000000 0.000000
# 4 0.000000 0.000000 0.000000 0.030039 0.000000 0.000000
# 5 0.000000 0.000000 0.000000 0.000000 -0.010980 0.000000
# 6 0.000000 0.000000 0.000000 0.000000 0.000000 0.060520
#
#
# Mechanical properties :
#
#
# Convention : Reuss Voigt Hill
#
# Bulk Modulus (GPa) = 17.87756 67.01100 42.44428
# Shear Modulus (GPa) = 13.38588 -1.92741 5.72923
#
# Velocity S-wave (km/s) = 2.69951 -1.02435 1.76608
# Velocity P-wave (km/s) = 4.41012 5.92302 5.22165
#
# Compressibility (1/GPa) = 0.05593603
#
# Stress axis : x y z
#
# Youngs Moduli (GPa) = 11.42332 24.19404 27.21290
#
# Poissons Ratio (x) = 0.73863 -0.19089
# Poissons Ratio (y) = 0.34875 0.85250
# Poissons Ratio (z) = -0.08013 0.75793
#
# Static dielectric constant tensor:
#      x y z
#    x 1.613440 0.000000 0.000000 
#    y 0.000000 1.676060 0.000000 
#    z 0.000000 0.000000 1.587340 
# 
# From -- ./inp_files/11353.got.cif
#   From: 2010.05.17/outbox.cif.g08.bks.cpg/sg47_6_cif.got.tgz:11353.got - 2010.06.03 20:15:42.
