data_PCOD9383777
_publ_section_title
;
Structure prediction by ZEFSAII (Michael W. Deem and Ramdas Pophale) SiO2 
 PCOD9383777
Probable space group: P M M M
;
_chemical_formula_sum "Si O2"
_cell_formula_units_Z 56
_cell_length_a 22.147130
_cell_length_b 14.703814
_cell_length_c 7.531714
_cell_angle_alpha 90.000000
_cell_angle_beta 90.000000
_cell_angle_gamma 90.000000
_cell_volume 2452.682179
_symmetry_space_group_name_H-M "P M M M"
_symmetry_group_IT_number 47
_symmetry_cell_setting 'orthorhombic'
loop_
_space_group_symop_operation_xyz
x,y,z
-x,-y,z
x,-y,-z
-x,y,-z
-x,-y,-z
x,y,-z
-x,y,z
x,-y,z
loop_
_atom_site_type_symbol
_atom_site_label
_atom_site_fract_x
_atom_site_fract_y
_atom_site_fract_z
Si Si1 0.806157 0.788786 0.712622
Si Si2 0.072474 0.597062 0.204850
Si Si3 0.683919 0.103552 0.214016
Si Si4 0.752383 0.601129 0.716304
Si Si5 0.932404 0.198901 0.701756
Si Si6 0.388364 0.601102 0.714375
Si Si7 0.565287 0.794900 0.791928
O O1 0.813873 0.782705 0.500000
O O2 0.746461 0.847385 0.742330
O O3 0.790930 0.686768 0.779863
O O4 0.868725 0.832169 0.784281
O O5 0.094719 0.500000 0.279946
O O6 0.080548 0.692177 0.302015
O O7 0.000000 0.590013 0.200027
O O8 0.092415 0.604812 0.000000
O O9 0.625329 0.157930 0.283044
O O10 0.683376 0.000000 0.277386
O O11 0.680416 0.102716 0.000000
O O12 0.754638 0.601206 0.500000
O O13 0.770182 0.500000 0.776582
O O14 0.682033 0.614178 0.765433
O O15 0.936312 0.164489 0.500000
O O16 0.000000 0.185834 0.781248
O O17 0.390535 0.601851 0.500000
O O18 0.407324 0.500000 0.773024
O O19 0.425753 0.686572 0.779084
O O20 0.500000 0.820206 0.714411
O O21 0.563533 0.818941 0.000000
#
# Coordination Sequence:
#
# PCOD9383777 Si02
#       7
#     8   8   8   8   8   8   8
#     4  10  19  33  56  80 104 138 177 218 262 310
#     4   8  14  25  40  59  89 132 177 215 251 296
#     4  10  22  40  60  81 105 133 169 216 266 317
#     4   8  14  26  46  72 101 135 175 215 253 294
#     4   9  18  30  45  71 104 134 167 210 262 318
#     4   9  17  31  52  77 108 147 186 219 252 296
#     4  10  21  36  55  81 112 143 173 210 260 313
#
# _framework density 22.832146000000002
#
# number of rings (size 3 to 8) (size 9 to 14) (size 15 to 20)
#    0.000    2.857    1.429    1.286    0.000    2.857 
#    0.000    5.714    0.000    0.857    0.000    5.000 
#    0.000    0.000    0.000    0.000    0.000    0.000 
#
# Total GULP energy -312298.029866 kJ/mol
# GULP energy per Si atom -5576.750533 kJ/mol
# Density = 2.278018 g / cm^3
# Si number density = 22.832146 Si / 1000 Ang^3
#
#
#
# Elastic Constant Matrix: (Units=GPa)
#
#
# Indices 1 2 3 4 5 6 
#
# 1 212.5129 71.6884 7.7573 0.0000 0.0000 0.0000
# 2 71.6884 78.8440 -1.9177 0.0000 0.0000 0.0000
# 3 7.7573 -1.9177 60.8670 0.0000 0.0000 0.0000
# 4 0.0000 0.0000 0.0000 18.2443 0.0000 0.0000
# 5 0.0000 0.0000 0.0000 0.0000 15.7949 0.0000
# 6 0.0000 0.0000 0.0000 0.0000 0.0000 -6.4731
#
#
#
# Elastic Compliance Matrix: (Units=1/GPa)
#
#
# Indices 1 2 3 4 5 6 
#
# 1 0.006857 -0.006260 -0.001071 0.000000 0.000000 0.000000
# 2 -0.006260 0.018409 0.001378 0.000000 0.000000 0.000000
# 3 -0.001071 0.001378 0.016609 0.000000 0.000000 0.000000
# 4 0.000000 0.000000 0.000000 0.054812 0.000000 0.000000
# 5 0.000000 0.000000 0.000000 0.000000 0.063311 0.000000
# 6 0.000000 0.000000 0.000000 0.000000 0.000000 -0.154486
#
#
# Mechanical properties :
#
#
# Convention : Reuss Voigt Hill
#
# Bulk Modulus (GPa) = 33.36940 56.36446 44.86693
# Shear Modulus (GPa) = 182.43147 23.82629 103.12888
#
# Velocity S-wave (km/s) = 8.94844 3.23389 6.72803
# Velocity P-wave (km/s) = 11.01876 6.21966 8.94699
#
# Compressibility (1/GPa) = 0.02996758
#
# Stress axis : x y z
#
# Youngs Moduli (GPa) = 145.84650 54.32149 60.20762
#
# Poissons Ratio (x) = 0.34007 0.06449
# Poissons Ratio (y) = 0.91304 -0.08296
# Poissons Ratio (z) = 0.15621 -0.07485
#
# Static dielectric constant tensor:
#      x y z
#    x 1.914640 0.000000 0.000000 
#    y 0.000000 1.841870 0.000000 
#    z 0.000000 0.000000 1.882230 
# 
# From -- ./inp_files/11194.got.cif
#   From: 2010.05.17/outbox.cif.g08.bks.cpg/sg47_6_cif.got.tgz:11194.got - 2010.06.03 20:15:42.
