data_PCOD9383498
_publ_section_title
;
Structure prediction by ZEFSAII (Michael W. Deem and Ramdas Pophale) SiO2 
 PCOD9383498
Probable space group: P M M M
;
_chemical_formula_sum "Si O2"
_cell_formula_units_Z 64
_cell_length_a 15.692949
_cell_length_b 7.473834
_cell_length_c 25.756557
_cell_angle_alpha 90.000000
_cell_angle_beta 90.000000
_cell_angle_gamma 90.000000
_cell_volume 3020.896314
_symmetry_space_group_name_H-M "P M M M"
_symmetry_group_IT_number 47
_symmetry_cell_setting 'orthorhombic'
loop_
_space_group_symop_operation_xyz
x,y,z
-x,-y,z
x,-y,-z
-x,y,-z
-x,-y,-z
x,y,-z
-x,y,z
x,-y,z
loop_
_atom_site_type_symbol
_atom_site_label
_atom_site_fract_x
_atom_site_fract_y
_atom_site_fract_z
Si Si1 0.728053 0.787827 0.148475
Si Si2 0.592255 0.219365 0.230643
Si Si3 0.405042 0.284708 0.940404
Si Si4 0.343034 0.203989 0.336090
Si Si5 0.091250 0.788817 0.586580
Si Si6 0.845303 0.713068 0.301449
Si Si7 0.094290 0.211799 0.814876
Si Si8 0.721229 0.780537 0.443018
O O1 0.668835 0.715477 0.194859
O O2 0.672735 0.765601 0.096649
O O3 0.824139 0.715960 0.153286
O O4 0.735389 0.000000 0.157383
O O5 0.500000 0.270017 0.209347
O O6 0.602254 0.283594 0.289686
O O7 0.595873 0.000000 0.231558
O O8 0.500000 0.222011 0.923250
O O9 0.407796 0.500000 0.940707
O O10 0.392869 0.225378 0.000000
O O11 0.247253 0.203120 0.312357
O O12 0.332220 0.283426 0.393361
O O13 0.372828 0.000000 0.343176
O O14 0.098897 0.766925 0.648801
O O15 0.180532 0.719582 0.564151
O O16 0.000000 0.714094 0.569202
O O17 0.090549 0.000000 0.574494
O O18 0.835495 0.500000 0.301929
O O19 0.883256 0.766989 0.246145
O O20 0.000000 0.287799 0.824932
O O21 0.089111 0.000000 0.825483
O O22 0.690254 0.730226 0.500000
O O23 0.722519 0.000000 0.440149
#
# Coordination Sequence:
#
# PCOD9383498 Si02
#       8
#     8   8   8   8   8   8   8   8
#     4  10  19  32  52  78 106 133 170 216 252 289
#     4   9  16  27  47  74 100 126 157 195 244 300
#     4   9  19  36  56  79 110 146 177 205 246 299
#     4   9  16  30  48  64  91 125 156 191 242 300
#     4   9  17  28  42  59  82 114 150 192 245 299
#     4  11  20  29  44  66  93 123 160 202 242 285
#     4  10  20  34  51  70  98 137 175 208 247 295
#     4   8  14  24  41  63  82 109 154 200 236 279
#
# _framework density 21.185766000000001
#
# number of rings (size 3 to 8) (size 9 to 14) (size 15 to 20)
#    0.000    2.625    1.250    3.000    0.000    3.750 
#    0.000    1.875    0.000    7.125    0.000    8.750 
#    0.000    0.000    0.000    4.500    0.000    5.000 
#
# Total GULP energy -357009.957335 kJ/mol
# GULP energy per Si atom -5578.280583 kJ/mol
# Density = 2.113755 g / cm^3
# Si number density = 21.185766 Si / 1000 Ang^3
#
#
#
# Elastic Constant Matrix: (Units=GPa)
#
#
# Indices 1 2 3 4 5 6 
#
# 1 124.9627 3.7187 68.3684 0.0000 0.0000 0.0000
# 2 3.7187 67.4591 -7.6713 0.0000 0.0000 0.0000
# 3 68.3684 -7.6713 117.3653 0.0000 0.0000 0.0000
# 4 0.0000 0.0000 0.0000 41.1438 0.0000 0.0000
# 5 0.0000 0.0000 0.0000 0.0000 18.1257 0.0000
# 6 0.0000 0.0000 0.0000 0.0000 0.0000 33.9934
#
#
#
# Elastic Compliance Matrix: (Units=1/GPa)
#
#
# Indices 1 2 3 4 5 6 
#
# 1 0.011886 -0.001453 -0.007019 0.000000 0.000000 0.000000
# 2 -0.001453 0.015113 0.001834 0.000000 0.000000 0.000000
# 3 -0.007019 0.001834 0.012729 0.000000 0.000000 0.000000
# 4 0.000000 0.000000 0.000000 0.024305 0.000000 0.000000
# 5 0.000000 0.000000 0.000000 0.000000 0.055170 0.000000
# 6 0.000000 0.000000 0.000000 0.000000 0.000000 0.029417
#
#
# Mechanical properties :
#
#
# Convention : Reuss Voigt Hill
#
# Bulk Modulus (GPa) = 37.80467 48.73542 43.27004
# Shear Modulus (GPa) = 29.28902 35.01065 32.14983
#
# Velocity S-wave (km/s) = 3.72221 4.06957 3.89976
# Velocity P-wave (km/s) = 6.02962 6.71831 6.38326
#
# Compressibility (1/GPa) = 0.02645176
#
# Stress axis : x y z
#
# Youngs Moduli (GPa) = 84.13522 66.17033 78.56151
#
# Poissons Ratio (x) = 0.09617 0.55140
# Poissons Ratio (y) = 0.12228 -0.14411
# Poissons Ratio (z) = 0.59052 -0.12138
#
# Static dielectric constant tensor:
#      x y z
#    x 1.787830 0.000000 0.000000 
#    y 0.000000 1.811360 0.000000 
#    z 0.000000 0.000000 1.755950 
# 
# From -- ./inp_files/32936.got.cif
#   From: 2010.05.17/outbox.cif.g08.bks.cpg/sg47_17_cif.got.tgz:32936.got - 2010.06.03 20:15:42.
