data_PCOD9383565
_publ_section_title
;
Structure prediction by ZEFSAII (Michael W. Deem and Ramdas Pophale) SiO2 
 PCOD9383565
Probable space group: P M M M
;
_chemical_formula_sum "Si O2"
_cell_formula_units_Z 48
_cell_length_a 7.961392
_cell_length_b 7.982383
_cell_length_c 36.989239
_cell_angle_alpha 90.000000
_cell_angle_beta 90.000000
_cell_angle_gamma 90.000000
_cell_volume 2350.698695
_symmetry_space_group_name_H-M "P M M M"
_symmetry_group_IT_number 47
_symmetry_cell_setting 'orthorhombic'
loop_
_space_group_symop_operation_xyz
x,y,z
-x,-y,z
x,-y,-z
-x,y,-z
-x,-y,-z
x,y,-z
-x,y,z
x,-y,z
loop_
_atom_site_type_symbol
_atom_site_label
_atom_site_fract_x
_atom_site_fract_y
_atom_site_fract_z
Si Si1 0.000000 0.795284 0.041406
Si Si2 0.797107 0.000000 0.781153
Si Si3 0.700253 0.806518 0.500000
Si Si4 0.800238 0.193942 0.577642
Si Si5 0.310829 0.797209 0.091013
Si Si6 0.702283 0.000000 0.697745
Si Si7 0.699832 0.319102 0.654501
Si Si8 0.796493 0.312049 0.829752
O O1 0.166000 0.743023 0.063330
O O2 0.000000 0.000000 0.040974
O O3 0.000000 0.738459 0.000000
O O4 0.740294 0.165899 0.802644
O O5 0.741167 0.000000 0.739896
O O6 0.000000 0.000000 0.781729
O O7 0.500000 0.810141 0.500000
O O8 0.757785 0.733004 0.461799
O O9 0.765915 0.000000 0.500000
O O10 0.725974 0.286779 0.612027
O O11 0.000000 0.192062 0.581517
O O12 0.738062 0.000000 0.578564
O O13 0.500000 0.754849 0.079281
O O14 0.275000 0.722927 0.130476
O O15 0.300103 0.000000 0.094276
O O16 0.769526 0.835512 0.677389
O O17 0.500000 0.000000 0.693427
O O18 0.500000 0.323625 0.660918
O O19 0.771669 0.500000 0.664475
O O20 0.751462 0.500000 0.817890
O O21 0.000000 0.302798 0.832447
#
# Coordination Sequence:
#
# PCOD9383565 Si02
#       8
#     4   4   4   8   8   4   8   8
#     4   9  18  32  53  83 123 166 207 257 310 357
#     4  10  22  38  60  88 121 152 189 238 291 351
#     4   9  17  29  50  79 112 150 189 231 278 333
#     4  10  19  32  53  82 114 147 186 234 287 336
#     4  10  19  32  56  85 116 159 207 253 304 361
#     4  10  22  40  60  83 115 150 187 233 285 342
#     4  10  21  38  60  83 109 149 196 235 279 340
#     4  10  20  36  60  87 117 156 197 240 296 358
#
# _framework density 20.419460000000001
#
# number of rings (size 3 to 8) (size 9 to 14) (size 15 to 20)
#    0.000    2.167    2.500    0.750    0.000    4.667 
#    0.000    2.083    0.000    3.500    0.000    1.167 
#    0.000    0.000    0.000    0.000    0.000    0.000 
#
# Total GULP energy -268051.343233 kJ/mol
# GULP energy per Si atom -5584.402984 kJ/mol
# Density = 2.037298 g / cm^3
# Si number density = 20.419460 Si / 1000 Ang^3
#
#
#
# Elastic Constant Matrix: (Units=GPa)
#
#
# Indices 1 2 3 4 5 6 
#
# 1 49.2146 36.5852 24.4861 0.0000 0.0000 0.0000
# 2 36.5852 124.8285 76.3655 0.0000 0.0000 0.0000
# 3 24.4861 76.3655 147.8428 0.0000 0.0000 0.0000
# 4 0.0000 0.0000 0.0000 -0.5231 0.0000 0.0000
# 5 0.0000 0.0000 0.0000 0.0000 30.0815 0.0000
# 6 0.0000 0.0000 0.0000 0.0000 0.0000 5.4979
#
#
#
# Elastic Compliance Matrix: (Units=1/GPa)
#
#
# Indices 1 2 3 4 5 6 
#
# 1 0.026009 -0.007292 -0.000541 0.000000 0.000000 0.000000
# 2 -0.007292 0.013756 -0.005898 0.000000 0.000000 0.000000
# 3 -0.000541 -0.005898 0.009900 0.000000 0.000000 0.000000
# 4 0.000000 0.000000 0.000000 -1.911665 0.000000 0.000000
# 5 0.000000 0.000000 0.000000 0.000000 0.033243 0.000000
# 6 0.000000 0.000000 0.000000 0.000000 0.000000 0.181887
#
#
# Mechanical properties :
#
#
# Convention : Reuss Voigt Hill
#
# Bulk Modulus (GPa) = 45.03785 66.30663 55.67224
# Shear Modulus (GPa) = -3.10172 19.30787 8.10307
#
# Velocity S-wave (km/s) = -1.23382 3.07834 1.99422
# Velocity P-wave (km/s) = 4.48046 6.72143 5.71192
#
# Compressibility (1/GPa) = 0.02220355
#
# Stress axis : x y z
#
# Youngs Moduli (GPa) = 38.44828 72.69496 101.01016
#
# Poissons Ratio (x) = 0.53007 0.05468
# Poissons Ratio (y) = 0.28035 0.59574
# Poissons Ratio (z) = 0.02081 0.42874
#
# Static dielectric constant tensor:
#      x y z
#    x 1.719020 0.000000 0.000000 
#    y 0.000000 1.770160 0.000000 
#    z 0.000000 0.000000 1.675030 
# 
# From -- ./inp_files/34242.got.cif
#   From: 2010.05.17/outbox.cif.g08.bks.cpg/sg47_18_cif.got.tgz:34242.got - 2010.06.03 20:15:42.
