data_PCOD9383840
_publ_section_title
;
Structure prediction by ZEFSAII (Michael W. Deem and Ramdas Pophale) SiO2 
 PCOD9383840
Probable space group: P M M M
;
_chemical_formula_sum "Si O2"
_cell_formula_units_Z 52
_cell_length_a 20.040232
_cell_length_b 16.187291
_cell_length_c 9.285347
_cell_angle_alpha 90.000000
_cell_angle_beta 90.000000
_cell_angle_gamma 90.000000
_cell_volume 3012.139334
_symmetry_space_group_name_H-M "P M M M"
_symmetry_group_IT_number 47
_symmetry_cell_setting 'orthorhombic'
loop_
_space_group_symop_operation_xyz
x,y,z
-x,-y,z
x,-y,-z
-x,y,-z
-x,-y,-z
x,y,-z
-x,y,z
x,-y,z
loop_
_atom_site_type_symbol
_atom_site_label
_atom_site_fract_x
_atom_site_fract_y
_atom_site_fract_z
Si Si1 0.419936 0.405883 0.670518
Si Si2 0.313328 0.906028 0.670511
Si Si3 0.920959 0.000000 0.163403
Si Si4 0.074716 0.598905 0.334383
Si Si5 0.157537 0.134856 0.668629
Si Si6 0.818757 0.697732 0.829424
Si Si7 0.664286 0.266145 0.828238
O O1 0.404757 0.396887 0.500000
O O2 0.500000 0.400992 0.686305
O O3 0.399851 0.500000 0.713516
O O4 0.385282 0.332721 0.758237
O O5 0.329033 0.896886 0.500000
O O6 0.232866 0.900344 0.684225
O O7 0.339884 0.825597 0.756573
O O8 0.333636 0.000000 0.714879
O O9 0.893475 0.922476 0.249192
O O10 0.000000 0.000000 0.159460
O O11 0.894769 0.000000 0.000000
O O12 0.085542 0.626910 0.500000
O O13 0.072552 0.500000 0.336464
O O14 0.135533 0.625928 0.234391
O O15 0.000000 0.627878 0.289095
O O16 0.142949 0.139626 0.500000
O O17 0.156331 0.222534 0.744222
O O18 0.739089 0.697557 0.803232
O O19 0.828416 0.705421 0.000000
O O20 0.654406 0.258878 0.000000
#
# Coordination Sequence:
#
# PCOD9383840 Si02
#       7
#     8   8   4   8   8   8   8
#     4   9  19  37  60  84 111 147 188 225 265 316
#     4   9  17  32  54  78 103 135 177 222 266 312
#     4  11  23  35  47  67  97 131 166 209 264 321
#     4   9  19  36  55  73  94 126 172 221 268 320
#     4  10  19  34  53  72  94 126 170 214 257 308
#     4  10  21  35  51  76 107 137 170 212 265 320
#     4  10  21  34  51  82 116 145 179 219 268 323
#
# _framework density 17.263477999999999
#
# number of rings (size 3 to 8) (size 9 to 14) (size 15 to 20)
#    0.000    2.385    0.769    2.538    0.000    5.846 
#    0.000    4.615    0.000    0.462    0.000    3.231 
#    0.000    0.000    0.000    0.000    0.000    0.000 
#
# Total GULP energy -289788.684006 kJ/mol
# GULP energy per Si atom -5572.859308 kJ/mol
# Density = 1.722419 g / cm^3
# Si number density = 17.263478 Si / 1000 Ang^3
#
#
#
# Elastic Constant Matrix: (Units=GPa)
#
#
# Indices 1 2 3 4 5 6 
#
# 1 45.4561 50.2212 49.5535 0.0000 0.0000 0.0000
# 2 50.2212 115.9086 63.2460 0.0000 0.0000 0.0000
# 3 49.5535 63.2460 87.2174 0.0000 0.0000 0.0000
# 4 0.0000 0.0000 0.0000 31.6156 0.0000 0.0000
# 5 0.0000 0.0000 0.0000 0.0000 27.1092 0.0000
# 6 0.0000 0.0000 0.0000 0.0000 0.0000 43.2193
#
#
#
# Elastic Compliance Matrix: (Units=1/GPa)
#
#
# Indices 1 2 3 4 5 6 
#
# 1 0.069504 -0.014177 -0.029209 0.000000 0.000000 0.000000
# 2 -0.014177 0.017168 -0.004395 0.000000 0.000000 0.000000
# 3 -0.029209 -0.004395 0.031248 0.000000 0.000000 0.000000
# 4 0.000000 0.000000 0.000000 0.031630 0.000000 0.000000
# 5 0.000000 0.000000 0.000000 0.000000 0.036888 0.000000
# 6 0.000000 0.000000 0.000000 0.000000 0.000000 0.023138
#
#
# Mechanical properties :
#
#
# Convention : Reuss Voigt Hill
#
# Bulk Modulus (GPa) = 44.72528 63.84707 54.28618
# Shear Modulus (GPa) = 15.99534 26.09290 21.04412
#
# Velocity S-wave (km/s) = 3.04722 3.89196 3.49520
# Velocity P-wave (km/s) = 6.19229 7.56707 6.91394
#
# Compressibility (1/GPa) = 0.02235872
#
# Stress axis : x y z
#
# Youngs Moduli (GPa) = 14.38758 58.24748 32.00200
#
# Poissons Ratio (x) = 0.82577 0.93475
# Poissons Ratio (y) = 0.20397 0.14064
# Poissons Ratio (z) = 0.42025 0.25598
#
# Static dielectric constant tensor:
#      x y z
#    x 1.578330 0.000000 0.000000 
#    y 0.000000 1.577230 0.000000 
#    z 0.000000 0.000000 1.572370 
# 
# From -- ./inp_files/10995.got.cif
#   From: 2010.05.17/outbox.cif.g08.bks.cpg/sg47_6_cif.got.tgz:10995.got - 2010.06.03 20:15:42.
