data_PCOD9383020
_publ_section_title
;
Structure prediction by ZEFSAII (Michael W. Deem and Ramdas Pophale) SiO2 
 PCOD9383020
Probable space group: P M M M
;
_chemical_formula_sum "Si O2"
_cell_formula_units_Z 56
_cell_length_a 19.928947
_cell_length_b 7.662640
_cell_length_c 18.664244
_cell_angle_alpha 90.000000
_cell_angle_beta 90.000000
_cell_angle_gamma 90.000000
_cell_volume 2850.185839
_symmetry_space_group_name_H-M "P M M M"
_symmetry_group_IT_number 47
_symmetry_cell_setting 'orthorhombic'
loop_
_space_group_symop_operation_xyz
x,y,z
-x,-y,z
x,-y,-z
-x,y,-z
-x,-y,-z
x,y,-z
-x,y,z
x,-y,z
loop_
_atom_site_type_symbol
_atom_site_label
_atom_site_fract_x
_atom_site_fract_y
_atom_site_fract_z
Si Si1 0.574152 0.795487 0.773501
Si Si2 0.798943 0.208367 0.419426
Si Si3 0.074094 0.796435 0.157111
Si Si4 0.289500 0.786070 0.708991
Si Si5 0.219280 0.211477 0.856203
Si Si6 0.074705 0.708292 0.322705
Si Si7 0.359738 0.293959 0.078554
O O1 0.500000 0.718429 0.765215
O O2 0.635665 0.722840 0.726815
O O3 0.599238 0.784511 0.855535
O O4 0.569878 0.000000 0.755412
O O5 0.798370 0.279543 0.500000
O O6 0.741713 0.274950 0.365404
O O7 0.868697 0.238509 0.378338
O O8 0.789828 0.000000 0.424195
O O9 0.144226 0.723308 0.126996
O O10 0.082812 0.787933 0.243473
O O11 0.000000 0.719838 0.140935
O O12 0.071416 0.000000 0.136295
O O13 0.242216 0.734509 0.775949
O O14 0.290002 0.000000 0.709298
O O15 0.280539 0.266799 0.906473
O O16 0.217340 0.000000 0.856900
O O17 0.077534 0.500000 0.313440
O O18 0.000000 0.756202 0.348285
O O19 0.372976 0.500000 0.079662
O O20 0.376974 0.224279 0.000000
#
# Coordination Sequence:
#
# PCOD9383020 Si02
#       7
#     8   8   8   8   8   8   8
#     4   9  18  33  54  76  97 125 158 192 232 280
#     4  10  19  31  48  67  90 125 166 205 244 286
#     4   9  16  28  48  71  94 121 157 202 247 287
#     4   8  14  28  47  69  93 116 151 195 235 275
#     4   9  16  29  50  71  93 124 161 201 239 277
#     4  10  20  31  43  63  94 128 160 200 248 292
#     4  10  21  34  48  71 103 133 158 189 230 277
#
# _framework density 19.647842000000001
#
# number of rings (size 3 to 8) (size 9 to 14) (size 15 to 20)
#    0.000    2.714    1.429    1.714    0.000    3.714 
#    0.000    2.857    0.000    0.857    0.000    6.000 
#    0.000    0.000    0.000    5.000    0.000    6.286 
#
# Total GULP energy -312195.770706 kJ/mol
# GULP energy per Si atom -5574.924477 kJ/mol
# Density = 1.960312 g / cm^3
# Si number density = 19.647842 Si / 1000 Ang^3
#
#
#
# Elastic Constant Matrix: (Units=GPa)
#
#
# Indices 1 2 3 4 5 6 
#
# 1 141.4419 -3.1204 6.0012 0.0000 0.0000 0.0000
# 2 -3.1204 37.2335 -8.1094 0.0000 0.0000 0.0000
# 3 6.0012 -8.1094 17.6684 0.0000 0.0000 0.0000
# 4 0.0000 0.0000 0.0000 24.3622 0.0000 0.0000
# 5 0.0000 0.0000 0.0000 0.0000 -16.4621 0.0000
# 6 0.0000 0.0000 0.0000 0.0000 0.0000 -16.2210
#
#
#
# Elastic Compliance Matrix: (Units=1/GPa)
#
#
# Indices 1 2 3 4 5 6 
#
# 1 0.007174 0.000078 -0.002401 0.000000 0.000000 0.000000
# 2 0.000078 0.029841 0.013670 0.000000 0.000000 0.000000
# 3 -0.002401 0.013670 0.063688 0.000000 0.000000 0.000000
# 4 0.000000 0.000000 0.000000 0.041047 0.000000 0.000000
# 5 0.000000 0.000000 0.000000 0.000000 -0.060746 0.000000
# 6 0.000000 0.000000 0.000000 0.000000 0.000000 -0.061649
#
#
# Mechanical properties :
#
#
# Convention : Reuss Voigt Hill
#
# Bulk Modulus (GPa) = 8.10387 20.65409 14.37898
# Shear Modulus (GPa) = 132.29913 11.77399 72.03656
#
# Velocity S-wave (km/s) = 8.21470 2.45062 6.06164
# Velocity P-wave (km/s) = 9.70096 4.30608 7.50503
#
# Compressibility (1/GPa) = 0.12339784
#
# Stress axis : x y z
#
# Youngs Moduli (GPa) = 139.39955 33.51056 15.70161
#
# Poissons Ratio (x) = -0.00263 0.03769
# Poissons Ratio (y) = -0.01092 -0.21464
# Poissons Ratio (z) = 0.33465 -0.45808
#
# Static dielectric constant tensor:
#      x y z
#    x 1.731400 0.000000 0.000000 
#    y 0.000000 1.753560 0.000000 
#    z 0.000000 0.000000 1.670910 
# 
# From -- ./inp_files/11479.got.cif
#   From: 2010.05.17/outbox.cif.g08.bks.cpg/sg47_6_cif.got.tgz:11479.got - 2010.06.03 20:15:42.
