data_PCOD9383134
_publ_section_title
;
Structure prediction by ZEFSAII (Michael W. Deem and Ramdas Pophale) SiO2 
 PCOD9383134
Probable space group: P M M M
;
_chemical_formula_sum "Si O2"
_cell_formula_units_Z 64
_cell_length_a 23.254451
_cell_length_b 16.811296
_cell_length_c 8.057186
_cell_angle_alpha 90.000000
_cell_angle_beta 90.000000
_cell_angle_gamma 90.000000
_cell_volume 3149.855822
_symmetry_space_group_name_H-M "P M M M"
_symmetry_group_IT_number 47
_symmetry_cell_setting 'orthorhombic'
loop_
_space_group_symop_operation_xyz
x,y,z
-x,-y,z
x,-y,-z
-x,y,-z
-x,-y,-z
x,y,-z
-x,y,z
x,-y,z
loop_
_atom_site_type_symbol
_atom_site_label
_atom_site_fract_x
_atom_site_fract_y
_atom_site_fract_z
Si Si1 0.854082 0.911151 0.302590
Si Si2 0.936285 0.231327 0.300738
Si Si3 0.562607 0.741448 0.200836
Si Si4 0.090566 0.589714 0.190285
Si Si5 0.274421 0.119602 0.191514
Si Si6 0.401284 0.915892 0.202757
Si Si7 0.216588 0.591313 0.310855
Si Si8 0.313210 0.288091 0.696915
O O1 0.864388 0.913288 0.500000
O O2 0.888923 0.833136 0.237886
O O3 0.785719 0.899890 0.276232
O O4 0.869900 0.000000 0.236831
O O5 0.934249 0.227009 0.500000
O O6 0.929840 0.325557 0.261411
O O7 0.000000 0.206528 0.243567
O O8 0.500000 0.711646 0.254915
O O9 0.569741 0.833873 0.255343
O O10 0.620010 0.699019 0.263127
O O11 0.563996 0.740265 0.000000
O O12 0.076723 0.500000 0.262412
O O13 0.159563 0.597360 0.203124
O O14 0.071946 0.587355 0.000000
O O15 0.334519 0.084721 0.257658
O O16 0.288529 0.212680 0.206004
O O17 0.268652 0.095827 0.000000
O O18 0.427793 0.000000 0.253076
O O19 0.401010 0.913552 0.000000
O O20 0.200181 0.616319 0.500000
O O21 0.233327 0.500000 0.316258
O O22 0.271126 0.640942 0.257629
O O23 0.308064 0.272353 0.500000
#
# Coordination Sequence:
#
# PCOD9383134 Si02
#       8
#     8   8   8   8   8   8   8   8
#     4  10  21  36  54  77 105 136 173 222 273 312
#     4  10  22  39  57  77 103 140 184 221 256 307
#     4   9  18  31  46  66  93 127 167 208 249 294
#     4  10  21  36  56  84 114 140 167 206 260 317
#     4  10  19  31  49  74 103 132 164 202 249 309
#     4   8  14  25  42  65  91 118 151 192 235 280
#     4   9  18  33  53  77 104 131 160 198 246 303
#     4  10  19  31  50  74  99 129 165 206 253 302
#
# _framework density 20.318390999999998
#
# number of rings (size 3 to 8) (size 9 to 14) (size 15 to 20)
#    0.000    2.500    0.000    3.000    0.000    7.250 
#    0.000    3.750    0.000    3.750    0.000    7.875 
#    0.000    0.000    0.000    0.000    0.000    0.000 
#
# Total GULP energy -356560.206734 kJ/mol
# GULP energy per Si atom -5571.253230 kJ/mol
# Density = 2.027215 g / cm^3
# Si number density = 20.318391 Si / 1000 Ang^3
#
#
#
# Elastic Constant Matrix: (Units=GPa)
#
#
# Indices 1 2 3 4 5 6 
#
# 1 98.8406 54.9502 7.4184 0.0000 0.0000 0.0000
# 2 54.9502 69.2621 13.5042 0.0000 0.0000 0.0000
# 3 7.4184 13.5042 17.3205 0.0000 0.0000 0.0000
# 4 0.0000 0.0000 0.0000 1.7022 0.0000 0.0000
# 5 0.0000 0.0000 0.0000 0.0000 22.9483 0.0000
# 6 0.0000 0.0000 0.0000 0.0000 0.0000 75.0408
#
#
#
# Elastic Compliance Matrix: (Units=1/GPa)
#
#
# Indices 1 2 3 4 5 6 
#
# 1 0.018347 -0.015358 0.004116 0.000000 0.000000 0.000000
# 2 -0.015358 0.029883 -0.016721 0.000000 0.000000 0.000000
# 3 0.004116 -0.016721 0.069009 0.000000 0.000000 0.000000
# 4 0.000000 0.000000 0.000000 0.587483 0.000000 0.000000
# 5 0.000000 0.000000 0.000000 0.000000 0.043576 0.000000
# 6 0.000000 0.000000 0.000000 0.000000 0.000000 0.013326
#
#
# Mechanical properties :
#
#
# Convention : Reuss Voigt Hill
#
# Bulk Modulus (GPa) = 16.30973 37.46320 26.88647
# Shear Modulus (GPa) = 5.96669 27.24163 16.60416
#
# Velocity S-wave (km/s) = 1.71551 3.66558 2.86177
# Velocity P-wave (km/s) = 3.45955 6.03269 4.91741
#
# Compressibility (1/GPa) = 0.06131308
#
# Stress axis : x y z
#
# Youngs Moduli (GPa) = 54.50567 33.46421 14.49095
#
# Poissons Ratio (x) = 0.51395 -0.05965
# Poissons Ratio (y) = 0.83711 0.24230
# Poissons Ratio (z) = -0.22437 0.55954
#
# Static dielectric constant tensor:
#      x y z
#    x 1.724610 0.000000 0.000000 
#    y 0.000000 1.766350 0.000000 
#    z 0.000000 0.000000 1.758980 
# 
# From -- ./inp_files/12663.got.cif
#   From: 2010.05.17/outbox.cif.g08.bks.cpg/sg47_7_cif.got.tgz:12663.got - 2010.06.03 20:15:42.
