data_PCOD9383521
_publ_section_title
;
Structure prediction by ZEFSAII (Michael W. Deem and Ramdas Pophale) SiO2 
 PCOD9383521
Probable space group: P M M M
;
_chemical_formula_sum "Si O2"
_cell_formula_units_Z 52
_cell_length_a 7.541562
_cell_length_b 20.768536
_cell_length_c 15.697377
_cell_angle_alpha 90.000000
_cell_angle_beta 90.000000
_cell_angle_gamma 90.000000
_cell_volume 2458.636237
_symmetry_space_group_name_H-M "P M M M"
_symmetry_group_IT_number 47
_symmetry_cell_setting 'orthorhombic'
loop_
_space_group_symop_operation_xyz
x,y,z
-x,-y,z
x,-y,-z
-x,y,-z
-x,-y,-z
x,y,-z
-x,y,z
x,-y,z
loop_
_atom_site_type_symbol
_atom_site_label
_atom_site_fract_x
_atom_site_fract_y
_atom_site_fract_z
Si Si1 0.711456 0.681916 0.274782
Si Si2 0.200390 0.857409 0.165758
Si Si3 0.295418 0.720356 0.096652
Si Si4 0.216532 0.926739 0.663874
Si Si5 0.786561 0.792739 0.592284
Si Si6 0.298890 0.075521 0.000000
Si Si7 0.716416 0.426169 0.403604
O O1 0.500000 0.673212 0.266571
O O2 0.784913 0.683452 0.178403
O O3 0.734473 0.748143 0.328223
O O4 0.780926 0.624858 0.334596
O O5 0.293606 0.793195 0.132717
O O6 0.272891 0.899343 0.243689
O O7 0.201254 0.902059 0.083825
O O8 0.000000 0.838150 0.189749
O O9 0.500000 0.700168 0.088696
O O10 0.219149 0.718054 0.000000
O O11 0.268838 0.867335 0.603447
O O12 0.000000 0.929655 0.662780
O O13 0.277585 0.000000 0.647545
O O14 0.723090 0.767983 0.500000
O O15 0.000000 0.792199 0.591445
O O16 0.500000 0.102771 0.000000
O O17 0.311421 0.000000 0.000000
O O18 0.772376 0.409541 0.500000
O O19 0.500000 0.424555 0.403293
O O20 0.768128 0.500000 0.386170
#
# Coordination Sequence:
#
# PCOD9383521 Si02
#       7
#     8   8   8   8   8   4   8
#     4  10  19  32  53  76 101 134 169 207 249 299
#     4  11  20  32  51  70  91 122 165 214 255 300
#     4  10  20  33  49  70  99 131 164 204 256 309
#     4   9  18  32  48  67  92 122 160 207 252 295
#     4  10  20  33  50  73 100 129 164 208 255 303
#     4  11  23  35  47  67  97 127 156 201 266 329
#     4   8  14  26  47  77 108 134 165 205 245 289
#
# _framework density 21.149936
#
# number of rings (size 3 to 8) (size 9 to 14) (size 15 to 20)
#    0.000    2.231    2.308    2.077    0.000    2.462 
#    0.000    1.538    0.000    2.308    0.000    6.462 
#    0.000    0.000    0.000    2.769    0.000    3.231 
#
# Total GULP energy -289989.942163 kJ/mol
# GULP energy per Si atom -5576.729657 kJ/mol
# Density = 2.110180 g / cm^3
# Si number density = 21.149936 Si / 1000 Ang^3
#
#
#
# Elastic Constant Matrix: (Units=GPa)
#
#
# Indices 1 2 3 4 5 6 
#
# 1 56.4857 0.4980 5.9724 0.0000 0.0000 0.0000
# 2 0.4980 109.9255 68.0300 0.0000 0.0000 0.0000
# 3 5.9724 68.0300 165.6718 0.0000 0.0000 0.0000
# 4 0.0000 0.0000 0.0000 28.5569 0.0000 0.0000
# 5 0.0000 0.0000 0.0000 0.0000 7.2582 0.0000
# 6 0.0000 0.0000 0.0000 0.0000 0.0000 23.4955
#
#
#
# Elastic Compliance Matrix: (Units=1/GPa)
#
#
# Indices 1 2 3 4 5 6 
#
# 1 0.017786 0.000424 -0.000815 0.000000 0.000000 0.000000
# 2 0.000424 0.012207 -0.005028 0.000000 0.000000 0.000000
# 3 -0.000815 -0.005028 0.008130 0.000000 0.000000 0.000000
# 4 0.000000 0.000000 0.000000 0.035018 0.000000 0.000000
# 5 0.000000 0.000000 0.000000 0.000000 0.137776 0.000000
# 6 0.000000 0.000000 0.000000 0.000000 0.000000 0.042561
#
#
# Mechanical properties :
#
#
# Convention : Reuss Voigt Hill
#
# Bulk Modulus (GPa) = 36.65065 53.45375 45.05220
# Shear Modulus (GPa) = 18.28750 29.03428 23.66089
#
# Velocity S-wave (km/s) = 2.94370 3.70913 3.34836
# Velocity P-wave (km/s) = 5.37777 6.60849 6.02464
#
# Compressibility (1/GPa) = 0.02728464
#
# Stress axis : x y z
#
# Youngs Moduli (GPa) = 56.22380 81.92240 123.00185
#
# Poissons Ratio (x) = -0.03473 0.10028
# Poissons Ratio (y) = -0.02384 0.61842
# Poissons Ratio (z) = 0.04584 0.41188
#
# Static dielectric constant tensor:
#      x y z
#    x 1.670520 0.000000 0.000000 
#    y 0.000000 1.746170 0.000000 
#    z 0.000000 0.000000 1.790360 
# 
# From -- ./inp_files/21404.got.cif
#   From: 2010.05.17/outbox.cif.g08.bks.cpg/sg47_11_cif.got.tgz:21404.got - 2010.06.03 20:15:42.
