data_PCOD9383062
_publ_section_title
;
Structure prediction by ZEFSAII (Michael W. Deem and Ramdas Pophale) SiO2 
 PCOD9383062
Probable space group: P M M M
;
_chemical_formula_sum "Si O2"
_cell_formula_units_Z 44
_cell_length_a 9.142656
_cell_length_b 33.084735
_cell_length_c 7.925580
_cell_angle_alpha 90.000000
_cell_angle_beta 90.000000
_cell_angle_gamma 90.000000
_cell_volume 2397.348071
_symmetry_space_group_name_H-M "P M M M"
_symmetry_group_IT_number 47
_symmetry_cell_setting 'orthorhombic'
loop_
_space_group_symop_operation_xyz
x,y,z
-x,-y,z
x,-y,-z
-x,y,-z
-x,-y,-z
x,y,-z
-x,y,z
x,-y,z
loop_
_atom_site_type_symbol
_atom_site_label
_atom_site_fract_x
_atom_site_fract_y
_atom_site_fract_z
Si Si1 0.821654 0.711271 0.186076
Si Si2 0.822137 0.858178 0.500000
Si Si3 0.823708 0.916783 0.197342
Si Si4 0.671517 0.455759 0.796595
Si Si5 0.167138 0.374881 0.301617
Si Si6 0.178950 0.234523 0.500000
Si Si7 0.332896 0.000000 0.204817
O O1 0.770861 0.665085 0.212705
O O2 0.773612 0.740735 0.334866
O O3 0.000000 0.709527 0.195269
O O4 0.781273 0.725686 0.000000
O O5 0.779113 0.882411 0.330788
O O6 0.772026 0.811844 0.500000
O O7 0.000000 0.857412 0.500000
O O8 0.751310 0.959115 0.251435
O O9 0.000000 0.920845 0.203816
O O10 0.785427 0.908407 0.000000
O O11 0.500000 0.454058 0.753615
O O12 0.728208 0.500000 0.740464
O O13 0.749854 0.416510 0.726600
O O14 0.683037 0.454597 0.000000
O O15 0.164571 0.365296 0.500000
O O16 0.000000 0.380652 0.243006
O O17 0.000000 0.234287 0.500000
O O18 0.500000 0.000000 0.265415
O O19 0.335556 0.000000 0.000000
#
# Coordination Sequence:
#
# PCOD9383062 Si02
#       7
#     8   4   8   8   8   4   4
#     4   9  16  27  45  68  96 129 159 194 244 291
#     4   9  18  29  44  67  96 129 163 200 239 288
#     4   9  17  30  47  68  97 131 163 198 243 287
#     4   9  19  35  51  68  94 128 165 203 242 289
#     4  10  19  31  48  72 101 128 160 203 244 289
#     4   9  16  28  43  66  98 125 156 199 243 290
#     4   9  17  30  49  72  97 127 166 207 241 280
#
# _framework density 18.353614
#
# number of rings (size 3 to 8) (size 9 to 14) (size 15 to 20)
#    0.000    2.818    0.909    1.364    0.000    4.364 
#    0.000    8.636    0.000    0.000    0.000    2.545 
#    0.000    2.909    0.000    0.000    0.000    0.000 
#
# Total GULP energy -245225.382116 kJ/mol
# GULP energy per Si atom -5573.304139 kJ/mol
# Density = 1.831184 g / cm^3
# Si number density = 18.353614 Si / 1000 Ang^3
#
#
#
# Elastic Constant Matrix: (Units=GPa)
#
#
# Indices 1 2 3 4 5 6 
#
# 1 12.3135 26.2375 17.9800 0.0000 0.0000 0.0000
# 2 26.2375 169.9898 81.8694 0.0000 0.0000 0.0000
# 3 17.9800 81.8694 106.8210 0.0000 0.0000 0.0000
# 4 0.0000 0.0000 0.0000 -58.7994 0.0000 0.0000
# 5 0.0000 0.0000 0.0000 0.0000 10.1274 0.0000
# 6 0.0000 0.0000 0.0000 0.0000 0.0000 -14.5164
#
#
#
# Elastic Compliance Matrix: (Units=1/GPa)
#
#
# Indices 1 2 3 4 5 6 
#
# 1 0.127550 -0.014816 -0.010114 0.000000 0.000000 0.000000
# 2 -0.014816 0.011046 -0.005972 0.000000 0.000000 0.000000
# 3 -0.010114 -0.005972 0.015641 0.000000 0.000000 0.000000
# 4 0.000000 0.000000 0.000000 -0.017007 0.000000 0.000000
# 5 0.000000 0.000000 0.000000 0.000000 0.098742 0.000000
# 6 0.000000 0.000000 0.000000 0.000000 0.000000 -0.068888
#
#
# Mechanical properties :
#
#
# Convention : Reuss Voigt Hill
#
# Bulk Modulus (GPa) = 10.81862 60.14425 35.48143
# Shear Modulus (GPa) = 19.25309 -1.76854 8.74228
#
# Velocity S-wave (km/s) = 3.24235 -0.98269 2.18485
# Velocity P-wave (km/s) = 4.46368 5.61723 5.07335
#
# Compressibility (1/GPa) = 0.09243325
#
# Stress axis : x y z
#
# Youngs Moduli (GPa) = 7.84004 90.53383 63.93609
#
# Poissons Ratio (x) = 1.34136 0.64664
# Poissons Ratio (y) = 0.11616 0.38181
# Poissons Ratio (z) = 0.07929 0.54064
#
# Static dielectric constant tensor:
#      x y z
#    x 1.612200 0.000000 0.000000 
#    y 0.000000 1.624050 0.000000 
#    z 0.000000 0.000000 1.656870 
# 
# From -- ./inp_files/2357.got.cif
#   From: 2010.05.17/outbox.cif.g08.bks.cpg/sg47_2_cif.got.tgz:2357.got - 2010.06.03 20:15:42.
