data_PCOD9383901
_publ_section_title
;
Structure prediction by ZEFSAII (Michael W. Deem and Ramdas Pophale) SiO2 
 PCOD9383901
Probable space group: P M M M
;
_chemical_formula_sum "Si O2"
_cell_formula_units_Z 64
_cell_length_a 26.393168
_cell_length_b 7.588865
_cell_length_c 14.990198
_cell_angle_alpha 90.000000
_cell_angle_beta 90.000000
_cell_angle_gamma 90.000000
_cell_volume 3002.449549
_symmetry_space_group_name_H-M "P M M M"
_symmetry_group_IT_number 47
_symmetry_cell_setting 'orthorhombic'
loop_
_space_group_symop_operation_xyz
x,y,z
-x,-y,z
x,-y,-z
-x,y,-z
-x,-y,-z
x,y,-z
-x,y,z
x,-y,z
loop_
_atom_site_type_symbol
_atom_site_label
_atom_site_fract_x
_atom_site_fract_y
_atom_site_fract_z
Si Si1 0.438505 0.208571 0.595408
Si Si2 0.653278 0.711034 0.900408
Si Si3 0.442498 0.212132 0.211648
Si Si4 0.252812 0.289992 0.788418
Si Si5 0.846056 0.284034 0.896252
Si Si6 0.097891 0.213007 0.400463
Si Si7 0.055467 0.291823 0.209741
Si Si8 0.214894 0.788365 0.598001
O O1 0.421153 0.283727 0.500000
O O2 0.500000 0.220301 0.596544
O O3 0.422926 0.280302 0.691720
O O4 0.426084 0.000000 0.593905
O O5 0.658978 0.500000 0.904364
O O6 0.597422 0.745546 0.863881
O O7 0.696046 0.780263 0.833046
O O8 0.660641 0.780825 0.000000
O O9 0.500000 0.275195 0.195771
O O10 0.445229 0.000000 0.219058
O O11 0.252520 0.500000 0.800822
O O12 0.202958 0.223356 0.840478
O O13 0.247561 0.259249 0.683383
O O14 0.846012 0.500000 0.894328
O O15 0.897066 0.221700 0.846699
O O16 0.843877 0.232481 0.000000
O O17 0.081077 0.269251 0.500000
O O18 0.066716 0.272603 0.315022
O O19 0.156523 0.271393 0.388854
O O20 0.097298 0.000000 0.400045
O O21 0.053686 0.500000 0.190358
O O22 0.000000 0.216677 0.188964
O O23 0.232034 0.726157 0.500000
O O24 0.213149 0.000000 0.594956
#
# Coordination Sequence:
#
# PCOD9383901 Si02
#       8
#     8   8   8   8   8   8   8   8
#     4   7  10  20  42  71  99 126 159 199 240 284
#     4  10  22  38  54  75 104 137 174 217 263 310
#     4   9  18  33  54  80 108 139 177 218 257 302
#     4  10  19  34  57  80 101 131 173 216 256 304
#     4   9  17  31  52  75  98 128 168 214 263 312
#     4   9  18  33  52  73 100 137 175 207 249 311
#     4  10  20  32  48  75 106 133 169 219 267 308
#     4   9  18  33  54  80 108 136 167 207 256 309
#
# _framework density 21.315929000000001
#
# number of rings (size 3 to 8) (size 9 to 14) (size 15 to 20)
#    0.000    2.875    1.250    2.250    0.000    4.000 
#    0.000    5.625    0.000    4.875    0.000    2.625 
#    0.000    0.000    0.000    0.000    0.000    0.000 
#
# Total GULP energy -356964.204429 kJ/mol
# GULP energy per Si atom -5577.565694 kJ/mol
# Density = 2.126741 g / cm^3
# Si number density = 21.315929 Si / 1000 Ang^3
#
#
#
# Elastic Constant Matrix: (Units=GPa)
#
#
# Indices 1 2 3 4 5 6 
#
# 1 111.8753 5.3932 78.7923 0.0000 0.0000 0.0000
# 2 5.3932 45.2276 -0.1473 0.0000 0.0000 0.0000
# 3 78.7923 -0.1473 143.1441 0.0000 0.0000 0.0000
# 4 0.0000 0.0000 0.0000 13.9591 0.0000 0.0000
# 5 0.0000 0.0000 0.0000 0.0000 6.2191 0.0000
# 6 0.0000 0.0000 0.0000 0.0000 0.0000 10.8518
#
#
#
# Elastic Compliance Matrix: (Units=1/GPa)
#
#
# Indices 1 2 3 4 5 6 
#
# 1 0.014740 -0.001784 -0.008115 0.000000 0.000000 0.000000
# 2 -0.001784 0.022326 0.001005 0.000000 0.000000 0.000000
# 3 -0.008115 0.001005 0.011454 0.000000 0.000000 0.000000
# 4 0.000000 0.000000 0.000000 0.071638 0.000000 0.000000
# 5 0.000000 0.000000 0.000000 0.000000 0.160795 0.000000
# 6 0.000000 0.000000 0.000000 0.000000 0.000000 0.092150
#
#
# Mechanical properties :
#
#
# Convention : Reuss Voigt Hill
#
# Bulk Modulus (GPa) = 32.53979 52.03594 42.28786
# Shear Modulus (GPa) = 12.46459 20.61992 16.54226
#
# Velocity S-wave (km/s) = 2.42079 3.11360 2.78879
# Velocity P-wave (km/s) = 4.80752 6.11480 5.50014
#
# Compressibility (1/GPa) = 0.03073160
#
# Stress axis : x y z
#
# Youngs Moduli (GPa) = 67.84225 44.78995 87.30551
#
# Poissons Ratio (x) = 0.07991 0.70852
# Poissons Ratio (y) = 0.12104 -0.08774
# Poissons Ratio (z) = 0.55057 -0.04502
#
# Static dielectric constant tensor:
#      x y z
#    x 1.759290 0.000000 0.000000 
#    y 0.000000 1.825540 0.000000 
#    z 0.000000 0.000000 1.781570 
# 
# From -- ./inp_files/7903.got.cif
#   From: 2010.05.17/outbox.cif.g08.bks.cpg/sg47_4_cif.got.tgz:7903.got - 2010.06.03 20:15:42.
