data_PCOD9383061
_publ_section_title
;
Structure prediction by ZEFSAII (Michael W. Deem and Ramdas Pophale) SiO2 
 PCOD9383061
Probable space group: P M M M
;
_chemical_formula_sum "Si O2"
_cell_formula_units_Z 44
_cell_length_a 13.863671
_cell_length_b 9.899987
_cell_length_c 19.952732
_cell_angle_alpha 90.000000
_cell_angle_beta 90.000000
_cell_angle_gamma 90.000000
_cell_volume 2738.515713
_symmetry_space_group_name_H-M "P M M M"
_symmetry_group_IT_number 47
_symmetry_cell_setting 'orthorhombic'
loop_
_space_group_symop_operation_xyz
x,y,z
-x,-y,z
x,-y,-z
-x,y,-z
-x,-y,-z
x,y,-z
-x,y,z
x,-y,z
loop_
_atom_site_type_symbol
_atom_site_label
_atom_site_fract_x
_atom_site_fract_y
_atom_site_fract_z
Si Si1 0.387166 0.161517 0.628680
Si Si2 0.807358 0.753596 0.664564
Si Si3 0.884162 0.844469 0.196561
Si Si4 0.115947 0.000000 0.422772
Si Si5 0.116727 0.500000 0.581242
Si Si6 0.882649 0.654998 0.923508
Si Si7 0.384469 0.344833 0.500000
O O1 0.500000 0.183860 0.645697
O O2 0.305644 0.216152 0.678409
O O3 0.362245 0.251991 0.563690
O O4 0.376324 0.000000 0.616977
O O5 0.859026 0.764293 0.735887
O O6 0.835462 0.624701 0.620481
O O7 0.845165 0.873544 0.617567
O O8 0.848997 0.762080 0.131621
O O9 0.000000 0.851307 0.192195
O O10 0.848764 0.000000 0.200455
O O11 0.147718 0.000000 0.500000
O O12 0.000000 0.000000 0.421800
O O13 0.131537 0.500000 0.500000
O O14 0.000000 0.500000 0.590547
O O15 0.854185 0.500000 0.907957
O O16 0.000000 0.656899 0.922778
O O17 0.853225 0.686308 0.000000
O O18 0.346875 0.500000 0.500000
O O19 0.500000 0.357608 0.500000
#
# Coordination Sequence:
#
# PCOD9383061 Si02
#       7
#     8   8   8   4   4   8   4
#     4  10  21  36  53  73  97 126 164 210 260 316
#     4  12  23  36  54  74  97 132 171 216 264 308
#     4  10  19  31  48  71  99 130 166 206 247 297
#     4  11  22  36  53  69  92 130 175 214 253 301
#     4  11  26  42  53  71 100 132 175 222 263 309
#     4   8  15  28  46  69  98 132 165 195 234 288
#     4   9  19  33  51  71  92 117 152 205 264 313
#
# _framework density 16.067098999999999
#
# number of rings (size 3 to 8) (size 9 to 14) (size 15 to 20)
#    0.000    1.909    1.818    3.000    5.091    2.909 
#    0.000    1.818    0.000    0.000    0.000    0.000 
#    0.000    0.727    0.000    5.818    0.000    1.091 
#
# Total GULP energy -245136.210215 kJ/mol
# GULP energy per Si atom -5571.277505 kJ/mol
# Density = 1.603053 g / cm^3
# Si number density = 16.067099 Si / 1000 Ang^3
#
#
#
# Elastic Constant Matrix: (Units=GPa)
#
#
# Indices 1 2 3 4 5 6 
#
# 1 62.2288 25.5237 13.1198 0.0000 0.0000 0.0000
# 2 25.5237 125.8022 55.9160 0.0000 0.0000 0.0000
# 3 13.1198 55.9160 100.6398 0.0000 0.0000 0.0000
# 4 0.0000 0.0000 0.0000 -61.9826 0.0000 0.0000
# 5 0.0000 0.0000 0.0000 0.0000 0.0397 0.0000
# 6 0.0000 0.0000 0.0000 0.0000 0.0000 18.6866
#
#
#
# Elastic Compliance Matrix: (Units=1/GPa)
#
#
# Indices 1 2 3 4 5 6 
#
# 1 0.017541 -0.003376 -0.000411 0.000000 0.000000 0.000000
# 2 -0.003376 0.011206 -0.005786 0.000000 0.000000 0.000000
# 3 -0.000411 -0.005786 0.013205 0.000000 0.000000 0.000000
# 4 0.000000 0.000000 0.000000 -0.016134 0.000000 0.000000
# 5 0.000000 0.000000 0.000000 0.000000 25.176670 0.000000
# 6 0.000000 0.000000 0.000000 0.000000 0.000000 0.053514
#
#
# Mechanical properties :
#
#
# Convention : Reuss Voigt Hill
#
# Bulk Modulus (GPa) = 43.84889 53.08775 48.46832
# Shear Modulus (GPa) = 0.19776 4.28950 2.24363
#
# Velocity S-wave (km/s) = 0.35122 1.63571 1.18298
# Velocity P-wave (km/s) = 5.24546 6.05643 5.66548
#
# Compressibility (1/GPa) = 0.02280559
#
# Stress axis : x y z
#
# Youngs Moduli (GPa) = 57.00875 89.24098 75.73124
#
# Poissons Ratio (x) = 0.30130 0.03112
# Poissons Ratio (y) = 0.19248 0.43816
# Poissons Ratio (z) = 0.02342 0.51633
#
# Static dielectric constant tensor:
#      x y z
#    x 1.583840 0.000000 0.000000 
#    y 0.000000 1.444590 0.000000 
#    z 0.000000 0.000000 1.528710 
# 
# From -- ./inp_files/27930.got.cif
#   From: 2010.05.17/outbox.cif.g08.bks.cpg/sg47_14_cif.got.tgz:27930.got - 2010.06.03 20:15:42.
