data_PCOD9383129
_publ_section_title
;
Structure prediction by ZEFSAII (Michael W. Deem and Ramdas Pophale) SiO2 
 PCOD9383129
Probable space group: P M M M
;
_chemical_formula_sum "Si O2"
_cell_formula_units_Z 64
_cell_length_a 20.722668
_cell_length_b 20.981536
_cell_length_c 7.496540
_cell_angle_alpha 90.000000
_cell_angle_beta 90.000000
_cell_angle_gamma 90.000000
_cell_volume 3259.446150
_symmetry_space_group_name_H-M "P M M M"
_symmetry_group_IT_number 47
_symmetry_cell_setting 'orthorhombic'
loop_
_space_group_symop_operation_xyz
x,y,z
-x,-y,z
x,-y,-z
-x,y,-z
-x,-y,-z
x,y,-z
-x,y,z
x,-y,z
loop_
_atom_site_type_symbol
_atom_site_label
_atom_site_fract_x
_atom_site_fract_y
_atom_site_fract_z
Si Si1 0.695201 0.071605 0.788693
Si Si2 0.570483 0.154848 0.284788
Si Si3 0.926277 0.071367 0.714881
Si Si4 0.232044 0.295560 0.210214
Si Si5 0.599206 0.430881 0.292142
Si Si6 0.248307 0.568427 0.783098
Si Si7 0.614946 0.293216 0.283512
Si Si8 0.808667 0.160899 0.211459
O O1 0.628342 0.108852 0.767735
O O2 0.752851 0.114942 0.713371
O O3 0.693369 0.000000 0.714863
O O4 0.707137 0.066037 0.000000
O O5 0.570525 0.156724 0.500000
O O6 0.500000 0.132935 0.224377
O O7 0.582641 0.227556 0.224064
O O8 0.927220 0.069987 0.500000
O O9 0.876438 0.125632 0.767880
O O10 0.000000 0.082028 0.775062
O O11 0.905983 0.000000 0.775290
O O12 0.216482 0.366132 0.281924
O O13 0.309601 0.288845 0.231053
O O14 0.198581 0.232396 0.285529
O O15 0.217155 0.298061 0.000000
O O16 0.579968 0.431332 0.500000
O O17 0.578389 0.500000 0.215685
O O18 0.677382 0.431111 0.280766
O O19 0.584112 0.360255 0.218926
O O20 0.219896 0.500000 0.730169
O O21 0.250789 0.570124 0.000000
O O22 0.612483 0.295496 0.500000
O O23 0.796030 0.166909 0.000000
#
# Coordination Sequence:
#
# PCOD9383129 Si02
#       8
#     8   8   8   8   8   8   8   8
#     4  10  21  36  52  70  91 115 146 185 230 280
#     4  10  21  35  49  65  86 114 150 192 236 281
#     4   9  19  35  52  71  97 128 159 188 219 260
#     4   9  16  26  42  64  91 119 147 183 223 263
#     4   8  13  21  35  56  80 106 137 174 216 261
#     4   8  13  21  34  55  84 116 146 175 212 258
#     4   9  16  27  43  61  83 112 146 183 224 271
#     4  10  19  31  49  73  99 124 151 185 225 269
#
# _framework density 19.635237
#
# number of rings (size 3 to 8) (size 9 to 14) (size 15 to 20)
#    0.000    2.875    1.250    0.750    0.000    2.750 
#    0.000    1.875    0.000    0.375    0.000    2.625 
#    0.000    0.500    0.000   27.625    0.000   11.750 
#
# Total GULP energy -356695.512809 kJ/mol
# GULP energy per Si atom -5573.367388 kJ/mol
# Density = 1.959055 g / cm^3
# Si number density = 19.635237 Si / 1000 Ang^3
#
#
#
# Elastic Constant Matrix: (Units=GPa)
#
#
# Indices 1 2 3 4 5 6 
#
# 1 64.0313 70.3351 -7.9623 0.0000 0.0000 0.0000
# 2 70.3351 214.6832 10.6151 0.0000 0.0000 0.0000
# 3 -7.9623 10.6151 53.6060 0.0000 0.0000 0.0000
# 4 0.0000 0.0000 0.0000 5.5347 0.0000 0.0000
# 5 0.0000 0.0000 0.0000 0.0000 120.7510 0.0000
# 6 0.0000 0.0000 0.0000 0.0000 0.0000 49.5019
#
#
#
# Elastic Compliance Matrix: (Units=1/GPa)
#
#
# Indices 1 2 3 4 5 6 
#
# 1 0.025959 -0.008781 0.005595 0.000000 0.000000 0.000000
# 2 -0.008781 0.007675 -0.002824 0.000000 0.000000 0.000000
# 3 0.005595 -0.002824 0.020045 0.000000 0.000000 0.000000
# 4 0.000000 0.000000 0.000000 0.180677 0.000000 0.000000
# 5 0.000000 0.000000 0.000000 0.000000 0.008282 0.000000
# 6 0.000000 0.000000 0.000000 0.000000 0.000000 0.020201
#
#
# Mechanical properties :
#
#
# Convention : Reuss Voigt Hill
#
# Bulk Modulus (GPa) = 24.00565 53.14405 38.57485
# Shear Modulus (GPa) = 17.31630 52.44637 34.88133
#
# Velocity S-wave (km/s) = 2.97290 5.17381 4.21939
# Velocity P-wave (km/s) = 4.90271 7.92562 6.58984
#
# Compressibility (1/GPa) = 0.04165686
#
# Stress axis : x y z
#
# Youngs Moduli (GPa) = 38.52234 130.29925 49.88819
#
# Poissons Ratio (x) = 1.14421 -0.27911
# Poissons Ratio (y) = 0.33828 0.14089
# Poissons Ratio (z) = -0.21552 0.36797
#
# Static dielectric constant tensor:
#      x y z
#    x 1.639540 0.000000 0.000000 
#    y 0.000000 1.766060 0.000000 
#    z 0.000000 0.000000 1.906120 
# 
# From -- ./inp_files/11824.got.cif
#   From: 2010.05.17/outbox.cif.g08.bks.cpg/sg47_6_cif.got.tgz:11824.got - 2010.06.03 20:15:42.
