data_PCOD9383997
_publ_section_title
;
Structure prediction by ZEFSAII (Michael W. Deem and Ramdas Pophale) SiO2 
 PCOD9383997
Probable space group: P M M M
;
_chemical_formula_sum "Si O2"
_cell_formula_units_Z 52
_cell_length_a 17.312356
_cell_length_b 18.417137
_cell_length_c 7.562019
_cell_angle_alpha 90.000000
_cell_angle_beta 90.000000
_cell_angle_gamma 90.000000
_cell_volume 2411.104630
_symmetry_space_group_name_H-M "P M M M"
_symmetry_group_IT_number 47
_symmetry_cell_setting 'orthorhombic'
loop_
_space_group_symop_operation_xyz
x,y,z
-x,-y,z
x,-y,-z
-x,y,-z
-x,-y,-z
x,y,-z
-x,y,z
x,-y,z
loop_
_atom_site_type_symbol
_atom_site_label
_atom_site_fract_x
_atom_site_fract_y
_atom_site_fract_z
Si Si1 0.312865 0.917478 0.216501
Si Si2 0.158982 0.161963 0.208274
Si Si3 0.855673 0.676617 0.794901
Si Si4 0.588666 0.500000 0.716559
Si Si5 0.587600 0.781151 0.213422
Si Si6 0.686398 0.638201 0.291560
Si Si7 0.000000 0.082873 0.287812
Si Si8 0.000000 0.416690 0.782694
O O1 0.229520 0.886812 0.276691
O O2 0.375600 0.857554 0.271692
O O3 0.325824 0.000000 0.275780
O O4 0.313431 0.919302 0.000000
O O5 0.153107 0.242944 0.285841
O O6 0.077298 0.122934 0.227510
O O7 0.176599 0.170718 0.000000
O O8 0.771700 0.640559 0.788019
O O9 0.923809 0.626623 0.722155
O O10 0.877335 0.687979 0.000000
O O11 0.500000 0.500000 0.775040
O O12 0.587506 0.500000 0.500000
O O13 0.633768 0.427926 0.774694
O O14 0.500000 0.770730 0.277479
O O15 0.642477 0.714216 0.263093
O O16 0.585769 0.782633 0.000000
O O17 0.696872 0.627841 0.500000
O O18 0.000000 0.082672 0.500000
O O19 0.000000 0.000000 0.224212
O O20 0.000000 0.500000 0.724233
O O21 0.000000 0.418749 0.000000
#
# Coordination Sequence:
#
# PCOD9383997 Si02
#       8
#     8   8   8   4   8   8   4   4
#     4   9  17  31  53  82 113 145 185 232 279 330
#     4  10  19  35  58  79 106 147 192 232 272 332
#     4  10  20  37  60  85 113 145 187 233 277 327
#     4   9  20  38  57  80 113 152 192 231 273 333
#     4  10  20  36  58  84 115 148 187 237 285 331
#     4  11  22  37  60  86 115 151 190 230 281 341
#     4  11  24  37  51  79 116 145 178 232 287 330
#     4   9  19  34  55  85 116 149 182 220 274 333
#
# _framework density 21.566877000000002
#
# number of rings (size 3 to 8) (size 9 to 14) (size 15 to 20)
#    0.000    2.077    1.538    2.077    1.077    4.308 
#    0.000    3.077    0.000    3.692    0.000    1.077 
#    0.000    0.000    0.000    0.000    0.000    0.000 
#
# Total GULP energy -290556.649420 kJ/mol
# GULP energy per Si atom -5587.627873 kJ/mol
# Density = 2.151779 g / cm^3
# Si number density = 21.566877 Si / 1000 Ang^3
#
#
#
# Elastic Constant Matrix: (Units=GPa)
#
#
# Indices 1 2 3 4 5 6 
#
# 1 149.5168 76.3775 -17.9347 0.0000 0.0000 0.0000
# 2 76.3775 180.2903 -2.0576 0.0000 0.0000 0.0000
# 3 -17.9347 -2.0576 46.3714 0.0000 0.0000 0.0000
# 4 0.0000 0.0000 0.0000 6.8002 0.0000 0.0000
# 5 0.0000 0.0000 0.0000 0.0000 0.0987 0.0000
# 6 0.0000 0.0000 0.0000 0.0000 0.0000 26.0294
#
#
#
# Elastic Compliance Matrix: (Units=1/GPa)
#
#
# Indices 1 2 3 4 5 6 
#
# 1 0.009019 -0.003783 0.003320 0.000000 0.000000 0.000000
# 2 -0.003783 0.007136 -0.001146 0.000000 0.000000 0.000000
# 3 0.003320 -0.001146 0.022798 0.000000 0.000000 0.000000
# 4 0.000000 0.000000 0.000000 0.147056 0.000000 0.000000
# 5 0.000000 0.000000 0.000000 0.000000 10.136608 0.000000
# 6 0.000000 0.000000 0.000000 0.000000 0.000000 0.038418
#
#
# Mechanical properties :
#
#
# Convention : Reuss Voigt Hill
#
# Bulk Modulus (GPa) = 27.98349 54.32767 41.15558
# Shear Modulus (GPa) = 0.48187 27.90520 14.19354
#
# Velocity S-wave (km/s) = 0.47320 3.60097 2.56816
# Velocity P-wave (km/s) = 3.64718 6.52184 5.28376
#
# Compressibility (1/GPa) = 0.03573536
#
# Stress axis : x y z
#
# Youngs Moduli (GPa) = 110.87879 140.13321 43.86291
#
# Poissons Ratio (x) = 0.53010 -0.14564
# Poissons Ratio (y) = 0.41943 0.05028
# Poissons Ratio (z) = -0.36815 0.16065
#
# Static dielectric constant tensor:
#      x y z
#    x 1.737440 0.000000 0.000000 
#    y 0.000000 1.758270 0.000000 
#    z 0.000000 0.000000 1.821890 
# 
# From -- ./inp_files/9620.got.cif
#   From: 2010.05.17/outbox.cif.g08.bks.cpg/sg47_5_cif.got.tgz:9620.got - 2010.06.03 20:15:42.
