data_PCOD9383093
_publ_section_title
;
Structure prediction by ZEFSAII (Michael W. Deem and Ramdas Pophale) SiO2 
 PCOD9383093
Probable space group: P M M M
;
_chemical_formula_sum "Si O2"
_cell_formula_units_Z 52
_cell_length_a 11.015192
_cell_length_b 29.825394
_cell_length_c 9.182872
_cell_angle_alpha 90.000000
_cell_angle_beta 90.000000
_cell_angle_gamma 90.000000
_cell_volume 3016.871357
_symmetry_space_group_name_H-M "P M M M"
_symmetry_group_IT_number 47
_symmetry_cell_setting 'orthorhombic'
loop_
_space_group_symop_operation_xyz
x,y,z
-x,-y,z
x,-y,-z
-x,y,-z
-x,-y,-z
x,y,-z
-x,y,z
x,-y,z
loop_
_atom_site_type_symbol
_atom_site_label
_atom_site_fract_x
_atom_site_fract_y
_atom_site_fract_z
Si Si1 0.361755 0.446375 0.673893
Si Si2 0.000000 0.052916 0.325999
Si Si3 0.147375 0.797841 0.667585
Si Si4 0.643785 0.050216 0.336101
Si Si5 0.204680 0.111643 0.171069
Si Si6 0.853259 0.290445 0.834142
Si Si7 0.142297 0.606738 0.176213
O O1 0.352395 0.438306 0.500000
O O2 0.500000 0.432311 0.719093
O O3 0.354830 0.500000 0.696637
O O4 0.247869 0.423287 0.753531
O O5 0.888121 0.078938 0.254744
O O6 0.000000 0.058413 0.500000
O O7 0.000000 0.000000 0.293654
O O8 0.184094 0.803321 0.500000
O O9 0.193350 0.838784 0.764657
O O10 0.187549 0.749880 0.731343
O O11 0.000000 0.799363 0.672551
O O12 0.689405 0.061687 0.500000
O O13 0.500000 0.046789 0.346375
O O14 0.672213 0.087548 0.217667
O O15 0.690850 0.000000 0.300461
O O16 0.181922 0.111879 0.000000
O O17 0.828350 0.341297 0.786212
O O18 0.000000 0.287862 0.839565
O O19 0.809034 0.284112 0.000000
O O20 0.000000 0.597318 0.218648
O O21 0.145969 0.603097 0.000000
#
# Coordination Sequence:
#
# PCOD9383093 Si02
#       7
#     8   4   8   8   8   8   8
#     4   9  19  35  52  72 103 144 187 228 269 316
#     4  11  23  37  51  69  99 135 167 201 242 293
#     4  10  19  31  49  72 100 133 170 207 245 298
#     4   9  19  37  58  75  93 123 162 201 243 293
#     4  12  23  33  50  75 103 132 161 199 249 299
#     4   8  15  29  48  70 100 132 162 203 256 307
#     4   9  18  32  51  78 109 139 173 219 273 324
#
# _framework density 17.2364
#
# number of rings (size 3 to 8) (size 9 to 14) (size 15 to 20)
#    0.000    2.385    0.769    4.385    0.000    5.538 
#    0.000    4.615    0.000    0.923    0.000    4.308 
#    0.000    0.000    0.000    0.000    0.000    0.000 
#
# Total GULP energy -289676.733998 kJ/mol
# GULP energy per Si atom -5570.706423 kJ/mol
# Density = 1.719717 g / cm^3
# Si number density = 17.236400 Si / 1000 Ang^3
#
#
#
# Elastic Constant Matrix: (Units=GPa)
#
#
# Indices 1 2 3 4 5 6 
#
# 1 75.2427 51.7230 37.3347 0.0000 0.0000 0.0000
# 2 51.7230 106.3424 62.7120 0.0000 0.0000 0.0000
# 3 37.3347 62.7120 85.2558 0.0000 0.0000 0.0000
# 4 0.0000 0.0000 0.0000 32.6194 0.0000 0.0000
# 5 0.0000 0.0000 0.0000 0.0000 21.9726 0.0000
# 6 0.0000 0.0000 0.0000 0.0000 0.0000**********
#
#
#
# Elastic Compliance Matrix: (Units=1/GPa)
#
#
# Indices 1 2 3 4 5 6 
#
# 1 0.020359 -0.008203 -0.002882 0.000000 0.000000 0.000000
# 2 -0.008203 0.019913 -0.011055 0.000000 0.000000 0.000000
# 3 -0.002882 -0.011055 0.021123 0.000000 0.000000 0.000000
# 4 0.000000 0.000000 0.000000 0.030657 0.000000 0.000000
# 5 0.000000 0.000000 0.000000 0.000000 0.045511 0.000000
# 6 0.000000 0.000000 0.000000 0.000000 0.000000 -0.000042
#
#
# Mechanical properties :
#
#
# Convention : Reuss Voigt Hill
#
# Bulk Modulus (GPa) = 58.42635 63.37557 60.90096
# Shear Modulus (GPa) = 26.66586 -4798.36696 -2385.85055
#
# Velocity S-wave (km/s) = 3.93754 -52.81951 -37.24511
# Velocity P-wave (km/s) = 7.39209 60.68788 42.59328
#
# Compressibility (1/GPa) = 0.01711557
#
# Stress axis : x y z
#
# Youngs Moduli (GPa) = 49.11850 50.21912 47.34131
#
# Poissons Ratio (x) = 0.41194 0.13642
# Poissons Ratio (y) = 0.40291 0.52337
# Poissons Ratio (z) = 0.14154 0.55518
#
# Static dielectric constant tensor:
#      x y z
#    x 1.711900 0.000000 0.000000 
#    y 0.000000 1.578490 0.000000 
#    z 0.000000 0.000000 1.584720 
# 
# From -- ./inp_files/4533.got.cif
#   From: 2010.05.17/outbox.cif.g08.bks.cpg/sg47_3_cif.got.tgz:4533.got - 2010.06.03 20:15:42.
