data_PCOD9383290
_publ_section_title
;
Structure prediction by ZEFSAII (Michael W. Deem and Ramdas Pophale) SiO2 
 PCOD9383290
Probable space group: P M M M
;
_chemical_formula_sum "Si O2"
_cell_formula_units_Z 64
_cell_length_a 24.500153
_cell_length_b 19.843278
_cell_length_c 8.215125
_cell_angle_alpha 90.000000
_cell_angle_beta 90.000000
_cell_angle_gamma 90.000000
_cell_volume 3993.892666
_symmetry_space_group_name_H-M "P M M M"
_symmetry_group_IT_number 47
_symmetry_cell_setting 'orthorhombic'
loop_
_space_group_symop_operation_xyz
x,y,z
-x,-y,z
x,-y,-z
-x,y,-z
-x,-y,-z
x,y,-z
-x,y,z
x,-y,z
loop_
_atom_site_type_symbol
_atom_site_label
_atom_site_fract_x
_atom_site_fract_y
_atom_site_fract_z
Si Si1 0.760370 0.574245 0.801686
Si Si2 0.836020 0.202569 0.806261
Si Si3 0.939169 0.286008 0.306408
Si Si4 0.332672 0.156224 0.696274
Si Si5 0.224717 0.923604 0.303981
Si Si6 0.111611 0.424672 0.196566
Si Si7 0.561423 0.922069 0.301374
Si Si8 0.728107 0.717315 0.803365
O O1 0.742475 0.500000 0.745544
O O2 0.824375 0.582762 0.758630
O O3 0.727614 0.639989 0.746481
O O4 0.758768 0.573602 0.000000
O O5 0.892794 0.235902 0.757661
O O6 0.823100 0.127803 0.743606
O O7 0.785547 0.249434 0.747118
O O8 0.832930 0.201557 0.000000
O O9 0.940140 0.279498 0.500000
O O10 0.922042 0.362408 0.263970
O O11 0.000000 0.272270 0.241614
O O12 0.332855 0.153182 0.500000
O O13 0.281707 0.110019 0.753803
O O14 0.389853 0.125856 0.755293
O O15 0.318917 0.232301 0.746564
O O16 0.227245 0.925769 0.500000
O O17 0.218488 0.000000 0.244126
O O18 0.093811 0.500000 0.247141
O O19 0.109042 0.421883 0.000000
O O20 0.561500 0.920687 0.500000
O O21 0.500000 0.903760 0.248695
O O22 0.571824 0.000000 0.255197
O O23 0.728347 0.717110 0.000000
#
# Coordination Sequence:
#
# PCOD9383290 Si02
#       8
#     8   8   8   8   8   8   8   8
#     4   8  13  24  43  63  83 109 141 174 208 251
#     4  10  19  32  49  67  86 110 143 180 216 258
#     4  11  23  35  47  64  88 116 144 177 218 264
#     4   9  16  25  40  64  91 118 148 181 213 249
#     4   9  17  29  46  68  93 118 140 169 215 267
#     4   9  17  31  50  68  86 112 147 182 213 251
#     4   8  13  22  38  60  86 118 156 191 214 237
#     4   9  16  27  43  63  86 112 141 175 217 259
#
# _framework density 16.024466
#
# number of rings (size 3 to 8) (size 9 to 14) (size 15 to 20)
#    0.000    2.875    1.250    2.250    0.000    3.750 
#    0.000    1.250    0.000    2.250    0.000    3.500 
#    0.000    0.500    0.000    6.250    0.000    0.000 
#
# Total GULP energy -356562.012334 kJ/mol
# GULP energy per Si atom -5571.281443 kJ/mol
# Density = 1.598799 g / cm^3
# Si number density = 16.024466 Si / 1000 Ang^3
#
#
#
# Elastic Constant Matrix: (Units=GPa)
#
#
# Indices 1 2 3 4 5 6 
#
# 1 101.5488 72.9767 6.0499 0.0000 0.0000 0.0000
# 2 72.9767 141.5262 10.8860 0.0000 0.0000 0.0000
# 3 6.0499 10.8860 5.9401 0.0000 0.0000 0.0000
# 4 0.0000 0.0000 0.0000 22.1715 0.0000 0.0000
# 5 0.0000 0.0000 0.0000 0.0000 8.6328 0.0000
# 6 0.0000 0.0000 0.0000 0.0000 0.0000 24.0624
#
#
#
# Elastic Compliance Matrix: (Units=1/GPa)
#
#
# Indices 1 2 3 4 5 6 
#
# 1 0.015654 -0.007969 -0.001339 0.000000 0.000000 0.000000
# 2 -0.007969 0.012282 -0.014392 0.000000 0.000000 0.000000
# 3 -0.001339 -0.014392 0.196087 0.000000 0.000000 0.000000
# 4 0.000000 0.000000 0.000000 0.045103 0.000000 0.000000
# 5 0.000000 0.000000 0.000000 0.000000 0.115838 0.000000
# 6 0.000000 0.000000 0.000000 0.000000 0.000000 0.041559
#
#
# Mechanical properties :
#
#
# Convention : Reuss Voigt Hill
#
# Bulk Modulus (GPa) = 5.66179 47.64893 26.65536
# Shear Modulus (GPa) = 9.38443 21.58018 15.48231
#
# Velocity S-wave (km/s) = 2.42261 3.67372 3.11169
# Velocity P-wave (km/s) = 3.37139 6.91337 5.43879
#
# Compressibility (1/GPa) = 0.17662263
#
# Stress axis : x y z
#
# Youngs Moduli (GPa) = 63.88168 81.42054 5.09977
#
# Poissons Ratio (x) = 0.64882 0.00683
# Poissons Ratio (y) = 0.50906 0.07340
# Poissons Ratio (z) = 0.08555 1.17183
#
# Static dielectric constant tensor:
#      x y z
#    x 1.530920 0.000000 0.000000 
#    y 0.000000 1.549410 0.000000 
#    z 0.000000 0.000000 1.564170 
# 
# From -- ./inp_files/11782.got.cif
#   From: 2010.05.17/outbox.cif.g08.bks.cpg/sg47_6_cif.got.tgz:11782.got - 2010.06.03 20:15:42.
