data_PCOD9383905
_publ_section_title
;
Structure prediction by ZEFSAII (Michael W. Deem and Ramdas Pophale) SiO2 
 PCOD9383905
Probable space group: P M M M
;
_chemical_formula_sum "Si O2"
_cell_formula_units_Z 48
_cell_length_a 7.867686
_cell_length_b 18.119990
_cell_length_c 16.472723
_cell_angle_alpha 90.000000
_cell_angle_beta 90.000000
_cell_angle_gamma 90.000000
_cell_volume 2348.390788
_symmetry_space_group_name_H-M "P M M M"
_symmetry_group_IT_number 47
_symmetry_cell_setting 'orthorhombic'
loop_
_space_group_symop_operation_xyz
x,y,z
-x,-y,z
x,-y,-z
-x,y,-z
-x,-y,-z
x,y,-z
-x,y,z
x,-y,z
loop_
_atom_site_type_symbol
_atom_site_label
_atom_site_fract_x
_atom_site_fract_y
_atom_site_fract_z
Si Si1 0.707763 0.881234 0.000000
Si Si2 0.702433 0.500000 0.593557
Si Si3 0.191459 0.224335 0.717122
Si Si4 0.205198 0.338728 0.406998
Si Si5 0.695199 0.348107 0.166254
Si Si6 0.291721 0.500000 0.095648
Si Si7 0.296508 0.079694 0.182248
Si Si8 0.197616 0.285259 0.000000
O O1 0.757547 0.914496 0.087473
O O2 0.500000 0.876837 0.000000
O O3 0.792607 0.801879 0.000000
O O4 0.500000 0.500000 0.590961
O O5 0.771248 0.500000 0.500000
O O6 0.753549 0.420151 0.629507
O O7 0.273542 0.266484 0.640004
O O8 0.197640 0.292853 0.779556
O O9 0.256640 0.151907 0.763939
O O10 0.000000 0.205252 0.694201
O O11 0.266393 0.339065 0.500000
O O12 0.000000 0.334019 0.406978
O O13 0.500000 0.350483 0.196191
O O14 0.761885 0.429269 0.147256
O O15 0.702080 0.312856 0.077529
O O16 0.500000 0.500000 0.093176
O O17 0.237776 0.500000 0.000000
O O18 0.500000 0.077395 0.180157
O O19 0.234265 0.000000 0.214430
O O20 0.000000 0.309900 0.000000
#
# Coordination Sequence:
#
# PCOD9383905 Si02
#       8
#     4   4   8   8   8   4   8   4
#     4  10  19  34  57  81 106 143 182 221 270 329
#     4   9  17  30  53  86 116 140 176 228 276 319
#     4  11  23  37  55  82 112 140 177 229 278 327
#     4   9  19  37  59  81 111 153 191 223 274 340
#     4  11  21  36  55  74 102 144 186 226 273 325
#     4   9  18  33  52  71  94 136 194 231 253 300
#     4  10  21  37  58  83 111 145 184 223 271 334
#     4  12  22  32  50  77 107 139 181 228 271 317
#
# _framework density 20.439529
#
# number of rings (size 3 to 8) (size 9 to 14) (size 15 to 20)
#    0.000    1.833    2.500    2.250    0.000    4.333 
#    0.000    3.750    0.000    2.000    0.000    3.500 
#    0.000    0.000    0.000    0.000    0.000    0.000 
#
# Total GULP energy -267474.016093 kJ/mol
# GULP energy per Si atom -5572.375335 kJ/mol
# Density = 2.039301 g / cm^3
# Si number density = 20.439529 Si / 1000 Ang^3
#
#
#
# Elastic Constant Matrix: (Units=GPa)
#
#
# Indices 1 2 3 4 5 6 
#
# 1 35.2137 16.0422 -0.7242 0.0000 0.0000 0.0000
# 2 16.0422 192.7603 54.4885 0.0000 0.0000 0.0000
# 3 -0.7242 54.4885 69.6047 0.0000 0.0000 0.0000
# 4 0.0000 0.0000 0.0000 12.4235 0.0000 0.0000
# 5 0.0000 0.0000 0.0000 0.0000 -126.5086 0.0000
# 6 0.0000 0.0000 0.0000 0.0000 0.0000 9.8484
#
#
#
# Elastic Compliance Matrix: (Units=1/GPa)
#
#
# Indices 1 2 3 4 5 6 
#
# 1 0.029968 -0.003316 0.002908 0.000000 0.000000 0.000000
# 2 -0.003316 0.007029 -0.005537 0.000000 0.000000 0.000000
# 3 0.002908 -0.005537 0.018732 0.000000 0.000000 0.000000
# 4 0.000000 0.000000 0.000000 0.080493 0.000000 0.000000
# 5 0.000000 0.000000 0.000000 0.000000 -0.007905 0.000000
# 6 0.000000 0.000000 0.000000 0.000000 0.000000 0.101540
#
#
# Mechanical properties :
#
#
# Convention : Reuss Voigt Hill
#
# Bulk Modulus (GPa) = 22.81103 48.57687 35.69395
# Shear Modulus (GPa) = 19.50382 -5.66253 6.92064
#
# Velocity S-wave (km/s) = 3.09240 -1.66625 1.84208
# Velocity P-wave (km/s) = 4.89235 4.48507 4.69313
#
# Compressibility (1/GPa) = 0.04383844
#
# Stress axis : x y z
#
# Youngs Moduli (GPa) = 33.36838 142.26941 53.38582
#
# Poissons Ratio (x) = 0.47177 -0.15523
# Poissons Ratio (y) = 0.11065 0.29559
# Poissons Ratio (z) = -0.09703 0.78774
#
# Static dielectric constant tensor:
#      x y z
#    x 1.740400 0.000000 0.000000 
#    y 0.000000 1.805690 0.000000 
#    z 0.000000 0.000000 1.774110 
# 
# From -- ./inp_files/21203.got.cif
#   From: 2010.05.17/outbox.cif.g08.bks.cpg/sg47_11_cif.got.tgz:21203.got - 2010.06.03 20:15:42.
