data_PCOD9383164
_publ_section_title
;
Structure prediction by ZEFSAII (Michael W. Deem and Ramdas Pophale) SiO2 
 PCOD9383164
Probable space group: P M M M
;
_chemical_formula_sum "Si O2"
_cell_formula_units_Z 64
_cell_length_a 8.869677
_cell_length_b 14.988686
_cell_length_c 28.788773
_cell_angle_alpha 90.000000
_cell_angle_beta 90.000000
_cell_angle_gamma 90.000000
_cell_volume 3827.317769
_symmetry_space_group_name_H-M "P M M M"
_symmetry_group_IT_number 47
_symmetry_cell_setting 'orthorhombic'
loop_
_space_group_symop_operation_xyz
x,y,z
-x,-y,z
x,-y,-z
-x,y,-z
-x,-y,-z
x,y,-z
-x,y,z
x,-y,z
loop_
_atom_site_type_symbol
_atom_site_label
_atom_site_fract_x
_atom_site_fract_y
_atom_site_fract_z
Si Si1 0.183541 0.102959 0.947698
Si Si2 0.817431 0.209767 0.857724
Si Si3 0.681288 0.603705 0.446289
Si Si4 0.670918 0.352160 0.730079
Si Si5 0.819234 0.709485 0.637746
Si Si6 0.818618 0.403835 0.824215
Si Si7 0.181300 0.903822 0.328625
Si Si8 0.670898 0.147539 0.765515
O O1 0.232779 0.167905 0.906507
O O2 0.000000 0.104340 0.947749
O O3 0.227934 0.000000 0.938900
O O4 0.232287 0.127507 0.000000
O O5 0.769066 0.312988 0.849974
O O6 0.753441 0.152150 0.814873
O O7 0.000000 0.207264 0.855628
O O8 0.720450 0.622979 0.500000
O O9 0.500000 0.610914 0.441943
O O10 0.721260 0.500000 0.436997
O O11 0.759302 0.668367 0.409803
O O12 0.500000 0.385344 0.725166
O O13 0.753777 0.347667 0.680819
O O14 0.758869 0.399756 0.771518
O O15 0.664521 0.249937 0.747884
O O16 0.769265 0.812813 0.645783
O O17 0.000000 0.706881 0.639327
O O18 0.772095 0.500000 0.844623
O O19 0.000000 0.401076 0.823215
O O20 0.240198 0.899745 0.275824
O O21 0.000000 0.901266 0.327813
O O22 0.228591 0.000000 0.348941
O O23 0.500000 0.114312 0.769858
#
# Coordination Sequence:
#
# PCOD9383164 Si02
#       8
#     8   8   8   8   8   8   8   8
#     4   8  14  25  42  64  85 104 134 178 222 264
#     4   9  16  27  44  63  84 113 146 179 220 268
#     4   9  19  36  55  73  94 121 152 187 231 281
#     4   9  17  29  44  62  87 119 152 184 218 258
#     4  10  19  31  50  74  97 122 154 192 231 268
#     4   9  17  28  41  59  86 118 149 180 214 256
#     4   9  18  32  48  67  95 130 162 188 218 263
#     4   9  17  28  42  63  90 117 148 186 223 258
#
# _framework density 16.721893999999999
#
# number of rings (size 3 to 8) (size 9 to 14) (size 15 to 20)
#    0.000    3.000    0.000    1.875    0.000    5.500 
#    0.000    1.875    0.000    1.125    0.000    6.125 
#    0.000    0.000    0.000    6.250    0.000    6.500 
#
# Total GULP energy -356371.348300 kJ/mol
# GULP energy per Si atom -5568.302317 kJ/mol
# Density = 1.668383 g / cm^3
# Si number density = 16.721894 Si / 1000 Ang^3
#
#
#
# Elastic Constant Matrix: (Units=GPa)
#
#
# Indices 1 2 3 4 5 6 
#
# 1 12.7773 17.9104 25.8415 0.0000 0.0000 0.0000
# 2 17.9104 100.7250 71.9301 0.0000 0.0000 0.0000
# 3 25.8415 71.9301 126.1962 0.0000 0.0000 0.0000
# 4 0.0000 0.0000 0.0000 22.1815 0.0000 0.0000
# 5 0.0000 0.0000 0.0000 0.0000 -2.8628 0.0000
# 6 0.0000 0.0000 0.0000 0.0000 0.0000 8.3164
#
#
#
# Elastic Compliance Matrix: (Units=1/GPa)
#
#
# Indices 1 2 3 4 5 6 
#
# 1 0.136682 -0.007280 -0.023839 0.000000 0.000000 0.000000
# 2 -0.007280 0.017131 -0.008274 0.000000 0.000000 0.000000
# 3 -0.023839 -0.008274 0.017522 0.000000 0.000000 0.000000
# 4 0.000000 0.000000 0.000000 0.045083 0.000000 0.000000
# 5 0.000000 0.000000 0.000000 0.000000 -0.349313 0.000000
# 6 0.000000 0.000000 0.000000 0.000000 0.000000 0.120245
#
#
# Mechanical properties :
#
#
# Convention : Reuss Voigt Hill
#
# Bulk Modulus (GPa) = 10.80511 52.34029 31.57270
# Shear Modulus (GPa) = 51.55453 13.79477 32.67465
#
# Velocity S-wave (km/s) = 5.55855 2.87532 4.42521
# Velocity P-wave (km/s) = 6.90452 6.51089 6.71059
#
# Compressibility (1/GPa) = 0.09254878
#
# Stress axis : x y z
#
# Youngs Moduli (GPa) = 7.31626 58.37394 57.07225
#
# Poissons Ratio (x) = 0.42496 1.36056
# Poissons Ratio (y) = 0.05326 0.47220
# Poissons Ratio (z) = 0.17441 0.48297
#
# Static dielectric constant tensor:
#      x y z
#    x 1.567470 0.000000 0.000000 
#    y 0.000000 1.609360 0.000000 
#    z 0.000000 0.000000 1.535120 
# 
# From -- ./inp_files/25847.got.cif
#   From: 2010.05.17/outbox.cif.g08.bks.cpg/sg47_13_cif.got.tgz:25847.got - 2010.06.03 20:15:42.
