data_PCOD9383744
_publ_section_title
;
Structure prediction by ZEFSAII (Michael W. Deem and Ramdas Pophale) SiO2 
 PCOD9383744
Probable space group: P M M M
;
_chemical_formula_sum "Si O2"
_cell_formula_units_Z 32
_cell_length_a 12.332177
_cell_length_b 7.451330
_cell_length_c 16.104912
_cell_angle_alpha 90.000000
_cell_angle_beta 90.000000
_cell_angle_gamma 90.000000
_cell_volume 1479.898408
_symmetry_space_group_name_H-M "P M M M"
_symmetry_group_IT_number 47
_symmetry_cell_setting 'orthorhombic'
loop_
_space_group_symop_operation_xyz
x,y,z
-x,-y,z
x,-y,-z
-x,y,-z
-x,-y,-z
x,y,-z
-x,y,z
x,-y,z
loop_
_atom_site_type_symbol
_atom_site_label
_atom_site_fract_x
_atom_site_fract_y
_atom_site_fract_z
Si Si1 0.731487 0.786411 0.840168
Si Si2 0.500000 0.218446 0.596436
Si Si3 0.878092 0.287422 0.000000
Si Si4 0.875360 0.219509 0.500000
Si Si5 0.735502 0.219222 0.342234
Si Si6 0.500000 0.219548 0.096603
O O1 0.811226 0.759041 0.917290
O O2 0.769001 0.720919 0.749895
O O3 0.611263 0.717460 0.861939
O O4 0.719728 0.000000 0.831771
O O5 0.500000 0.273422 0.500000
O O6 0.388616 0.274225 0.639881
O O7 0.500000 0.000000 0.597195
O O8 0.886819 0.500000 0.000000
O O9 0.000000 0.211113 0.000000
O O10 0.811729 0.278327 0.417532
O O11 0.000000 0.275918 0.500000
O O12 0.874076 0.000000 0.500000
O O13 0.737561 0.000000 0.344492
O O14 0.500000 0.000000 0.099422
O O15 0.500000 0.269793 0.000000
#
# Coordination Sequence:
#
# PCOD9383744 Si02
#       6
#     8   4   4   4   8   4
#     4  10  19  33  55  80 105 134 171 212 255 307
#     4   9  13  21  39  64 101 142 169 191 236 303
#     4  11  25  42  55  70  98 135 174 219 268 313
#     4   9  16  25  35  55  94 133 161 198 246 285
#     4   9  16  25  41  67  98 132 166 200 241 292
#     4   9  15  27  49  76 105 131 155 201 260 301
#
# _framework density 21.623104000000001
#
# number of rings (size 3 to 8) (size 9 to 14) (size 15 to 20)
#    0.000    2.500    2.500    1.125    0.000    5.000 
#    0.000    3.750    0.000    0.000    0.000    0.875 
#    0.000    4.000    0.000    0.000    0.000    0.000 
#
# Total GULP energy -178722.057346 kJ/mol
# GULP energy per Si atom -5585.064292 kJ/mol
# Density = 2.157389 g / cm^3
# Si number density = 21.623104 Si / 1000 Ang^3
#
#
#
# Elastic Constant Matrix: (Units=GPa)
#
#
# Indices 1 2 3 4 5 6 
#
# 1 187.8588 0.5180 122.1763 0.0000 0.0000 0.0000
# 2 0.5180 61.9096 3.8064 0.0000 0.0000 0.0000
# 3 122.1763 3.8064 246.5355 0.0000 0.0000 0.0000
# 4 0.0000 0.0000 0.0000 -35.3967 0.0000 0.0000
# 5 0.0000 0.0000 0.0000 0.0000 0.8209 0.0000
# 6 0.0000 0.0000 0.0000 0.0000 0.0000 -3.2429
#
#
#
# Elastic Compliance Matrix: (Units=1/GPa)
#
#
# Indices 1 2 3 4 5 6 
#
# 1 0.007857 0.000174 -0.003896 0.000000 0.000000 0.000000
# 2 0.000174 0.016172 -0.000336 0.000000 0.000000 0.000000
# 3 -0.003896 -0.000336 0.005992 0.000000 0.000000 0.000000
# 4 0.000000 0.000000 0.000000 -0.028251 0.000000 0.000000
# 5 0.000000 0.000000 0.000000 0.000000 1.218197 0.000000
# 6 0.000000 0.000000 0.000000 0.000000 0.000000 -0.308366
#
#
# Mechanical properties :
#
#
# Convention : Reuss Voigt Hill
#
# Bulk Modulus (GPa) = 45.65331 83.25614 64.45472
# Shear Modulus (GPa) = 5.39364 17.08980 11.24172
#
# Velocity S-wave (km/s) = 1.58108 2.81436 2.28259
# Velocity P-wave (km/s) = 4.94895 7.01055 6.06794
#
# Compressibility (1/GPa) = 0.02190422
#
# Stress axis : x y z
#
# Youngs Moduli (GPa) = 127.28126 61.83612 166.88213
#
# Poissons Ratio (x) = -0.01075 0.65021
# Poissons Ratio (y) = -0.02212 0.05604
# Poissons Ratio (z) = 0.49591 0.02077
#
# Static dielectric constant tensor:
#      x y z
#    x 1.757010 0.000000 0.000000 
#    y 0.000000 1.822340 0.000000 
#    z 0.000000 0.000000 1.904740 
# 
# From -- ./inp_files/22382.got.cif
#   From: 2010.05.17/outbox.cif.g08.bks.cpg/sg47_12_cif.got.tgz:22382.got - 2010.06.03 20:15:42.
