data_PCOD9383625
_publ_section_title
;
Structure prediction by ZEFSAII (Michael W. Deem and Ramdas Pophale) SiO2 
 PCOD9383625
Probable space group: P M M M
;
_chemical_formula_sum "Si O2"
_cell_formula_units_Z 52
_cell_length_a 20.842219
_cell_length_b 10.317269
_cell_length_c 14.036039
_cell_angle_alpha 90.000000
_cell_angle_beta 90.000000
_cell_angle_gamma 90.000000
_cell_volume 3018.236558
_symmetry_space_group_name_H-M "P M M M"
_symmetry_group_IT_number 47
_symmetry_cell_setting 'orthorhombic'
loop_
_space_group_symop_operation_xyz
x,y,z
-x,-y,z
x,-y,-z
-x,y,-z
-x,-y,-z
x,y,-z
-x,y,z
x,-y,z
loop_
_atom_site_type_symbol
_atom_site_label
_atom_site_fract_x
_atom_site_fract_y
_atom_site_fract_z
Si Si1 0.324474 0.350943 0.386490
Si Si2 0.234513 0.852648 0.889426
Si Si3 0.928237 0.342648 0.609407
Si Si4 0.384554 0.215273 0.109913
Si Si5 0.427317 0.853449 0.690034
Si Si6 0.572846 0.500000 0.885796
Si Si7 0.805963 0.653560 0.266626
O O1 0.315719 0.338090 0.500000
O O2 0.345037 0.500000 0.367072
O O3 0.376477 0.248579 0.349851
O O4 0.256914 0.330637 0.332998
O O5 0.311404 0.831251 0.885410
O O6 0.203151 0.743865 0.824428
O O7 0.220784 0.000000 0.857894
O O8 0.215863 0.839815 0.000000
O O9 0.918059 0.300771 0.500000
O O10 0.928177 0.500000 0.608212
O O11 0.869597 0.305356 0.676273
O O12 0.000000 0.301630 0.639432
O O13 0.422873 0.148777 0.194729
O O14 0.390009 0.368089 0.135168
O O15 0.407059 0.196792 0.000000
O O16 0.500000 0.820176 0.661850
O O17 0.412904 0.000000 0.657875
O O18 0.500000 0.500000 0.845738
O O19 0.566456 0.500000 0.000000
O O20 0.810417 0.500000 0.243154
#
# Coordination Sequence:
#
# PCOD9383625 Si02
#       7
#     8   8   8   8   8   4   8
#     4  10  22  39  57  77 101 132 172 217 264 315
#     4  10  21  35  52  75 106 143 180 218 261 313
#     4   8  14  27  51  85 121 149 172 207 261 319
#     4  10  20  34  53  75 103 137 172 214 266 325
#     4  11  24  38  53  75 101 132 173 220 269 320
#     4   9  18  30  46  72 101 129 164 211 269 325
#     4  10  19  32  56  86 111 137 174 219 261 308
#
# _framework density 17.228604000000001
#
# number of rings (size 3 to 8) (size 9 to 14) (size 15 to 20)
#    0.000    2.231    1.538    1.846    2.154    4.923 
#    0.000    2.308    0.000    2.308    0.000    4.308 
#    0.000    0.000    0.000    0.000    0.000    0.000 
#
# Total GULP energy -290025.254994 kJ/mol
# GULP energy per Si atom -5577.408750 kJ/mol
# Density = 1.718939 g / cm^3
# Si number density = 17.228604 Si / 1000 Ang^3
#
#
#
# Elastic Constant Matrix: (Units=GPa)
#
#
# Indices 1 2 3 4 5 6 
#
# 1 100.8776 59.8276 43.1958 0.0000 0.0000 0.0000
# 2 59.8276 96.6024 50.5506 0.0000 0.0000 0.0000
# 3 43.1958 50.5506 69.5988 0.0000 0.0000 0.0000
# 4 0.0000 0.0000 0.0000 -2.3234 0.0000 0.0000
# 5 0.0000 0.0000 0.0000 0.0000 3.6175 0.0000
# 6 0.0000 0.0000 0.0000 0.0000 0.0000 104.1846
#
#
#
# Elastic Compliance Matrix: (Units=1/GPa)
#
#
# Indices 1 2 3 4 5 6 
#
# 1 0.016515 -0.007847 -0.004551 0.000000 0.000000 0.000000
# 2 -0.007847 0.020427 -0.009966 0.000000 0.000000 0.000000
# 3 -0.004551 -0.009966 0.024431 0.000000 0.000000 0.000000
# 4 0.000000 0.000000 0.000000 -0.430406 0.000000 0.000000
# 5 0.000000 0.000000 0.000000 0.000000 0.276431 0.000000
# 6 0.000000 0.000000 0.000000 0.000000 0.000000 0.009598
#
#
# Mechanical properties :
#
#
# Convention : Reuss Voigt Hill
#
# Bulk Modulus (GPa) = 60.07643 63.80298 61.93971
# Shear Modulus (GPa) = -152.77435 28.66273 -62.05581
#
# Velocity S-wave (km/s) = -9.42695 4.08324 -6.00810
# Velocity P-wave (km/s) = 9.14024 7.70351 3.47850
#
# Compressibility (1/GPa) = 0.01664546
#
# Stress axis : x y z
#
# Youngs Moduli (GPa) = 60.54931 48.95600 40.93186
#
# Poissons Ratio (x) = 0.38416 0.18627
# Poissons Ratio (y) = 0.47513 0.40792
# Poissons Ratio (z) = 0.27555 0.48789
#
# Static dielectric constant tensor:
#      x y z
#    x 1.573850 0.000000 0.000000 
#    y 0.000000 1.594360 0.000000 
#    z 0.000000 0.000000 1.598240 
# 
# From -- ./inp_files/25051.got.cif
#   From: 2010.05.17/outbox.cif.g08.bks.cpg/sg47_13_cif.got.tgz:25051.got - 2010.06.03 20:15:42.
