data_PCOD9383638
_publ_section_title
;
Structure prediction by ZEFSAII (Michael W. Deem and Ramdas Pophale) SiO2 
 PCOD9383638
Probable space group: P M M M
;
_chemical_formula_sum "Si O2"
_cell_formula_units_Z 64
_cell_length_a 19.218600
_cell_length_b 19.666523
_cell_length_c 10.111812
_cell_angle_alpha 90.000000
_cell_angle_beta 90.000000
_cell_angle_gamma 90.000000
_cell_volume 3821.891193
_symmetry_space_group_name_H-M "P M M M"
_symmetry_group_IT_number 47
_symmetry_cell_setting 'orthorhombic'
loop_
_space_group_symop_operation_xyz
x,y,z
-x,-y,z
x,-y,-z
-x,y,-z
-x,-y,-z
x,y,-z
-x,y,z
x,-y,z
loop_
_atom_site_type_symbol
_atom_site_label
_atom_site_fract_x
_atom_site_fract_y
_atom_site_fract_z
Si Si1 0.916629 0.077811 0.851983
Si Si2 0.177345 0.324520 0.656727
Si Si3 0.583420 0.579228 0.147238
Si Si4 0.829773 0.163769 0.343116
Si Si5 0.692614 0.922069 0.339308
Si Si6 0.658069 0.678432 0.342924
Si Si7 0.420048 0.817732 0.660683
Si Si8 0.082734 0.580794 0.843139
O O1 0.887437 0.126009 0.740963
O O2 0.000000 0.078359 0.851036
O O3 0.893935 0.000000 0.828698
O O4 0.893652 0.097857 0.000000
O O5 0.164140 0.338289 0.500000
O O6 0.165568 0.244191 0.680373
O O7 0.260005 0.331737 0.680831
O O8 0.130462 0.372249 0.749871
O O9 0.500000 0.584124 0.153720
O O10 0.601798 0.500000 0.160431
O O11 0.617004 0.623075 0.260568
O O12 0.605201 0.602120 0.000000
O O13 0.838087 0.152934 0.500000
O O14 0.756628 0.127864 0.304841
O O15 0.691601 0.924312 0.500000
O O16 0.621359 0.885225 0.296415
O O17 0.700674 0.000000 0.293072
O O18 0.646642 0.671519 0.500000
O O19 0.626963 0.752225 0.304579
O O20 0.422297 0.819064 0.500000
O O21 0.500000 0.812641 0.707020
O O22 0.095389 0.500000 0.819559
O O23 0.000000 0.593045 0.819671
O O24 0.095714 0.593490 0.000000
#
# Coordination Sequence:
#
# PCOD9383638 Si02
#       8
#     8   8   8   8   8   8   8   8
#     4   9  19  35  52  72 101 135 171 214 262 310
#     4  10  21  35  53  78 111 142 172 215 262 308
#     4   9  19  35  52  72 101 135 171 214 262 310
#     4  10  19  33  51  74 105 139 174 214 258 310
#     4   9  16  27  45  69  98 133 171 212 259 306
#     4  10  19  33  51  74 105 139 174 214 258 310
#     4   9  16  27  45  69  98 133 171 212 259 306
#     4   9  20  40  62  82 106 137 175 218 260 308
#
# _framework density 16.745636999999999
#
# number of rings (size 3 to 8) (size 9 to 14) (size 15 to 20)
#    0.000    2.625    1.250    1.875    0.000    4.750 
#    0.000    8.125    0.000    0.000    0.000    0.000 
#    0.000    0.000    0.000    5.250    0.000    5.000 
#
# Total GULP energy -356521.637671 kJ/mol
# GULP energy per Si atom -5570.650589 kJ/mol
# Density = 1.670752 g / cm^3
# Si number density = 16.745637 Si / 1000 Ang^3
#
#
#
# Elastic Constant Matrix: (Units=GPa)
#
#
# Indices 1 2 3 4 5 6 
#
# 1 75.5377 68.9307 44.2154 0.0000 0.0000 0.0000
# 2 68.9307 111.7166 63.9885 0.0000 0.0000 0.0000
# 3 44.2154 63.9885 44.5311 0.0000 0.0000 0.0000
# 4 0.0000 0.0000 0.0000 10.0637 0.0000 0.0000
# 5 0.0000 0.0000 0.0000 0.0000 10.3721 0.0000
# 6 0.0000 0.0000 0.0000 0.0000 0.0000 35.8614
#
#
#
# Elastic Compliance Matrix: (Units=1/GPa)
#
#
# Indices 1 2 3 4 5 6 
#
# 1 0.033153 -0.009049 -0.019915 0.000000 0.000000 0.000000
# 2 -0.009049 0.053055 -0.067252 0.000000 0.000000 0.000000
# 3 -0.019915 -0.067252 0.138867 0.000000 0.000000 0.000000
# 4 0.000000 0.000000 0.000000 0.099367 0.000000 0.000000
# 5 0.000000 0.000000 0.000000 0.000000 0.096412 0.000000
# 6 0.000000 0.000000 0.000000 0.000000 0.000000 0.027885
#
#
# Mechanical properties :
#
#
# Convention : Reuss Voigt Hill
#
# Bulk Modulus (GPa) = 30.63444 65.11718 47.87581
# Shear Modulus (GPa) = 7.66811 14.90284 11.28547
#
# Velocity S-wave (km/s) = 2.14222 2.98645 2.59884
# Velocity P-wave (km/s) = 4.94495 7.13178 6.13656
#
# Compressibility (1/GPa) = 0.03264300
#
# Stress axis : x y z
#
# Youngs Moduli (GPa) = 30.16303 18.84851 7.20114
#
# Poissons Ratio (x) = 0.17056 0.14341
# Poissons Ratio (y) = 0.27294 0.48429
# Poissons Ratio (z) = 0.60071 1.26759
#
# Static dielectric constant tensor:
#      x y z
#    x 1.571390 0.000000 0.000000 
#    y 0.000000 1.564230 0.000000 
#    z 0.000000 0.000000 1.542890 
# 
# From -- ./inp_files/11572.got.cif
#   From: 2010.05.17/outbox.cif.g08.bks.cpg/sg47_6_cif.got.tgz:11572.got - 2010.06.03 20:15:42.
