data_PCOD9383735
_publ_section_title
;
Structure prediction by ZEFSAII (Michael W. Deem and Ramdas Pophale) SiO2 
 PCOD9383735
Probable space group: P M M M
;
_chemical_formula_sum "Si O2"
_cell_formula_units_Z 52
_cell_length_a 17.559934
_cell_length_b 7.357395
_cell_length_c 18.415633
_cell_angle_alpha 90.000000
_cell_angle_beta 90.000000
_cell_angle_gamma 90.000000
_cell_volume 2379.214530
_symmetry_space_group_name_H-M "P M M M"
_symmetry_group_IT_number 47
_symmetry_cell_setting 'orthorhombic'
loop_
_space_group_symop_operation_xyz
x,y,z
-x,-y,z
x,-y,-z
-x,y,-z
-x,-y,-z
x,y,-z
-x,y,z
x,-y,z
loop_
_atom_site_type_symbol
_atom_site_label
_atom_site_fract_x
_atom_site_fract_y
_atom_site_fract_z
Si Si1 0.153598 0.216102 0.328579
Si Si2 0.412595 0.778450 0.784764
Si Si3 0.000000 0.285750 0.581790
Si Si4 0.308698 0.778349 0.083327
Si Si5 0.412674 0.777968 0.500000
Si Si6 0.320487 0.221900 0.641354
Si Si7 0.846924 0.777856 0.162678
Si Si8 0.000000 0.221742 0.917096
O O1 0.232723 0.282072 0.363161
O O2 0.150500 0.284422 0.245923
O O3 0.076686 0.243175 0.373701
O O4 0.161967 0.000000 0.322514
O O5 0.500000 0.720120 0.776763
O O6 0.374718 0.722333 0.860807
O O7 0.360088 0.722259 0.716869
O O8 0.412598 0.000000 0.784107
O O9 0.000000 0.500000 0.574400
O O10 0.000000 0.206859 0.500000
O O11 0.228495 0.722417 0.119275
O O12 0.308778 0.000000 0.082081
O O13 0.316609 0.718383 0.000000
O O14 0.500000 0.719927 0.500000
O O15 0.369104 0.719245 0.427673
O O16 0.412594 0.000000 0.500000
O O17 0.321400 0.000000 0.641128
O O18 0.923569 0.720020 0.122859
O O19 0.845964 0.000000 0.163171
O O20 0.000000 0.000000 0.916327
O O21 0.000000 0.279892 0.000000
#
# Coordination Sequence:
#
# PCOD9383735 Si02
#       8
#     8   8   4   8   4   8   8   4
#     4  10  19  33  55  77  97 127 168 207 242 284
#     4   9  15  23  34  50  82 130 173 204 241 293
#     4  11  26  43  55  73 104 133 158 194 246 303
#     4   9  15  22  32  50  84 130 172 206 242 289
#     4   9  16  24  36  59  93 126 154 193 249 305
#     4   9  16  26  41  64  91 121 158 202 250 295
#     4   9  15  25  39  60  88 116 152 200 247 283
#     4   9  15  20  30  50  78 113 146 180 232 291
#
# _framework density 21.855953
#
# number of rings (size 3 to 8) (size 9 to 14) (size 15 to 20)
#    0.000    2.692    1.538    1.615    1.077    5.846 
#    0.000    1.538    0.000    0.000    0.000    0.000 
#    0.000   14.154    0.000    0.000    0.000    1.846 
#
# Total GULP energy -290512.372694 kJ/mol
# GULP energy per Si atom -5586.776398 kJ/mol
# Density = 2.180621 g / cm^3
# Si number density = 21.855953 Si / 1000 Ang^3
#
#
#
# Elastic Constant Matrix: (Units=GPa)
#
#
# Indices 1 2 3 4 5 6 
#
# 1 223.8735 1.6904 122.6884 0.0000 0.0000 0.0000
# 2 1.6904 78.7848 4.1318 0.0000 0.0000 0.0000
# 3 122.6884 4.1318 211.7819 0.0000 0.0000 0.0000
# 4 0.0000 0.0000 0.0000 3.3979 0.0000 0.0000
# 5 0.0000 0.0000 0.0000 0.0000 32.9222 0.0000
# 6 0.0000 0.0000 0.0000 0.0000 0.0000 -40.1906
#
#
#
# Elastic Compliance Matrix: (Units=1/GPa)
#
#
# Indices 1 2 3 4 5 6 
#
# 1 0.006545 0.000058 -0.003793 0.000000 0.000000 0.000000
# 2 0.000058 0.012706 -0.000282 0.000000 0.000000 0.000000
# 3 -0.003793 -0.000282 0.006924 0.000000 0.000000 0.000000
# 4 0.000000 0.000000 0.000000 0.294300 0.000000 0.000000
# 5 0.000000 0.000000 0.000000 0.000000 0.030375 0.000000
# 6 0.000000 0.000000 0.000000 0.000000 0.000000 -0.024881
#
#
# Mechanical properties :
#
#
# Convention : Reuss Voigt Hill
#
# Bulk Modulus (GPa) = 55.11547 85.71794 70.41670
# Shear Modulus (GPa) = 14.70376 24.95453 19.82914
#
# Velocity S-wave (km/s) = 2.59657 3.38268 3.01535
# Velocity P-wave (km/s) = 5.85337 7.38656 6.66420
#
# Compressibility (1/GPa) = 0.01814373
#
# Stress axis : x y z
#
# Youngs Moduli (GPa) = 152.79200 78.70096 144.41506
#
# Poissons Ratio (x) = -0.00460 0.54772
# Poissons Ratio (y) = -0.00894 0.04069
# Poissons Ratio (z) = 0.57949 0.02218
#
# Static dielectric constant tensor:
#      x y z
#    x 1.779430 0.000000 0.000000 
#    y 0.000000 1.847420 0.000000 
#    z 0.000000 0.000000 1.758870 
# 
# From -- ./inp_files/28564.got.cif
#   From: 2010.05.17/outbox.cif.g08.bks.cpg/sg47_15_cif.got.tgz:28564.got - 2010.06.03 20:15:42.
