data_PCOD9383117
_publ_section_title
;
Structure prediction by ZEFSAII (Michael W. Deem and Ramdas Pophale) SiO2 
 PCOD9383117
Probable space group: P M M M
;
_chemical_formula_sum "Si O2"
_cell_formula_units_Z 42
_cell_length_a 11.825986
_cell_length_b 7.497224
_cell_length_c 26.172356
_cell_angle_alpha 90.000000
_cell_angle_beta 90.000000
_cell_angle_gamma 90.000000
_cell_volume 2320.495157
_symmetry_space_group_name_H-M "P M M M"
_symmetry_group_IT_number 47
_symmetry_cell_setting 'orthorhombic'
loop_
_space_group_symop_operation_xyz
x,y,z
-x,-y,z
x,-y,-z
-x,y,-z
-x,-y,-z
x,y,-z
-x,y,z
x,-y,z
loop_
_atom_site_type_symbol
_atom_site_label
_atom_site_fract_x
_atom_site_fract_y
_atom_site_fract_z
Si Si1 0.136854 0.788650 0.445013
Si Si2 0.000000 0.714502 0.169926
Si Si3 0.633627 0.286774 0.132245
Si Si4 0.227622 0.712679 0.771646
Si Si5 0.742959 0.000000 0.941934
Si Si6 0.000000 0.000000 0.082976
Si Si7 0.870899 0.787856 0.334230
O O1 0.175613 0.713976 0.500000
O O2 0.170373 0.716452 0.389322
O O3 0.000000 0.774867 0.444534
O O4 0.164129 0.000000 0.445986
O O5 0.889459 0.767605 0.201549
O O6 0.000000 0.823817 0.118189
O O7 0.000000 0.500000 0.162695
O O8 0.500000 0.258632 0.126960
O O9 0.656568 0.500000 0.126478
O O10 0.675072 0.229340 0.189071
O O11 0.699549 0.170576 0.090373
O O12 0.231915 0.500000 0.771725
O O13 0.214107 0.762278 0.712643
O O14 0.879032 0.000000 0.944028
O O15 0.698740 0.000000 0.000000
O O16 0.000000 0.720107 0.322949
O O17 0.882228 0.000000 0.340489
#
# Coordination Sequence:
#
# PCOD9383117 Si02
#       7
#     8   4   8   8   4   2   8
#     4   7  10  18  30  48  79 121 166 208 246 293
#     4  10  20  33  53  79 105 145 183 211 261 322
#     4  10  23  43  63  82 108 145 185 225 268 312
#     4  10  19  31  49  73 101 131 169 216 265 317
#     4  12  26  42  63  91 116 142 178 217 260 314
#     4  12  23  38  64  84 118 150 167 210 260 318
#     4   9  16  22  37  64  93 126 167 209 255 312
#
# _framework density 18.099587
#
# number of rings (size 3 to 8) (size 9 to 14) (size 15 to 20)
#    0.000    2.476    2.857    2.143    2.667    1.143 
#    0.000    0.952    0.000    2.286    0.000    2.667 
#    0.000    0.762    0.000    9.524    0.000    0.381 
#
# Total GULP energy -233841.276012 kJ/mol
# GULP energy per Si atom -5567.649429 kJ/mol
# Density = 1.805839 g / cm^3
# Si number density = 18.099587 Si / 1000 Ang^3
#
#
#
# Elastic Constant Matrix: (Units=GPa)
#
#
# Indices 1 2 3 4 5 6 
#
# 1 66.6045 26.6126 45.5443 0.0000 0.0000 0.0000
# 2 26.6126 57.2736 32.8525 0.0000 0.0000 0.0000
# 3 45.5443 32.8525 183.3692 0.0000 0.0000 0.0000
# 4 0.0000 0.0000 0.0000 20.9296 0.0000 0.0000
# 5 0.0000 0.0000 0.0000 0.0000 -0.3686 0.0000
# 6 0.0000 0.0000 0.0000 0.0000 0.0000 10.3091
#
#
#
# Elastic Compliance Matrix: (Units=1/GPa)
#
#
# Indices 1 2 3 4 5 6 
#
# 1 0.020548 -0.007379 -0.003782 0.000000 0.000000 0.000000
# 2 -0.007379 0.022109 -0.002128 0.000000 0.000000 0.000000
# 3 -0.003782 -0.002128 0.006774 0.000000 0.000000 0.000000
# 4 0.000000 0.000000 0.000000 0.047779 0.000000 0.000000
# 5 0.000000 0.000000 0.000000 0.000000 -2.713124 0.000000
# 6 0.000000 0.000000 0.000000 0.000000 0.000000 0.097001
#
#
# Mechanical properties :
#
#
# Convention : Reuss Voigt Hill
#
# Bulk Modulus (GPa) = 43.75575 57.47399 50.61487
# Shear Modulus (GPa) = -2.01230 19.65656 8.82213
#
# Velocity S-wave (km/s) = -1.05556 3.29906 2.21016
# Velocity P-wave (km/s) = 4.76884 6.80698 5.87694
#
# Compressibility (1/GPa) = 0.02285414
#
# Stress axis : x y z
#
# Youngs Moduli (GPa) = 48.66623 45.22945 147.62135
#
# Poissons Ratio (x) = 0.33373 0.55826
# Poissons Ratio (y) = 0.35909 0.31421
# Poissons Ratio (z) = 0.18404 0.09627
#
# Static dielectric constant tensor:
#      x y z
#    x 1.594400 0.000000 0.000000 
#    y 0.000000 1.461490 0.000000 
#    z 0.000000 0.000000 1.691460 
# 
# From -- ./inp_files/32322.got.cif
#   From: 2010.05.17/outbox.cif.g08.bks.cpg/sg47_17_cif.got.tgz:32322.got - 2010.06.03 20:15:42.
