data_PCOD9383238
_publ_section_title
;
Structure prediction by ZEFSAII (Michael W. Deem and Ramdas Pophale) SiO2 
 PCOD9383238
Probable space group: P M M M
;
_chemical_formula_sum "Si O2"
_cell_formula_units_Z 64
_cell_length_a 15.208256
_cell_length_b 7.686451
_cell_length_c 24.640277
_cell_angle_alpha 90.000000
_cell_angle_beta 90.000000
_cell_angle_gamma 90.000000
_cell_volume 2880.387139
_symmetry_space_group_name_H-M "P M M M"
_symmetry_group_IT_number 47
_symmetry_cell_setting 'orthorhombic'
loop_
_space_group_symop_operation_xyz
x,y,z
-x,-y,z
x,-y,-z
-x,y,-z
-x,-y,-z
x,y,-z
-x,y,z
x,-y,z
loop_
_atom_site_type_symbol
_atom_site_label
_atom_site_fract_x
_atom_site_fract_y
_atom_site_fract_z
Si Si1 0.901069 0.707386 0.158077
Si Si2 0.758185 0.805270 0.752325
Si Si3 0.348414 0.290768 0.559973
Si Si4 0.212683 0.292815 0.061526
Si Si5 0.142123 0.711324 0.442426
Si Si6 0.594804 0.790633 0.936340
Si Si7 0.094740 0.289204 0.325567
Si Si8 0.597356 0.791321 0.683010
O O1 0.909993 0.500000 0.153138
O O2 0.822600 0.730614 0.201632
O O3 0.861356 0.777885 0.101666
O O4 0.000000 0.774803 0.170293
O O5 0.825049 0.804419 0.701972
O O6 0.671253 0.721900 0.724996
O O7 0.735408 0.000000 0.770526
O O8 0.382498 0.229822 0.500000
O O9 0.355031 0.500000 0.558764
O O10 0.245167 0.243617 0.561488
O O11 0.386421 0.238072 0.618451
O O12 0.200073 0.500000 0.057691
O O13 0.311018 0.267110 0.085645
O O14 0.210294 0.221282 0.000000
O O15 0.107832 0.775057 0.500000
O O16 0.137630 0.500000 0.443288
O O17 0.094921 0.763639 0.388095
O O18 0.500000 0.731358 0.913315
O O19 0.594631 0.000000 0.934774
O O20 0.595292 0.737224 0.000000
O O21 0.107548 0.500000 0.321721
O O22 0.000000 0.250724 0.300451
O O23 0.500000 0.725867 0.696056
O O24 0.599291 0.000000 0.689462
#
# Coordination Sequence:
#
# PCOD9383238 Si02
#       8
#     8   8   8   8   8   8   8   8
#     4  10  22  40  61  84 111 144 180 219 266 325
#     4  11  23  39  58  78 103 137 177 226 273 316
#     4   9  17  31  53  80 109 141 178 222 271 324
#     4   9  18  33  55  85 118 149 182 224 273 321
#     4   8  14  26  45  71 103 135 168 210 258 309
#     4   8  14  26  46  74 110 152 192 223 254 299
#     4  10  19  31  52  79 104 135 175 218 265 317
#     4  10  22  39  57  78 105 140 182 226 276 330
#
# _framework density 22.219234
#
# number of rings (size 3 to 8) (size 9 to 14) (size 15 to 20)
#    0.000    2.625    1.250    1.875    0.000    4.500 
#    0.000    5.625    0.000    2.625    0.000    3.500 
#    0.000    0.000    0.000    0.000    0.000    0.000 
#
# Total GULP energy -356513.876437 kJ/mol
# GULP energy per Si atom -5570.529319 kJ/mol
# Density = 2.216866 g / cm^3
# Si number density = 22.219234 Si / 1000 Ang^3
#
#
#
# Elastic Constant Matrix: (Units=GPa)
#
#
# Indices 1 2 3 4 5 6 
#
# 1 160.5993 13.3145 74.7607 0.0000 0.0000 0.0000
# 2 13.3145 35.8699 3.0806 0.0000 0.0000 0.0000
# 3 74.7607 3.0806 100.8542 0.0000 0.0000 0.0000
# 4 0.0000 0.0000 0.0000 45.4611 0.0000 0.0000
# 5 0.0000 0.0000 0.0000 0.0000 -101.3742 0.0000
# 6 0.0000 0.0000 0.0000 0.0000 0.0000 13.3536
#
#
#
# Elastic Compliance Matrix: (Units=1/GPa)
#
#
# Indices 1 2 3 4 5 6 
#
# 1 0.009825 -0.003029 -0.007191 0.000000 0.000000 0.000000
# 2 -0.003029 0.028886 0.001363 0.000000 0.000000 0.000000
# 3 -0.007191 0.001363 0.015204 0.000000 0.000000 0.000000
# 4 0.000000 0.000000 0.000000 0.021997 0.000000 0.000000
# 5 0.000000 0.000000 0.000000 0.000000 -0.009864 0.000000
# 6 0.000000 0.000000 0.000000 0.000000 0.000000 0.074886
#
#
# Mechanical properties :
#
#
# Convention : Reuss Voigt Hill
#
# Bulk Modulus (GPa) = 27.62315 53.29276 40.45795
# Shear Modulus (GPa) = 29.28878 5.23261 17.26070
#
# Velocity S-wave (km/s) = 3.63460 1.53626 2.79020
# Velocity P-wave (km/s) = 5.48387 5.21381 5.35055
#
# Compressibility (1/GPa) = 0.03620152
#
# Stress axis : x y z
#
# Youngs Moduli (GPa) = 101.77985 34.61894 65.77276
#
# Poissons Ratio (x) = 0.10488 0.47294
# Poissons Ratio (y) = 0.30833 -0.08967
# Poissons Ratio (z) = 0.73186 -0.04720
#
# Static dielectric constant tensor:
#      x y z
#    x 1.832940 0.000000 0.000000 
#    y 0.000000 1.857170 0.000000 
#    z 0.000000 0.000000 1.855550 
# 
# From -- ./inp_files/32756.got.cif
#   From: 2010.05.17/outbox.cif.g08.bks.cpg/sg47_17_cif.got.tgz:32756.got - 2010.06.03 20:15:42.
