data_PCOD9383808
_publ_section_title
;
Structure prediction by ZEFSAII (Michael W. Deem and Ramdas Pophale) SiO2 
 PCOD9383808
Probable space group: P M M M
;
_chemical_formula_sum "Si O2"
_cell_formula_units_Z 56
_cell_length_a 22.766196
_cell_length_b 15.583149
_cell_length_c 8.682250
_cell_angle_alpha 90.000000
_cell_angle_beta 90.000000
_cell_angle_gamma 90.000000
_cell_volume 3080.193362
_symmetry_space_group_name_H-M "P M M M"
_symmetry_group_IT_number 47
_symmetry_cell_setting 'orthorhombic'
loop_
_space_group_symop_operation_xyz
x,y,z
-x,-y,z
x,-y,-z
-x,y,-z
-x,-y,-z
x,y,-z
-x,y,z
x,-y,z
loop_
_atom_site_type_symbol
_atom_site_label
_atom_site_fract_x
_atom_site_fract_y
_atom_site_fract_z
Si Si1 0.931419 0.596972 0.314405
Si Si2 0.620678 0.672584 0.682464
Si Si3 0.500000 0.601081 0.184191
Si Si4 0.346817 0.143053 0.184733
Si Si5 0.213337 0.904084 0.187624
Si Si6 0.267421 0.404680 0.816337
Si Si7 0.835626 0.275777 0.186020
Si Si8 0.568012 0.000000 0.684755
O O1 0.927420 0.598597 0.500000
O O2 0.913787 0.500000 0.263771
O O3 0.891099 0.671867 0.247839
O O4 0.000000 0.608286 0.273209
O O5 0.617415 0.681948 0.500000
O O6 0.558258 0.643543 0.747664
O O7 0.640721 0.761536 0.758758
O O8 0.671375 0.606219 0.729933
O O9 0.500000 0.500000 0.221291
O O10 0.500000 0.610586 0.000000
O O11 0.281271 0.113324 0.231705
O O12 0.396301 0.081411 0.253217
O O13 0.348946 0.139244 0.000000
O O14 0.174422 0.822522 0.237965
O O15 0.195946 0.000000 0.238842
O O16 0.212055 0.903985 0.000000
O O17 0.242863 0.500000 0.789706
O O18 0.221629 0.331581 0.768805
O O19 0.277967 0.395324 0.000000
O O20 0.838060 0.275863 0.000000
O O21 0.500000 0.000000 0.734952
O O22 0.569095 0.000000 0.500000
#
# Coordination Sequence:
#
# PCOD9383808 Si02
#       8
#     8   8   4   8   8   8   8   4
#     4   9  19  36  56  80 116 160 199 236 283 341
#     4  12  25  39  57  82 113 143 179 232 289 339
#     4  11  25  45  65  80  99 138 191 237 279 343
#     4  11  21  39  63  82 106 146 192 229 276 345
#     4   9  17  33  58  85 110 142 185 233 281 332
#     4  10  20  35  55  80 112 148 186 229 279 340
#     4  10  19  33  56  86 117 147 189 241 284 329
#     4  11  25  41  57  83 119 145 176 237 301 346
#
# _framework density 18.180676999999999
#
# number of rings (size 3 to 8) (size 9 to 14) (size 15 to 20)
#    0.000    1.714    2.143    3.429    1.000    4.857 
#    0.000    0.714    0.000    0.429    0.000    3.000 
#    0.000    0.000    0.000    0.000    0.000    0.000 
#
# Total GULP energy -312723.911559 kJ/mol
# GULP energy per Si atom -5584.355564 kJ/mol
# Density = 1.813930 g / cm^3
# Si number density = 18.180677 Si / 1000 Ang^3
#
#
#
# Elastic Constant Matrix: (Units=GPa)
#
#
# Indices 1 2 3 4 5 6 
#
# 1 107.9318 69.2678 22.2846 0.0000 0.0000 0.0000
# 2 69.2678 154.3290 27.6615 0.0000 0.0000 0.0000
# 3 22.2846 27.6615 24.8962 0.0000 0.0000 0.0000
# 4 0.0000 0.0000 0.0000 18.0887 0.0000 0.0000
# 5 0.0000 0.0000 0.0000 0.0000 37.4069 0.0000
# 6 0.0000 0.0000 0.0000 0.0000 0.0000 33.9806
#
#
#
# Elastic Compliance Matrix: (Units=1/GPa)
#
#
# Indices 1 2 3 4 5 6 
#
# 1 0.013897 -0.005005 -0.006879 0.000000 0.000000 0.000000
# 2 -0.005005 0.009893 -0.006512 0.000000 0.000000 0.000000
# 3 -0.006879 -0.006512 0.053560 0.000000 0.000000 0.000000
# 4 0.000000 0.000000 0.000000 0.055283 0.000000 0.000000
# 5 0.000000 0.000000 0.000000 0.000000 0.026733 0.000000
# 6 0.000000 0.000000 0.000000 0.000000 0.000000 0.029429
#
#
# Mechanical properties :
#
#
# Convention : Reuss Voigt Hill
#
# Bulk Modulus (GPa) = 24.65581 58.39830 41.52706
# Shear Modulus (GPa) = 20.91119 29.09145 25.00132
#
# Velocity S-wave (km/s) = 3.39512 4.00450 3.71234
# Velocity P-wave (km/s) = 5.38146 7.31930 6.42387
#
# Compressibility (1/GPa) = 0.04055839
#
# Stress axis : x y z
#
# Youngs Moduli (GPa) = 71.95702 101.08026 18.67067
#
# Poissons Ratio (x) = 0.50586 0.12843
# Poissons Ratio (y) = 0.36011 0.12159
# Poissons Ratio (z) = 0.49499 0.65828
#
# Static dielectric constant tensor:
#      x y z
#    x 1.578880 0.000000 0.000000 
#    y 0.000000 1.677770 0.000000 
#    z 0.000000 0.000000 1.612490 
# 
# From -- ./inp_files/7417.got.cif
#   From: 2010.05.17/outbox.cif.g08.bks.cpg/sg47_4_cif.got.tgz:7417.got - 2010.06.03 20:15:42.
