data_PCOD9383001
_publ_section_title
;
Structure prediction by ZEFSAII (Michael W. Deem and Ramdas Pophale) SiO2 
 PCOD9383001
Probable space group: P M M M
;
_chemical_formula_sum "Si O2"
_cell_formula_units_Z 44
_cell_length_a 13.387215
_cell_length_b 10.185280
_cell_length_c 18.531933
_cell_angle_alpha 90.000000
_cell_angle_beta 90.000000
_cell_angle_gamma 90.000000
_cell_volume 2526.876010
_symmetry_space_group_name_H-M "P M M M"
_symmetry_group_IT_number 47
_symmetry_cell_setting 'orthorhombic'
loop_
_space_group_symop_operation_xyz
x,y,z
-x,-y,z
x,-y,-z
-x,y,-z
-x,-y,-z
x,y,-z
-x,y,z
x,-y,z
loop_
_atom_site_type_symbol
_atom_site_label
_atom_site_fract_x
_atom_site_fract_y
_atom_site_fract_z
Si Si1 0.195329 0.657366 0.201770
Si Si2 0.879789 0.500000 0.420634
Si Si3 0.386472 0.348884 0.300925
Si Si4 0.693290 0.145874 0.415190
Si Si5 0.119139 0.150756 0.913919
Si Si6 0.114299 0.231051 0.342811
O O1 0.172083 0.500000 0.197779
O O2 0.305153 0.670475 0.237611
O O3 0.179107 0.736494 0.128088
O O4 0.126235 0.737626 0.258559
O O5 0.835478 0.500000 0.500000
O O6 0.855802 0.629425 0.377818
O O7 0.000000 0.500000 0.426487
O O8 0.500000 0.331074 0.275388
O O9 0.375136 0.500000 0.325578
O O10 0.364774 0.250739 0.366676
O O11 0.700507 0.180646 0.500000
O O12 0.803365 0.140170 0.378803
O O13 0.648394 0.000000 0.410324
O O14 0.000000 0.168135 0.901154
O O15 0.144678 0.000000 0.891530
O O16 0.134697 0.159522 0.000000
O O17 0.000000 0.196972 0.359957
#
# Coordination Sequence:
#
# PCOD9383001 Si02
#       6
#     8   4   8   8   8   8
#     4  10  19  32  53  79 105 130 165 216 263 304
#     4   9  16  26  42  64  90 128 174 211 246 290
#     4   9  20  39  59  77  98 128 168 214 266 320
#     4  10  22  36  49  71 102 134 171 217 265 311
#     4   9  19  35  53  76 110 149 180 203 236 291
#     4  10  19  31  47  70 102 139 174 211 256 307
#
# _framework density 17.412804999999999
#
# number of rings (size 3 to 8) (size 9 to 14) (size 15 to 20)
#    0.000    2.455    0.909    1.636    1.273    6.909 
#    0.000    3.636    0.000    0.545    0.000    3.818 
#    0.000    0.000    0.000    0.000    0.000    0.000 
#
# Total GULP energy -245127.437136 kJ/mol
# GULP energy per Si atom -5571.078117 kJ/mol
# Density = 1.737317 g / cm^3
# Si number density = 17.412805 Si / 1000 Ang^3
#
#
#
# Elastic Constant Matrix: (Units=GPa)
#
#
# Indices 1 2 3 4 5 6 
#
# 1 68.2958 29.7037 18.8042 0.0000 0.0000 0.0000
# 2 29.7037 97.2367 47.7443 0.0000 0.0000 0.0000
# 3 18.8042 47.7443 80.5797 0.0000 0.0000 0.0000
# 4 0.0000 0.0000 0.0000 40.0027 0.0000 0.0000
# 5 0.0000 0.0000 0.0000 0.0000 12.3147 0.0000
# 6 0.0000 0.0000 0.0000 0.0000 0.0000 18.1673
#
#
#
# Elastic Compliance Matrix: (Units=1/GPa)
#
#
# Indices 1 2 3 4 5 6 
#
# 1 0.016975 -0.004570 -0.001254 0.000000 0.000000 0.000000
# 2 -0.004570 0.015734 -0.008256 0.000000 0.000000 0.000000
# 3 -0.001254 -0.008256 0.017594 0.000000 0.000000 0.000000
# 4 0.000000 0.000000 0.000000 0.024998 0.000000 0.000000
# 5 0.000000 0.000000 0.000000 0.000000 0.081204 0.000000
# 6 0.000000 0.000000 0.000000 0.000000 0.000000 0.055044
#
#
# Mechanical properties :
#
#
# Convention : Reuss Voigt Hill
#
# Bulk Modulus (GPa) = 45.15865 48.73517 46.94691
# Shear Modulus (GPa) = 20.23556 24.08763 22.16159
#
# Velocity S-wave (km/s) = 3.41267 3.72335 3.57139
# Velocity P-wave (km/s) = 6.44351 6.82153 6.63522
#
# Compressibility (1/GPa) = 0.02214415
#
# Stress axis : x y z
#
# Youngs Moduli (GPa) = 58.91044 63.55640 56.83611
#
# Poissons Ratio (x) = 0.29045 0.07125
# Poissons Ratio (y) = 0.26922 0.46925
# Poissons Ratio (z) = 0.07385 0.52473
#
# Static dielectric constant tensor:
#      x y z
#    x 1.606970 0.000000 0.000000 
#    y 0.000000 1.627740 0.000000 
#    z 0.000000 0.000000 1.617500 
# 
# From -- ./inp_files/8999.got.cif
#   From: 2010.05.17/outbox.cif.g08.bks.cpg/sg47_5_cif.got.tgz:8999.got - 2010.06.03 20:15:42.
