data_PCOD9383362
_publ_section_title
;
Structure prediction by ZEFSAII (Michael W. Deem and Ramdas Pophale) SiO2 
 PCOD9383362
Probable space group: P M M M
;
_chemical_formula_sum "Si O2"
_cell_formula_units_Z 52
_cell_length_a 7.892794
_cell_length_b 15.143894
_cell_length_c 25.405322
_cell_angle_alpha 90.000000
_cell_angle_beta 90.000000
_cell_angle_gamma 90.000000
_cell_volume 3036.638073
_symmetry_space_group_name_H-M "P M M M"
_symmetry_group_IT_number 47
_symmetry_cell_setting 'orthorhombic'
loop_
_space_group_symop_operation_xyz
x,y,z
-x,-y,z
x,-y,-z
-x,y,-z
-x,-y,-z
x,y,-z
-x,y,z
x,-y,z
loop_
_atom_site_type_symbol
_atom_site_label
_atom_site_fract_x
_atom_site_fract_y
_atom_site_fract_z
Si Si1 0.292644 0.896445 0.771241
Si Si2 0.703117 0.899108 0.111469
Si Si3 0.705481 0.600647 0.386037
Si Si4 0.803698 0.904074 0.614284
Si Si5 0.694018 0.129786 0.500000
Si Si6 0.691884 0.757950 0.684981
Si Si7 0.197534 0.326224 0.500000
Si Si8 0.799530 0.100618 0.000000
O O1 0.500000 0.898138 0.767770
O O2 0.243184 0.868056 0.830674
O O3 0.231892 0.821300 0.730514
O O4 0.239973 0.000000 0.762855
O O5 0.500000 0.902000 0.113042
O O6 0.768909 0.000000 0.108534
O O7 0.750196 0.856260 0.055705
O O8 0.500000 0.607309 0.386540
O O9 0.752921 0.500000 0.373863
O O10 0.768613 0.670071 0.341639
O O11 0.764479 0.623694 0.445353
O O12 0.786053 0.902285 0.552015
O O13 0.691436 0.826319 0.636616
O O14 0.000000 0.889764 0.628526
O O15 0.749067 0.000000 0.634529
O O16 0.500000 0.100343 0.500000
O O17 0.699447 0.235722 0.500000
O O18 0.500000 0.735777 0.701813
O O19 0.000000 0.302236 0.500000
O O20 0.000000 0.093327 0.000000
O O21 0.723362 0.000000 0.000000
#
# Coordination Sequence:
#
# PCOD9383362 Si02
#       8
#     8   8   8   8   4   8   4   4
#     4   8  14  25  42  64  86 111 151 193 217 244
#     4   8  13  22  36  53  76 108 145 184 220 248
#     4  10  21  36  53  73  95 117 143 179 223 272
#     4  11  23  36  49  68  94 119 143 178 220 258
#     4  12  23  36  53  70  88 114 145 177 216 263
#     4  10  19  32  51  69  88 118 152 183 216 261
#     4  12  23  36  55  74  92 112 139 179 228 279
#     4   9  15  21  31  51  79 109 144 183 216 252
#
# _framework density 17.124199999999998
#
# number of rings (size 3 to 8) (size 9 to 14) (size 15 to 20)
#    0.000    2.231    1.538    3.923    0.000    4.923 
#    0.000    0.769    0.000    2.769    0.000    0.000 
#    0.000    0.000    0.000    0.692    0.000   18.846 
#
# Total GULP energy -289607.838231 kJ/mol
# GULP energy per Si atom -5569.381504 kJ/mol
# Density = 1.708522 g / cm^3
# Si number density = 17.124200 Si / 1000 Ang^3
#
#
#
# Elastic Constant Matrix: (Units=GPa)
#
#
# Indices 1 2 3 4 5 6 
#
# 1 32.4153 11.3826 3.2612 0.0000 0.0000 0.0000
# 2 11.3826 103.3251 48.6646 0.0000 0.0000 0.0000
# 3 3.2612 48.6646 148.0309 0.0000 0.0000 0.0000
# 4 0.0000 0.0000 0.0000 7.2215 0.0000 0.0000
# 5 0.0000 0.0000 0.0000 0.0000 -15.2385 0.0000
# 6 0.0000 0.0000 0.0000 0.0000 0.0000 4.3329
#
#
#
# Elastic Compliance Matrix: (Units=1/GPa)
#
#
# Indices 1 2 3 4 5 6 
#
# 1 0.032127 -0.003793 0.000539 0.000000 0.000000 0.000000
# 2 -0.003793 0.011899 -0.003828 0.000000 0.000000 0.000000
# 3 0.000539 -0.003828 0.008002 0.000000 0.000000 0.000000
# 4 0.000000 0.000000 0.000000 0.138475 0.000000 0.000000
# 5 0.000000 0.000000 0.000000 0.000000 -0.065623 0.000000
# 6 0.000000 0.000000 0.000000 0.000000 0.000000 0.230794
#
#
# Mechanical properties :
#
#
# Convention : Reuss Voigt Hill
#
# Bulk Modulus (GPa) = 26.41031 45.59868 36.00450
# Shear Modulus (GPa) = 13.07330 13.96071 13.51700
#
# Velocity S-wave (km/s) = 2.76604 2.85838 2.81259
# Velocity P-wave (km/s) = 5.06533 6.13023 5.62305
#
# Compressibility (1/GPa) = 0.03786400
#
# Stress axis : x y z
#
# Youngs Moduli (GPa) = 31.12616 84.04000 124.96909
#
# Poissons Ratio (x) = 0.31878 -0.06738
# Poissons Ratio (y) = 0.11807 0.47841
# Poissons Ratio (z) = -0.01678 0.32172
#
# Static dielectric constant tensor:
#      x y z
#    x 1.606070 0.000000 0.000000 
#    y 0.000000 1.582440 0.000000 
#    z 0.000000 0.000000 1.641920 
# 
# From -- ./inp_files/32037.got.cif
#   From: 2010.05.17/outbox.cif.g08.bks.cpg/sg47_17_cif.got.tgz:32037.got - 2010.06.03 20:15:42.
