data_PCOD9383528
_publ_section_title
;
Structure prediction by ZEFSAII (Michael W. Deem and Ramdas Pophale) SiO2 
 PCOD9383528
Probable space group: P M M M
;
_chemical_formula_sum "Si O2"
_cell_formula_units_Z 56
_cell_length_a 7.342190
_cell_length_b 15.039988
_cell_length_c 21.905527
_cell_angle_alpha 90.000000
_cell_angle_beta 90.000000
_cell_angle_gamma 90.000000
_cell_volume 2418.949571
_symmetry_space_group_name_H-M "P M M M"
_symmetry_group_IT_number 47
_symmetry_cell_setting 'orthorhombic'
loop_
_space_group_symop_operation_xyz
x,y,z
-x,-y,z
x,-y,-z
-x,y,-z
-x,-y,-z
x,y,-z
-x,y,z
x,-y,z
loop_
_atom_site_type_symbol
_atom_site_label
_atom_site_fract_x
_atom_site_fract_y
_atom_site_fract_z
Si Si1 0.220047 0.178762 0.368278
Si Si2 0.708023 0.644709 0.432074
Si Si3 0.295225 0.395943 0.698200
Si Si4 0.778741 0.000000 0.568138
Si Si5 0.716347 0.787745 0.117881
Si Si6 0.782270 0.103971 0.242087
Si Si7 0.723294 0.603489 0.169412
Si Si8 0.276911 0.103318 0.000000
O O1 0.293615 0.251712 0.415029
O O2 0.278951 0.168601 0.297777
O O3 0.000000 0.189807 0.369053
O O4 0.274917 0.085829 0.395890
O O5 0.784744 0.628719 0.500000
O O6 0.500000 0.609950 0.433793
O O7 0.794004 0.611765 0.368341
O O8 0.500000 0.357033 0.692536
O O9 0.313954 0.500000 0.708596
O O10 0.213149 0.366890 0.762378
O O11 0.711832 0.000000 0.500000
O O12 0.000000 0.000000 0.566596
O O13 0.500000 0.779338 0.109696
O O14 0.744839 0.847225 0.178407
O O15 0.781451 0.685569 0.126640
O O16 0.784544 0.842903 0.059851
O O17 0.000000 0.097556 0.249567
O O18 0.716574 0.000000 0.244374
O O19 0.500000 0.602310 0.171406
O O20 0.777421 0.500000 0.156256
O O21 0.500000 0.101984 0.000000
O O22 0.220076 0.000000 0.000000
#
# Coordination Sequence:
#
# PCOD9383528 Si02
#       8
#     8   8   8   4   8   8   8   4
#     4  10  19  33  50  67  89 121 160 198 240 294
#     4  10  20  31  44  67  96 122 156 204 248 287
#     4   8  14  26  44  65  91 123 156 193 241 295
#     4   9  16  28  47  65  81 112 157 190 218 275
#     4  10  19  32  53  77 102 137 174 203 243 297
#     4  10  20  34  51  74 102 127 161 214 263 297
#     4   8  14  26  46  73 101 127 162 209 253 293
#     4   9  18  32  48  72 108 143 175 209 240 285
#
# _framework density 23.150542999999999
#
# number of rings (size 3 to 8) (size 9 to 14) (size 15 to 20)
#    0.000    2.714    0.714    2.571    0.000    3.714 
#    0.000    2.500    0.000    5.571    0.000    5.000 
#    0.000    1.143    0.000    0.000    0.000    0.000 
#
# Total GULP energy -312100.631946 kJ/mol
# GULP energy per Si atom -5573.225570 kJ/mol
# Density = 2.309785 g / cm^3
# Si number density = 23.150543 Si / 1000 Ang^3
#
#
#
# Elastic Constant Matrix: (Units=GPa)
#
#
# Indices 1 2 3 4 5 6 
#
# 1 89.1951 8.3732 9.7277 0.0000 0.0000 0.0000
# 2 8.3732 131.9196 55.2305 0.0000 0.0000 0.0000
# 3 9.7277 55.2305 169.4155 0.0000 0.0000 0.0000
# 4 0.0000 0.0000 0.0000 67.5968 0.0000 0.0000
# 5 0.0000 0.0000 0.0000 0.0000 5.3232 0.0000
# 6 0.0000 0.0000 0.0000 0.0000 0.0000 11.2136
#
#
#
# Elastic Compliance Matrix: (Units=1/GPa)
#
#
# Indices 1 2 3 4 5 6 
#
# 1 0.011312 -0.000517 -0.000481 0.000000 0.000000 0.000000
# 2 -0.000517 0.008802 -0.002840 0.000000 0.000000 0.000000
# 3 -0.000481 -0.002840 0.006856 0.000000 0.000000 0.000000
# 4 0.000000 0.000000 0.000000 0.014794 0.000000 0.000000
# 5 0.000000 0.000000 0.000000 0.000000 0.187858 0.000000
# 6 0.000000 0.000000 0.000000 0.000000 0.000000 0.089178
#
#
# Mechanical properties :
#
#
# Convention : Reuss Voigt Hill
#
# Bulk Modulus (GPa) = 51.82593 59.68812 55.75702
# Shear Modulus (GPa) = 15.01922 37.97329 26.49625
#
# Velocity S-wave (km/s) = 2.54985 4.05443 3.38675
# Velocity P-wave (km/s) = 5.57710 6.91060 6.27935
#
# Compressibility (1/GPa) = 0.01929536
#
# Stress axis : x y z
#
# Youngs Moduli (GPa) = 88.39897 113.60888 145.85561
#
# Poissons Ratio (x) = 0.05869 0.07018
# Poissons Ratio (y) = 0.04567 0.41421
# Poissons Ratio (z) = 0.04253 0.32264
#
# Static dielectric constant tensor:
#      x y z
#    x 1.908110 0.000000 0.000000 
#    y 0.000000 1.898720 0.000000 
#    z 0.000000 0.000000 1.869270 
# 
# From -- ./inp_files/29801.got.cif
#   From: 2010.05.17/outbox.cif.g08.bks.cpg/sg47_15_cif.got.tgz:29801.got - 2010.06.03 20:15:42.
