data_PCOD9383642
_publ_section_title
;
Structure prediction by ZEFSAII (Michael W. Deem and Ramdas Pophale) SiO2 
 PCOD9383642
Probable space group: P M M M
;
_chemical_formula_sum "Si O2"
_cell_formula_units_Z 60
_cell_length_a 21.057877
_cell_length_b 9.728433
_cell_length_c 17.392550
_cell_angle_alpha 90.000000
_cell_angle_beta 90.000000
_cell_angle_gamma 90.000000
_cell_volume 3563.040324
_symmetry_space_group_name_H-M "P M M M"
_symmetry_group_IT_number 47
_symmetry_cell_setting 'orthorhombic'
loop_
_space_group_symop_operation_xyz
x,y,z
-x,-y,z
x,-y,-z
-x,y,-z
-x,-y,-z
x,y,-z
-x,y,z
x,-y,z
loop_
_atom_site_type_symbol
_atom_site_label
_atom_site_fract_x
_atom_site_fract_y
_atom_site_fract_z
Si Si1 0.232305 0.847100 0.638185
Si Si2 0.571968 0.166666 0.811439
Si Si3 0.877657 0.664637 0.584395
Si Si4 0.616406 0.840238 0.361069
Si Si5 0.425180 0.347906 0.500000
Si Si6 0.815134 0.840811 0.813681
Si Si7 0.072887 0.335423 0.752681
Si Si8 0.307007 0.167538 0.089015
O O1 0.190859 0.735069 0.594461
O O2 0.307480 0.831725 0.634962
O O3 0.214343 0.840978 0.728033
O O4 0.215424 0.000000 0.609364
O O5 0.500000 0.214772 0.828833
O O6 0.590756 0.197018 0.723377
O O7 0.629546 0.214638 0.866090
O O8 0.570937 0.000000 0.817536
O O9 0.904407 0.702860 0.500000
O O10 0.872018 0.500000 0.585584
O O11 0.915532 0.702464 0.662285
O O12 0.591857 0.739001 0.425315
O O13 0.598401 0.000000 0.375656
O O14 0.395326 0.500000 0.500000
O O15 0.500000 0.362785 0.500000
O O16 0.877124 0.746450 0.805063
O O17 0.758833 0.791064 0.869802
O O18 0.831043 0.000000 0.832927
O O19 0.083171 0.500000 0.758967
O O20 0.000000 0.305532 0.772335
O O21 0.307316 0.000000 0.092708
O O22 0.308599 0.207975 0.000000
#
# Coordination Sequence:
#
# PCOD9383642 Si02
#       8
#     8   8   8   8   4   8   8   8
#     4   9  17  29  46  66  90 121 159 199 238 281
#     4   9  16  27  46  72 101 133 169 206 245 297
#     4   9  18  30  44  66  96 125 156 195 243 295
#     4  10  19  33  52  71  92 126 170 210 249 298
#     4  11  25  39  47  63  93 125 162 213 266 305
#     4   9  16  30  50  72  99 128 160 197 236 285
#     4   9  18  32  50  72  97 127 164 203 243 291
#     4   9  16  27  46  74 106 135 163 200 249 299
#
# _framework density 16.839551
#
# number of rings (size 3 to 8) (size 9 to 14) (size 15 to 20)
#    0.000    2.733    1.333    0.600    0.933    2.667 
#    0.000    2.667    0.000    0.800    0.000    6.533 
#    0.000    0.000    0.000    4.000    0.000    4.000 
#
# Total GULP energy -334143.083097 kJ/mol
# GULP energy per Si atom -5569.051385 kJ/mol
# Density = 1.680122 g / cm^3
# Si number density = 16.839551 Si / 1000 Ang^3
#
#
#
# Elastic Constant Matrix: (Units=GPa)
#
#
# Indices 1 2 3 4 5 6 
#
# 1 124.5331 45.0904 62.1048 0.0000 0.0000 0.0000
# 2 45.0904 32.4372 34.9207 0.0000 0.0000 0.0000
# 3 62.1048 34.9207 97.3047 0.0000 0.0000 0.0000
# 4 0.0000 0.0000 0.0000 9.0801 0.0000 0.0000
# 5 0.0000 0.0000 0.0000 0.0000 87.1364 0.0000
# 6 0.0000 0.0000 0.0000 0.0000 0.0000 17.8074
#
#
#
# Elastic Compliance Matrix: (Units=1/GPa)
#
#
# Indices 1 2 3 4 5 6 
#
# 1 0.017015 -0.019491 -0.003865 0.000000 0.000000 0.000000
# 2 -0.019491 0.072567 -0.013603 0.000000 0.000000 0.000000
# 3 -0.003865 -0.013603 0.017625 0.000000 0.000000 0.000000
# 4 0.000000 0.000000 0.000000 0.110130 0.000000 0.000000
# 5 0.000000 0.000000 0.000000 0.000000 0.011476 0.000000
# 6 0.000000 0.000000 0.000000 0.000000 0.000000 0.056156
#
#
# Mechanical properties :
#
#
# Convention : Reuss Voigt Hill
#
# Bulk Modulus (GPa) = 30.03873 59.83409 44.93641
# Shear Modulus (GPa) = 13.51409 30.28205 21.89807
#
# Velocity S-wave (km/s) = 2.83595 4.24520 3.61001
# Velocity P-wave (km/s) = 5.34794 7.72256 6.64223
#
# Compressibility (1/GPa) = 0.03329035
#
# Stress axis : x y z
#
# Youngs Moduli (GPa) = 58.77323 13.78028 56.73669
#
# Poissons Ratio (x) = 0.26859 0.21926
# Poissons Ratio (y) = 1.14556 0.77177
# Poissons Ratio (z) = 0.22713 0.18745
#
# Static dielectric constant tensor:
#      x y z
#    x 1.571090 0.000000 0.000000 
#    y 0.000000 1.570060 0.000000 
#    z 0.000000 0.000000 1.564540 
# 
# From -- ./inp_files/28776.got.cif
#   From: 2010.05.17/outbox.cif.g08.bks.cpg/sg47_15_cif.got.tgz:28776.got - 2010.06.03 20:15:42.
