data_PCOD9383142
_publ_section_title
;
Structure prediction by ZEFSAII (Michael W. Deem and Ramdas Pophale) SiO2 
 PCOD9383142
Probable space group: P M M M
;
_chemical_formula_sum "Si O2"
_cell_formula_units_Z 56
_cell_length_a 8.848654
_cell_length_b 23.842663
_cell_length_c 16.777308
_cell_angle_alpha 90.000000
_cell_angle_beta 90.000000
_cell_angle_gamma 90.000000
_cell_volume 3539.600530
_symmetry_space_group_name_H-M "P M M M"
_symmetry_group_IT_number 47
_symmetry_cell_setting 'orthorhombic'
loop_
_space_group_symop_operation_xyz
x,y,z
-x,-y,z
x,-y,-z
-x,y,-z
-x,-y,-z
x,y,-z
-x,y,z
x,-y,z
loop_
_atom_site_type_symbol
_atom_site_label
_atom_site_fract_x
_atom_site_fract_y
_atom_site_fract_z
Si Si1 0.180225 0.272016 0.334595
Si Si2 0.180480 0.880057 0.500000
Si Si3 0.820256 0.841757 0.236118
Si Si4 0.319730 0.665778 0.188617
Si Si5 0.320264 0.934312 0.342823
Si Si6 0.818166 0.434970 0.907683
Si Si7 0.680327 0.244762 0.500000
Si Si8 0.318501 0.221664 0.907908
O O1 0.212705 0.210887 0.295160
O O2 0.242501 0.317060 0.271680
O O3 0.259417 0.273980 0.419943
O O4 0.000000 0.276896 0.342936
O O5 0.236316 0.912690 0.421892
O O6 0.252322 0.818196 0.500000
O O7 0.000000 0.874834 0.500000
O O8 0.737434 0.895862 0.270773
O O9 0.761486 0.822503 0.150026
O O10 0.000000 0.850120 0.235601
O O11 0.500000 0.664129 0.198516
O O12 0.259611 0.608547 0.151050
O O13 0.283393 0.716644 0.127274
O O14 0.500000 0.926818 0.353597
O O15 0.290008 0.000000 0.330197
O O16 0.779689 0.500000 0.891420
O O17 0.000000 0.429691 0.901926
O O18 0.776276 0.423013 0.000000
O O19 0.500000 0.242217 0.500000
O O20 0.500000 0.214486 0.902525
O O21 0.273595 0.217310 0.000000
#
# Coordination Sequence:
#
# PCOD9383142 Si02
#       8
#     8   4   8   8   8   8   4   8
#     4  10  20  34  51  73 101 134 169 206 249 302
#     4  12  23  35  52  75 102 133 165 201 244 295
#     4  10  20  33  51  73  98 127 162 204 248 298
#     4  10  19  31  49  75 105 135 171 212 252 298
#     4  11  23  37  53  73  98 130 166 203 246 299
#     4   9  18  32  49  71 103 143 181 215 255 302
#     4  12  22  33  53  76 103 136 166 205 252 297
#     4   9  18  32  50  72 100 132 164 202 250 302
#
# _framework density 15.820994000000001
#
# number of rings (size 3 to 8) (size 9 to 14) (size 15 to 20)
#    0.000    1.857    1.429    4.071    0.000    5.143 
#    0.000    0.714    0.000    0.429    0.000    3.500 
#    0.000    4.000    0.000    0.000    0.000    0.000 
#
# Total GULP energy -312701.992018 kJ/mol
# GULP energy per Si atom -5583.964143 kJ/mol
# Density = 1.578498 g / cm^3
# Si number density = 15.820994 Si / 1000 Ang^3
#
#
#
# Elastic Constant Matrix: (Units=GPa)
#
#
# Indices 1 2 3 4 5 6 
#
# 1 72.9768 54.2227 65.3609 0.0000 0.0000 0.0000
# 2 54.2227 98.1758 66.7895 0.0000 0.0000 0.0000
# 3 65.3609 66.7895 142.4656 0.0000 0.0000 0.0000
# 4 0.0000 0.0000 0.0000 24.9480 0.0000 0.0000
# 5 0.0000 0.0000 0.0000 0.0000 27.8048 0.0000
# 6 0.0000 0.0000 0.0000 0.0000 0.0000 25.1563
#
#
#
# Elastic Compliance Matrix: (Units=1/GPa)
#
#
# Indices 1 2 3 4 5 6 
#
# 1 0.028840 -0.010171 -0.008463 0.000000 0.000000 0.000000
# 2 -0.010171 0.018543 -0.004027 0.000000 0.000000 0.000000
# 3 -0.008463 -0.004027 0.012790 0.000000 0.000000 0.000000
# 4 0.000000 0.000000 0.000000 0.040083 0.000000 0.000000
# 5 0.000000 0.000000 0.000000 0.000000 0.035965 0.000000
# 6 0.000000 0.000000 0.000000 0.000000 0.000000 0.039751
#
#
# Mechanical properties :
#
#
# Convention : Reuss Voigt Hill
#
# Bulk Modulus (GPa) = 67.33606 76.26272 71.79939
# Shear Modulus (GPa) = 22.10004 24.06483 23.08243
#
# Velocity S-wave (km/s) = 3.74154 3.90432 3.82380
# Velocity P-wave (km/s) = 7.83065 8.28451 8.06078
#
# Compressibility (1/GPa) = 0.01485088
#
# Stress axis : x y z
#
# Youngs Moduli (GPa) = 34.67411 53.92970 78.18765
#
# Poissons Ratio (x) = 0.54851 0.66171
# Poissons Ratio (y) = 0.35267 0.31484
# Poissons Ratio (z) = 0.29345 0.21716
#
# Static dielectric constant tensor:
#      x y z
#    x 1.524510 0.000000 0.000000 
#    y 0.000000 1.505140 0.000000 
#    z 0.000000 0.000000 1.515340 
# 
# From -- ./inp_files/21639.got.cif
#   From: 2010.05.17/outbox.cif.g08.bks.cpg/sg47_11_cif.got.tgz:21639.got - 2010.06.03 20:15:42.
