data_PCOD9383187
_publ_section_title
;
Structure prediction by ZEFSAII (Michael W. Deem and Ramdas Pophale) SiO2 
 PCOD9383187
Probable space group: P M M M
;
_chemical_formula_sum "Si O2"
_cell_formula_units_Z 48
_cell_length_a 8.594269
_cell_length_b 20.513441
_cell_length_c 15.823684
_cell_angle_alpha 90.000000
_cell_angle_beta 90.000000
_cell_angle_gamma 90.000000
_cell_volume 2789.684318
_symmetry_space_group_name_H-M "P M M M"
_symmetry_group_IT_number 47
_symmetry_cell_setting 'orthorhombic'
loop_
_space_group_symop_operation_xyz
x,y,z
-x,-y,z
x,-y,-z
-x,y,-z
-x,-y,-z
x,y,-z
-x,y,z
x,-y,z
loop_
_atom_site_type_symbol
_atom_site_label
_atom_site_fract_x
_atom_site_fract_y
_atom_site_fract_z
Si Si1 0.814209 0.745989 0.223547
Si Si2 0.685422 0.900788 0.591135
Si Si3 0.685845 0.638460 0.097674
Si Si4 0.813376 0.000000 0.097821
Si Si5 0.180161 0.500000 0.102411
Si Si6 0.813995 0.755373 0.409062
Si Si7 0.312472 0.893112 0.223231
O O1 0.749081 0.696117 0.155474
O O2 0.777047 0.722569 0.319691
O O3 0.745158 0.818728 0.214717
O O4 0.000000 0.750066 0.215033
O O5 0.747206 0.925466 0.500000
O O6 0.500000 0.912161 0.590204
O O7 0.722199 0.823599 0.590678
O O8 0.741373 0.920745 0.684482
O O9 0.500000 0.639683 0.097803
O O10 0.741634 0.567572 0.129342
O O11 0.739337 0.646290 0.000000
O O12 0.751023 0.937510 0.148459
O O13 0.000000 0.000000 0.099996
O O14 0.763104 0.000000 0.000000
O O15 0.000000 0.500000 0.126574
O O16 0.190714 0.500000 0.000000
O O17 0.782373 0.722571 0.500000
O O18 0.000000 0.769876 0.406924
O O19 0.500000 0.894006 0.222803
#
# Coordination Sequence:
#
# PCOD9383187 Si02
#       7
#     8   8   8   4   4   8   8
#     4  10  19  31  50  76 104 132 163 202 244 285
#     4   8  14  26  46  72  99 124 149 181 228 286
#     4  10  20  33  49  71 101 135 168 202 241 287
#     4  11  25  43  58  69  86 120 165 209 252 297
#     4   9  17  31  51  73  98 129 164 201 243 294
#     4   8  14  25  42  66  96 128 160 194 234 280
#     4  10  20  35  55  76  98 125 159 201 245 290
#
# _framework density 17.206249
#
# number of rings (size 3 to 8) (size 9 to 14) (size 15 to 20)
#    0.000    2.667    0.000    2.000    0.000    4.667 
#    0.000    0.417    0.000    2.500    0.000    0.583 
#    0.000    4.667    0.000    0.000    0.000    0.000 
#
# Total GULP energy -267294.578452 kJ/mol
# GULP energy per Si atom -5568.637051 kJ/mol
# Density = 1.716709 g / cm^3
# Si number density = 17.206249 Si / 1000 Ang^3
#
#
#
# Elastic Constant Matrix: (Units=GPa)
#
#
# Indices 1 2 3 4 5 6 
#
# 1 38.0388 28.8076 36.4298 0.0000 0.0000 0.0000
# 2 28.8076 97.7140 76.0726 0.0000 0.0000 0.0000
# 3 36.4298 76.0726 162.6249 0.0000 0.0000 0.0000
# 4 0.0000 0.0000 0.0000 -30.6719 0.0000 0.0000
# 5 0.0000 0.0000 0.0000 0.0000 19.5560 0.0000
# 6 0.0000 0.0000 0.0000 0.0000 0.0000 23.5398
#
#
#
# Elastic Compliance Matrix: (Units=1/GPa)
#
#
# Indices 1 2 3 4 5 6 
#
# 1 0.036167 -0.006850 -0.004898 0.000000 0.000000 0.000000
# 2 -0.006850 0.017393 -0.006602 0.000000 0.000000 0.000000
# 3 -0.004898 -0.006602 0.010334 0.000000 0.000000 0.000000
# 4 0.000000 0.000000 0.000000 -0.032603 0.000000 0.000000
# 5 0.000000 0.000000 0.000000 0.000000 0.051135 0.000000
# 6 0.000000 0.000000 0.000000 0.000000 0.000000 0.042481
#
#
# Mechanical properties :
#
#
# Convention : Reuss Voigt Hill
#
# Bulk Modulus (GPa) = 36.76977 64.55528 50.66252
# Shear Modulus (GPa) = 29.29622 12.95596 21.12609
#
# Velocity S-wave (km/s) = 4.13079 2.74703 3.50782
# Velocity P-wave (km/s) = 6.64588 6.90373 6.77603
#
# Compressibility (1/GPa) = 0.02719625
#
# Stress axis : x y z
#
# Youngs Moduli (GPa) = 27.64965 57.49503 96.76455
#
# Poissons Ratio (x) = 0.39382 0.47392
# Poissons Ratio (y) = 0.18939 0.63880
# Poissons Ratio (z) = 0.13542 0.37956
#
# Static dielectric constant tensor:
#      x y z
#    x 1.583200 0.000000 0.000000 
#    y 0.000000 1.550120 0.000000 
#    z 0.000000 0.000000 1.636920 
# 
# From -- ./inp_files/21078.got.cif
#   From: 2010.05.17/outbox.cif.g08.bks.cpg/sg47_11_cif.got.tgz:21078.got - 2010.06.03 20:15:42.
