data_PCOD9383278
_publ_section_title
;
Structure prediction by ZEFSAII (Michael W. Deem and Ramdas Pophale) SiO2 
 PCOD9383278
Probable space group: P M M M
;
_chemical_formula_sum "Si O2"
_cell_formula_units_Z 40
_cell_length_a 22.507017
_cell_length_b 8.261242
_cell_length_c 14.614127
_cell_angle_alpha 90.000000
_cell_angle_beta 90.000000
_cell_angle_gamma 90.000000
_cell_volume 2717.291063
_symmetry_space_group_name_H-M "P M M M"
_symmetry_group_IT_number 47
_symmetry_cell_setting 'orthorhombic'
loop_
_space_group_symop_operation_xyz
x,y,z
-x,-y,z
x,-y,-z
-x,y,-z
-x,-y,-z
x,y,-z
-x,y,z
x,-y,z
loop_
_atom_site_type_symbol
_atom_site_label
_atom_site_fract_x
_atom_site_fract_y
_atom_site_fract_z
Si Si1 0.267408 0.810074 0.893963
Si Si2 0.930990 0.000000 0.111505
Si Si3 0.500000 0.805473 0.106443
Si Si4 0.430557 0.804561 0.396313
Si Si5 0.381468 0.689885 0.790516
Si Si6 0.859794 0.319747 0.111207
O O1 0.324676 0.778518 0.832770
O O2 0.209091 0.711700 0.864893
O O3 0.251610 0.000000 0.892103
O O4 0.281433 0.768143 0.000000
O O5 0.898428 0.165399 0.142054
O O6 0.000000 0.000000 0.137777
O O7 0.928407 0.000000 0.000000
O O8 0.558914 0.743652 0.156651
O O9 0.500000 0.000000 0.111053
O O10 0.500000 0.756498 0.000000
O O11 0.413920 0.758057 0.500000
O O12 0.500000 0.759520 0.382697
O O13 0.392052 0.730273 0.315745
O O14 0.427662 0.000000 0.390166
O O15 0.373013 0.500000 0.803219
O O16 0.878796 0.500000 0.141164
O O17 0.862213 0.318354 0.000000
#
# Coordination Sequence:
#
# PCOD9383278 Si02
#       6
#     8   4   4   8   8   8
#     4  10  19  32  48  63  84 119 157 190 225 270
#     4   9  16  26  40  60  86 115 150 189 226 263
#     4  11  23  37  48  59  82 115 147 184 228 271
#     4   9  18  34  54  69  83 108 140 176 221 275
#     4  12  23  32  46  69  90 110 141 184 232 279
#     4   9  16  27  42  60  84 114 150 190 228 266
#
# _framework density 14.720542999999999
#
# number of rings (size 3 to 8) (size 9 to 14) (size 15 to 20)
#    0.000    2.000    2.000    3.900    0.000    5.200 
#    0.000    3.000    0.000    0.000    0.000    0.000 
#    0.000    0.000    0.000    0.000    0.000    2.000 
#
# Total GULP energy -223117.825385 kJ/mol
# GULP energy per Si atom -5577.945635 kJ/mol
# Density = 1.468704 g / cm^3
# Si number density = 14.720543 Si / 1000 Ang^3
#
#
#
# Elastic Constant Matrix: (Units=GPa)
#
#
# Indices 1 2 3 4 5 6 
#
# 1 77.0396 33.4339 19.9258 0.0000 0.0000 0.0000
# 2 33.4339 76.2500 13.4662 0.0000 0.0000 0.0000
# 3 19.9258 13.4662 51.2599 0.0000 0.0000 0.0000
# 4 0.0000 0.0000 0.0000 1.2898 0.0000 0.0000
# 5 0.0000 0.0000 0.0000 0.0000 1.6754 0.0000
# 6 0.0000 0.0000 0.0000 0.0000 0.0000 9.3878
#
#
#
# Elastic Compliance Matrix: (Units=1/GPa)
#
#
# Indices 1 2 3 4 5 6 
#
# 1 0.017136 -0.006646 -0.004915 0.000000 0.000000 0.000000
# 2 -0.006646 0.016330 -0.001707 0.000000 0.000000 0.000000
# 3 -0.004915 -0.001707 0.021867 0.000000 0.000000 0.000000
# 4 0.000000 0.000000 0.000000 0.775288 0.000000 0.000000
# 5 0.000000 0.000000 0.000000 0.000000 0.596861 0.000000
# 6 0.000000 0.000000 0.000000 0.000000 0.000000 0.106521
#
#
# Mechanical properties :
#
#
# Convention : Reuss Voigt Hill
#
# Bulk Modulus (GPa) = 34.72431 37.57793 36.15112
# Shear Modulus (GPa) = 3.18444 11.65220 7.41832
#
# Velocity S-wave (km/s) = 1.47240 2.81652 2.24730
# Velocity P-wave (km/s) = 5.15081 6.01332 5.59870
#
# Compressibility (1/GPa) = 0.02879827
#
# Stress axis : x y z
#
# Youngs Moduli (GPa) = 58.35779 61.23666 45.73011
#
# Poissons Ratio (x) = 0.40695 0.22477
# Poissons Ratio (y) = 0.38782 0.07805
# Poissons Ratio (z) = 0.28684 0.10451
#
# Static dielectric constant tensor:
#      x y z
#    x 1.490220 0.000000 0.000000 
#    y 0.000000 1.521170 0.000000 
#    z 0.000000 0.000000 1.462320 
# 
# From -- ./inp_files/10821.got.cif
#   From: 2010.05.17/outbox.cif.g08.bks.cpg/sg47_6_cif.got.tgz:10821.got - 2010.06.03 20:15:42.
