data_PCOD9383309
_publ_section_title
;
Structure prediction by ZEFSAII (Michael W. Deem and Ramdas Pophale) SiO2 
 PCOD9383309
Probable space group: P M M M
;
_chemical_formula_sum "Si O2"
_cell_formula_units_Z 52
_cell_length_a 7.430072
_cell_length_b 12.891660
_cell_length_c 25.343402
_cell_angle_alpha 90.000000
_cell_angle_beta 90.000000
_cell_angle_gamma 90.000000
_cell_volume 2427.542141
_symmetry_space_group_name_H-M "P M M M"
_symmetry_group_IT_number 47
_symmetry_cell_setting 'orthorhombic'
loop_
_space_group_symop_operation_xyz
x,y,z
-x,-y,z
x,-y,-z
-x,y,-z
-x,-y,-z
x,y,-z
-x,y,z
x,-y,z
loop_
_atom_site_type_symbol
_atom_site_label
_atom_site_fract_x
_atom_site_fract_y
_atom_site_fract_z
Si Si1 0.291623 0.111934 0.080473
Si Si2 0.209876 0.500000 0.267730
Si Si3 0.717705 0.500000 0.143843
Si Si4 0.279961 0.337240 0.057450
Si Si5 0.217065 0.885770 0.203288
Si Si6 0.220902 0.271994 0.708020
Si Si7 0.714411 0.881975 0.500000
Si Si8 0.211701 0.880975 0.616607
O O1 0.500000 0.109763 0.063702
O O2 0.214383 0.219170 0.060227
O O3 0.286952 0.119866 0.143968
O O4 0.211394 0.000000 0.066244
O O5 0.220069 0.500000 0.203940
O O6 0.284470 0.609360 0.288844
O O7 0.000000 0.500000 0.282495
O O8 0.500000 0.500000 0.145661
O O9 0.777214 0.597914 0.108400
O O10 0.500000 0.336802 0.059297
O O11 0.230520 0.380714 0.000000
O O12 0.276130 0.791984 0.239978
O O13 0.000000 0.882645 0.200428
O O14 0.265965 0.000000 0.225408
O O15 0.281775 0.201941 0.658675
O O16 0.000000 0.274368 0.707741
O O17 0.500000 0.885118 0.500000
O O18 0.769526 0.839345 0.443196
O O19 0.786848 0.000000 0.500000
O O20 0.000000 0.890539 0.627878
O O21 0.285544 0.000000 0.619290
#
# Coordination Sequence:
#
# PCOD9383309 Si02
#       8
#     8   4   4   8   8   8   4   8
#     4   9  17  28  42  62  87 112 139 174 217 266
#     4  10  20  33  49  68  93 122 147 179 226 273
#     4  10  19  32  50  68  85 109 146 187 223 263
#     4   9  17  29  46  66  85 108 142 183 222 260
#     4   9  16  27  44  64  87 116 147 178 216 264
#     4   9  17  29  46  68  91 117 152 189 222 260
#     4   9  17  29  45  70 103 130 152 183 228 273
#     4   9  16  28  48  71  94 122 157 192 221 254
#
# _framework density 21.420843000000001
#
# number of rings (size 3 to 8) (size 9 to 14) (size 15 to 20)
#    0.000    2.846    0.000    1.846    0.000    4.000 
#    0.000    3.077    0.000    6.462    0.000    5.385 
#    0.000    0.000    0.000    0.000    0.000    0.000 
#
# Total GULP energy -290153.482839 kJ/mol
# GULP energy per Si atom -5579.874670 kJ/mol
# Density = 2.137209 g / cm^3
# Si number density = 21.420843 Si / 1000 Ang^3
#
#
#
# Elastic Constant Matrix: (Units=GPa)
#
#
# Indices 1 2 3 4 5 6 
#
# 1 68.4570 9.9148 -5.4610 0.0000 0.0000 0.0000
# 2 9.9148 169.9926 72.5970 0.0000 0.0000 0.0000
# 3 -5.4610 72.5970 124.4189 0.0000 0.0000 0.0000
# 4 0.0000 0.0000 0.0000 20.8250 0.0000 0.0000
# 5 0.0000 0.0000 0.0000 0.0000 5.4780 0.0000
# 6 0.0000 0.0000 0.0000 0.0000 0.0000 -3.4513
#
#
#
# Elastic Compliance Matrix: (Units=1/GPa)
#
#
# Indices 1 2 3 4 5 6 
#
# 1 0.014954 -0.001535 0.001552 0.000000 0.000000 0.000000
# 2 -0.001535 0.007993 -0.004731 0.000000 0.000000 0.000000
# 3 0.001552 -0.004731 0.010866 0.000000 0.000000 0.000000
# 4 0.000000 0.000000 0.000000 0.048019 0.000000 0.000000
# 5 0.000000 0.000000 0.000000 0.000000 0.182548 0.000000
# 6 0.000000 0.000000 0.000000 0.000000 0.000000 -0.289744
#
#
# Mechanical properties :
#
#
# Convention : Reuss Voigt Hill
#
# Bulk Modulus (GPa) = 41.00969 57.44110 49.22539
# Shear Modulus (GPa) = -640.36283 23.62485 -308.36899
#
# Velocity S-wave (km/s) = -17.30875 3.32458 -12.01124
# Velocity P-wave (km/s) = 19.50053 6.45065 13.01268
#
# Compressibility (1/GPa) = 0.02438448
#
# Stress axis : x y z
#
# Youngs Moduli (GPa) = 66.87252 125.11702 92.03089
#
# Poissons Ratio (x) = 0.19205 -0.14283
# Poissons Ratio (y) = 0.10265 0.43539
# Poissons Ratio (z) = -0.10379 0.59192
#
# Static dielectric constant tensor:
#      x y z
#    x 1.806890 0.000000 0.000000 
#    y 0.000000 1.800600 0.000000 
#    z 0.000000 0.000000 1.753600 
# 
# From -- ./inp_files/33292.got.cif
#   From: 2010.05.17/outbox.cif.g08.bks.cpg/sg47_17_cif.got.tgz:33292.got - 2010.06.03 20:15:42.
