data_PCOD9383547
_publ_section_title
;
Structure prediction by ZEFSAII (Michael W. Deem and Ramdas Pophale) SiO2 
 PCOD9383547
Probable space group: P M M M
;
_chemical_formula_sum "Si O2"
_cell_formula_units_Z 44
_cell_length_a 30.961187
_cell_length_b 7.688343
_cell_length_c 9.413032
_cell_angle_alpha 90.000000
_cell_angle_beta 90.000000
_cell_angle_gamma 90.000000
_cell_volume 2240.680258
_symmetry_space_group_name_H-M "P M M M"
_symmetry_group_IT_number 47
_symmetry_cell_setting 'orthorhombic'
loop_
_space_group_symop_operation_xyz
x,y,z
-x,-y,z
x,-y,-z
-x,y,-z
-x,-y,-z
x,y,-z
-x,y,z
x,-y,z
loop_
_atom_site_type_symbol
_atom_site_label
_atom_site_fract_x
_atom_site_fract_y
_atom_site_fract_z
Si Si1 0.450905 0.500000 0.327429
Si Si2 0.951511 0.209765 0.662172
Si Si3 0.132296 0.292601 0.160011
Si Si4 0.614267 0.199008 0.667039
Si Si5 0.214702 0.712967 0.663294
Si Si6 0.700379 0.710962 0.164070
O O1 0.500000 0.500000 0.274428
O O2 0.453007 0.500000 0.500000
O O3 0.422943 0.331806 0.286454
O O4 0.942786 0.268700 0.500000
O O5 0.913699 0.263827 0.766590
O O6 0.000000 0.268457 0.701759
O O7 0.952180 0.000000 0.660020
O O8 0.138635 0.500000 0.150597
O O9 0.171304 0.226290 0.257974
O O10 0.133660 0.221731 0.000000
O O11 0.624066 0.234570 0.500000
O O12 0.657413 0.226046 0.757460
O O13 0.599782 0.000000 0.678353
O O14 0.216194 0.769898 0.500000
O O15 0.214390 0.500000 0.662171
O O16 0.257015 0.766894 0.750507
O O17 0.699607 0.500000 0.166006
O O18 0.701947 0.766595 0.000000
#
# Coordination Sequence:
#
# PCOD9383547 Si02
#       6
#     4   8   8   8   8   8
#     4   9  18  34  57  85 117 151 189 237 288 335
#     4   9  19  36  55  73  95 128 172 219 267 321
#     4  10  20  33  50  76 109 139 171 214 264 320
#     4  10  20  34  55  83 114 149 190 235 282 334
#     4   9  17  30  51  77 105 140 179 218 263 317
#     4  10  19  32  53  79 108 144 183 223 272 328
#
# _framework density 19.636894000000002
#
# number of rings (size 3 to 8) (size 9 to 14) (size 15 to 20)
#    0.000    2.455    0.909    2.182    0.000    5.818 
#    0.000    5.455    0.000    6.545    0.000    1.273 
#    0.000    0.000    0.000    0.000    0.000    0.000 
#
# Total GULP energy -245680.068958 kJ/mol
# GULP energy per Si atom -5583.637931 kJ/mol
# Density = 1.959220 g / cm^3
# Si number density = 19.636894 Si / 1000 Ang^3
#
#
#
# Elastic Constant Matrix: (Units=GPa)
#
#
# Indices 1 2 3 4 5 6 
#
# 1 185.7558 36.0099 108.8808 0.0000 0.0000 0.0000
# 2 36.0099 52.0818 35.1576 0.0000 0.0000 0.0000
# 3 108.8808 35.1576 147.1774 0.0000 0.0000 0.0000
# 4 0.0000 0.0000 0.0000 11.4170 0.0000 0.0000
# 5 0.0000 0.0000 0.0000 0.0000 -12.4494 0.0000
# 6 0.0000 0.0000 0.0000 0.0000 0.0000 -163.9701
#
#
#
# Elastic Compliance Matrix: (Units=1/GPa)
#
#
# Indices 1 2 3 4 5 6 
#
# 1 0.009717 -0.002224 -0.006657 0.000000 0.000000 0.000000
# 2 -0.002224 0.023401 -0.003944 0.000000 0.000000 0.000000
# 3 -0.006657 -0.003944 0.012661 0.000000 0.000000 0.000000
# 4 0.000000 0.000000 0.000000 0.087589 0.000000 0.000000
# 5 0.000000 0.000000 0.000000 0.000000 -0.080325 0.000000
# 6 0.000000 0.000000 0.000000 0.000000 0.000000 -0.006099
#
#
# Mechanical properties :
#
#
# Convention : Reuss Voigt Hill
#
# Bulk Modulus (GPa) = 49.68255 82.79016 66.23636
# Shear Modulus (GPa) = 63.04783 -19.33606 21.85589
#
# Velocity S-wave (km/s) = 5.67244 -3.14137 3.33979
# Velocity P-wave (km/s) = 8.26181 5.39393 6.97682
#
# Compressibility (1/GPa) = 0.02012779
#
# Stress axis : x y z
#
# Youngs Moduli (GPa) = 102.91707 42.73274 78.97974
#
# Poissons Ratio (x) = 0.09506 0.52576
# Poissons Ratio (y) = 0.22893 0.31153
# Poissons Ratio (z) = 0.68511 0.16856
#
# Static dielectric constant tensor:
#      x y z
#    x 1.645940 0.000000 0.000000 
#    y 0.000000 1.725660 0.000000 
#    z 0.000000 0.000000 1.668320 
# 
# From -- ./inp_files/2226.got.cif
#   From: 2010.05.17/outbox.cif.g08.bks.cpg/sg47_2_cif.got.tgz:2226.got - 2010.06.03 20:15:42.
