data_PCOD9383723
_publ_section_title
;
Structure prediction by ZEFSAII (Michael W. Deem and Ramdas Pophale) SiO2 
 PCOD9383723
Probable space group: P M M M
;
_chemical_formula_sum "Si O2"
_cell_formula_units_Z 48
_cell_length_a 10.164701
_cell_length_b 8.874027
_cell_length_c 30.537165
_cell_angle_alpha 90.000000
_cell_angle_beta 90.000000
_cell_angle_gamma 90.000000
_cell_volume 2754.508200
_symmetry_space_group_name_H-M "P M M M"
_symmetry_group_IT_number 47
_symmetry_cell_setting 'orthorhombic'
loop_
_space_group_symop_operation_xyz
x,y,z
-x,-y,z
x,-y,-z
-x,y,-z
-x,-y,-z
x,y,-z
-x,y,z
x,-y,z
loop_
_atom_site_type_symbol
_atom_site_label
_atom_site_fract_x
_atom_site_fract_y
_atom_site_fract_z
Si Si1 0.000000 0.683501 0.050858
Si Si2 0.252824 0.317546 0.892657
Si Si3 0.845736 0.679857 0.728968
Si Si4 0.159511 0.829023 0.637322
Si Si5 0.500000 0.682896 0.049151
Si Si6 0.159889 0.323236 0.548264
Si Si7 0.655252 0.180956 0.198435
O O1 0.875079 0.727716 0.079914
O O2 0.000000 0.500000 0.048545
O O3 0.000000 0.735379 0.000000
O O4 0.250421 0.500000 0.887167
O O5 0.373499 0.273961 0.923575
O O6 0.278324 0.243817 0.845842
O O7 0.839350 0.500000 0.733666
O O8 0.810489 0.727719 0.679405
O O9 0.743568 0.756472 0.761922
O O10 0.000000 0.724987 0.736818
O O11 0.207683 0.765033 0.590879
O O12 0.000000 0.831150 0.634657
O O13 0.204422 0.000000 0.644419
O O14 0.500000 0.500000 0.046781
O O15 0.500000 0.741451 0.000000
O O16 0.203211 0.269116 0.500000
O O17 0.192823 0.500000 0.552210
O O18 0.000000 0.314668 0.548353
O O19 0.500000 0.227027 0.200418
O O20 0.658766 0.000000 0.198502
#
# Coordination Sequence:
#
# PCOD9383723 Si02
#       7
#     4   8   8   8   4   8   8
#     4   9  18  32  53  83 113 137 167 211 256 297
#     4  10  19  33  54  79 107 136 170 212 254 300
#     4  10  21  36  56  79 102 132 173 219 266 316
#     4   9  16  26  41  64  96 131 168 211 261 316
#     4   9  16  28  51  79 103 133 173 213 252 293
#     4   8  13  21  34  54  85 128 174 216 258 305
#     4  11  24  40  56  76 106 140 174 214 263 315
#
# _framework density 17.425979999999999
#
# number of rings (size 3 to 8) (size 9 to 14) (size 15 to 20)
#    0.000    2.500    0.833    2.500    1.167    6.333 
#    0.000    1.667    0.000    3.000    0.000    0.000 
#    0.000    0.667    0.000    7.000    0.000    9.667 
#
# Total GULP energy -267462.113093 kJ/mol
# GULP energy per Si atom -5572.127356 kJ/mol
# Density = 1.738632 g / cm^3
# Si number density = 17.425980 Si / 1000 Ang^3
#
#
#
# Elastic Constant Matrix: (Units=GPa)
#
#
# Indices 1 2 3 4 5 6 
#
# 1 100.2460 28.5376 66.2964 0.0000 0.0000 0.0000
# 2 28.5376 43.7823 42.4364 0.0000 0.0000 0.0000
# 3 66.2964 42.4364 164.5476 0.0000 0.0000 0.0000
# 4 0.0000 0.0000 0.0000 -26.9085 0.0000 0.0000
# 5 0.0000 0.0000 0.0000 0.0000 -34.8444 0.0000
# 6 0.0000 0.0000 0.0000 0.0000 0.0000 19.7413
#
#
#
# Elastic Compliance Matrix: (Units=1/GPa)
#
#
# Indices 1 2 3 4 5 6 
#
# 1 0.014378 -0.005009 -0.004501 0.000000 0.000000 0.000000
# 2 -0.005009 0.032197 -0.006286 0.000000 0.000000 0.000000
# 3 -0.004501 -0.006286 0.009512 0.000000 0.000000 0.000000
# 4 0.000000 0.000000 0.000000 -0.037163 0.000000 0.000000
# 5 0.000000 0.000000 0.000000 0.000000 -0.028699 0.000000
# 6 0.000000 0.000000 0.000000 0.000000 0.000000 0.050655
#
#
# Mechanical properties :
#
#
# Convention : Reuss Voigt Hill
#
# Bulk Modulus (GPa) = 40.82284 64.79075 52.80679
# Shear Modulus (GPa) = 62.00585 3.01805 32.51195
#
# Velocity S-wave (km/s) = 5.97157 1.31745 4.32408
# Velocity P-wave (km/s) = 8.42754 6.29091 7.43636
#
# Compressibility (1/GPa) = 0.02449609
#
# Stress axis : x y z
#
# Youngs Moduli (GPa) = 69.54970 31.05833 105.13240
#
# Poissons Ratio (x) = 0.15557 0.47322
# Poissons Ratio (y) = 0.34838 0.66081
# Poissons Ratio (z) = 0.31306 0.19522
#
# Static dielectric constant tensor:
#      x y z
#    x 1.571160 0.000000 0.000000 
#    y 0.000000 1.590240 0.000000 
#    z 0.000000 0.000000 1.595070 
# 
# From -- ./inp_files/34060.got.cif
#   From: 2010.05.17/outbox.cif.g08.bks.cpg/sg47_18_cif.got.tgz:34060.got - 2010.06.03 20:15:42.
