data_PCOD9383844
_publ_section_title
;
Structure prediction by ZEFSAII (Michael W. Deem and Ramdas Pophale) SiO2 
 PCOD9383844
Probable space group: P M M M
;
_chemical_formula_sum "Si O2"
_cell_formula_units_Z 32
_cell_length_a 9.234225
_cell_length_b 10.501719
_cell_length_c 20.056851
_cell_angle_alpha 90.000000
_cell_angle_beta 90.000000
_cell_angle_gamma 90.000000
_cell_volume 1945.017862
_symmetry_space_group_name_H-M "P M M M"
_symmetry_group_IT_number 47
_symmetry_cell_setting 'orthorhombic'
loop_
_space_group_symop_operation_xyz
x,y,z
-x,-y,z
x,-y,-z
-x,y,-z
-x,-y,-z
x,y,-z
-x,y,z
x,-y,z
loop_
_atom_site_type_symbol
_atom_site_label
_atom_site_fract_x
_atom_site_fract_y
_atom_site_fract_z
Si Si1 0.673013 0.850143 0.706608
Si Si2 0.324059 0.500000 0.076777
Si Si3 0.675186 0.238450 0.148201
Si Si4 0.170149 0.845645 0.426781
Si Si5 0.829476 0.000000 0.920250
O O1 0.500000 0.845253 0.698546
O O2 0.711854 0.774804 0.773598
O O3 0.746608 0.802111 0.638911
O O4 0.711992 0.000000 0.716829
O O5 0.500000 0.500000 0.075218
O O6 0.281334 0.627689 0.115642
O O7 0.273755 0.500000 0.000000
O O8 0.500000 0.224628 0.142541
O O9 0.751723 0.123607 0.109825
O O10 0.222462 0.801692 0.500000
O O11 0.000000 0.815733 0.421536
O O12 0.182493 0.000000 0.427062
O O13 0.000000 0.000000 0.903444
O O14 0.815056 0.000000 0.000000
#
# Coordination Sequence:
#
# PCOD9383844 Si02
#       5
#     8   4   8   8   4
#     4   9  16  26  41  65  95 123 153 193 241 286
#     4   9  18  32  53  77  96 123 166 208 247 293
#     4  10  19  34  53  74  99 128 164 205 247 295
#     4   8  14  24  38  59  89 124 158 190 229 278
#     4  11  23  35  49  73 100 127 162 201 247 300
#
# _framework density 16.452290999999999
#
# number of rings (size 3 to 8) (size 9 to 14) (size 15 to 20)
#    0.000    2.750    1.250    1.875    0.000    3.500 
#    0.000    3.125    0.000    2.250    0.000    0.875 
#    0.000    7.000    0.000    0.000    0.000    0.000 
#
# Total GULP energy -178260.584605 kJ/mol
# GULP energy per Si atom -5570.643269 kJ/mol
# Density = 1.641485 g / cm^3
# Si number density = 16.452291 Si / 1000 Ang^3
#
#
#
# Elastic Constant Matrix: (Units=GPa)
#
#
# Indices 1 2 3 4 5 6 
#
# 1 26.4893 31.5863 54.6437 0.0000 0.0000 0.0000
# 2 31.5863 99.5842 76.5420 0.0000 0.0000 0.0000
# 3 54.6437 76.5420 188.1925 0.0000 0.0000 0.0000
# 4 0.0000 0.0000 0.0000 15.2126 0.0000 0.0000
# 5 0.0000 0.0000 0.0000 0.0000 26.4113 0.0000
# 6 0.0000 0.0000 0.0000 0.0000 0.0000 1.7911
#
#
#
# Elastic Compliance Matrix: (Units=1/GPa)
#
#
# Indices 1 2 3 4 5 6 
#
# 1 0.107036 -0.014638 -0.025125 0.000000 0.000000 0.000000
# 2 -0.014638 0.016610 -0.002506 0.000000 0.000000 0.000000
# 3 -0.025125 -0.002506 0.013628 0.000000 0.000000 0.000000
# 4 0.000000 0.000000 0.000000 0.065735 0.000000 0.000000
# 5 0.000000 0.000000 0.000000 0.000000 0.037863 0.000000
# 6 0.000000 0.000000 0.000000 0.000000 0.000000 0.558327
#
#
# Mechanical properties :
#
#
# Convention : Reuss Voigt Hill
#
# Bulk Modulus (GPa) = 18.96218 71.09002 45.02610
# Shear Modulus (GPa) = 5.54744 18.78258 12.16501
#
# Velocity S-wave (km/s) = 1.83825 3.38248 2.72216
# Velocity P-wave (km/s) = 4.00701 7.65235 6.10797
#
# Compressibility (1/GPa) = 0.05273656
#
# Stress axis : x y z
#
# Youngs Moduli (GPa) = 9.34266 60.20297 73.37735
#
# Poissons Ratio (x) = 0.88126 1.84363
# Poissons Ratio (y) = 0.13676 0.18385
# Poissons Ratio (z) = 0.23474 0.15084
#
# Static dielectric constant tensor:
#      x y z
#    x 1.546100 0.000000 0.000000 
#    y 0.000000 1.531920 0.000000 
#    z 0.000000 0.000000 1.572220 
# 
# From -- ./inp_files/26078.got.cif
#   From: 2010.05.17/outbox.cif.g08.bks.cpg/sg47_14_cif.got.tgz:26078.got - 2010.06.03 20:15:42.
