data_PCOD9383216
_publ_section_title
;
Structure prediction by ZEFSAII (Michael W. Deem and Ramdas Pophale) SiO2 
 PCOD9383216
Probable space group: P M M M
;
_chemical_formula_sum "Si O2"
_cell_formula_units_Z 52
_cell_length_a 15.020612
_cell_length_b 21.223487
_cell_length_c 7.522327
_cell_angle_alpha 90.000000
_cell_angle_beta 90.000000
_cell_angle_gamma 90.000000
_cell_volume 2398.040845
_symmetry_space_group_name_H-M "P M M M"
_symmetry_group_IT_number 47
_symmetry_cell_setting 'orthorhombic'
loop_
_space_group_symop_operation_xyz
x,y,z
-x,-y,z
x,-y,-z
-x,y,-z
-x,-y,-z
x,y,-z
-x,y,z
x,-y,z
loop_
_atom_site_type_symbol
_atom_site_label
_atom_site_fract_x
_atom_site_fract_y
_atom_site_fract_z
Si Si1 0.602256 0.691929 0.782211
Si Si2 0.805735 0.071160 0.712949
Si Si3 0.000000 0.076962 0.293290
Si Si4 0.296041 0.432214 0.793231
Si Si5 0.095754 0.254781 0.215015
Si Si6 0.902955 0.596696 0.708360
Si Si7 0.722668 0.194786 0.787169
O O1 0.500000 0.686181 0.727965
O O2 0.660063 0.631673 0.720400
O O3 0.646312 0.757903 0.723258
O O4 0.604352 0.692052 0.000000
O O5 0.815755 0.067940 0.500000
O O6 0.727994 0.120787 0.749805
O O7 0.903032 0.093865 0.785202
O O8 0.789017 0.000000 0.776929
O O9 0.000000 0.096100 0.500000
O O10 0.000000 0.000000 0.290169
O O11 0.322383 0.500000 0.713738
O O12 0.188962 0.427576 0.787151
O O13 0.322434 0.433570 0.000000
O O14 0.099310 0.327809 0.268933
O O15 0.183277 0.221125 0.283648
O O16 0.000000 0.228585 0.274043
O O17 0.097418 0.253067 0.000000
O O18 0.901064 0.581144 0.500000
O O19 0.000000 0.576030 0.779589
O O20 0.723382 0.200974 0.000000
#
# Coordination Sequence:
#
# PCOD9383216 Si02
#       7
#     8   8   4   8   8   8   8
#     4   9  18  35  57  80 105 130 164 216 272 319
#     4   9  18  32  49  71 103 141 177 212 249 294
#     4   7  12  26  45  65  95 137 176 205 238 284
#     4  10  20  35  56  80 105 136 174 213 258 312
#     4   9  17  30  48  71 103 138 172 214 260 305
#     4  10  20  33  50  74 106 143 179 214 252 297
#     4  10  19  31  51  77 103 133 168 209 260 310
#
# _framework density 21.684367999999999
#
# number of rings (size 3 to 8) (size 9 to 14) (size 15 to 20)
#    0.000    2.692    1.538    1.385    1.077    2.769 
#    0.000    3.077    0.000    3.692    0.000    4.308 
#    0.000    0.000    0.000    0.000    0.000    0.000 
#
# Total GULP energy -290109.671558 kJ/mol
# GULP energy per Si atom -5579.032145 kJ/mol
# Density = 2.163501 g / cm^3
# Si number density = 21.684368 Si / 1000 Ang^3
#
#
#
# Elastic Constant Matrix: (Units=GPa)
#
#
# Indices 1 2 3 4 5 6 
#
# 1 119.0646 77.6915 3.8331 0.0000 0.0000 0.0000
# 2 77.6915 151.3219 -1.2789 0.0000 0.0000 0.0000
# 3 3.8331 -1.2789 59.1764 0.0000 0.0000 0.0000
# 4 0.0000 0.0000 0.0000 19.1937 0.0000 0.0000
# 5 0.0000 0.0000 0.0000 0.0000 -5.8111 0.0000
# 6 0.0000 0.0000 0.0000 0.0000 0.0000 -0.0116
#
#
#
# Elastic Compliance Matrix: (Units=1/GPa)
#
#
# Indices 1 2 3 4 5 6 
#
# 1 0.012685 -0.006521 -0.000963 0.000000 0.000000 0.000000
# 2 -0.006521 0.009962 0.000638 0.000000 0.000000 0.000000
# 3 -0.000963 0.000638 0.016975 0.000000 0.000000 0.000000
# 4 0.000000 0.000000 0.000000 0.052101 0.000000 0.000000
# 5 0.000000 0.000000 0.000000 0.000000 -0.172086 0.000000
# 6 0.000000 0.000000 0.000000 0.000000 0.000000-86.525067
#
#
# Mechanical properties :
#
#
# Convention : Reuss Voigt Hill
#
# Bulk Modulus (GPa) = 38.56551 54.45049 46.50800
# Shear Modulus (GPa) = -0.05775 19.29534 9.61880
#
# Velocity S-wave (km/s) = -0.16337 2.98623 2.10842
# Velocity P-wave (km/s) = 4.21758 6.08729 5.23656
#
# Compressibility (1/GPa) = 0.02592991
#
# Stress axis : x y z
#
# Youngs Moduli (GPa) = 78.83555 100.38493 58.91097
#
# Poissons Ratio (x) = 0.65458 0.05671
# Poissons Ratio (y) = 0.51406 -0.03756
# Poissons Ratio (z) = 0.07588 -0.06401
#
# Static dielectric constant tensor:
#      x y z
#    x 1.777160 0.000000 0.000000 
#    y 0.000000 1.839990 0.000000 
#    z 0.000000 0.000000 1.834370 
# 
# From -- ./inp_files/6921.got.cif
#   From: 2010.05.17/outbox.cif.g08.bks.cpg/sg47_4_cif.got.tgz:6921.got - 2010.06.03 20:15:42.
