data_PCOD9383824
_publ_section_title
;
Structure prediction by ZEFSAII (Michael W. Deem and Ramdas Pophale) SiO2 
 PCOD9383824
Probable space group: P M M M
;
_chemical_formula_sum "Si O2"
_cell_formula_units_Z 56
_cell_length_a 8.265166
_cell_length_b 15.988215
_cell_length_c 20.894652
_cell_angle_alpha 90.000000
_cell_angle_beta 90.000000
_cell_angle_gamma 90.000000
_cell_volume 2761.129033
_symmetry_space_group_name_H-M "P M M M"
_symmetry_group_IT_number 47
_symmetry_cell_setting 'orthorhombic'
loop_
_space_group_symop_operation_xyz
x,y,z
-x,-y,z
x,-y,-z
-x,y,-z
-x,-y,-z
x,y,-z
-x,y,z
x,-y,z
loop_
_atom_site_type_symbol
_atom_site_label
_atom_site_fract_x
_atom_site_fract_y
_atom_site_fract_z
Si Si1 0.179421 0.675028 0.138209
Si Si2 0.186552 0.132768 0.173136
Si Si3 0.694702 0.096342 0.683616
Si Si4 0.500000 0.402627 0.076083
Si Si5 0.305017 0.779879 0.429958
Si Si6 0.193644 0.593502 0.402512
Si Si7 0.316940 0.596585 0.742090
Si Si8 0.691553 0.000000 0.927473
O O1 0.194896 0.773576 0.147015
O O2 0.334945 0.638713 0.101826
O O3 0.197002 0.640722 0.209990
O O4 0.000000 0.654149 0.112052
O O5 0.264584 0.122202 0.243342
O O6 0.000000 0.108590 0.181418
O O7 0.259988 0.077254 0.116982
O O8 0.500000 0.095056 0.678528
O O9 0.754069 0.163668 0.630202
O O10 0.751458 0.000000 0.672957
O O11 0.500000 0.500000 0.094964
O O12 0.500000 0.396842 0.000000
O O13 0.256018 0.814377 0.500000
O O14 0.500000 0.780818 0.426748
O O15 0.254413 0.682176 0.429010
O O16 0.248468 0.500000 0.425861
O O17 0.252021 0.598245 0.329367
O O18 0.000000 0.593443 0.407679
O O19 0.500000 0.632227 0.745276
O O20 0.326092 0.500000 0.761517
O O21 0.500000 0.000000 0.933597
O O22 0.760873 0.000000 0.000000
#
# Coordination Sequence:
#
# PCOD9383824 Si02
#       8
#     8   8   8   4   8   8   8   4
#     4  11  24  40  64  95 127 167 214 267 325 386
#     4  11  24  41  64  97 133 168 209 261 322 390
#     4  10  21  38  64  93 125 165 209 261 322 393
#     4  11  26  46  66  91 127 173 222 272 325 383
#     4  10  22  39  59  86 120 162 214 269 325 387
#     4  10  21  36  55  83 120 161 206 259 320 385
#     4  10  19  33  57  89 122 156 200 256 317 377
#     4  11  25  43  67  97 128 167 208 253 315 388
#
# _framework density 20.281559999999999
#
# number of rings (size 3 to 8) (size 9 to 14) (size 15 to 20)
#    0.000    1.571    1.429    2.786    2.000    7.714 
#    0.000    5.000    0.000    0.000    0.000    2.000 
#    0.000    0.000    0.000    0.000    0.000    0.000 
#
# Total GULP energy -312459.459424 kJ/mol
# GULP energy per Si atom -5579.633204 kJ/mol
# Density = 2.023540 g / cm^3
# Si number density = 20.281560 Si / 1000 Ang^3
#
#
#
# Elastic Constant Matrix: (Units=GPa)
#
#
# Indices 1 2 3 4 5 6 
#
# 1 75.1316 50.5286 44.2565 0.0000 0.0000 0.0000
# 2 50.5286 108.8774 65.7753 0.0000 0.0000 0.0000
# 3 44.2565 65.7753 145.3011 0.0000 0.0000 0.0000
# 4 0.0000 0.0000 0.0000 26.7810 0.0000 0.0000
# 5 0.0000 0.0000 0.0000 0.0000 -19.3211 0.0000
# 6 0.0000 0.0000 0.0000 0.0000 0.0000 31.5421
#
#
#
# Elastic Compliance Matrix: (Units=1/GPa)
#
#
# Indices 1 2 3 4 5 6 
#
# 1 0.020042 -0.007726 -0.002607 0.000000 0.000000 0.000000
# 2 -0.007726 0.015620 -0.004718 0.000000 0.000000 0.000000
# 3 -0.002607 -0.004718 0.009812 0.000000 0.000000 0.000000
# 4 0.000000 0.000000 0.000000 0.037340 0.000000 0.000000
# 5 0.000000 0.000000 0.000000 0.000000 -0.051757 0.000000
# 6 0.000000 0.000000 0.000000 0.000000 0.000000 0.031704
#
#
# Mechanical properties :
#
#
# Convention : Reuss Voigt Hill
#
# Bulk Modulus (GPa) = 65.05221 72.27010 68.66116
# Shear Modulus (GPa) = 51.02740 19.05039 35.03890
#
# Velocity S-wave (km/s) = 5.02137 3.06812 4.16098
# Velocity P-wave (km/s) = 8.10944 6.94708 7.55066
#
# Compressibility (1/GPa) = 0.01537227
#
# Stress axis : x y z
#
# Youngs Moduli (GPa) = 49.89588 64.01870 101.91669
#
# Poissons Ratio (x) = 0.49462 0.26568
# Poissons Ratio (y) = 0.38551 0.48082
# Poissons Ratio (z) = 0.13007 0.30203
#
# Static dielectric constant tensor:
#      x y z
#    x 1.728270 0.000000 0.000000 
#    y 0.000000 1.736610 0.000000 
#    z 0.000000 0.000000 1.731450 
# 
# From -- ./inp_files/29733.got.cif
#   From: 2010.05.17/outbox.cif.g08.bks.cpg/sg47_15_cif.got.tgz:29733.got - 2010.06.03 20:15:42.
