data_PCOD9383225
_publ_section_title
;
Structure prediction by ZEFSAII (Michael W. Deem and Ramdas Pophale) SiO2 
 PCOD9383225
Probable space group: P M M M
;
_chemical_formula_sum "Si O2"
_cell_formula_units_Z 48
_cell_length_a 17.983101
_cell_length_b 15.917907
_cell_length_c 8.789712
_cell_angle_alpha 90.000000
_cell_angle_beta 90.000000
_cell_angle_gamma 90.000000
_cell_volume 2516.084323
_symmetry_space_group_name_H-M "P M M M"
_symmetry_group_IT_number 47
_symmetry_cell_setting 'orthorhombic'
loop_
_space_group_symop_operation_xyz
x,y,z
-x,-y,z
x,-y,-z
-x,y,-z
-x,-y,-z
x,y,-z
-x,y,z
x,-y,z
loop_
_atom_site_type_symbol
_atom_site_label
_atom_site_fract_x
_atom_site_fract_y
_atom_site_fract_z
Si Si1 0.682152 0.900412 0.683951
Si Si2 0.683493 0.598474 0.314962
Si Si3 0.844810 0.401507 0.332229
Si Si4 0.848636 0.904795 0.684144
Si Si5 0.587297 0.748979 0.817832
Si Si6 0.000000 0.809301 0.315730
Si Si7 0.000000 0.368964 0.825195
O O1 0.677304 0.895184 0.500000
O O2 0.766636 0.875041 0.731107
O O3 0.626123 0.833635 0.755451
O O4 0.671176 0.000000 0.722715
O O5 0.684088 0.601009 0.500000
O O6 0.670034 0.500000 0.271205
O O7 0.766650 0.628637 0.263910
O O8 0.625486 0.665707 0.252010
O O9 0.855226 0.362081 0.500000
O O10 0.829389 0.500000 0.350530
O O11 0.922440 0.397687 0.247053
O O12 0.846292 0.906599 0.500000
O O13 0.923373 0.856221 0.721976
O O14 0.856341 0.000000 0.738842
O O15 0.500000 0.749988 0.779458
O O16 0.595151 0.746448 0.000000
O O17 0.000000 0.792656 0.500000
O O18 0.000000 0.728423 0.212318
O O19 0.000000 0.391061 0.000000
#
# Coordination Sequence:
#
# PCOD9383225 Si02
#       7
#     8   8   8   8   8   4   4
#     4   9  19  37  61  88 116 149 196 250 294 336
#     4   9  20  40  66  92 115 145 191 245 295 344
#     4   9  19  38  61  81 104 140 187 235 281 330
#     4   8  15  30  54  82 107 136 181 234 281 325
#     4  11  25  41  58  85 121 158 192 230 285 357
#     4  10  19  31  51  78 109 147 187 228 274 324
#     4  12  25  34  45  76 119 154 187 228 272 324
#
# _framework density 19.077262000000001
#
# number of rings (size 3 to 8) (size 9 to 14) (size 15 to 20)
#    0.000    2.500    0.000    3.750    2.333    5.667 
#    0.000    5.000    0.000    2.000    0.000    0.000 
#    0.000    0.000    0.000    0.000    0.000    0.000 
#
# Total GULP energy -267411.413158 kJ/mol
# GULP energy per Si atom -5571.071107 kJ/mol
# Density = 1.903384 g / cm^3
# Si number density = 19.077262 Si / 1000 Ang^3
#
#
#
# Elastic Constant Matrix: (Units=GPa)
#
#
# Indices 1 2 3 4 5 6 
#
# 1 188.0119 88.1524 48.1590 0.0000 0.0000 0.0000
# 2 88.1524 94.6119 28.8483 0.0000 0.0000 0.0000
# 3 48.1590 28.8483 29.7790 0.0000 0.0000 0.0000
# 4 0.0000 0.0000 0.0000 46.3644 0.0000 0.0000
# 5 0.0000 0.0000 0.0000 0.0000 250.9700 0.0000
# 6 0.0000 0.0000 0.0000 0.0000 0.0000 41.6500
#
#
#
# Elastic Compliance Matrix: (Units=1/GPa)
#
#
# Indices 1 2 3 4 5 6 
#
# 1 0.011863 -0.007385 -0.012031 0.000000 0.000000 0.000000
# 2 -0.007385 0.019597 -0.007042 0.000000 0.000000 0.000000
# 3 -0.012031 -0.007042 0.059860 0.000000 0.000000 0.000000
# 4 0.000000 0.000000 0.000000 0.021568 0.000000 0.000000
# 5 0.000000 0.000000 0.000000 0.000000 0.003985 0.000000
# 6 0.000000 0.000000 0.000000 0.000000 0.000000 0.024010
#
#
# Mechanical properties :
#
#
# Convention : Reuss Voigt Hill
#
# Bulk Modulus (GPa) = 26.03898 71.41360 48.72629
# Shear Modulus (GPa) = 24.20140 77.61308 50.90724
#
# Velocity S-wave (km/s) = 3.56560 6.38529 5.17133
# Velocity P-wave (km/s) = 5.53446 9.58528 7.82649
#
# Compressibility (1/GPa) = 0.03840397
#
# Stress axis : x y z
#
# Youngs Moduli (GPa) = 84.29612 51.02780 16.70569
#
# Poissons Ratio (x) = 0.37682 0.20099
# Poissons Ratio (y) = 0.62249 0.11765
# Poissons Ratio (z) = 1.01418 0.35935
#
# Static dielectric constant tensor:
#      x y z
#    x 1.732810 0.000000 0.000000 
#    y 0.000000 1.703470 0.000000 
#    z 0.000000 0.000000 1.689670 
# 
# From -- ./inp_files/9142.got.cif
#   From: 2010.05.17/outbox.cif.g08.bks.cpg/sg47_5_cif.got.tgz:9142.got - 2010.06.03 20:15:42.
