data_PCOD9383326
_publ_section_title
;
Structure prediction by ZEFSAII (Michael W. Deem and Ramdas Pophale) SiO2 
 PCOD9383326
Probable space group: P M M M
;
_chemical_formula_sum "Si O2"
_cell_formula_units_Z 64
_cell_length_a 20.552535
_cell_length_b 20.816706
_cell_length_c 7.691503
_cell_angle_alpha 90.000000
_cell_angle_beta 90.000000
_cell_angle_gamma 90.000000
_cell_volume 3290.702482
_symmetry_space_group_name_H-M "P M M M"
_symmetry_group_IT_number 47
_symmetry_cell_setting 'orthorhombic'
loop_
_space_group_symop_operation_xyz
x,y,z
-x,-y,z
x,-y,-z
-x,y,-z
-x,-y,-z
x,y,-z
-x,y,z
x,-y,z
loop_
_atom_site_type_symbol
_atom_site_label
_atom_site_fract_x
_atom_site_fract_y
_atom_site_fract_z
Si Si1 0.172132 0.680058 0.798696
Si Si2 0.073227 0.425631 0.212399
Si Si3 0.891883 0.930671 0.298052
Si Si4 0.288175 0.239055 0.297217
Si Si5 0.251876 0.900635 0.800442
Si Si6 0.429791 0.210804 0.712479
Si Si7 0.927323 0.790715 0.289214
Si Si8 0.603060 0.931093 0.296518
O O1 0.129606 0.621602 0.723458
O O2 0.241236 0.700369 0.720960
O O3 0.125739 0.742197 0.782199
O O4 0.184045 0.666089 0.000000
O O5 0.083350 0.500000 0.260482
O O6 0.000000 0.406554 0.268144
O O7 0.073251 0.422723 0.000000
O O8 0.912254 0.931749 0.500000
O O9 0.813723 0.923694 0.289642
O O10 0.918255 0.863770 0.224273
O O11 0.910258 0.000000 0.221020
O O12 0.290469 0.221025 0.500000
O O13 0.256849 0.176806 0.206814
O O14 0.362765 0.245458 0.235305
O O15 0.318786 0.925596 0.718794
O O16 0.249422 0.921267 0.000000
O O17 0.430157 0.210532 0.500000
O O18 0.500000 0.236438 0.769372
O O19 0.423278 0.136468 0.773024
O O20 0.920000 0.791468 0.500000
O O21 0.000000 0.768534 0.246668
O O22 0.585419 0.931925 0.500000
O O23 0.582804 0.000000 0.220562
#
# Coordination Sequence:
#
# PCOD9383326 Si02
#       8
#     8   8   8   8   8   8   8   8
#     4  11  20  31  52  79 102 129 164 201 236 276
#     4   8  15  29  49  75 108 142 171 197 228 270
#     4  10  20  33  48  63  84 117 155 197 248 302
#     4  10  19  32  50  70  95 124 155 196 243 289
#     4  11  20  30  45  65  87 114 151 197 244 290
#     4   8  15  28  46  67  89 116 154 199 242 287
#     4  10  21  35  50  68  92 124 160 200 247 294
#     4   9  17  28  43  63  87 115 146 184 238 302
#
# _framework density 19.448736
#
# number of rings (size 3 to 8) (size 9 to 14) (size 15 to 20)
#    0.000    2.375    1.250    3.750    0.000    3.250 
#    0.000    2.500    0.000   10.875    0.000    9.625 
#    0.000    0.500    0.000    6.250    0.000    0.000 
#
# Total GULP energy -357131.755227 kJ/mol
# GULP energy per Si atom -5580.183675 kJ/mol
# Density = 1.940447 g / cm^3
# Si number density = 19.448736 Si / 1000 Ang^3
#
#
#
# Elastic Constant Matrix: (Units=GPa)
#
#
# Indices 1 2 3 4 5 6 
#
# 1 127.4586 50.7598 -0.1958 0.0000 0.0000 0.0000
# 2 50.7598 82.8502 -0.5055 0.0000 0.0000 0.0000
# 3 -0.1958 -0.5055 41.8294 0.0000 0.0000 0.0000
# 4 0.0000 0.0000 0.0000 9.6253 0.0000 0.0000
# 5 0.0000 0.0000 0.0000 0.0000 -407.2372 0.0000
# 6 0.0000 0.0000 0.0000 0.0000 0.0000 21.4756
#
#
#
# Elastic Compliance Matrix: (Units=1/GPa)
#
#
# Indices 1 2 3 4 5 6 
#
# 1 0.010378 -0.006358 -0.000028 0.000000 0.000000 0.000000
# 2 -0.006358 0.015967 0.000163 0.000000 0.000000 0.000000
# 3 -0.000028 0.000163 0.023908 0.000000 0.000000 0.000000
# 4 0.000000 0.000000 0.000000 0.103893 0.000000 0.000000
# 5 0.000000 0.000000 0.000000 0.000000 -0.002456 0.000000
# 6 0.000000 0.000000 0.000000 0.000000 0.000000 0.046564
#
#
# Mechanical properties :
#
#
# Convention : Reuss Voigt Hill
#
# Bulk Modulus (GPa) = 26.45082 39.13947 32.79514
# Shear Modulus (GPa) = 22.39104 -61.75528 -19.68212
#
# Velocity S-wave (km/s) = 3.39674 -5.64108 -3.18465
# Velocity P-wave (km/s) = 5.38643 4.71815 1.83748
#
# Compressibility (1/GPa) = 0.03780601
#
# Stress axis : x y z
#
# Youngs Moduli (GPa) = 96.35929 62.63096 41.82617
#
# Poissons Ratio (x) = 0.39823 0.00118
# Poissons Ratio (y) = 0.61269 -0.00683
# Poissons Ratio (z) = 0.00272 -0.01022
#
# Static dielectric constant tensor:
#      x y z
#    x 1.702650 0.000000 0.000000 
#    y 0.000000 1.683520 0.000000 
#    z 0.000000 0.000000 1.730550 
# 
# From -- ./inp_files/11874.got.cif
#   From: 2010.05.17/outbox.cif.g08.bks.cpg/sg47_6_cif.got.tgz:11874.got - 2010.06.03 20:15:42.
