data_PCOD9383319
_publ_section_title
;
Structure prediction by ZEFSAII (Michael W. Deem and Ramdas Pophale) SiO2 
 PCOD9383319
Probable space group: P M M M
;
_chemical_formula_sum "Si O2"
_cell_formula_units_Z 44
_cell_length_a 9.165721
_cell_length_b 32.847484
_cell_length_c 7.995621
_cell_angle_alpha 90.000000
_cell_angle_beta 90.000000
_cell_angle_gamma 90.000000
_cell_volume 2407.248602
_symmetry_space_group_name_H-M "P M M M"
_symmetry_group_IT_number 47
_symmetry_cell_setting 'orthorhombic'
loop_
_space_group_symop_operation_xyz
x,y,z
-x,-y,z
x,-y,-z
-x,y,-z
-x,-y,-z
x,y,-z
-x,y,z
x,-y,z
loop_
_atom_site_type_symbol
_atom_site_label
_atom_site_fract_x
_atom_site_fract_y
_atom_site_fract_z
Si Si1 0.332546 0.500000 0.795453
Si Si2 0.677626 0.046894 0.189419
Si Si3 0.678349 0.804535 0.500000
Si Si4 0.668352 0.663007 0.698480
Si Si5 0.677852 0.751002 0.185132
Si Si6 0.321540 0.898362 0.500000
Si Si7 0.167344 0.581429 0.202517
O O1 0.500000 0.500000 0.742177
O O2 0.252579 0.458858 0.740365
O O3 0.329911 0.500000 0.000000
O O4 0.500000 0.047466 0.190061
O O5 0.726183 0.077338 0.334301
O O6 0.720277 0.000000 0.223717
O O7 0.723472 0.057548 0.000000
O O8 0.500000 0.804254 0.500000
O O9 0.726172 0.780171 0.334810
O O10 0.724602 0.851437 0.500000
O O11 0.668624 0.670641 0.500000
O O12 0.500000 0.656242 0.751419
O O13 0.723706 0.704308 0.784308
O O14 0.758515 0.622868 0.738038
O O15 0.500000 0.750357 0.191205
O O16 0.721454 0.764652 0.000000
O O17 0.500000 0.898623 0.500000
O O18 0.000000 0.579478 0.256991
O O19 0.170355 0.581476 0.000000
#
# Coordination Sequence:
#
# PCOD9383319 Si02
#       7
#     4   8   4   8   8   4   8
#     4   9  17  31  52  75 100 131 166 200 234 282
#     4   8  13  20  28  38  54  81 122 168 212 264
#     4   9  16  25  34  53  79 100 130 173 224 287
#     4  10  19  32  50  70  92 119 157 200 236 282
#     4   9  16  27  43  60  81 109 140 180 228 276
#     4   9  15  20  29  42  62  89 118 160 218 277
#     4  10  20  33  50  74 102 129 158 195 241 289
#
# _framework density 18.278127999999999
#
# number of rings (size 3 to 8) (size 9 to 14) (size 15 to 20)
#    0.000    2.818    0.909    2.182    0.000    5.091 
#    0.000    4.091    0.000    2.727    0.000    0.000 
#    0.000    0.000    0.000    0.000    0.000    0.000 
#
# Total GULP energy -245322.075677 kJ/mol
# GULP energy per Si atom -5575.501720 kJ/mol
# Density = 1.823653 g / cm^3
# Si number density = 18.278128 Si / 1000 Ang^3
#
#
#
# Elastic Constant Matrix: (Units=GPa)
#
#
# Indices 1 2 3 4 5 6 
#
# 1 37.1406 33.2781 21.7086 0.0000 0.0000 0.0000
# 2 33.2781 166.1111 93.3663 0.0000 0.0000 0.0000
# 3 21.7086 93.3663 114.5092 0.0000 0.0000 0.0000
# 4 0.0000 0.0000 0.0000 36.6331 0.0000 0.0000
# 5 0.0000 0.0000 0.0000 0.0000 6.7297 0.0000
# 6 0.0000 0.0000 0.0000 0.0000 0.0000 -6.0335
#
#
#
# Elastic Compliance Matrix: (Units=1/GPa)
#
#
# Indices 1 2 3 4 5 6 
#
# 1 0.032973 -0.005708 -0.001597 0.000000 0.000000 0.000000
# 2 -0.005708 0.012101 -0.008785 0.000000 0.000000 0.000000
# 3 -0.001597 -0.008785 0.016198 0.000000 0.000000 0.000000
# 4 0.000000 0.000000 0.000000 0.027298 0.000000 0.000000
# 5 0.000000 0.000000 0.000000 0.000000 0.148595 0.000000
# 6 0.000000 0.000000 0.000000 0.000000 0.000000 -0.165742
#
#
# Mechanical properties :
#
#
# Convention : Reuss Voigt Hill
#
# Bulk Modulus (GPa) = 34.37257 68.27410 51.32334
# Shear Modulus (GPa) = 44.13062 18.75972 31.44517
#
# Velocity S-wave (km/s) = 4.91898 3.20714 4.15224
# Velocity P-wave (km/s) = 7.14898 7.15181 7.15039
#
# Compressibility (1/GPa) = 0.02909296
#
# Stress axis : x y z
#
# Youngs Moduli (GPa) = 30.32826 82.63581 61.73449
#
# Poissons Ratio (x) = 0.47170 0.09857
# Poissons Ratio (y) = 0.17312 0.54232
# Poissons Ratio (z) = 0.04843 0.72594
#
# Static dielectric constant tensor:
#      x y z
#    x 1.596650 0.000000 0.000000 
#    y 0.000000 1.602960 0.000000 
#    z 0.000000 0.000000 1.652680 
# 
# From -- ./inp_files/2333.got.cif
#   From: 2010.05.17/outbox.cif.g08.bks.cpg/sg47_2_cif.got.tgz:2333.got - 2010.06.03 20:15:42.
