data_PCOD9383680
_publ_section_title
;
Structure prediction by ZEFSAII (Michael W. Deem and Ramdas Pophale) SiO2 
 PCOD9383680
Probable space group: P M M M
;
_chemical_formula_sum "Si O2"
_cell_formula_units_Z 64
_cell_length_a 8.445617
_cell_length_b 15.446958
_cell_length_c 25.676864
_cell_angle_alpha 90.000000
_cell_angle_beta 90.000000
_cell_angle_gamma 90.000000
_cell_volume 3349.780339
_symmetry_space_group_name_H-M "P M M M"
_symmetry_group_IT_number 47
_symmetry_cell_setting 'orthorhombic'
loop_
_space_group_symop_operation_xyz
x,y,z
-x,-y,z
x,-y,-z
-x,y,-z
-x,-y,-z
x,y,-z
-x,y,z
x,-y,z
loop_
_atom_site_type_symbol
_atom_site_label
_atom_site_fract_x
_atom_site_fract_y
_atom_site_fract_z
Si Si1 0.817490 0.339211 0.334117
Si Si2 0.309390 0.597464 0.059694
Si Si3 0.308462 0.285585 0.557472
Si Si4 0.187145 0.724542 0.147257
Si Si5 0.806622 0.904259 0.190021
Si Si6 0.185109 0.864065 0.308005
Si Si7 0.312680 0.907235 0.417483
Si Si8 0.686080 0.596405 0.768692
O O1 0.759074 0.337334 0.393515
O O2 0.806655 0.239432 0.314833
O O3 0.716880 0.392410 0.292615
O O4 0.000000 0.366488 0.331336
O O5 0.500000 0.595874 0.059921
O O6 0.255679 0.500000 0.074860
O O7 0.255997 0.670639 0.099384
O O8 0.257783 0.612998 0.000000
O O9 0.266529 0.318474 0.500000
O O10 0.500000 0.284590 0.561942
O O11 0.251549 0.184980 0.561744
O O12 0.249403 0.821897 0.156870
O O13 0.222664 0.668934 0.199045
O O14 0.000000 0.730186 0.140098
O O15 0.761328 0.890609 0.250548
O O16 0.000000 0.902127 0.189633
O O17 0.756704 0.000000 0.172647
O O18 0.283655 0.902594 0.355513
O O19 0.000000 0.889263 0.314044
O O20 0.500000 0.907561 0.428707
O O21 0.247285 0.000000 0.436218
O O22 0.500000 0.605782 0.779781
O O23 0.736025 0.500000 0.784924
#
# Coordination Sequence:
#
# PCOD9383680 Si02
#       8
#     8   8   8   8   8   8   8   8
#     4  10  19  33  53  76 101 129 168 217 265 310
#     4   9  19  37  59  82 111 149 189 225 269 328
#     4   9  18  32  49  68  93 130 171 209 258 321
#     4  11  21  34  54  84 117 146 183 228 270 309
#     4   9  17  30  48  71 104 145 184 220 262 312
#     4   9  16  29  47  66  92 130 172 210 256 310
#     4   9  17  27  40  63  93 123 162 213 262 307
#     4  11  23  37  55  80 111 146 176 205 258 330
#
# _framework density 19.105730999999999
#
# number of rings (size 3 to 8) (size 9 to 14) (size 15 to 20)
#    0.000    2.375    1.250    2.250    0.000    4.750 
#    0.000    1.875    0.000    3.000    0.000    8.750 
#    0.000    0.000    0.000    0.000    0.000    0.000 
#
# Total GULP energy -357017.251227 kJ/mol
# GULP energy per Si atom -5578.394550 kJ/mol
# Density = 1.906225 g / cm^3
# Si number density = 19.105731 Si / 1000 Ang^3
#
#
#
# Elastic Constant Matrix: (Units=GPa)
#
#
# Indices 1 2 3 4 5 6 
#
# 1 8.8018 9.2511 5.9254 0.0000 0.0000 0.0000
# 2 9.2511 86.0978 50.2413 0.0000 0.0000 0.0000
# 3 5.9254 50.2413 107.6235 0.0000 0.0000 0.0000
# 4 0.0000 0.0000 0.0000 -3.0237 0.0000 0.0000
# 5 0.0000 0.0000 0.0000 0.0000 34.1059 0.0000
# 6 0.0000 0.0000 0.0000 0.0000 0.0000 8.4886
#
#
#
# Elastic Compliance Matrix: (Units=1/GPa)
#
#
# Indices 1 2 3 4 5 6 
#
# 1 0.128136 -0.013265 -0.000862 0.000000 0.000000 0.000000
# 2 -0.013265 0.017336 -0.007363 0.000000 0.000000 0.000000
# 3 -0.000862 -0.007363 0.012776 0.000000 0.000000 0.000000
# 4 0.000000 0.000000 0.000000 -0.330717 0.000000 0.000000
# 5 0.000000 0.000000 0.000000 0.000000 0.029320 0.000000
# 6 0.000000 0.000000 0.000000 0.000000 0.000000 0.117805
#
#
# Mechanical properties :
#
#
# Convention : Reuss Voigt Hill
#
# Bulk Modulus (GPa) = 8.67537 37.03984 22.85761
# Shear Modulus (GPa) = 89.18877 17.05450 53.12164
#
# Velocity S-wave (km/s) = 6.83981 2.99095 5.27867
# Velocity P-wave (km/s) = 8.18095 5.59969 7.01015
#
# Compressibility (1/GPa) = 0.11526881
#
# Stress axis : x y z
#
# Youngs Moduli (GPa) = 7.80421 57.68204 78.27032
#
# Poissons Ratio (x) = 0.76514 0.06750
# Poissons Ratio (y) = 0.10352 0.57628
# Poissons Ratio (z) = 0.00673 0.42470
#
# Static dielectric constant tensor:
#      x y z
#    x 1.660570 0.000000 0.000000 
#    y 0.000000 1.699430 0.000000 
#    z 0.000000 0.000000 1.656170 
# 
# From -- ./inp_files/32125.got.cif
#   From: 2010.05.17/outbox.cif.g08.bks.cpg/sg47_17_cif.got.tgz:32125.got - 2010.06.03 20:15:42.
