data_PCOD9383197
_publ_section_title
;
Structure prediction by ZEFSAII (Michael W. Deem and Ramdas Pophale) SiO2 
 PCOD9383197
Probable space group: P M M M
;
_chemical_formula_sum "Si O2"
_cell_formula_units_Z 56
_cell_length_a 20.994630
_cell_length_b 15.604592
_cell_length_c 8.039779
_cell_angle_alpha 90.000000
_cell_angle_beta 90.000000
_cell_angle_gamma 90.000000
_cell_volume 2633.933186
_symmetry_space_group_name_H-M "P M M M"
_symmetry_group_IT_number 47
_symmetry_cell_setting 'orthorhombic'
loop_
_space_group_symop_operation_xyz
x,y,z
-x,-y,z
x,-y,-z
-x,y,-z
-x,-y,-z
x,y,-z
-x,y,z
x,-y,z
loop_
_atom_site_type_symbol
_atom_site_label
_atom_site_fract_x
_atom_site_fract_y
_atom_site_fract_z
Si Si1 0.336263 0.344795 0.201512
Si Si2 0.911698 0.904781 0.309699
Si Si3 0.346241 0.162778 0.304974
Si Si4 0.070099 0.287243 0.298785
Si Si5 0.777793 0.095247 0.815468
Si Si6 0.806491 0.400285 0.799495
Si Si7 0.572519 0.000000 0.703492
Si Si8 0.573001 0.500000 0.202708
O O1 0.367082 0.258490 0.272497
O O2 0.262912 0.364108 0.256958
O O3 0.384056 0.419634 0.251821
O O4 0.334588 0.339993 0.000000
O O5 0.933491 0.906810 0.500000
O O6 0.929814 0.812208 0.236556
O O7 0.835375 0.899386 0.308934
O O8 0.926975 0.000000 0.236021
O O9 0.334983 0.147684 0.500000
O O10 0.278592 0.158988 0.213727
O O11 0.391376 0.086491 0.244043
O O12 0.072567 0.282984 0.500000
O O13 0.132389 0.341309 0.246412
O O14 0.000000 0.323966 0.252356
O O15 0.749377 0.000000 0.801345
O O16 0.805336 0.104632 0.000000
O O17 0.813917 0.500000 0.743425
O O18 0.803969 0.401746 0.000000
O O19 0.500000 0.000000 0.760677
O O20 0.571910 0.000000 0.500000
O O21 0.500000 0.500000 0.261887
O O22 0.570579 0.500000 0.000000
#
# Coordination Sequence:
#
# PCOD9383197 Si02
#       8
#     8   8   8   8   8   8   4   4
#     4  10  20  37  61  89 118 149 188 237 289 341
#     4   9  18  33  54  79 110 149 189 226 270 334
#     4  11  21  34  55  81 110 148 192 234 277 331
#     4  10  22  38  55  81 116 150 188 238 291 338
#     4  10  19  31  50  77 109 141 179 230 282 326
#     4  10  21  39  62  84 109 146 190 234 283 345
#     4   9  20  38  55  73 107 157 200 229 268 327
#     4   9  18  36  63  91 120 153 186 226 287 355
#
# _framework density 21.260978999999999
#
# number of rings (size 3 to 8) (size 9 to 14) (size 15 to 20)
#    0.000    2.143    1.429    1.714    0.000    5.714 
#    0.000    3.214    0.000    3.429    0.000    3.000 
#    0.000    0.000    0.000    0.000    0.000    0.000 
#
# Total GULP energy -312191.274475 kJ/mol
# GULP energy per Si atom -5574.844187 kJ/mol
# Density = 2.121259 g / cm^3
# Si number density = 21.260979 Si / 1000 Ang^3
#
#
#
# Elastic Constant Matrix: (Units=GPa)
#
#
# Indices 1 2 3 4 5 6 
#
# 1 165.7730 81.4083 12.4240 0.0000 0.0000 0.0000
# 2 81.4083 160.4681 7.2706 0.0000 0.0000 0.0000
# 3 12.4240 7.2706 24.9240 0.0000 0.0000 0.0000
# 4 0.0000 0.0000 0.0000 24.1800 0.0000 0.0000
# 5 0.0000 0.0000 0.0000 0.0000 2.0973 0.0000
# 6 0.0000 0.0000 0.0000 0.0000 0.0000 11.9723
#
#
#
# Elastic Compliance Matrix: (Units=1/GPa)
#
#
# Indices 1 2 3 4 5 6 
#
# 1 0.008239 -0.004047 -0.002926 0.000000 0.000000 0.000000
# 2 -0.004047 0.008303 -0.000405 0.000000 0.000000 0.000000
# 3 -0.002926 -0.000405 0.041699 0.000000 0.000000 0.000000
# 4 0.000000 0.000000 0.000000 0.041356 0.000000 0.000000
# 5 0.000000 0.000000 0.000000 0.000000 0.476810 0.000000
# 6 0.000000 0.000000 0.000000 0.000000 0.000000 0.083526
#
#
# Mechanical properties :
#
#
# Convention : Reuss Voigt Hill
#
# Bulk Modulus (GPa) = 22.99664 61.48565 42.24114
# Shear Modulus (GPa) = 7.25493 24.32073 15.78783
#
# Velocity S-wave (km/s) = 1.84925 3.38585 2.72798
# Velocity P-wave (km/s) = 3.92422 6.65339 5.46201
#
# Compressibility (1/GPa) = 0.04348461
#
# Stress axis : x y z
#
# Youngs Moduli (GPa) = 121.37047 120.43288 23.98148
#
# Poissons Ratio (x) = 0.48743 0.07018
# Poissons Ratio (y) = 0.49123 0.00971
# Poissons Ratio (z) = 0.35518 0.04874
#
# Static dielectric constant tensor:
#      x y z
#    x 1.747110 0.000000 0.000000 
#    y 0.000000 1.823400 0.000000 
#    z 0.000000 0.000000 1.788920 
# 
# From -- ./inp_files/11334.got.cif
#   From: 2010.05.17/outbox.cif.g08.bks.cpg/sg47_6_cif.got.tgz:11334.got - 2010.06.03 20:15:42.
