data_PCOD9383868
_publ_section_title
;
Structure prediction by ZEFSAII (Michael W. Deem and Ramdas Pophale) SiO2 
 PCOD9383868
Probable space group: P M M M
;
_chemical_formula_sum "Si O2"
_cell_formula_units_Z 36
_cell_length_a 17.320868
_cell_length_b 12.991773
_cell_length_c 8.707615
_cell_angle_alpha 90.000000
_cell_angle_beta 90.000000
_cell_angle_gamma 90.000000
_cell_volume 1959.464026
_symmetry_space_group_name_H-M "P M M M"
_symmetry_group_IT_number 47
_symmetry_cell_setting 'orthorhombic'
loop_
_space_group_symop_operation_xyz
x,y,z
-x,-y,z
x,-y,-z
-x,y,-z
-x,-y,-z
x,y,-z
-x,y,z
x,-y,z
loop_
_atom_site_type_symbol
_atom_site_label
_atom_site_fract_x
_atom_site_fract_y
_atom_site_fract_z
Si Si1 0.588751 0.000000 0.816322
Si Si2 0.696322 0.825476 0.681486
Si Si3 0.253441 0.613685 0.185711
Si Si4 0.125751 0.115098 0.682810
Si Si5 0.082718 0.328770 0.183737
O O1 0.634097 0.899665 0.757648
O O2 0.500000 0.000000 0.763507
O O3 0.589911 0.000000 0.000000
O O4 0.683207 0.822414 0.500000
O O5 0.700569 0.710144 0.747452
O O6 0.782011 0.872922 0.706492
O O7 0.281956 0.500000 0.228282
O O8 0.163700 0.624081 0.238935
O O9 0.253739 0.621466 0.000000
O O10 0.111061 0.127596 0.500000
O O11 0.087898 0.208338 0.773779
O O12 0.101786 0.000000 0.727513
O O13 0.000000 0.369084 0.242010
O O14 0.082720 0.341788 0.000000
#
# Coordination Sequence:
#
# PCOD9383868 Si02
#       5
#     4   8   8   8   8
#     4  11  23  37  57  87 118 143 166 197 247 308
#     4  10  19  34  55  79 108 139 175 215 256 305
#     4   9  18  33  53  76 102 138 183 225 268 315
#     4   9  17  30  46  65  92 129 172 212 257 311
#     4   9  18  30  43  65  96 130 173 223 270 312
#
# _framework density 18.372371000000001
#
# number of rings (size 3 to 8) (size 9 to 14) (size 15 to 20)
#    0.000    2.556    1.111    1.000    0.000    4.000 
#    0.000    4.444    0.000    0.667    0.000   10.889 
#    0.000    0.000    0.000    0.000    0.000    0.000 
#
# Total GULP energy -200783.018630 kJ/mol
# GULP energy per Si atom -5577.306073 kJ/mol
# Density = 1.833055 g / cm^3
# Si number density = 18.372371 Si / 1000 Ang^3
#
#
#
# Elastic Constant Matrix: (Units=GPa)
#
#
# Indices 1 2 3 4 5 6 
#
# 1 95.5352 45.6786 32.0499 0.0000 0.0000 0.0000
# 2 45.6786 138.9220 24.2833 0.0000 0.0000 0.0000
# 3 32.0499 24.2833 20.4988 0.0000 0.0000 0.0000
# 4 0.0000 0.0000 0.0000 -0.7078 0.0000 0.0000
# 5 0.0000 0.0000 0.0000 0.0000 11.9928 0.0000
# 6 0.0000 0.0000 0.0000 0.0000 0.0000 113.1002
#
#
#
# Elastic Compliance Matrix: (Units=1/GPa)
#
#
# Indices 1 2 3 4 5 6 
#
# 1 0.022279 -0.001560 -0.032986 0.000000 0.000000 0.000000
# 2 -0.001560 0.009187 -0.008445 0.000000 0.000000 0.000000
# 3 -0.032986 -0.008445 0.110361 0.000000 0.000000 0.000000
# 4 0.000000 0.000000 0.000000 -1.412916 0.000000 0.000000
# 5 0.000000 0.000000 0.000000 0.000000 0.083384 0.000000
# 6 0.000000 0.000000 0.000000 0.000000 0.000000 0.008842
#
#
# Mechanical properties :
#
#
# Convention : Reuss Voigt Hill
#
# Bulk Modulus (GPa) = 17.90625 50.99773 34.45199
# Shear Modulus (GPa) = -4.65433 35.07333 15.20950
#
# Velocity S-wave (km/s) = -1.59337 4.37398 2.88035
# Velocity P-wave (km/s) = 2.52633 7.30254 5.46394
#
# Compressibility (1/GPa) = 0.05584644
#
# Stress axis : x y z
#
# Youngs Moduli (GPa) = 44.88529 108.84625 9.06120
#
# Poissons Ratio (x) = 0.16976 0.29889
# Poissons Ratio (y) = 0.07001 0.07652
# Poissons Ratio (z) = 1.48057 0.91920
#
# Static dielectric constant tensor:
#      x y z
#    x 1.649440 0.000000 0.000000 
#    y 0.000000 1.631670 0.000000 
#    z 0.000000 0.000000 1.617280 
# 
# From -- ./inp_files/8665.got.cif
#   From: 2010.05.17/outbox.cif.g08.bks.cpg/sg47_5_cif.got.tgz:8665.got - 2010.06.03 20:15:42.
