data_PCOD9383817
_publ_section_title
;
Structure prediction by ZEFSAII (Michael W. Deem and Ramdas Pophale) SiO2 
 PCOD9383817
Probable space group: P M M M
;
_chemical_formula_sum "Si O2"
_cell_formula_units_Z 56
_cell_length_a 16.139848
_cell_length_b 9.859477
_cell_length_c 19.339096
_cell_angle_alpha 90.000000
_cell_angle_beta 90.000000
_cell_angle_gamma 90.000000
_cell_volume 3077.439245
_symmetry_space_group_name_H-M "P M M M"
_symmetry_group_IT_number 47
_symmetry_cell_setting 'orthorhombic'
loop_
_space_group_symop_operation_xyz
x,y,z
-x,-y,z
x,-y,-z
-x,y,-z
-x,-y,-z
x,y,-z
-x,y,z
x,-y,z
loop_
_atom_site_type_symbol
_atom_site_label
_atom_site_fract_x
_atom_site_fract_y
_atom_site_fract_z
Si Si1 0.099246 0.000000 0.420322
Si Si2 0.851221 0.751595 0.676224
Si Si3 0.595855 0.338594 0.159481
Si Si4 0.761832 0.336024 0.077974
Si Si5 0.908807 0.662846 0.180118
Si Si6 0.329403 0.164710 0.281792
Si Si7 0.100941 0.500000 0.417058
Si Si8 0.596385 0.836004 0.572608
O O1 0.127715 0.874243 0.374543
O O2 0.130812 0.000000 0.500000
O O3 0.000000 0.000000 0.424324
O O4 0.907125 0.727317 0.743690
O O5 0.763664 0.781191 0.712870
O O6 0.860717 0.625721 0.624503
O O7 0.500000 0.317427 0.137646
O O8 0.603842 0.500000 0.176927
O O9 0.668622 0.307539 0.104438
O O10 0.618351 0.242323 0.223812
O O11 0.768678 0.500000 0.076207
O O12 0.833244 0.289688 0.131285
O O13 0.774518 0.285275 0.000000
O O14 0.898799 0.500000 0.189877
O O15 0.000000 0.686012 0.148589
O O16 0.364038 0.205859 0.356600
O O17 0.332176 0.000000 0.273655
O O18 0.117313 0.500000 0.500000
O O19 0.000000 0.500000 0.409435
O O20 0.634158 0.787346 0.500000
O O21 0.500000 0.799258 0.573291
O O22 0.600607 0.000000 0.572022
#
# Coordination Sequence:
#
# PCOD9383817 Si02
#       8
#     4   8   8   8   8   8   4   8
#     4  11  24  40  56  80 118 156 195 250 302 344
#     4  12  22  37  57  84 112 152 203 245 294 352
#     4  10  21  37  60  88 118 153 192 236 291 349
#     4   9  18  33  55  85 122 155 187 234 291 349
#     4  10  19  33  57  85 115 152 195 240 291 353
#     4  11  22  36  56  83 114 150 192 243 292 350
#     4  11  24  40  58  80 110 156 207 248 298 362
#     4   8  15  29  49  72  99 134 176 222 273 329
#
# _framework density 18.196947999999999
#
# number of rings (size 3 to 8) (size 9 to 14) (size 15 to 20)
#    0.000    1.857    2.857    2.571    1.000    3.714 
#    0.000    2.857    0.000    0.429    0.000    3.000 
#    0.000    2.857    0.000    0.000    0.000    0.000 
#
# Total GULP energy -311903.285941 kJ/mol
# GULP energy per Si atom -5569.701535 kJ/mol
# Density = 1.815553 g / cm^3
# Si number density = 18.196948 Si / 1000 Ang^3
#
#
#
# Elastic Constant Matrix: (Units=GPa)
#
#
# Indices 1 2 3 4 5 6 
#
# 1 102.9717 22.8404 56.9443 0.0000 0.0000 0.0000
# 2 22.8404 70.2694 34.1949 0.0000 0.0000 0.0000
# 3 56.9443 34.1949 134.4449 0.0000 0.0000 0.0000
# 4 0.0000 0.0000 0.0000 143.7175 0.0000 0.0000
# 5 0.0000 0.0000 0.0000 0.0000 25.4186 0.0000
# 6 0.0000 0.0000 0.0000 0.0000 0.0000 16.6037
#
#
#
# Elastic Compliance Matrix: (Units=1/GPa)
#
#
# Indices 1 2 3 4 5 6 
#
# 1 0.012867 -0.001746 -0.005006 0.000000 0.000000 0.000000
# 2 -0.001746 0.016478 -0.003451 0.000000 0.000000 0.000000
# 3 -0.005006 -0.003451 0.010436 0.000000 0.000000 0.000000
# 4 0.000000 0.000000 0.000000 0.006958 0.000000 0.000000
# 5 0.000000 0.000000 0.000000 0.000000 0.039341 0.000000
# 6 0.000000 0.000000 0.000000 0.000000 0.000000 0.060228
#
#
# Mechanical properties :
#
#
# Convention : Reuss Voigt Hill
#
# Bulk Modulus (GPa) = 51.61499 59.51612 55.56556
# Shear Modulus (GPa) = 28.87289 50.06172 39.46730
#
# Velocity S-wave (km/s) = 3.98765 5.25079 4.66219
# Velocity P-wave (km/s) = 7.04471 8.33899 7.71902
#
# Compressibility (1/GPa) = 0.01937422
#
# Stress axis : x y z
#
# Youngs Moduli (GPa) = 77.71855 60.68647 95.82257
#
# Poissons Ratio (x) = 0.10598 0.47965
# Poissons Ratio (y) = 0.13573 0.33072
# Poissons Ratio (z) = 0.38903 0.20945
#
# Static dielectric constant tensor:
#      x y z
#    x 1.713030 0.000000 0.000000 
#    y 0.000000 1.143180 0.000000 
#    z 0.000000 0.000000 1.629610 
# 
# From -- ./inp_files/31016.got.cif
#   From: 2010.05.17/outbox.cif.g08.bks.cpg/sg47_16_cif.got.tgz:31016.got - 2010.06.03 20:15:42.
