data_PCOD9383293
_publ_section_title
;
Structure prediction by ZEFSAII (Michael W. Deem and Ramdas Pophale) SiO2 
 PCOD9383293
Probable space group: P M M M
;
_chemical_formula_sum "Si O2"
_cell_formula_units_Z 60
_cell_length_a 9.211130
_cell_length_b 23.169899
_cell_length_c 15.692814
_cell_angle_alpha 90.000000
_cell_angle_beta 90.000000
_cell_angle_gamma 90.000000
_cell_volume 3349.175300
_symmetry_space_group_name_H-M "P M M M"
_symmetry_group_IT_number 47
_symmetry_cell_setting 'orthorhombic'
loop_
_space_group_symop_operation_xyz
x,y,z
-x,-y,z
x,-y,-z
-x,y,-z
-x,-y,-z
x,y,-z
-x,y,z
x,-y,z
loop_
_atom_site_type_symbol
_atom_site_label
_atom_site_fract_x
_atom_site_fract_y
_atom_site_fract_z
Si Si1 0.328816 0.175630 0.840268
Si Si2 0.834776 0.935478 0.897576
Si Si3 0.165608 0.000000 0.394991
Si Si4 0.171350 0.211890 0.669819
Si Si5 0.673152 0.301771 0.094838
Si Si6 0.825357 0.337856 0.269187
Si Si7 0.338730 0.110915 0.599345
Si Si8 0.176659 0.433213 0.596387
O O1 0.500000 0.175107 0.820009
O O2 0.276673 0.114756 0.875687
O O3 0.228151 0.187375 0.759223
O O4 0.305131 0.232365 0.898437
O O5 0.000000 0.921925 0.868062
O O6 0.796542 0.000000 0.866498
O O7 0.840457 0.938060 0.000000
O O8 0.245714 0.057931 0.364365
O O9 0.163427 0.000000 0.500000
O O10 0.000000 0.000000 0.366777
O O11 0.203656 0.279851 0.675675
O O12 0.258929 0.171987 0.605514
O O13 0.000000 0.204428 0.658189
O O14 0.500000 0.311912 0.102087
O O15 0.751403 0.330012 0.176717
O O16 0.720805 0.320912 0.000000
O O17 0.775960 0.391585 0.327089
O O18 0.000000 0.340923 0.256768
O O19 0.352987 0.097185 0.500000
O O20 0.500000 0.113489 0.637119
O O21 0.222004 0.415739 0.500000
O O22 0.219013 0.500000 0.609240
O O23 0.000000 0.431363 0.596463
#
# Coordination Sequence:
#
# PCOD9383293 Si02
#       8
#     8   8   4   8   8   8   8   8
#     4  10  19  32  49  68  92 120 157 204 250 300
#     4   9  18  32  48  66  90 119 150 188 238 296
#     4   9  17  31  51  71  89 113 150 197 250 305
#     4  10  20  33  48  69  98 128 159 199 250 303
#     4   9  18  32  50  72  99 134 172 210 259 316
#     4   9  18  31  50  78 107 134 170 218 261 300
#     4  10  20  34  51  70  93 122 159 203 249 301
#     4   8  14  27  50  80 112 144 176 210 252 303
#
# _framework density 17.914857999999999
#
# number of rings (size 3 to 8) (size 9 to 14) (size 15 to 20)
#    0.000    2.733    0.000    2.600    0.000    4.533 
#    1.200    2.000    0.000    1.200    0.000    3.733 
#    0.000    0.000    0.000    0.000    0.000    0.000 
#
# Total GULP energy -334178.996017 kJ/mol
# GULP energy per Si atom -5569.649934 kJ/mol
# Density = 1.787408 g / cm^3
# Si number density = 17.914858 Si / 1000 Ang^3
#
#
#
# Elastic Constant Matrix: (Units=GPa)
#
#
# Indices 1 2 3 4 5 6 
#
# 1 62.3701 44.7653 26.6082 0.0000 0.0000 0.0000
# 2 44.7653 101.0481 56.1812 0.0000 0.0000 0.0000
# 3 26.6082 56.1812 69.2011 0.0000 0.0000 0.0000
# 4 0.0000 0.0000 0.0000 12.6114 0.0000 0.0000
# 5 0.0000 0.0000 0.0000 0.0000 18.1346 0.0000
# 6 0.0000 0.0000 0.0000 0.0000 0.0000 13.3239
#
#
#
# Elastic Compliance Matrix: (Units=1/GPa)
#
#
# Indices 1 2 3 4 5 6 
#
# 1 0.023551 -0.009840 -0.001067 0.000000 0.000000 0.000000
# 2 -0.009840 0.022150 -0.014199 0.000000 0.000000 0.000000
# 3 -0.001067 -0.014199 0.026388 0.000000 0.000000 0.000000
# 4 0.000000 0.000000 0.000000 0.079293 0.000000 0.000000
# 5 0.000000 0.000000 0.000000 0.000000 0.055143 0.000000
# 6 0.000000 0.000000 0.000000 0.000000 0.000000 0.075053
#
#
# Mechanical properties :
#
#
# Convention : Reuss Voigt Hill
#
# Bulk Modulus (GPa) = 45.70883 54.19207 49.95045
# Shear Modulus (GPa) = 14.74561 15.81827 15.28194
#
# Velocity S-wave (km/s) = 2.87207 2.97470 2.92384
# Velocity P-wave (km/s) = 6.04717 6.48953 6.27225
#
# Compressibility (1/GPa) = 0.02187761
#
# Stress axis : x y z
#
# Youngs Moduli (GPa) = 42.46076 45.14659 37.89567
#
# Poissons Ratio (x) = 0.44426 0.04042
# Poissons Ratio (y) = 0.41783 0.53808
# Poissons Ratio (z) = 0.04529 0.64103
#
# Static dielectric constant tensor:
#      x y z
#    x 1.613670 0.000000 0.000000 
#    y 0.000000 1.618230 0.000000 
#    z 0.000000 0.000000 1.685900 
# 
# From -- ./inp_files/26985.got.cif
#   From: 2010.05.17/outbox.cif.g08.bks.cpg/sg47_14_cif.got.tgz:26985.got - 2010.06.03 20:15:42.
