data_PCOD9383340
_publ_section_title
;
Structure prediction by ZEFSAII (Michael W. Deem and Ramdas Pophale) SiO2 
 PCOD9383340
Probable space group: P M M M
;
_chemical_formula_sum "Si O2"
_cell_formula_units_Z 56
_cell_length_a 19.556490
_cell_length_b 8.465610
_cell_length_c 19.325693
_cell_angle_alpha 90.000000
_cell_angle_beta 90.000000
_cell_angle_gamma 90.000000
_cell_volume 3199.515686
_symmetry_space_group_name_H-M "P M M M"
_symmetry_group_IT_number 47
_symmetry_cell_setting 'orthorhombic'
loop_
_space_group_symop_operation_xyz
x,y,z
-x,-y,z
x,-y,-z
-x,y,-z
-x,-y,-z
x,y,-z
-x,y,z
x,-y,z
loop_
_atom_site_type_symbol
_atom_site_label
_atom_site_fract_x
_atom_site_fract_y
_atom_site_fract_z
Si Si1 0.708302 0.312704 0.711351
Si Si2 0.777894 0.808521 0.579809
Si Si3 0.921566 0.690610 0.079643
Si Si4 0.341093 0.192257 0.922455
Si Si5 0.577008 0.808825 0.789971
Si Si6 0.927156 0.185779 0.416054
Si Si7 0.207198 0.810890 0.161494
O O1 0.708959 0.500000 0.712888
O O2 0.723974 0.251087 0.634863
O O3 0.635534 0.251294 0.738859
O O4 0.766465 0.250445 0.764503
O O5 0.766218 0.760688 0.500000
O O6 0.853345 0.748677 0.603658
O O7 0.779889 0.000000 0.580523
O O8 0.919972 0.500000 0.080700
O O9 0.865175 0.752776 0.132748
O O10 0.000000 0.739466 0.095059
O O11 0.906049 0.740546 0.000000
O O12 0.397887 0.240176 0.866676
O O13 0.267116 0.239126 0.892235
O O14 0.341550 0.000000 0.924183
O O15 0.351872 0.250294 0.000000
O O16 0.500000 0.755304 0.775350
O O17 0.577914 0.000000 0.788023
O O18 0.926975 0.190011 0.500000
O O19 0.000000 0.255921 0.392617
O O20 0.927777 0.000000 0.396806
O O21 0.206569 0.000000 0.164459
#
# Coordination Sequence:
#
# PCOD9383340 Si02
#       7
#     8   8   8   8   8   8   8
#     4  11  22  35  52  73 100 134 168 204 251 305
#     4   9  17  31  53  78 102 129 163 206 253 300
#     4   9  18  32  49  71 102 138 173 214 269 324
#     4   8  14  25  44  73 103 126 153 195 244 287
#     4   9  18  33  53  76 102 132 164 199 241 293
#     4   7  10  19  39  68  97 121 147 182 225 273
#     4  10  19  32  50  71  97 131 176 221 254 292
#
# _framework density 17.502649000000002
#
# number of rings (size 3 to 8) (size 9 to 14) (size 15 to 20)
#    0.000    3.000    0.000    4.714    0.000    2.000 
#    0.000    2.857    0.000    7.286    0.000    9.000 
#    0.000    0.000    0.000    0.000    0.000    0.000 
#
# Total GULP energy -311899.885937 kJ/mol
# GULP energy per Si atom -5569.640820 kJ/mol
# Density = 1.746281 g / cm^3
# Si number density = 17.502649 Si / 1000 Ang^3
#
#
#
# Elastic Constant Matrix: (Units=GPa)
#
#
# Indices 1 2 3 4 5 6 
#
# 1 129.5238 28.2990 76.5572 0.0000 0.0000 0.0000
# 2 28.2990 27.7341 24.6829 0.0000 0.0000 0.0000
# 3 76.5572 24.6829 106.7875 0.0000 0.0000 0.0000
# 4 0.0000 0.0000 0.0000 8.5353 0.0000 0.0000
# 5 0.0000 0.0000 0.0000 0.0000 13.4199 0.0000
# 6 0.0000 0.0000 0.0000 0.0000 0.0000 16.2150
#
#
#
# Elastic Compliance Matrix: (Units=1/GPa)
#
#
# Indices 1 2 3 4 5 6 
#
# 1 0.014381 -0.006922 -0.008710 0.000000 0.000000 0.000000
# 2 -0.006922 0.048727 -0.006300 0.000000 0.000000 0.000000
# 3 -0.008710 -0.006300 0.017065 0.000000 0.000000 0.000000
# 4 0.000000 0.000000 0.000000 0.117160 0.000000 0.000000
# 5 0.000000 0.000000 0.000000 0.000000 0.074516 0.000000
# 6 0.000000 0.000000 0.000000 0.000000 0.000000 0.061671
#
#
# Mechanical properties :
#
#
# Convention : Reuss Voigt Hill
#
# Bulk Modulus (GPa) = 27.54195 58.12485 42.83340
# Shear Modulus (GPa) = 12.83735 16.60114 14.71925
#
# Velocity S-wave (km/s) = 2.71117 3.08310 2.90310
# Velocity P-wave (km/s) = 5.05674 6.77903 5.98021
#
# Compressibility (1/GPa) = 0.03630825
#
# Stress axis : x y z
#
# Youngs Moduli (GPa) = 69.53497 20.52251 58.59978
#
# Poissons Ratio (x) = 0.14206 0.51041
# Poissons Ratio (y) = 0.48135 0.36918
# Poissons Ratio (z) = 0.60565 0.12929
#
# Static dielectric constant tensor:
#      x y z
#    x 1.615130 0.000000 0.000000 
#    y 0.000000 1.594840 0.000000 
#    z 0.000000 0.000000 1.587970 
# 
# From -- ./inp_files/28731.got.cif
#   From: 2010.05.17/outbox.cif.g08.bks.cpg/sg47_15_cif.got.tgz:28731.got - 2010.06.03 20:15:42.
