data_PCOD9383775
_publ_section_title
;
Structure prediction by ZEFSAII (Michael W. Deem and Ramdas Pophale) SiO2 
 PCOD9383775
Probable space group: P M M M
;
_chemical_formula_sum "Si O2"
_cell_formula_units_Z 52
_cell_length_a 20.145775
_cell_length_b 7.594987
_cell_length_c 15.594574
_cell_angle_alpha 90.000000
_cell_angle_beta 90.000000
_cell_angle_gamma 90.000000
_cell_volume 2386.077413
_symmetry_space_group_name_H-M "P M M M"
_symmetry_group_IT_number 47
_symmetry_cell_setting 'orthorhombic'
loop_
_space_group_symop_operation_xyz
x,y,z
-x,-y,z
x,-y,-z
-x,y,-z
-x,-y,-z
x,y,-z
-x,y,z
x,-y,z
loop_
_atom_site_type_symbol
_atom_site_label
_atom_site_fract_x
_atom_site_fract_y
_atom_site_fract_z
Si Si1 0.180489 0.786501 0.642666
Si Si2 0.142114 0.210124 0.169921
Si Si3 0.616879 0.294875 0.225052
Si Si4 0.000000 0.707975 0.904236
Si Si5 0.274201 0.786722 0.092166
Si Si6 0.076211 0.214924 0.500000
Si Si7 0.500000 0.283957 0.100052
Si Si8 0.667699 0.709497 0.595347
O O1 0.163778 0.721084 0.737488
O O2 0.120684 0.730506 0.580853
O O3 0.253459 0.732363 0.611603
O O4 0.181234 0.000000 0.642528
O O5 0.067192 0.245841 0.144542
O O6 0.197674 0.268227 0.102312
O O7 0.148273 0.000000 0.174498
O O8 0.599521 0.500000 0.236859
O O9 0.685359 0.280819 0.173064
O O10 0.562742 0.224011 0.157579
O O11 0.628828 0.219285 0.320569
O O12 0.000000 0.500000 0.912449
O O13 0.000000 0.787149 0.000000
O O14 0.278051 0.000000 0.093914
O O15 0.301219 0.726658 0.000000
O O16 0.000000 0.275667 0.500000
O O17 0.073993 0.000000 0.500000
O O18 0.500000 0.500000 0.096577
O O19 0.500000 0.226064 0.000000
O O20 0.651612 0.780159 0.500000
O O21 0.655220 0.500000 0.593344
#
# Coordination Sequence:
#
# PCOD9383775 Si02
#       8
#     8   8   8   4   8   4   4   8
#     4  10  19  33  56  80 102 136 180 223 269 324
#     4  10  21  36  56  79 104 137 181 227 278 332
#     4  10  20  35  56  81 110 147 188 227 272 328
#     4  11  25  41  55  74 103 142 186 228 274 333
#     4  10  20  34  54  81 110 138 175 227 280 329
#     4   9  18  30  49  77 105 130 169 222 266 311
#     4   9  18  34  56  82 112 147 189 233 276 329
#     4  10  20  34  53  79 112 144 177 224 281 329
#
# _framework density 21.793091
#
# number of rings (size 3 to 8) (size 9 to 14) (size 15 to 20)
#    0.000    2.077    2.308    1.154    1.077    3.385 
#    0.000    0.769    0.000    4.154    0.000    0.000 
#    0.000    2.462    0.000    0.000    0.000    0.000 
#
# Total GULP energy -290220.228314 kJ/mol
# GULP energy per Si atom -5581.158237 kJ/mol
# Density = 2.174349 g / cm^3
# Si number density = 21.793091 Si / 1000 Ang^3
#
#
#
# Elastic Constant Matrix: (Units=GPa)
#
#
# Indices 1 2 3 4 5 6 
#
# 1 112.0702 -5.4982 66.9116 0.0000 0.0000 0.0000
# 2 -5.4982 44.3478 9.3185 0.0000 0.0000 0.0000
# 3 66.9116 9.3185 213.7920 0.0000 0.0000 0.0000
# 4 0.0000 0.0000 0.0000 -9.9841 0.0000 0.0000
# 5 0.0000 0.0000 0.0000 0.0000 39.4366 0.0000
# 6 0.0000 0.0000 0.0000 0.0000 0.0000 1.9683
#
#
#
# Elastic Compliance Matrix: (Units=1/GPa)
#
#
# Indices 1 2 3 4 5 6 
#
# 1 0.011171 0.002139 -0.003590 0.000000 0.000000 0.000000
# 2 0.002139 0.023167 -0.001679 0.000000 0.000000 0.000000
# 3 -0.003590 -0.001679 0.005874 0.000000 0.000000 0.000000
# 4 0.000000 0.000000 0.000000 -0.100159 0.000000 0.000000
# 5 0.000000 0.000000 0.000000 0.000000 0.025357 0.000000
# 6 0.000000 0.000000 0.000000 0.000000 0.000000 0.508064
#
#
# Mechanical properties :
#
#
# Convention : Reuss Voigt Hill
#
# Bulk Modulus (GPa) = 29.45242 56.85266 43.15254
# Shear Modulus (GPa) = 10.18224 26.24935 18.21580
#
# Velocity S-wave (km/s) = 2.16388 3.47433 2.89425
# Velocity P-wave (km/s) = 4.44827 6.49913 5.56892
#
# Compressibility (1/GPa) = 0.03395306
#
# Stress axis : x y z
#
# Youngs Moduli (GPa) = 89.51713 43.16460 170.23983
#
# Poissons Ratio (x) = -0.09234 0.61108
# Poissons Ratio (y) = -0.19150 0.28589
# Poissons Ratio (z) = 0.32132 0.07249
#
# Static dielectric constant tensor:
#      x y z
#    x 2.508350 0.000000 0.000000 
#    y 0.000000 1.828680 0.000000 
#    z 0.000000 0.000000 1.831990 
# 
# From -- ./inp_files/25112.got.cif
#   From: 2010.05.17/outbox.cif.g08.bks.cpg/sg47_13_cif.got.tgz:25112.got - 2010.06.03 20:15:42.
