data_PCOD9383883
_publ_section_title
;
Structure prediction by ZEFSAII (Michael W. Deem and Ramdas Pophale) SiO2 
 PCOD9383883
Probable space group: P M M M
;
_chemical_formula_sum "Si O2"
_cell_formula_units_Z 52
_cell_length_a 16.094483
_cell_length_b 7.689383
_cell_length_c 20.039406
_cell_angle_alpha 90.000000
_cell_angle_beta 90.000000
_cell_angle_gamma 90.000000
_cell_volume 2480.009634
_symmetry_space_group_name_H-M "P M M M"
_symmetry_group_IT_number 47
_symmetry_cell_setting 'orthorhombic'
loop_
_space_group_symop_operation_xyz
x,y,z
-x,-y,z
x,-y,-z
-x,y,-z
-x,-y,-z
x,y,-z
-x,y,z
x,-y,z
loop_
_atom_site_type_symbol
_atom_site_label
_atom_site_fract_x
_atom_site_fract_y
_atom_site_fract_z
Si Si1 0.401852 0.291152 0.073102
Si Si2 0.122363 0.700984 0.809438
Si Si3 0.253370 0.208034 0.575186
Si Si4 0.090448 0.710160 0.338765
Si Si5 0.692043 0.197908 0.202858
Si Si6 0.000000 0.712848 0.077056
Si Si7 0.595308 0.787028 0.666366
O O1 0.500000 0.256665 0.075459
O O2 0.390946 0.500000 0.078577
O O3 0.358208 0.203434 0.134689
O O4 0.370571 0.237288 0.000000
O O5 0.096519 0.500000 0.806978
O O6 0.096852 0.777027 0.737565
O O7 0.221435 0.708373 0.809658
O O8 0.078288 0.769277 0.876466
O O9 0.244479 0.276730 0.500000
O O10 0.171275 0.240575 0.619067
O O11 0.337390 0.271187 0.611523
O O12 0.261937 0.000000 0.571294
O O13 0.091336 0.500000 0.336454
O O14 0.000000 0.764364 0.366338
O O15 0.634639 0.267477 0.262572
O O16 0.713691 0.000000 0.221299
O O17 0.000000 0.500000 0.072390
O O18 0.000000 0.774276 0.000000
O O19 0.500000 0.728783 0.657747
O O20 0.592886 0.000000 0.665877
#
# Coordination Sequence:
#
# PCOD9383883 Si02
#       7
#     8   8   8   8   8   4   8
#     4   9  19  36  55  75 103 140 181 225 272 321
#     4  10  19  34  56  80 106 141 184 226 270 326
#     4  10  21  37  57  83 114 146 184 231 280 334
#     4  10  20  36  59  83 110 146 186 228 275 332
#     4  11  21  33  53  81 112 144 180 225 276 330
#     4   9  18  34  57  83 108 137 180 232 279 327
#     4   9  18  33  53  79 111 146 185 228 275 329
#
# _framework density 20.967659999999999
#
# number of rings (size 3 to 8) (size 9 to 14) (size 15 to 20)
#    0.000    2.231    2.308    1.385    0.000    3.077 
#    0.000    5.769    0.000    1.846    0.000    1.077 
#    0.000    0.000    0.000    0.000    0.000    0.000 
#
# Total GULP energy -290113.402410 kJ/mol
# GULP energy per Si atom -5579.103893 kJ/mol
# Density = 2.091994 g / cm^3
# Si number density = 20.967660 Si / 1000 Ang^3
#
#
#
# Elastic Constant Matrix: (Units=GPa)
#
#
# Indices 1 2 3 4 5 6 
#
# 1 174.5414 12.9360 102.8814 0.0000 0.0000 0.0000
# 2 12.9360 31.5337 8.0145 0.0000 0.0000 0.0000
# 3 102.8814 8.0145 183.9262 0.0000 0.0000 0.0000
# 4 0.0000 0.0000 0.0000 14.5732 0.0000 0.0000
# 5 0.0000 0.0000 0.0000 0.0000 50.9919 0.0000
# 6 0.0000 0.0000 0.0000 0.0000 0.0000 19.7303
#
#
#
# Elastic Compliance Matrix: (Units=1/GPa)
#
#
# Indices 1 2 3 4 5 6 
#
# 1 0.008718 -0.002363 -0.004774 0.000000 0.000000 0.000000
# 2 -0.002363 0.032708 -0.000103 0.000000 0.000000 0.000000
# 3 -0.004774 -0.000103 0.008112 0.000000 0.000000 0.000000
# 4 0.000000 0.000000 0.000000 0.068619 0.000000 0.000000
# 5 0.000000 0.000000 0.000000 0.000000 0.019611 0.000000
# 6 0.000000 0.000000 0.000000 0.000000 0.000000 0.050684
#
#
# Mechanical properties :
#
#
# Convention : Reuss Voigt Hill
#
# Bulk Modulus (GPa) = 28.52471 70.85169 49.68820
# Shear Modulus (GPa) = 23.29727 34.80371 29.05049
#
# Velocity S-wave (km/s) = 3.33694 4.07858 3.72626
# Velocity P-wave (km/s) = 5.33672 7.48626 6.50095
#
# Compressibility (1/GPa) = 0.03505733
#
# Stress axis : x y z
#
# Youngs Moduli (GPa) = 114.70209 30.57368 123.27893
#
# Poissons Ratio (x) = 0.07225 0.58849
# Poissons Ratio (y) = 0.27107 0.01274
# Poissons Ratio (z) = 0.54755 0.00316
#
# Static dielectric constant tensor:
#      x y z
#    x 1.733830 0.000000 0.000000 
#    y 0.000000 1.824230 0.000000 
#    z 0.000000 0.000000 1.750560 
# 
# From -- ./inp_files/25028.got.cif
#   From: 2010.05.17/outbox.cif.g08.bks.cpg/sg47_13_cif.got.tgz:25028.got - 2010.06.03 20:15:42.
