data_PCOD9383983
_publ_section_title
;
Structure prediction by ZEFSAII (Michael W. Deem and Ramdas Pophale) SiO2 
 PCOD9383983
Probable space group: P M M M
;
_chemical_formula_sum "Si O2"
_cell_formula_units_Z 52
_cell_length_a 8.128823
_cell_length_b 15.157094
_cell_length_c 25.401455
_cell_angle_alpha 90.000000
_cell_angle_beta 90.000000
_cell_angle_gamma 90.000000
_cell_volume 3129.696361
_symmetry_space_group_name_H-M "P M M M"
_symmetry_group_IT_number 47
_symmetry_cell_setting 'orthorhombic'
loop_
_space_group_symop_operation_xyz
x,y,z
-x,-y,z
x,-y,-z
-x,y,-z
-x,-y,-z
x,y,-z
-x,y,z
x,-y,z
loop_
_atom_site_type_symbol
_atom_site_label
_atom_site_fract_x
_atom_site_fract_y
_atom_site_fract_z
Si Si1 0.298682 0.896398 0.771854
Si Si2 0.697538 0.898419 0.110632
Si Si3 0.802571 0.598328 0.384471
Si Si4 0.809507 0.903017 0.613563
Si Si5 0.306903 0.130929 0.500000
Si Si6 0.685743 0.759913 0.684608
Si Si7 0.200937 0.331906 0.500000
Si Si8 0.804870 0.101096 0.000000
O O1 0.500000 0.898280 0.768369
O O2 0.252129 0.867422 0.831287
O O3 0.238623 0.821792 0.730913
O O4 0.247648 0.000000 0.763724
O O5 0.500000 0.899188 0.110389
O O6 0.757382 0.000000 0.108931
O O7 0.752673 0.856532 0.055510
O O8 0.741216 0.500000 0.371591
O O9 0.759002 0.671336 0.340634
O O10 0.750549 0.623079 0.444469
O O11 0.000000 0.596012 0.386557
O O12 0.780192 0.904404 0.551780
O O13 0.692863 0.829318 0.636826
O O14 0.000000 0.880415 0.624374
O O15 0.773963 0.000000 0.635708
O O16 0.500000 0.109406 0.500000
O O17 0.279188 0.235628 0.500000
O O18 0.500000 0.739216 0.700568
O O19 0.000000 0.324704 0.500000
O O20 0.000000 0.095305 0.000000
O O21 0.733970 0.000000 0.000000
#
# Coordination Sequence:
#
# PCOD9383983 Si02
#       8
#     8   8   8   8   4   8   4   4
#     4   8  15  28  45  65  90 122 159 194 226 262
#     4   8  13  23  39  56  77 113 159 194 219 257
#     4  10  21  37  56  74  92 118 149 181 226 285
#     4  11  23  37  51  67  91 124 155 182 218 269
#     4  12  23  34  51  73  93 114 143 185 231 267
#     4  11  21  33  51  73  96 119 148 191 235 270
#     4  10  19  35  57  73  91 115 141 177 225 284
#     4   9  15  21  31  53  85 115 146 191 238 265
#
# _framework density 16.615030000000001
#
# number of rings (size 3 to 8) (size 9 to 14) (size 15 to 20)
#    0.000    2.231    1.538    3.692    0.000    4.923 
#    0.000    1.538    0.000    5.077    0.000    0.000 
#    0.000    0.000    0.000    0.692    0.000   14.538 
#
# Total GULP energy -289523.703071 kJ/mol
# GULP energy per Si atom -5567.763521 kJ/mol
# Density = 1.657721 g / cm^3
# Si number density = 16.615030 Si / 1000 Ang^3
#
#
#
# Elastic Constant Matrix: (Units=GPa)
#
#
# Indices 1 2 3 4 5 6 
#
# 1 17.5175 18.6706 3.4654 0.0000 0.0000 0.0000
# 2 18.6706 96.1251 49.9009 0.0000 0.0000 0.0000
# 3 3.4654 49.9009 138.8358 0.0000 0.0000 0.0000
# 4 0.0000 0.0000 0.0000 5.2209 0.0000 0.0000
# 5 0.0000 0.0000 0.0000 0.0000 -10.6629 0.0000
# 6 0.0000 0.0000 0.0000 0.0000 0.0000 28.5311
#
#
#
# Elastic Compliance Matrix: (Units=1/GPa)
#
#
# Indices 1 2 3 4 5 6 
#
# 1 0.073813 -0.016450 0.004070 0.000000 0.000000 0.000000
# 2 -0.016450 0.016455 -0.005504 0.000000 0.000000 0.000000
# 3 0.004070 -0.005504 0.009079 0.000000 0.000000 0.000000
# 4 0.000000 0.000000 0.000000 0.191538 0.000000 0.000000
# 5 0.000000 0.000000 0.000000 0.000000 -0.093783 0.000000
# 6 0.000000 0.000000 0.000000 0.000000 0.000000 0.035050
#
#
# Mechanical properties :
#
#
# Convention : Reuss Voigt Hill
#
# Bulk Modulus (GPa) = 15.72801 44.06137 29.89469
# Shear Modulus (GPa) = 17.29421 16.64723 16.97072
#
# Velocity S-wave (km/s) = 3.22976 3.16877 3.19941
# Velocity P-wave (km/s) = 4.83686 6.32177 5.62849
#
# Compressibility (1/GPa) = 0.06358084
#
# Stress axis : x y z
#
# Youngs Moduli (GPa) = 13.54769 60.77037 110.13955
#
# Poissons Ratio (x) = 0.99966 -0.44827
# Poissons Ratio (y) = 0.22286 0.60619
# Poissons Ratio (z) = -0.05514 0.33447
#
# Static dielectric constant tensor:
#      x y z
#    x 1.589200 0.000000 0.000000 
#    y 0.000000 1.563320 0.000000 
#    z 0.000000 0.000000 1.625660 
# 
# From -- ./inp_files/32036.got.cif
#   From: 2010.05.17/outbox.cif.g08.bks.cpg/sg47_17_cif.got.tgz:32036.got - 2010.06.03 20:15:42.
