data_PCOD9383972
_publ_section_title
;
Structure prediction by ZEFSAII (Michael W. Deem and Ramdas Pophale) SiO2 
 PCOD9383972
Probable space group: P M M M
;
_chemical_formula_sum "Si O2"
_cell_formula_units_Z 44
_cell_length_a 7.567387
_cell_length_b 13.877735
_cell_length_c 19.726599
_cell_angle_alpha 90.000000
_cell_angle_beta 90.000000
_cell_angle_gamma 90.000000
_cell_volume 2071.651750
_symmetry_space_group_name_H-M "P M M M"
_symmetry_group_IT_number 47
_symmetry_cell_setting 'orthorhombic'
loop_
_space_group_symop_operation_xyz
x,y,z
-x,-y,z
x,-y,-z
-x,y,-z
-x,-y,-z
x,y,-z
-x,y,z
x,-y,z
loop_
_atom_site_type_symbol
_atom_site_label
_atom_site_fract_x
_atom_site_fract_y
_atom_site_fract_z
Si Si1 0.210524 0.701449 0.154405
Si Si2 0.712489 0.689251 0.423669
Si Si3 0.711186 0.500000 0.077820
Si Si4 0.211529 0.395720 0.283582
Si Si5 0.215670 0.107385 0.920991
Si Si6 0.292578 0.897947 0.417770
O O1 0.235472 0.600402 0.114152
O O2 0.279777 0.683102 0.230652
O O3 0.280597 0.798163 0.118873
O O4 0.000000 0.715950 0.158288
O O5 0.775613 0.665593 0.500000
O O6 0.500000 0.697276 0.428586
O O7 0.751135 0.619223 0.362388
O O8 0.783849 0.794181 0.400445
O O9 0.500000 0.500000 0.076517
O O10 0.777088 0.500000 0.000000
O O11 0.280826 0.500000 0.262186
O O12 0.000000 0.396824 0.276608
O O13 0.000000 0.107950 0.919202
O O14 0.270614 0.000000 0.896899
O O15 0.265845 0.116143 0.000000
O O16 0.287739 0.898363 0.500000
O O17 0.500000 0.898285 0.398627
O O18 0.214749 0.000000 0.394390
#
# Coordination Sequence:
#
# PCOD9383972 Si02
#       6
#     8   8   4   8   8   8
#     4  10  19  35  56  76 103 142 183 216 251 309
#     4   9  18  32  51  75  97 122 166 215 256 309
#     4  11  23  35  51  81 114 137 166 215 265 304
#     4  10  21  36  50  68  98 133 170 212 261 312
#     4   8  14  26  49  82 111 134 169 217 259 295
#     4   7  10  20  41  67  92 116 145 189 243 293
#
# _framework density 21.239090000000001
#
# number of rings (size 3 to 8) (size 9 to 14) (size 15 to 20)
#    0.000    3.000    0.909    3.000    0.000    3.273 
#    0.000    2.727    0.000    2.182    0.000    5.091 
#    0.000    0.000    0.000    0.000    0.000    0.000 
#
# Total GULP energy -245044.834691 kJ/mol
# GULP energy per Si atom -5569.200788 kJ/mol
# Density = 2.119075 g / cm^3
# Si number density = 21.239090 Si / 1000 Ang^3
#
#
#
# Elastic Constant Matrix: (Units=GPa)
#
#
# Indices 1 2 3 4 5 6 
#
# 1 49.3691 3.1467 -0.2210 0.0000 0.0000 0.0000
# 2 3.1467 161.6443 75.7267 0.0000 0.0000 0.0000
# 3 -0.2210 75.7267 111.4655 0.0000 0.0000 0.0000
# 4 0.0000 0.0000 0.0000 29.3869 0.0000 0.0000
# 5 0.0000 0.0000 0.0000 0.0000 13.0424 0.0000
# 6 0.0000 0.0000 0.0000 0.0000 0.0000 -5.9137
#
#
#
# Elastic Compliance Matrix: (Units=1/GPa)
#
#
# Indices 1 2 3 4 5 6 
#
# 1 0.020296 -0.000607 0.000453 0.000000 0.000000 0.000000
# 2 -0.000607 0.009093 -0.006179 0.000000 0.000000 0.000000
# 3 0.000453 -0.006179 0.013170 0.000000 0.000000 0.000000
# 4 0.000000 0.000000 0.000000 0.034029 0.000000 0.000000
# 5 0.000000 0.000000 0.000000 0.000000 0.076673 0.000000
# 6 0.000000 0.000000 0.000000 0.000000 0.000000 -0.169098
#
#
# Mechanical properties :
#
#
# Convention : Reuss Voigt Hill
#
# Bulk Modulus (GPa) = 33.45279 53.30931 43.38105
# Shear Modulus (GPa) = 736.06409 23.55820 379.81114
#
# Velocity S-wave (km/s) = 18.63635 3.33406 13.38711
# Velocity P-wave (km/s) = 21.88308 6.32261 16.10659
#
# Compressibility (1/GPa) = 0.02989287
#
# Stress axis : x y z
#
# Youngs Moduli (GPa) = 49.26999 109.97742 75.93094
#
# Poissons Ratio (x) = 0.06678 -0.03438
# Poissons Ratio (y) = 0.02992 0.46915
# Poissons Ratio (z) = -0.02231 0.67951
#
# Static dielectric constant tensor:
#      x y z
#    x 1.821980 0.000000 0.000000 
#    y 0.000000 1.843170 0.000000 
#    z 0.000000 0.000000 1.753300 
# 
# From -- ./inp_files/26360.got.cif
#   From: 2010.05.17/outbox.cif.g08.bks.cpg/sg47_14_cif.got.tgz:26360.got - 2010.06.03 20:15:42.
