data_PCOD9383923
_publ_section_title
;
Structure prediction by ZEFSAII (Michael W. Deem and Ramdas Pophale) SiO2 
 PCOD9383923
Probable space group: P M M M
;
_chemical_formula_sum "Si O2"
_cell_formula_units_Z 64
_cell_length_a 15.672716
_cell_length_b 23.992519
_cell_length_c 9.169180
_cell_angle_alpha 90.000000
_cell_angle_beta 90.000000
_cell_angle_gamma 90.000000
_cell_volume 3447.867834
_symmetry_space_group_name_H-M "P M M M"
_symmetry_group_IT_number 47
_symmetry_cell_setting 'orthorhombic'
loop_
_space_group_symop_operation_xyz
x,y,z
-x,-y,z
x,-y,-z
-x,y,-z
-x,-y,-z
x,y,-z
-x,y,z
x,-y,z
loop_
_atom_site_type_symbol
_atom_site_label
_atom_site_fract_x
_atom_site_fract_y
_atom_site_fract_z
Si Si1 0.906865 0.744909 0.665664
Si Si2 0.594800 0.702163 0.322473
Si Si3 0.602586 0.938369 0.167792
Si Si4 0.652944 0.175454 0.673865
Si Si5 0.771280 0.352968 0.672533
Si Si6 0.903027 0.566253 0.825672
Si Si7 0.826614 0.835866 0.830964
Si Si8 0.102303 0.934832 0.664912
O O1 0.899559 0.767600 0.500000
O O2 0.832083 0.700938 0.687516
O O3 0.900398 0.794068 0.781528
O O4 0.000000 0.717665 0.676456
O O5 0.597915 0.701613 0.500000
O O6 0.500000 0.682876 0.277655
O O7 0.605396 0.767500 0.280252
O O8 0.676546 0.665396 0.274397
O O9 0.500000 0.940718 0.164635
O O10 0.624799 0.883540 0.258471
O O11 0.632344 0.000000 0.220821
O O12 0.632433 0.931750 0.000000
O O13 0.647670 0.171833 0.500000
O O14 0.748387 0.182546 0.730596
O O15 0.764995 0.366060 0.500000
O O16 0.825059 0.401001 0.752037
O O17 0.895044 0.500000 0.799828
O O18 0.000000 0.582426 0.777151
O O19 0.899657 0.575504 0.000000
O O20 0.852125 0.897709 0.784119
O O21 0.806419 0.831494 0.000000
O O22 0.127613 0.917568 0.500000
O O23 0.000000 0.928279 0.675317
O O24 0.121381 0.000000 0.680811
#
# Coordination Sequence:
#
# PCOD9383923 Si02
#       8
#     8   8   8   8   8   8   8   8
#     4  10  20  35  54  77 109 147 182 221 273 330
#     4   9  18  34  57  83 111 144 184 235 291 338
#     4   9  19  36  55  76 105 136 166 213 282 350
#     4  11  21  36  56  76 103 138 183 233 281 335
#     4  10  19  34  57  86 117 148 189 237 280 326
#     4   9  19  36  57  84 122 164 199 233 277 326
#     4  12  24  35  50  74 105 137 174 220 274 334
#     4   9  19  37  58  75  93 125 171 220 272 332
#
# _framework density 18.562196
#
# number of rings (size 3 to 8) (size 9 to 14) (size 15 to 20)
#    0.000    2.125    1.250    3.750    0.000    5.250 
#    0.000    1.875    0.000    2.250    0.000    2.625 
#    0.000    0.000    0.000    0.000    0.000    0.000 
#
# Total GULP energy -356833.579360 kJ/mol
# GULP energy per Si atom -5575.524677 kJ/mol
# Density = 1.851995 g / cm^3
# Si number density = 18.562196 Si / 1000 Ang^3
#
#
#
# Elastic Constant Matrix: (Units=GPa)
#
#
# Indices 1 2 3 4 5 6 
#
# 1 122.4553 50.0032 21.7481 0.0000 0.0000 0.0000
# 2 50.0032 85.7187 38.8534 0.0000 0.0000 0.0000
# 3 21.7481 38.8534 31.2579 0.0000 0.0000 0.0000
# 4 0.0000 0.0000 0.0000 43.7282 0.0000 0.0000
# 5 0.0000 0.0000 0.0000 0.0000 15.3280 0.0000
# 6 0.0000 0.0000 0.0000 0.0000 0.0000 27.3144
#
#
#
# Elastic Compliance Matrix: (Units=1/GPa)
#
#
# Indices 1 2 3 4 5 6 
#
# 1 0.010727 -0.006584 0.000721 0.000000 0.000000 0.000000
# 2 -0.006584 0.030762 -0.033656 0.000000 0.000000 0.000000
# 3 0.000721 -0.033656 0.073325 0.000000 0.000000 0.000000
# 4 0.000000 0.000000 0.000000 0.022869 0.000000 0.000000
# 5 0.000000 0.000000 0.000000 0.000000 0.065240 0.000000
# 6 0.000000 0.000000 0.000000 0.000000 0.000000 0.036611
#
#
# Mechanical properties :
#
#
# Convention : Reuss Voigt Hill
#
# Bulk Modulus (GPa) = 27.95278 51.18233 39.56755
# Shear Modulus (GPa) = 15.12877 25.86258 20.49567
#
# Velocity S-wave (km/s) = 2.85797 3.73673 3.32650
# Velocity P-wave (km/s) = 5.09729 6.80080 6.00971
#
# Compressibility (1/GPa) = 0.03577462
#
# Stress axis : x y z
#
# Youngs Moduli (GPa) = 93.22483 32.50785 13.63798
#
# Poissons Ratio (x) = 0.21403 -0.00983
# Poissons Ratio (y) = 0.61379 0.45900
# Poissons Ratio (z) = -0.06717 1.09408
#
# Static dielectric constant tensor:
#      x y z
#    x 1.706980 0.000000 0.000000 
#    y 0.000000 1.652620 0.000000 
#    z 0.000000 0.000000 1.634730 
# 
# From -- ./inp_files/7860.got.cif
#   From: 2010.05.17/outbox.cif.g08.bks.cpg/sg47_4_cif.got.tgz:7860.got - 2010.06.03 20:15:42.
