data_PCOD9383713
_publ_section_title
;
Structure prediction by ZEFSAII (Michael W. Deem and Ramdas Pophale) SiO2 
 PCOD9383713
Probable space group: P M M M
;
_chemical_formula_sum "Si O2"
_cell_formula_units_Z 52
_cell_length_a 23.099710
_cell_length_b 9.702332
_cell_length_c 13.830482
_cell_angle_alpha 90.000000
_cell_angle_beta 90.000000
_cell_angle_gamma 90.000000
_cell_volume 3099.702224
_symmetry_space_group_name_H-M "P M M M"
_symmetry_group_IT_number 47
_symmetry_cell_setting 'orthorhombic'
loop_
_space_group_symop_operation_xyz
x,y,z
-x,-y,z
x,-y,-z
-x,y,-z
-x,-y,-z
x,y,-z
-x,y,z
x,-y,z
loop_
_atom_site_type_symbol
_atom_site_label
_atom_site_fract_x
_atom_site_fract_y
_atom_site_fract_z
Si Si1 0.610780 0.835924 0.000000
Si Si2 0.746162 0.166882 0.000000
Si Si3 0.933787 0.338450 0.883656
Si Si4 0.174017 0.165543 0.185101
Si Si5 0.764815 0.164950 0.387613
Si Si6 0.347837 0.339973 0.661155
Si Si7 0.565144 0.344316 0.833551
Si Si8 0.563700 0.667398 0.500000
O O1 0.678717 0.789111 0.000000
O O2 0.576736 0.773165 0.089905
O O3 0.610630 0.000000 0.000000
O O4 0.780326 0.207674 0.900884
O O5 0.745703 0.000000 0.000000
O O6 0.923839 0.500000 0.861040
O O7 0.885622 0.242780 0.836877
O O8 0.000000 0.304154 0.855966
O O9 0.929827 0.324532 0.000000
O O10 0.193813 0.195695 0.295461
O O11 0.167548 0.000000 0.176830
O O12 0.781631 0.199855 0.500000
O O13 0.706607 0.245470 0.359668
O O14 0.755443 0.000000 0.386056
O O15 0.332656 0.500000 0.640049
O O16 0.379788 0.336086 0.763195
O O17 0.399026 0.293174 0.591167
O O18 0.500000 0.330546 0.789371
O O19 0.566197 0.500000 0.875414
O O20 0.559977 0.500000 0.500000
O O21 0.500000 0.724854 0.500000
#
# Coordination Sequence:
#
# PCOD9383713 Si02
#       8
#     4   4   8   8   8   8   8   4
#     4  11  22  36  53  71  97 136 176 211 254 313
#     4   9  18  32  49  74 104 131 166 215 264 303
#     4   9  18  33  53  81 117 147 169 205 261 312
#     4  10  19  33  54  78 106 142 182 217 252 303
#     4  10  21  36  53  75 108 146 178 216 268 316
#     4  10  19  33  54  77  98 126 169 216 263 318
#     4  10  21  36  52  72  99 129 164 212 268 320
#     4   9  16  28  49  75  99 123 158 209 264 317
#
# _framework density 16.775804999999998
#
# number of rings (size 3 to 8) (size 9 to 14) (size 15 to 20)
#    0.000    2.231    1.538    2.308    0.000    5.846 
#    0.000    2.308    0.000    2.308    0.000    3.231 
#    0.000    0.000    0.000    0.000    0.000    0.000 
#
# Total GULP energy -289483.554851 kJ/mol
# GULP energy per Si atom -5566.991439 kJ/mol
# Density = 1.673762 g / cm^3
# Si number density = 16.775805 Si / 1000 Ang^3
#
#
#
# Elastic Constant Matrix: (Units=GPa)
#
#
# Indices 1 2 3 4 5 6 
#
# 1 104.4485 41.4487 40.0189 0.0000 0.0000 0.0000
# 2 41.4487 37.7042 35.1587 0.0000 0.0000 0.0000
# 3 40.0189 35.1587 85.8186 0.0000 0.0000 0.0000
# 4 0.0000 0.0000 0.0000 15.8321 0.0000 0.0000
# 5 0.0000 0.0000 0.0000 0.0000 34.1034 0.0000
# 6 0.0000 0.0000 0.0000 0.0000 0.0000 28.2095
#
#
#
# Elastic Compliance Matrix: (Units=1/GPa)
#
#
# Indices 1 2 3 4 5 6 
#
# 1 0.016993 -0.018272 -0.000438 0.000000 0.000000 0.000000
# 2 -0.018272 0.062565 -0.017112 0.000000 0.000000 0.000000
# 3 -0.000438 -0.017112 0.018867 0.000000 0.000000 0.000000
# 4 0.000000 0.000000 0.000000 0.063163 0.000000 0.000000
# 5 0.000000 0.000000 0.000000 0.000000 0.029323 0.000000
# 6 0.000000 0.000000 0.000000 0.000000 0.000000 0.035449
#
#
# Mechanical properties :
#
#
# Convention : Reuss Voigt Hill
#
# Bulk Modulus (GPa) = 37.33889 51.24709 44.29299
# Shear Modulus (GPa) = 16.29035 23.05201 19.67118
#
# Velocity S-wave (km/s) = 3.11957 3.71094 3.42803
# Velocity P-wave (km/s) = 5.93982 6.99828 6.49066
#
# Compressibility (1/GPa) = 0.02678172
#
# Stress axis : x y z
#
# Youngs Moduli (GPa) = 58.84798 15.98341 53.00170
#
# Poissons Ratio (x) = 0.29204 0.02324
# Poissons Ratio (y) = 1.07525 0.90694
# Poissons Ratio (z) = 0.02580 0.27350
#
# Static dielectric constant tensor:
#      x y z
#    x 1.556160 0.000000 0.000000 
#    y 0.000000 1.548820 0.000000 
#    z 0.000000 0.000000 1.619050 
# 
# From -- ./inp_files/25071.got.cif
#   From: 2010.05.17/outbox.cif.g08.bks.cpg/sg47_13_cif.got.tgz:25071.got - 2010.06.03 20:15:42.
