data_PCOD9383553
_publ_section_title
;
Structure prediction by ZEFSAII (Michael W. Deem and Ramdas Pophale) SiO2 
 PCOD9383553
Probable space group: P M M M
;
_chemical_formula_sum "Si O2"
_cell_formula_units_Z 40
_cell_length_a 7.503213
_cell_length_b 27.498696
_cell_length_c 8.619161
_cell_angle_alpha 90.000000
_cell_angle_beta 90.000000
_cell_angle_gamma 90.000000
_cell_volume 1778.379192
_symmetry_space_group_name_H-M "P M M M"
_symmetry_group_IT_number 47
_symmetry_cell_setting 'orthorhombic'
loop_
_space_group_symop_operation_xyz
x,y,z
-x,-y,z
x,-y,-z
-x,y,-z
-x,-y,-z
x,y,-z
-x,y,z
x,-y,z
loop_
_atom_site_type_symbol
_atom_site_label
_atom_site_fract_x
_atom_site_fract_y
_atom_site_fract_z
Si Si1 0.792125 0.600980 0.673027
Si Si2 0.287598 0.102985 0.173206
Si Si3 0.788239 0.000000 0.672894
Si Si4 0.784905 0.557382 0.000000
Si Si5 0.715803 0.301348 0.174276
Si Si6 0.717751 0.798017 0.675391
O O1 0.718251 0.589511 0.500000
O O2 0.779711 0.658708 0.703867
O O3 0.000000 0.586426 0.668518
O O4 0.716831 0.578627 0.834612
O O5 0.500000 0.109750 0.164190
O O6 0.261025 0.049866 0.243443
O O7 0.219961 0.148909 0.270420
O O8 0.213837 0.104530 0.000000
O O9 0.711601 0.000000 0.500000
O O10 0.000000 0.000000 0.663278
O O11 0.753007 0.500000 0.000000
O O12 0.000000 0.565931 0.000000
O O13 0.500000 0.302381 0.176391
O O14 0.772457 0.246819 0.217075
O O15 0.775112 0.314277 0.000000
O O16 0.773898 0.788582 0.500000
O O17 0.500000 0.798474 0.676953
#
# Coordination Sequence:
#
# PCOD9383553 Si02
#       6
#     8   8   4   4   8   8
#     4  10  20  34  54  80 109 142 181 225 273 324
#     4  10  20  35  56  80 103 130 169 214 258 308
#     4  11  24  39  54  74 102 135 170 211 260 314
#     4   9  18  34  55  79 109 143 181 228 275 318
#     4  10  19  32  53  80 110 145 181 218 265 320
#     4   9  17  30  50  77 107 137 171 214 260 308
#
# _framework density 22.492391000000001
#
# number of rings (size 3 to 8) (size 9 to 14) (size 15 to 20)
#    0.000    2.200    1.000    2.400    0.000    7.200 
#    0.000    3.000    0.000    7.200    0.000    1.400 
#    0.000    0.000    0.000    0.000    0.000    0.000 
#
# Total GULP energy -223355.276369 kJ/mol
# GULP energy per Si atom -5583.881909 kJ/mol
# Density = 2.244120 g / cm^3
# Si number density = 22.492391 Si / 1000 Ang^3
#
#
#
# Elastic Constant Matrix: (Units=GPa)
#
#
# Indices 1 2 3 4 5 6 
#
# 1 61.4073 -5.8174 6.8620 0.0000 0.0000 0.0000
# 2 -5.8174 102.7842 53.9337 0.0000 0.0000 0.0000
# 3 6.8620 53.9337 180.6833 0.0000 0.0000 0.0000
# 4 0.0000 0.0000 0.0000 26.5571 0.0000 0.0000
# 5 0.0000 0.0000 0.0000 0.0000 -24.0065 0.0000
# 6 0.0000 0.0000 0.0000 0.0000 0.0000 54.3170
#
#
#
# Elastic Compliance Matrix: (Units=1/GPa)
#
#
# Indices 1 2 3 4 5 6 
#
# 1 0.016547 0.001501 -0.001077 0.000000 0.000000 0.000000
# 2 0.001501 0.011672 -0.003541 0.000000 0.000000 0.000000
# 3 -0.001077 -0.003541 0.006632 0.000000 0.000000 0.000000
# 4 0.000000 0.000000 0.000000 0.037655 0.000000 0.000000
# 5 0.000000 0.000000 0.000000 0.000000 -0.041655 0.000000
# 6 0.000000 0.000000 0.000000 0.000000 0.000000 0.018410
#
#
# Mechanical properties :
#
#
# Convention : Reuss Voigt Hill
#
# Bulk Modulus (GPa) = 34.94142 50.53683 42.73913
# Shear Modulus (GPa) = 76.88273 30.69996 53.79135
#
# Velocity S-wave (km/s) = 5.85285 3.69847 4.89564
# Velocity P-wave (km/s) = 7.82579 6.38400 7.14137
#
# Compressibility (1/GPa) = 0.02861933
#
# Stress axis : x y z
#
# Youngs Moduli (GPa) = 60.43302 85.67319 150.77334
#
# Poissons Ratio (x) = -0.12864 0.16233
# Poissons Ratio (y) = -0.09074 0.53392
# Poissons Ratio (z) = 0.06506 0.30338
#
# Static dielectric constant tensor:
#      x y z
#    x 1.872470 0.000000 0.000000 
#    y 0.000000 1.877580 0.000000 
#    z 0.000000 0.000000 1.843160 
# 
# From -- ./inp_files/1853.got.cif
#   From: 2010.05.17/outbox.cif.g08.bks.cpg/sg47_1_cif.got.tgz:1853.got - 2010.06.03 20:15:42.
