data_PCOD9383152
_publ_section_title
;
Structure prediction by ZEFSAII (Michael W. Deem and Ramdas Pophale) SiO2 
 PCOD9383152
Probable space group: P M M M
;
_chemical_formula_sum "Si O2"
_cell_formula_units_Z 64
_cell_length_a 19.244690
_cell_length_b 20.934371
_cell_length_c 7.400407
_cell_angle_alpha 90.000000
_cell_angle_beta 90.000000
_cell_angle_gamma 90.000000
_cell_volume 2981.442524
_symmetry_space_group_name_H-M "P M M M"
_symmetry_group_IT_number 47
_symmetry_cell_setting 'orthorhombic'
loop_
_space_group_symop_operation_xyz
x,y,z
-x,-y,z
x,-y,-z
-x,y,-z
-x,-y,-z
x,y,-z
-x,y,z
x,-y,z
loop_
_atom_site_type_symbol
_atom_site_label
_atom_site_fract_x
_atom_site_fract_y
_atom_site_fract_z
Si Si1 0.322623 0.685316 0.708491
Si Si2 0.920121 0.816724 0.720900
Si Si3 0.833462 0.693138 0.278842
Si Si4 0.577909 0.200007 0.210715
Si Si5 0.420423 0.572819 0.279416
Si Si6 0.920275 0.571766 0.719954
Si Si7 0.341653 0.072396 0.717920
Si Si8 0.183260 0.927365 0.720085
O O1 0.310601 0.667238 0.500000
O O2 0.246013 0.697237 0.784470
O O3 0.368220 0.749418 0.709859
O O4 0.367684 0.626944 0.786272
O O5 0.920913 0.817187 0.500000
O O6 0.880776 0.752502 0.778140
O O7 0.873613 0.876691 0.779794
O O8 0.000000 0.819177 0.779602
O O9 0.833837 0.695111 0.500000
O O10 0.868677 0.627001 0.221536
O O11 0.500000 0.205541 0.286323
O O12 0.606424 0.128133 0.227456
O O13 0.574780 0.215753 0.000000
O O14 0.420689 0.574233 0.500000
O O15 0.500000 0.586260 0.223664
O O16 0.402803 0.500000 0.226890
O O17 0.919856 0.571860 0.500000
O O18 0.901665 0.500000 0.777598
O O19 0.000000 0.584786 0.774153
O O20 0.341342 0.071353 0.500000
O O21 0.262485 0.087773 0.776211
O O22 0.358600 0.000000 0.778206
O O23 0.183619 0.926286 0.500000
O O24 0.167824 0.000000 0.774955
#
# Coordination Sequence:
#
# PCOD9383152 Si02
#       8
#     8   8   8   8   8   8   8   8
#     4  10  19  31  50  72  94 125 163 202 244 290
#     4   9  15  21  31  50  81 120 153 181 219 265
#     4   9  16  24  36  57  84 115 155 199 234 268
#     4  11  24  38  51  70  98 129 159 196 240 285
#     4   8  14  25  42  66  93 116 143 187 241 290
#     4   8  13  21  33  52  86 131 165 187 226 289
#     4   9  18  34  56  78  99 125 157 194 236 283
#     4   8  14  25  41  62  88 116 147 184 223 264
#
# _framework density 21.466118999999999
#
# number of rings (size 3 to 8) (size 9 to 14) (size 15 to 20)
#    0.000    3.000    0.000    3.375    0.000    6.250 
#    0.000    5.000    0.000    0.375    0.000    1.750 
#    0.000   12.500    0.000   12.375    0.000   12.250 
#
# Total GULP energy -357326.973867 kJ/mol
# GULP energy per Si atom -5583.233967 kJ/mol
# Density = 2.141726 g / cm^3
# Si number density = 21.466119 Si / 1000 Ang^3
#
#
#
# Elastic Constant Matrix: (Units=GPa)
#
#
# Indices 1 2 3 4 5 6 
#
# 1 149.0570 92.2338 -3.2964 0.0000 0.0000 0.0000
# 2 92.2338 120.6400 -8.6729 0.0000 0.0000 0.0000
# 3 -3.2964 -8.6729 69.5714 0.0000 0.0000 0.0000
# 4 0.0000 0.0000 0.0000 -57.1355 0.0000 0.0000
# 5 0.0000 0.0000 0.0000 0.0000 15.2086 0.0000
# 6 0.0000 0.0000 0.0000 0.0000 0.0000 45.4655
#
#
#
# Elastic Compliance Matrix: (Units=1/GPa)
#
#
# Indices 1 2 3 4 5 6 
#
# 1 0.012758 -0.009799 -0.000617 0.000000 0.000000 0.000000
# 2 -0.009799 0.015890 0.001517 0.000000 0.000000 0.000000
# 3 -0.000617 0.001517 0.014534 0.000000 0.000000 0.000000
# 4 0.000000 0.000000 0.000000 -0.017502 0.000000 0.000000
# 5 0.000000 0.000000 0.000000 0.000000 0.065752 0.000000
# 6 0.000000 0.000000 0.000000 0.000000 0.000000 0.021995
#
#
# Mechanical properties :
#
#
# Convention : Reuss Voigt Hill
#
# Bulk Modulus (GPa) = 39.39592 55.53307 47.46450
# Shear Modulus (GPa) = 35.79472 17.97466 26.88469
#
# Velocity S-wave (km/s) = 4.08793 2.89684 3.54280
# Velocity P-wave (km/s) = 6.37762 6.09222 6.23655
#
# Compressibility (1/GPa) = 0.02538334
#
# Stress axis : x y z
#
# Youngs Moduli (GPa) = 78.37959 62.93433 68.80632
#
# Poissons Ratio (x) = 0.61667 0.04245
# Poissons Ratio (y) = 0.76801 -0.10435
# Poissons Ratio (z) = 0.04836 -0.09544
#
# Static dielectric constant tensor:
#      x y z
#    x 1.742630 0.000000 0.000000 
#    y 0.000000 1.737950 0.000000 
#    z 0.000000 0.000000 1.858090 
# 
# From -- ./inp_files/9908.got.cif
#   From: 2010.05.17/outbox.cif.g08.bks.cpg/sg47_5_cif.got.tgz:9908.got - 2010.06.03 20:15:42.
