data_PCOD9383431
_publ_section_title
;
Structure prediction by ZEFSAII (Michael W. Deem and Ramdas Pophale) SiO2 
 PCOD9383431
Probable space group: P M M M
;
_chemical_formula_sum "Si O2"
_cell_formula_units_Z 36
_cell_length_a 14.824008
_cell_length_b 15.391032
_cell_length_c 7.690566
_cell_angle_alpha 90.000000
_cell_angle_beta 90.000000
_cell_angle_gamma 90.000000
_cell_volume 1754.654786
_symmetry_space_group_name_H-M "P M M M"
_symmetry_group_IT_number 47
_symmetry_cell_setting 'orthorhombic'
loop_
_space_group_symop_operation_xyz
x,y,z
-x,-y,z
x,-y,-z
-x,y,-z
-x,-y,-z
x,y,-z
-x,y,z
x,-y,z
loop_
_atom_site_type_symbol
_atom_site_label
_atom_site_fract_x
_atom_site_fract_y
_atom_site_fract_z
Si Si1 0.105654 0.000000 0.712757
Si Si2 0.603276 0.500000 0.206037
Si Si3 0.785891 0.832351 0.696909
Si Si4 0.898028 0.500000 0.712260
Si Si5 0.754616 0.359486 0.709612
Si Si6 0.402319 0.895835 0.796333
O O1 0.155361 0.088437 0.774740
O O2 0.113727 0.000000 0.500000
O O3 0.000000 0.000000 0.756523
O O4 0.500000 0.500000 0.277608
O O5 0.663771 0.585435 0.250554
O O6 0.595562 0.500000 0.000000
O O7 0.821366 0.820273 0.500000
O O8 0.773651 0.737160 0.779199
O O9 0.683466 0.865361 0.693047
O O10 0.899809 0.500000 0.500000
O O11 0.838908 0.417900 0.766195
O O12 0.000000 0.500000 0.774316
O O13 0.754535 0.353255 0.500000
O O14 0.500000 0.863079 0.735725
O O15 0.404207 0.000000 0.789263
O O16 0.391873 0.871870 0.000000
#
# Coordination Sequence:
#
# PCOD9383431 Si02
#       6
#     4   4   8   4   8   8
#     4   9  18  32  50  75 108 142 175 215 260 301
#     4  10  21  37  56  77 102 135 173 212 256 310
#     4  10  19  32  51  76 106 138 172 211 255 301
#     4   8  14  28  50  73  96 123 159 204 250 298
#     4   9  19  33  51  78 107 134 167 209 257 307
#     4   9  18  32  49  69  95 130 170 210 251 291
#
# _framework density 20.516857000000002
#
# number of rings (size 3 to 8) (size 9 to 14) (size 15 to 20)
#    0.000    2.778    1.111    1.667    0.000    4.000 
#    0.000   10.000    0.000    6.667    0.000    6.222 
#    0.000    0.000    0.000    0.000    0.000    0.000 
#
# Total GULP energy -200490.624649 kJ/mol
# GULP energy per Si atom -5569.184018 kJ/mol
# Density = 2.047016 g / cm^3
# Si number density = 20.516857 Si / 1000 Ang^3
#
#
#
# Elastic Constant Matrix: (Units=GPa)
#
#
# Indices 1 2 3 4 5 6 
#
# 1 176.8778 96.0549 7.5634 0.0000 0.0000 0.0000
# 2 96.0549 175.7685 15.9970 0.0000 0.0000 0.0000
# 3 7.5634 15.9970 37.2686 0.0000 0.0000 0.0000
# 4 0.0000 0.0000 0.0000 2.4207 0.0000 0.0000
# 5 0.0000 0.0000 0.0000 0.0000 42.9064 0.0000
# 6 0.0000 0.0000 0.0000 0.0000 0.0000 0.1743
#
#
#
# Elastic Compliance Matrix: (Units=1/GPa)
#
#
# Indices 1 2 3 4 5 6 
#
# 1 0.008042 -0.004419 0.000265 0.000000 0.000000 0.000000
# 2 -0.004419 0.008349 -0.002687 0.000000 0.000000 0.000000
# 3 0.000265 -0.002687 0.027932 0.000000 0.000000 0.000000
# 4 0.000000 0.000000 0.000000 0.413105 0.000000 0.000000
# 5 0.000000 0.000000 0.000000 0.000000 0.023307 0.000000
# 6 0.000000 0.000000 0.000000 0.000000 0.000000 5.736559
#
#
# Mechanical properties :
#
#
# Convention : Reuss Voigt Hill
#
# Bulk Modulus (GPa) = 32.63657 69.90507 51.27082
# Shear Modulus (GPa) = 0.80113 27.12025 13.96069
#
# Velocity S-wave (km/s) = 0.62556 3.63967 2.61137
# Velocity P-wave (km/s) = 4.05752 7.19784 5.84262
#
# Compressibility (1/GPa) = 0.03064047
#
# Stress axis : x y z
#
# Youngs Moduli (GPa) = 124.34643 119.77882 35.80154
#
# Poissons Ratio (x) = 0.52930 -0.00948
# Poissons Ratio (y) = 0.54948 0.09619
# Poissons Ratio (z) = -0.03292 0.32182
#
# Static dielectric constant tensor:
#      x y z
#    x 1.710630 0.000000 0.000000 
#    y 0.000000 1.698780 0.000000 
#    z 0.000000 0.000000 1.780220 
# 
# From -- ./inp_files/5627.got.cif
#   From: 2010.05.17/outbox.cif.g08.bks.cpg/sg47_3_cif.got.tgz:5627.got - 2010.06.03 20:15:42.
