data_PCOD9383042
_publ_section_title
;
Structure prediction by ZEFSAII (Michael W. Deem and Ramdas Pophale) SiO2 
 PCOD9383042
Probable space group: P M M M
;
_chemical_formula_sum "Si O2"
_cell_formula_units_Z 56
_cell_length_a 7.966373
_cell_length_b 31.647589
_cell_length_c 14.099553
_cell_angle_alpha 90.000000
_cell_angle_beta 90.000000
_cell_angle_gamma 90.000000
_cell_volume 3554.729933
_symmetry_space_group_name_H-M "P M M M"
_symmetry_group_IT_number 47
_symmetry_cell_setting 'orthorhombic'
loop_
_space_group_symop_operation_xyz
x,y,z
-x,-y,z
x,-y,-z
-x,y,-z
-x,-y,-z
x,y,-z
-x,y,z
x,-y,z
loop_
_atom_site_type_symbol
_atom_site_label
_atom_site_fract_x
_atom_site_fract_y
_atom_site_fract_z
Si Si1 0.811669 0.106587 0.112845
Si Si2 0.203339 0.236999 0.392605
Si Si3 0.797005 0.278839 0.106229
Si Si4 0.204916 0.323908 0.293281
Si Si5 0.699840 0.500000 0.608612
Si Si6 0.500000 0.951761 0.884884
Si Si7 0.303785 0.808376 0.203984
Si Si8 0.798271 0.590915 0.609021
O O1 0.666438 0.074139 0.142538
O O2 0.792344 0.150306 0.169025
O O3 0.000000 0.089549 0.125605
O O4 0.789257 0.115384 0.000000
O O5 0.258266 0.228383 0.500000
O O6 0.253062 0.284451 0.360304
O O7 0.267664 0.205215 0.312224
O O8 0.000000 0.235700 0.390053
O O9 0.739648 0.311373 0.187437
O O10 0.746694 0.232265 0.141368
O O11 0.000000 0.280103 0.105225
O O12 0.735829 0.287096 0.000000
O O13 0.264232 0.368768 0.332484
O O14 0.000000 0.324861 0.293082
O O15 0.500000 0.500000 0.604781
O O16 0.768713 0.500000 0.500000
O O17 0.755289 0.544842 0.650307
O O18 0.500000 0.000000 0.850569
O O19 0.500000 0.953229 0.000000
O O20 0.500000 0.816591 0.191147
O O21 0.734867 0.592971 0.500000
O O22 0.000000 0.593826 0.605040
#
# Coordination Sequence:
#
# PCOD9383042 Si02
#       8
#     8   8   8   8   4   4   8   8
#     4  10  19  31  48  69  95 128 163 197 235 279
#     4   9  17  30  46  63  87 119 152 185 223 269
#     4   9  17  29  44  62  85 114 148 184 222 263
#     4   8  14  25  42  63  83 107 141 177 215 261
#     4   9  17  27  37  53  78 103 126 160 207 253
#     4   9  18  32  48  70  99 127 159 197 238 285
#     4  11  20  29  43  64  92 123 157 195 228 265
#     4   9  15  24  40  59  78 102 133 167 205 256
#
# _framework density 15.753657
#
# number of rings (size 3 to 8) (size 9 to 14) (size 15 to 20)
#    0.000    2.714    0.714    3.214    0.000    5.143 
#    0.000    4.286    0.000    3.429    0.000    0.500 
#    0.000    5.143    0.000    3.000    0.000    0.143 
#
# Total GULP energy -312058.926130 kJ/mol
# GULP energy per Si atom -5572.480824 kJ/mol
# Density = 1.571780 g / cm^3
# Si number density = 15.753657 Si / 1000 Ang^3
#
#
#
# Elastic Constant Matrix: (Units=GPa)
#
#
# Indices 1 2 3 4 5 6 
#
# 1 47.4908 30.7434 18.6097 0.0000 0.0000 0.0000
# 2 30.7434 120.2415 41.9081 0.0000 0.0000 0.0000
# 3 18.6097 41.9081 81.1387 0.0000 0.0000 0.0000
# 4 0.0000 0.0000 0.0000 17.7835 0.0000 0.0000
# 5 0.0000 0.0000 0.0000 0.0000 9.8687 0.0000
# 6 0.0000 0.0000 0.0000 0.0000 0.0000 20.9899
#
#
#
# Elastic Compliance Matrix: (Units=1/GPa)
#
#
# Indices 1 2 3 4 5 6 
#
# 1 0.025844 -0.005539 -0.003067 0.000000 0.000000 0.000000
# 2 -0.005539 0.011330 -0.004581 0.000000 0.000000 0.000000
# 3 -0.003067 -0.004581 0.015394 0.000000 0.000000 0.000000
# 4 0.000000 0.000000 0.000000 0.056232 0.000000 0.000000
# 5 0.000000 0.000000 0.000000 0.000000 0.101331 0.000000
# 6 0.000000 0.000000 0.000000 0.000000 0.000000 0.047642
#
#
# Mechanical properties :
#
#
# Convention : Reuss Voigt Hill
#
# Bulk Modulus (GPa) = 38.17674 47.93258 43.05466
# Shear Modulus (GPa) = 17.07198 20.23574 18.65386
#
# Velocity S-wave (km/s) = 3.29551 3.58790 3.44480
# Velocity P-wave (km/s) = 6.22629 6.90336 6.57355
#
# Compressibility (1/GPa) = 0.02619396
#
# Stress axis : x y z
#
# Youngs Moduli (GPa) = 38.69357 88.26474 64.95968
#
# Poissons Ratio (x) = 0.48890 0.19921
# Poissons Ratio (y) = 0.21432 0.29760
# Poissons Ratio (z) = 0.11866 0.40437
#
# Static dielectric constant tensor:
#      x y z
#    x 1.557530 0.000000 0.000000 
#    y 0.000000 1.514930 0.000000 
#    z 0.000000 0.000000 1.521490 
# 
# From -- ./inp_files/22115.got.cif
#   From: 2010.05.17/outbox.cif.g08.bks.cpg/sg47_12_cif.got.tgz:22115.got - 2010.06.03 20:15:42.
