data_PCOD9383479
_publ_section_title
;
Structure prediction by ZEFSAII (Michael W. Deem and Ramdas Pophale) SiO2 
 PCOD9383479
Probable space group: P M M M
;
_chemical_formula_sum "Si O2"
_cell_formula_units_Z 52
_cell_length_a 12.141799
_cell_length_b 29.321522
_cell_length_c 7.861697
_cell_angle_alpha 90.000000
_cell_angle_beta 90.000000
_cell_angle_gamma 90.000000
_cell_volume 2798.890127
_symmetry_space_group_name_H-M "P M M M"
_symmetry_group_IT_number 47
_symmetry_cell_setting 'orthorhombic'
loop_
_space_group_symop_operation_xyz
x,y,z
-x,-y,z
x,-y,-z
-x,y,-z
-x,-y,-z
x,y,-z
-x,y,z
x,-y,z
loop_
_atom_site_type_symbol
_atom_site_label
_atom_site_fract_x
_atom_site_fract_y
_atom_site_fract_z
Si Si1 0.874417 0.599018 0.795519
Si Si2 0.866206 0.500000 0.195768
Si Si3 0.734472 0.313634 0.297762
Si Si4 0.126818 0.051588 0.207680
Si Si5 0.874664 0.225073 0.205262
Si Si6 0.262434 0.137918 0.795697
Si Si7 0.500000 0.722325 0.291116
Si Si8 0.500000 0.827881 0.702433
O O1 0.837330 0.549246 0.727536
O O2 0.791372 0.639731 0.759305
O O3 0.000000 0.608974 0.735066
O O4 0.881536 0.594480 0.000000
O O5 0.000000 0.500000 0.191000
O O6 0.825952 0.500000 0.000000
O O7 0.727128 0.315340 0.500000
O O8 0.812135 0.271322 0.249784
O O9 0.611601 0.302473 0.232867
O O10 0.209126 0.090852 0.267745
O O11 0.000000 0.061778 0.255764
O O12 0.153503 0.000000 0.263143
O O13 0.129028 0.051315 0.000000
O O14 0.806618 0.181443 0.269162
O O15 0.000000 0.225063 0.268015
O O16 0.878302 0.222210 0.000000
O O17 0.389621 0.146408 0.756762
O O18 0.250832 0.137429 0.000000
O O19 0.500000 0.722709 0.500000
O O20 0.500000 0.775307 0.233925
O O21 0.500000 0.825103 0.500000
#
# Coordination Sequence:
#
# PCOD9383479 Si02
#       8
#     8   4   8   8   8   8   4   4
#     4   9  17  31  51  76 104 131 160 197 243 293
#     4   7  12  26  49  72  97 132 164 189 232 295
#     4  11  21  34  50  69  95 129 168 206 244 288
#     4   8  14  27  50  79 107 132 159 198 252 306
#     4  10  20  32  47  71 102 129 153 192 247 299
#     4  10  19  32  52  77 100 126 166 210 244 286
#     4   9  20  37  51  63  89 131 173 207 241 284
#     4  11  21  37  54  68  94 135 174 209 249 291
#
# _framework density 18.578793000000001
#
# number of rings (size 3 to 8) (size 9 to 14) (size 15 to 20)
#    0.000    2.538    1.538    3.000    0.000    4.308 
#    0.000    2.308    0.000    6.000    0.000    4.308 
#    0.000    0.000    0.000    0.000    0.000    0.000 
#
# Total GULP energy -290005.033863 kJ/mol
# GULP energy per Si atom -5577.019882 kJ/mol
# Density = 1.853651 g / cm^3
# Si number density = 18.578793 Si / 1000 Ang^3
#
#
#
# Elastic Constant Matrix: (Units=GPa)
#
#
# Indices 1 2 3 4 5 6 
#
# 1 163.0622 120.1840 4.6061 0.0000 0.0000 0.0000
# 2 120.1840 199.7157 8.6581 0.0000 0.0000 0.0000
# 3 4.6061 8.6581 20.3435 0.0000 0.0000 0.0000
# 4 0.0000 0.0000 0.0000 -11.4738 0.0000 0.0000
# 5 0.0000 0.0000 0.0000 0.0000 27.2402 0.0000
# 6 0.0000 0.0000 0.0000 0.0000 0.0000 10.6781
#
#
#
# Elastic Compliance Matrix: (Units=1/GPa)
#
#
# Indices 1 2 3 4 5 6 
#
# 1 0.011023 -0.006648 0.000334 0.000000 0.000000 0.000000
# 2 -0.006648 0.009110 -0.002372 0.000000 0.000000 0.000000
# 3 0.000334 -0.002372 0.050090 0.000000 0.000000 0.000000
# 4 0.000000 0.000000 0.000000 -0.087155 0.000000 0.000000
# 5 0.000000 0.000000 0.000000 0.000000 0.036711 0.000000
# 6 0.000000 0.000000 0.000000 0.000000 0.000000 0.093650
#
#
# Mechanical properties :
#
#
# Convention : Reuss Voigt Hill
#
# Bulk Modulus (GPa) = 18.92137 72.22419 45.57278
# Shear Modulus (GPa) = 33.68860 21.93376 27.81118
#
# Velocity S-wave (km/s) = 4.26289 3.43969 3.87322
# Velocity P-wave (km/s) = 5.86823 7.39825 6.67721
#
# Compressibility (1/GPa) = 0.05285029
#
# Stress axis : x y z
#
# Youngs Moduli (GPa) = 90.72005 109.76427 19.96411
#
# Poissons Ratio (x) = 0.72969 -0.00666
# Poissons Ratio (y) = 0.60309 0.04736
# Poissons Ratio (z) = -0.03026 0.26038
#
# Static dielectric constant tensor:
#      x y z
#    x 1.616830 0.000000 0.000000 
#    y 0.000000 1.662130 0.000000 
#    z 0.000000 0.000000 1.681570 
# 
# From -- ./inp_files/4663.got.cif
#   From: 2010.05.17/outbox.cif.g08.bks.cpg/sg47_3_cif.got.tgz:4663.got - 2010.06.03 20:15:42.
