data_PCOD9383968
_publ_section_title
;
Structure prediction by ZEFSAII (Michael W. Deem and Ramdas Pophale) SiO2 
 PCOD9383968
Probable space group: P M M M
;
_chemical_formula_sum "Si O2"
_cell_formula_units_Z 37
_cell_length_a 15.666439
_cell_length_b 8.114850
_cell_length_c 14.754634
_cell_angle_alpha 90.000000
_cell_angle_beta 90.000000
_cell_angle_gamma 90.000000
_cell_volume 1875.768461
_symmetry_space_group_name_H-M "P M M M"
_symmetry_group_IT_number 47
_symmetry_cell_setting 'orthorhombic'
loop_
_space_group_symop_operation_xyz
x,y,z
-x,-y,z
x,-y,-z
-x,y,-z
-x,-y,-z
x,y,-z
-x,y,z
x,-y,z
loop_
_atom_site_type_symbol
_atom_site_label
_atom_site_fract_x
_atom_site_fract_y
_atom_site_fract_z
Si Si1 0.151757 0.790871 0.500000
Si Si2 0.092843 0.301466 0.802019
Si Si3 0.850068 0.697271 0.000000
Si Si4 0.342999 0.809484 0.000000
Si Si5 0.000000 0.500000 0.500000
Si Si6 0.594101 0.694767 0.196852
Si Si7 0.249218 0.809250 0.683501
O O1 0.210041 0.754215 0.587900
O O2 0.074936 0.653386 0.500000
O O3 0.131989 0.000000 0.500000
O O4 0.099424 0.500000 0.790839
O O5 0.099953 0.264731 0.908448
O O6 0.171489 0.219498 0.752888
O O7 0.000000 0.250436 0.766104
O O8 0.758732 0.783223 0.000000
O O9 0.834063 0.500000 0.000000
O O10 0.378028 0.738682 0.094324
O O11 0.364452 0.000000 0.000000
O O12 0.500000 0.767677 0.215486
O O13 0.587343 0.500000 0.198853
O O14 0.666601 0.737006 0.269941
O O15 0.267532 0.000000 0.673321
#
# Coordination Sequence:
#
# PCOD9383968 Si02
#       7
#     4   8   4   4   1   8   8
#     4  10  27  47  68 105 142 174 224 280 332 398
#     4  10  21  35  58  87 121 165 216 255 307 381
#     4  10  19  35  55  81 121 167 203 255 307 368
#     4  12  23  36  59  93 129 168 213 265 331 391
#     4  12  26  44  84 102 130 186 222 276 344 398
#     4  11  24  42  66  94 126 167 218 272 327 394
#     4  11  24  43  64  91 131 168 209 272 332 390
#
# _framework density 19.725249999999999
#
# number of rings (size 3 to 8) (size 9 to 14) (size 15 to 20)
#    0.000    1.297    2.162    3.081    4.541    4.757 
#    0.000    0.541    0.000    5.189    0.000    0.000 
#    0.000    0.000    0.000    0.000    0.000    0.000 
#
# Total GULP energy -206128.817579 kJ/mol
# GULP energy per Si atom -5571.049124 kJ/mol
# Density = 1.968035 g / cm^3
# Si number density = 19.725250 Si / 1000 Ang^3
#
#
#
# Elastic Constant Matrix: (Units=GPa)
#
#
# Indices 1 2 3 4 5 6 
#
# 1 155.2292 51.1592 54.2484 0.0000 0.0000 0.0000
# 2 51.1592 51.7692 41.0734 0.0000 0.0000 0.0000
# 3 54.2484 41.0734 115.7925 0.0000 0.0000 0.0000
# 4 0.0000 0.0000 0.0000 24.9138 0.0000 0.0000
# 5 0.0000 0.0000 0.0000 0.0000 -0.6503 0.0000
# 6 0.0000 0.0000 0.0000 0.0000 0.0000 70.0441
#
#
#
# Elastic Compliance Matrix: (Units=1/GPa)
#
#
# Indices 1 2 3 4 5 6 
#
# 1 0.009763 -0.008376 -0.001603 0.000000 0.000000 0.000000
# 2 -0.008376 0.034068 -0.008160 0.000000 0.000000 0.000000
# 3 -0.001603 -0.008160 0.012282 0.000000 0.000000 0.000000
# 4 0.000000 0.000000 0.000000 0.040138 0.000000 0.000000
# 5 0.000000 0.000000 0.000000 0.000000 -1.537829 0.000000
# 6 0.000000 0.000000 0.000000 0.000000 0.000000 0.014277
#
#
# Mechanical properties :
#
#
# Convention : Reuss Voigt Hill
#
# Bulk Modulus (GPa) = 50.41770 68.41699 59.41734
# Shear Modulus (GPa) = -3.61164 30.61553 13.50194
#
# Velocity S-wave (km/s) = -1.35460 3.94394 2.61913
# Velocity P-wave (km/s) = 4.81341 7.44982 6.27171
#
# Compressibility (1/GPa) = 0.01983430
#
# Stress axis : x y z
#
# Youngs Moduli (GPa) = 102.43058 29.35276 81.42269
#
# Poissons Ratio (x) = 0.24586 0.13049
# Poissons Ratio (y) = 0.85797 0.66444
# Poissons Ratio (z) = 0.16416 0.23953
#
# Static dielectric constant tensor:
#      x y z
#    x 1.712900 0.000000 0.000000 
#    y 0.000000 1.726380 0.000000 
#    z 0.000000 0.000000 1.600570 
# 
# From -- ./inp_files/23323.got.cif
#   From: 2010.05.17/outbox.cif.g08.bks.cpg/sg47_12_cif.got.tgz:23323.got - 2010.06.03 20:15:42.
