data_PCOD9383089
_publ_section_title
;
Structure prediction by ZEFSAII (Michael W. Deem and Ramdas Pophale) SiO2 
 PCOD9383089
Probable space group: P M M M
;
_chemical_formula_sum "Si O2"
_cell_formula_units_Z 64
_cell_length_a 8.783180
_cell_length_b 20.516938
_cell_length_c 20.628873
_cell_angle_alpha 90.000000
_cell_angle_beta 90.000000
_cell_angle_gamma 90.000000
_cell_volume 3717.404595
_symmetry_space_group_name_H-M "P M M M"
_symmetry_group_IT_number 47
_symmetry_cell_setting 'orthorhombic'
loop_
_space_group_symop_operation_xyz
x,y,z
-x,-y,z
x,-y,-z
-x,y,-z
-x,-y,-z
x,y,-z
-x,y,z
x,-y,z
loop_
_atom_site_type_symbol
_atom_site_label
_atom_site_fract_x
_atom_site_fract_y
_atom_site_fract_z
Si Si1 0.180093 0.289529 0.248477
Si Si2 0.685501 0.925957 0.074391
Si Si3 0.681293 0.108241 0.427986
Si Si4 0.180085 0.073243 0.706945
Si Si5 0.183466 0.429106 0.291154
Si Si6 0.320067 0.603410 0.570981
Si Si7 0.681530 0.168288 0.188176
Si Si8 0.676348 0.252763 0.382092
O O1 0.237473 0.364379 0.253379
O O2 0.254804 0.240809 0.197326
O O3 0.217832 0.260098 0.319518
O O4 0.000000 0.290039 0.238452
O O5 0.500000 0.925805 0.075613
O O6 0.737629 0.871933 0.125460
O O7 0.733087 0.000000 0.091724
O O8 0.731397 0.913306 0.000000
O O9 0.729218 0.087557 0.500000
O O10 0.500000 0.095197 0.421668
O O11 0.768356 0.077911 0.367597
O O12 0.702590 0.186290 0.420346
O O13 0.268392 0.125639 0.749794
O O14 0.000000 0.085236 0.711842
O O15 0.213108 0.000000 0.730615
O O16 0.232932 0.500000 0.265878
O O17 0.237122 0.423258 0.365701
O O18 0.000000 0.426972 0.290516
O O19 0.265331 0.581915 0.500000
O O20 0.500000 0.587885 0.575733
O O21 0.305932 0.681926 0.576162
O O22 0.500000 0.171321 0.186236
O O23 0.500000 0.251349 0.358962
#
# Coordination Sequence:
#
# PCOD9383089 Si02
#       8
#     8   8   8   8   8   8   8   8
#     4  10  19  31  49  71  96 124 158 200 243 287
#     4   8  15  29  50  78 110 140 169 199 231 273
#     4  10  20  33  50  69  88 115 155 204 255 304
#     4  11  24  38  50  67  94 127 162 202 248 295
#     4   9  19  34  48  63  88 123 159 196 240 290
#     4   9  17  28  43  64  89 115 146 187 239 300
#     4  11  20  32  54  80 103 130 164 202 240 281
#     4   9  16  29  47  66  88 115 149 193 244 296
#
# _framework density 17.216314000000001
#
# number of rings (size 3 to 8) (size 9 to 14) (size 15 to 20)
#    0.000    2.375    1.250    2.250    0.000    4.750 
#    0.000    2.500    0.000    3.750    0.000    4.375 
#    0.000    0.500    0.000    6.250    0.000    0.000 
#
# Total GULP energy -356960.949581 kJ/mol
# GULP energy per Si atom -5577.514837 kJ/mol
# Density = 1.717713 g / cm^3
# Si number density = 17.216314 Si / 1000 Ang^3
#
#
#
# Elastic Constant Matrix: (Units=GPa)
#
#
# Indices 1 2 3 4 5 6 
#
# 1 19.1974 29.5351 11.8853 0.0000 0.0000 0.0000
# 2 29.5351 122.8296 51.7805 0.0000 0.0000 0.0000
# 3 11.8853 51.7805 75.7318 0.0000 0.0000 0.0000
# 4 0.0000 0.0000 0.0000 -122.8604 0.0000 0.0000
# 5 0.0000 0.0000 0.0000 0.0000 -19.7165 0.0000
# 6 0.0000 0.0000 0.0000 0.0000 0.0000 16.2249
#
#
#
# Elastic Compliance Matrix: (Units=1/GPa)
#
#
# Indices 1 2 3 4 5 6 
#
# 1 0.082716 -0.020255 0.000868 0.000000 0.000000 0.000000
# 2 -0.020255 0.016398 -0.008033 0.000000 0.000000 0.000000
# 3 0.000868 -0.008033 0.018561 0.000000 0.000000 0.000000
# 4 0.000000 0.000000 0.000000 -0.008139 0.000000 0.000000
# 5 0.000000 0.000000 0.000000 0.000000 -0.050719 0.000000
# 6 0.000000 0.000000 0.000000 0.000000 0.000000 0.061633
#
#
# Mechanical properties :
#
#
# Convention : Reuss Voigt Hill
#
# Bulk Modulus (GPa) = 15.91503 44.90675 30.41089
# Shear Modulus (GPa) = 25.47945 -16.96652 4.25646
#
# Velocity S-wave (km/s) = 3.85120 -3.14266 1.57407
# Velocity P-wave (km/s) = 5.38886 3.60167 4.58323
#
# Compressibility (1/GPa) = 0.06283369
#
# Stress axis : x y z
#
# Youngs Moduli (GPa) = 12.08957 60.98141 53.87662
#
# Poissons Ratio (x) = 1.23520 -0.04676
# Poissons Ratio (y) = 0.24488 0.43281
# Poissons Ratio (z) = -0.01049 0.48988
#
# Static dielectric constant tensor:
#      x y z
#    x 1.582300 0.000000 0.000000 
#    y 0.000000 1.634010 0.000000 
#    z 0.000000 0.000000 1.563690 
# 
# From -- ./inp_files/30125.got.cif
#   From: 2010.05.17/outbox.cif.g08.bks.cpg/sg47_16_cif.got.tgz:30125.got - 2010.06.03 20:15:42.
