data_PCOD9383896
_publ_section_title
;
Structure prediction by ZEFSAII (Michael W. Deem and Ramdas Pophale) SiO2 
 PCOD9383896
Probable space group: P M M M
;
_chemical_formula_sum "Si O2"
_cell_formula_units_Z 64
_cell_length_a 7.666626
_cell_length_b 15.863182
_cell_length_c 24.612781
_cell_angle_alpha 90.000000
_cell_angle_beta 90.000000
_cell_angle_gamma 90.000000
_cell_volume 2993.334644
_symmetry_space_group_name_H-M "P M M M"
_symmetry_group_IT_number 47
_symmetry_cell_setting 'orthorhombic'
loop_
_space_group_symop_operation_xyz
x,y,z
-x,-y,z
x,-y,-z
-x,y,-z
-x,-y,-z
x,y,-z
-x,y,z
x,-y,z
loop_
_atom_site_type_symbol
_atom_site_label
_atom_site_fract_x
_atom_site_fract_y
_atom_site_fract_z
Si Si1 0.714041 0.406612 0.299469
Si Si2 0.203479 0.816419 0.834162
Si Si3 0.291475 0.230639 0.347813
Si Si4 0.289023 0.909189 0.734161
Si Si5 0.791198 0.597339 0.058933
Si Si6 0.693137 0.639282 0.818358
Si Si7 0.209928 0.905807 0.437236
Si Si8 0.212972 0.903230 0.939640
O O1 0.500000 0.403804 0.297787
O O2 0.763241 0.500000 0.319475
O O3 0.771748 0.325915 0.335450
O O4 0.777194 0.397523 0.236491
O O5 0.224468 0.895684 0.795092
O O6 0.305153 0.739175 0.808409
O O7 0.272306 0.841049 0.893094
O O8 0.000000 0.792524 0.837745
O O9 0.500000 0.235324 0.342174
O O10 0.221299 0.167730 0.301503
O O11 0.260187 0.176023 0.402193
O O12 0.500000 0.907237 0.734062
O O13 0.232508 0.000000 0.712948
O O14 0.731949 0.500000 0.059999
O O15 0.756108 0.631680 0.119395
O O16 0.000000 0.598505 0.055516
O O17 0.728714 0.633884 0.000000
O O18 0.500000 0.603265 0.819791
O O19 0.265787 0.896745 0.500000
O O20 0.000000 0.908848 0.436405
O O21 0.272039 0.000000 0.418448
O O22 0.000000 0.902768 0.938197
O O23 0.266382 0.000000 0.929972
O O24 0.267105 0.878702 0.000000
#
# Coordination Sequence:
#
# PCOD9383896 Si02
#       8
#     8   8   8   8   8   8   8   8
#     4   9  18  34  56  79 106 143 185 232 285 334
#     4  11  21  32  49  73 100 131 173 220 271 331
#     4  10  19  34  56  83 113 145 187 233 275 323
#     4  10  20  34  51  74 108 145 175 216 277 332
#     4   9  19  36  55  75 101 131 166 217 282 346
#     4  11  21  35  53  74 104 138 179 227 280 339
#     4   9  19  36  57  84 121 160 192 225 269 318
#     4   8  15  29  47  65  86 116 159 211 262 313
#
# _framework density 21.380837
#
# number of rings (size 3 to 8) (size 9 to 14) (size 15 to 20)
#    0.000    2.375    1.250    3.000    0.000    3.750 
#    0.000    2.500    0.000    3.375    0.000    7.000 
#    0.000    0.000    0.000    0.000    0.000    0.000 
#
# Total GULP energy -356685.333044 kJ/mol
# GULP energy per Si atom -5573.208329 kJ/mol
# Density = 2.133217 g / cm^3
# Si number density = 21.380837 Si / 1000 Ang^3
#
#
#
# Elastic Constant Matrix: (Units=GPa)
#
#
# Indices 1 2 3 4 5 6 
#
# 1 39.1830 9.0231 0.1841 0.0000 0.0000 0.0000
# 2 9.0231 160.9931 67.0425 0.0000 0.0000 0.0000
# 3 0.1841 67.0425 108.3049 0.0000 0.0000 0.0000
# 4 0.0000 0.0000 0.0000 29.3121 0.0000 0.0000
# 5 0.0000 0.0000 0.0000 0.0000 18.9582 0.0000
# 6 0.0000 0.0000 0.0000 0.0000 0.0000 27.5051
#
#
#
# Elastic Compliance Matrix: (Units=1/GPa)
#
#
# Indices 1 2 3 4 5 6 
#
# 1 0.025962 -0.001936 0.001154 0.000000 0.000000 0.000000
# 2 -0.001936 0.008513 -0.005266 0.000000 0.000000 0.000000
# 3 0.001154 -0.005266 0.012491 0.000000 0.000000 0.000000
# 4 0.000000 0.000000 0.000000 0.034116 0.000000 0.000000
# 5 0.000000 0.000000 0.000000 0.000000 0.052748 0.000000
# 6 0.000000 0.000000 0.000000 0.000000 0.000000 0.036357
#
#
# Mechanical properties :
#
#
# Convention : Reuss Voigt Hill
#
# Bulk Modulus (GPa) = 28.67808 51.22008 39.94908
# Shear Modulus (GPa) = 25.78579 30.63717 28.21148
#
# Velocity S-wave (km/s) = 3.47655 3.78951 3.63640
# Velocity P-wave (km/s) = 5.43666 6.56926 6.02962
#
# Compressibility (1/GPa) = 0.03486983
#
# Stress axis : x y z
#
# Youngs Moduli (GPa) = 38.51846 117.46698 80.05619
#
# Poissons Ratio (x) = 0.22737 -0.09239
# Poissons Ratio (y) = 0.07456 0.42161
# Poissons Ratio (z) = -0.04445 0.61863
#
# Static dielectric constant tensor:
#      x y z
#    x 1.818410 0.000000 0.000000 
#    y 0.000000 1.809870 0.000000 
#    z 0.000000 0.000000 1.799720 
# 
# From -- ./inp_files/32128.got.cif
#   From: 2010.05.17/outbox.cif.g08.bks.cpg/sg47_17_cif.got.tgz:32128.got - 2010.06.03 20:15:42.
