data_PCOD9383838
_publ_section_title
;
Structure prediction by ZEFSAII (Michael W. Deem and Ramdas Pophale) SiO2 
 PCOD9383838
Probable space group: P M M M
;
_chemical_formula_sum "Si O2"
_cell_formula_units_Z 56
_cell_length_a 9.581262
_cell_length_b 14.586127
_cell_length_c 21.027257
_cell_angle_alpha 90.000000
_cell_angle_beta 90.000000
_cell_angle_gamma 90.000000
_cell_volume 2938.632853
_symmetry_space_group_name_H-M "P M M M"
_symmetry_group_IT_number 47
_symmetry_cell_setting 'orthorhombic'
loop_
_space_group_symop_operation_xyz
x,y,z
-x,-y,z
x,-y,-z
-x,y,-z
-x,-y,-z
x,y,-z
-x,y,z
x,-y,z
loop_
_atom_site_type_symbol
_atom_site_label
_atom_site_fract_x
_atom_site_fract_y
_atom_site_fract_z
Si Si1 0.834403 0.393064 0.170487
Si Si2 0.655324 0.844645 0.623965
Si Si3 0.848616 0.000000 0.424678
Si Si4 0.657303 0.393056 0.707696
Si Si5 0.336658 0.889678 0.767154
Si Si6 0.167941 0.198864 0.117862
Si Si7 0.337962 0.355655 0.569942
Si Si8 0.667039 0.110662 0.000000
O O1 0.797951 0.500000 0.153251
O O2 0.752331 0.363049 0.234122
O O3 0.808608 0.309511 0.121639
O O4 0.000000 0.393260 0.183334
O O5 0.500000 0.884317 0.617846
O O6 0.767399 0.911901 0.597042
O O7 0.680012 0.837539 0.699630
O O8 0.659475 0.752700 0.582871
O O9 0.856963 0.000000 0.500000
O O10 0.000000 0.000000 0.394955
O O11 0.500000 0.350657 0.706505
O O12 0.639206 0.500000 0.719911
O O13 0.722856 0.388304 0.637102
O O14 0.500000 0.878710 0.786973
O O15 0.231926 0.848473 0.818920
O O16 0.314641 0.000000 0.757791
O O17 0.253933 0.153605 0.060546
O O18 0.000000 0.183842 0.113070
O O19 0.278942 0.377335 0.500000
O O20 0.500000 0.387958 0.569326
O O21 0.500000 0.130472 0.000000
O O22 0.681679 0.000000 0.000000
#
# Coordination Sequence:
#
# PCOD9383838 Si02
#       8
#     8   8   4   8   8   8   8   4
#     4   9  19  37  59  84 116 151 186 226 277 336
#     4  10  19  34  53  71  94 133 182 223 265 330
#     4  11  23  35  47  67  97 130 167 220 283 333
#     4   9  17  30  51  78 106 138 178 226 279 331
#     4  10  20  35  55  81 112 145 184 232 287 341
#     4  11  23  38  61  91 119 152 192 232 277 325
#     4   9  17  28  45  71 100 132 175 227 278 330
#     4  11  25  45  66  89 122 164 199 227 268 321
#
# _framework density 19.056481000000002
#
# number of rings (size 3 to 8) (size 9 to 14) (size 15 to 20)
#    0.000    2.143    0.714    2.571    0.000    6.857 
#    0.000    2.500    0.000    3.429    0.000    2.000 
#    0.000    0.000    0.000    0.000    0.000    0.000 
#
# Total GULP energy -311964.064922 kJ/mol
# GULP energy per Si atom -5570.786874 kJ/mol
# Density = 1.901311 g / cm^3
# Si number density = 19.056481 Si / 1000 Ang^3
#
#
#
# Elastic Constant Matrix: (Units=GPa)
#
#
# Indices 1 2 3 4 5 6 
#
# 1 84.4290 42.6285 54.2396 0.0000 0.0000 0.0000
# 2 42.6285 90.5609 35.8462 0.0000 0.0000 0.0000
# 3 54.2396 35.8462 97.6769 0.0000 0.0000 0.0000
# 4 0.0000 0.0000 0.0000 28.1853 0.0000 0.0000
# 5 0.0000 0.0000 0.0000 0.0000 40.3540 0.0000
# 6 0.0000 0.0000 0.0000 0.0000 0.0000 28.6593
#
#
#
# Elastic Compliance Matrix: (Units=1/GPa)
#
#
# Indices 1 2 3 4 5 6 
#
# 1 0.020991 -0.006162 -0.009395 0.000000 0.000000 0.000000
# 2 -0.006162 0.014728 -0.001983 0.000000 0.000000 0.000000
# 3 -0.009395 -0.001983 0.016183 0.000000 0.000000 0.000000
# 4 0.000000 0.000000 0.000000 0.035480 0.000000 0.000000
# 5 0.000000 0.000000 0.000000 0.000000 0.024781 0.000000
# 6 0.000000 0.000000 0.000000 0.000000 0.000000 0.034893
#
#
# Mechanical properties :
#
#
# Convention : Reuss Voigt Hill
#
# Bulk Modulus (GPa) = 59.44851 59.78836 59.61844
# Shear Modulus (GPa) = 26.63234 28.76988 27.70111
#
# Velocity S-wave (km/s) = 3.74243 3.88972 3.81679
# Velocity P-wave (km/s) = 7.06669 7.18440 7.12579
#
# Compressibility (1/GPa) = 0.01682128
#
# Stress axis : x y z
#
# Youngs Moduli (GPa) = 47.63933 67.89841 61.79505
#
# Poissons Ratio (x) = 0.41840 0.58055
# Poissons Ratio (y) = 0.29356 0.12255
# Poissons Ratio (z) = 0.44756 0.13465
#
# Static dielectric constant tensor:
#      x y z
#    x 1.658720 0.000000 0.000000 
#    y 0.000000 1.715130 0.000000 
#    z 0.000000 0.000000 1.674150 
# 
# From -- ./inp_files/29776.got.cif
#   From: 2010.05.17/outbox.cif.g08.bks.cpg/sg47_15_cif.got.tgz:29776.got - 2010.06.03 20:15:42.
