data_PCOD9383288
_publ_section_title
;
Structure prediction by ZEFSAII (Michael W. Deem and Ramdas Pophale) SiO2 
 PCOD9383288
Probable space group: P M M M
;
_chemical_formula_sum "Si O2"
_cell_formula_units_Z 52
_cell_length_a 16.124064
_cell_length_b 8.645364
_cell_length_c 22.299264
_cell_angle_alpha 90.000000
_cell_angle_beta 90.000000
_cell_angle_gamma 90.000000
_cell_volume 3108.481777
_symmetry_space_group_name_H-M "P M M M"
_symmetry_group_IT_number 47
_symmetry_cell_setting 'orthorhombic'
loop_
_space_group_symop_operation_xyz
x,y,z
-x,-y,z
x,-y,-z
-x,y,-z
-x,-y,-z
x,y,-z
-x,y,z
x,-y,z
loop_
_atom_site_type_symbol
_atom_site_label
_atom_site_fract_x
_atom_site_fract_y
_atom_site_fract_z
Si Si1 0.096003 0.674535 0.717489
Si Si2 0.843380 0.319774 0.146859
Si Si3 0.751180 0.178054 0.670782
Si Si4 0.000000 0.688421 0.929852
Si Si5 0.321647 0.814136 0.798884
Si Si6 0.500000 0.313739 0.784525
Si Si7 0.500000 0.688595 0.645175
Si Si8 0.342845 0.314534 0.568036
O O1 0.122799 0.500000 0.699858
O O2 0.111507 0.685558 0.788577
O O3 0.153226 0.799753 0.686695
O O4 0.000000 0.692162 0.704438
O O5 0.826980 0.500000 0.132080
O O6 0.754041 0.239446 0.157951
O O7 0.913697 0.258015 0.101138
O O8 0.703507 0.238608 0.730736
O O9 0.732560 0.267616 0.610073
O O10 0.728414 0.000000 0.663185
O O11 0.000000 0.500000 0.922681
O O12 0.000000 0.724884 0.000000
O O13 0.413299 0.747952 0.811783
O O14 0.324196 0.000000 0.798873
O O15 0.500000 0.500000 0.786555
O O16 0.500000 0.261645 0.714266
O O17 0.500000 0.500000 0.646391
O O18 0.578995 0.740936 0.607169
O O19 0.341489 0.255369 0.500000
O O20 0.348498 0.500000 0.564796
#
# Coordination Sequence:
#
# PCOD9383288 Si02
#       8
#     8   8   8   4   8   4   4   8
#     4   9  16  28  48  70  92 120 156 196 235 280
#     4   9  16  29  48  73 103 136 172 203 238 287
#     4  10  20  31  44  65  93 122 153 192 242 294
#     4   9  16  28  51  83 115 143 172 209 246 277
#     4  10  20  32  46  68 100 134 166 206 251 294
#     4  11  19  30  51  73  95 129 166 206 255 301
#     4   9  17  29  46  67  89 114 150 192 233 282
#     4  10  19  32  49  66  86 116 155 196 237 287
#
# _framework density 16.728424
#
# number of rings (size 3 to 8) (size 9 to 14) (size 15 to 20)
#    0.000    2.385    2.308    1.385    0.000    2.769 
#    0.000    0.769    0.000    2.308    0.000    3.769 
#    0.000    4.308    0.000    0.000    0.000    0.000 
#
# Total GULP energy -289570.599868 kJ/mol
# GULP energy per Si atom -5568.665382 kJ/mol
# Density = 1.669035 g / cm^3
# Si number density = 16.728424 Si / 1000 Ang^3
#
#
#
# Elastic Constant Matrix: (Units=GPa)
#
#
# Indices 1 2 3 4 5 6 
#
# 1 111.6098 28.5051 44.4117 0.0000 0.0000 0.0000
# 2 28.5051 23.6104 14.4918 0.0000 0.0000 0.0000
# 3 44.4117 14.4918 66.2312 0.0000 0.0000 0.0000
# 4 0.0000 0.0000 0.0000 9.6393 0.0000 0.0000
# 5 0.0000 0.0000 0.0000 0.0000 16.5703 0.0000
# 6 0.0000 0.0000 0.0000 0.0000 0.0000 12.2711
#
#
#
# Elastic Compliance Matrix: (Units=1/GPa)
#
#
# Indices 1 2 3 4 5 6 
#
# 1 0.015489 -0.014238 -0.007271 0.000000 0.000000 0.000000
# 2 -0.014238 0.062012 -0.004021 0.000000 0.000000 0.000000
# 3 -0.007271 -0.004021 0.020854 0.000000 0.000000 0.000000
# 4 0.000000 0.000000 0.000000 0.103743 0.000000 0.000000
# 5 0.000000 0.000000 0.000000 0.000000 0.060349 0.000000
# 6 0.000000 0.000000 0.000000 0.000000 0.000000 0.081493
#
#
# Mechanical properties :
#
#
# Convention : Reuss Voigt Hill
#
# Bulk Modulus (GPa) = 21.14395 41.80762 31.47579
# Shear Modulus (GPa) = 12.17240 15.29896 13.73568
#
# Velocity S-wave (km/s) = 2.70042 3.02743 2.86859
# Velocity P-wave (km/s) = 4.73181 6.10464 5.46153
#
# Compressibility (1/GPa) = 0.04729484
#
# Stress axis : x y z
#
# Youngs Moduli (GPa) = 64.56012 16.12600 47.95165
#
# Poissons Ratio (x) = 0.22959 0.34867
# Poissons Ratio (y) = 0.91918 0.19284
# Poissons Ratio (z) = 0.46943 0.06485
#
# Static dielectric constant tensor:
#      x y z
#    x 1.604780 0.000000 0.000000 
#    y 0.000000 1.587880 0.000000 
#    z 0.000000 0.000000 1.547450 
# 
# From -- ./inp_files/32688.got.cif
#   From: 2010.05.17/outbox.cif.g08.bks.cpg/sg47_17_cif.got.tgz:32688.got - 2010.06.03 20:15:42.
