data_PCOD9383722
_publ_section_title
;
Structure prediction by ZEFSAII (Michael W. Deem and Ramdas Pophale) SiO2 
 PCOD9383722
Probable space group: P M M M
;
_chemical_formula_sum "Si O2"
_cell_formula_units_Z 52
_cell_length_a 15.105815
_cell_length_b 7.570830
_cell_length_c 21.261351
_cell_angle_alpha 90.000000
_cell_angle_beta 90.000000
_cell_angle_gamma 90.000000
_cell_volume 2431.523735
_symmetry_space_group_name_H-M "P M M M"
_symmetry_group_IT_number 47
_symmetry_cell_setting 'orthorhombic'
loop_
_space_group_symop_operation_xyz
x,y,z
-x,-y,z
x,-y,-z
-x,y,-z
-x,-y,-z
x,y,-z
-x,y,z
x,-y,z
loop_
_atom_site_type_symbol
_atom_site_label
_atom_site_fract_x
_atom_site_fract_y
_atom_site_fract_z
Si Si1 0.000000 0.788636 0.429740
Si Si2 0.904399 0.797732 0.199991
Si Si3 0.350043 0.284739 0.671618
Si Si4 0.764288 0.698210 0.109313
Si Si5 0.399086 0.716073 0.185557
Si Si6 0.850473 0.706814 0.666048
Si Si7 0.500000 0.715889 0.426709
Si Si8 0.896237 0.283674 0.000000
O O1 0.912532 0.729801 0.393411
O O2 0.000000 0.720183 0.500000
O O3 0.000000 0.000000 0.430259
O O4 0.822825 0.693180 0.172293
O O5 0.896586 0.796437 0.274662
O O6 0.000000 0.725248 0.180285
O O7 0.897947 0.000000 0.178527
O O8 0.353767 0.500000 0.672116
O O9 0.376814 0.228741 0.742542
O O10 0.249624 0.228869 0.658482
O O11 0.416016 0.228624 0.615969
O O12 0.743691 0.500000 0.086553
O O13 0.672423 0.780017 0.133889
O O14 0.834891 0.772776 0.059112
O O15 0.500000 0.765556 0.171241
O O16 0.393787 0.500000 0.185305
O O17 0.846072 0.500000 0.681612
O O18 0.500000 0.500000 0.428405
O O19 0.500000 0.773607 0.500000
O O20 0.900979 0.500000 0.000000
O O21 0.000000 0.224783 0.000000
#
# Coordination Sequence:
#
# PCOD9383722 Si02
#       8
#     4   8   8   8   8   8   4   4
#     4  11  25  43  57  73 107 152 187 224 283 341
#     4  11  22  34  51  78 110 140 174 221 275 326
#     4   9  16  27  45  73 104 134 170 214 267 322
#     4  10  19  33  54  79 105 141 186 224 269 327
#     4   9  15  26  47  75 105 136 172 221 277 325
#     4  11  21  34  56  82 106 137 181 230 273 320
#     4   9  16  26  42  68 107 144 166 201 266 331
#     4   9  18  32  50  76 110 145 181 229 280 327
#
# _framework density 21.385766
#
# number of rings (size 3 to 8) (size 9 to 14) (size 15 to 20)
#    0.000    2.077    3.077    1.615    0.000    2.769 
#    0.000    2.308    0.000    4.154    0.000    1.615 
#    0.000    4.923    0.000    0.000    0.000    0.000 
#
# Total GULP energy -290139.539281 kJ/mol
# GULP energy per Si atom -5579.606525 kJ/mol
# Density = 2.133709 g / cm^3
# Si number density = 21.385766 Si / 1000 Ang^3
#
#
#
# Elastic Constant Matrix: (Units=GPa)
#
#
# Indices 1 2 3 4 5 6 
#
# 1 218.3273 7.5389 79.6616 0.0000 0.0000 0.0000
# 2 7.5389 55.2388 0.7031 0.0000 0.0000 0.0000
# 3 79.6616 0.7031 132.1059 0.0000 0.0000 0.0000
# 4 0.0000 0.0000 0.0000 3.5315 0.0000 0.0000
# 5 0.0000 0.0000 0.0000 0.0000 34.5589 0.0000
# 6 0.0000 0.0000 0.0000 0.0000 0.0000 40.4880
#
#
#
# Elastic Compliance Matrix: (Units=1/GPa)
#
#
# Indices 1 2 3 4 5 6 
#
# 1 0.005904 -0.000761 -0.003556 0.000000 0.000000 0.000000
# 2 -0.000761 0.018202 0.000362 0.000000 0.000000 0.000000
# 3 -0.003556 0.000362 0.009712 0.000000 0.000000 0.000000
# 4 0.000000 0.000000 0.000000 0.283166 0.000000 0.000000
# 5 0.000000 0.000000 0.000000 0.000000 0.028936 0.000000
# 6 0.000000 0.000000 0.000000 0.000000 0.000000 0.024699
#
#
# Mechanical properties :
#
#
# Convention : Reuss Voigt Hill
#
# Bulk Modulus (GPa) = 38.59703 64.60879 51.60291
# Shear Modulus (GPa) = 12.91438 36.90024 24.90731
#
# Velocity S-wave (km/s) = 2.46006 4.15837 3.41643
# Velocity P-wave (km/s) = 5.11433 7.30293 6.30433
#
# Compressibility (1/GPa) = 0.02590873
#
# Stress axis : x y z
#
# Youngs Moduli (GPa) = 169.37383 54.93776 102.96330
#
# Poissons Ratio (x) = 0.04178 0.36616
# Poissons Ratio (y) = 0.12881 -0.03724
# Poissons Ratio (z) = 0.60233 -0.01987
#
# Static dielectric constant tensor:
#      x y z
#    x 1.780990 0.000000 0.000000 
#    y 0.000000 1.821680 0.000000 
#    z 0.000000 0.000000 1.774110 
# 
# From -- ./inp_files/30918.got.cif
#   From: 2010.05.17/outbox.cif.g08.bks.cpg/sg47_16_cif.got.tgz:30918.got - 2010.06.03 20:15:42.
