data_PCOD9383217
_publ_section_title
;
Structure prediction by ZEFSAII (Michael W. Deem and Ramdas Pophale) SiO2 
 PCOD9383217
Probable space group: P M M M
;
_chemical_formula_sum "Si O2"
_cell_formula_units_Z 56
_cell_length_a 20.845896
_cell_length_b 16.120909
_cell_length_c 7.382131
_cell_angle_alpha 90.000000
_cell_angle_beta 90.000000
_cell_angle_gamma 90.000000
_cell_volume 2480.800501
_symmetry_space_group_name_H-M "P M M M"
_symmetry_group_IT_number 47
_symmetry_cell_setting 'orthorhombic'
loop_
_space_group_symop_operation_xyz
x,y,z
-x,-y,z
x,-y,-z
-x,y,-z
-x,-y,-z
x,y,-z
-x,y,z
x,-y,z
loop_
_atom_site_type_symbol
_atom_site_label
_atom_site_fract_x
_atom_site_fract_y
_atom_site_fract_z
Si Si1 0.431630 0.191055 0.719118
Si Si2 0.926457 0.406338 0.281083
Si Si3 0.715246 0.591547 0.221251
Si Si4 0.429994 0.614977 0.788382
Si Si5 0.686492 0.092479 0.710834
Si Si6 0.181960 0.725292 0.790385
Si Si7 0.832085 0.092475 0.795827
O O1 0.429584 0.184801 0.500000
O O2 0.500000 0.154127 0.777693
O O3 0.431320 0.286301 0.771915
O O4 0.367005 0.151217 0.789415
O O5 0.924636 0.405481 0.500000
O O6 0.909819 0.500000 0.222165
O O7 0.876836 0.338440 0.215372
O O8 0.000000 0.389784 0.226631
O O9 0.742177 0.500000 0.270955
O O10 0.640708 0.592311 0.282663
O O11 0.757604 0.670804 0.283792
O O12 0.715155 0.595378 0.000000
O O13 0.500000 0.588090 0.713241
O O14 0.429912 0.591763 0.000000
O O15 0.699295 0.113875 0.500000
O O16 0.754850 0.091464 0.802678
O O17 0.659211 0.000000 0.714477
O O18 0.159195 0.814925 0.712637
O O19 0.198349 0.743328 0.000000
O O20 0.849431 0.000000 0.717378
O O21 0.859245 0.093366 0.000000
#
# Coordination Sequence:
#
# PCOD9383217 Si02
#       7
#     8   8   8   8   8   8   8
#     4   9  17  28  41  57  79 108 142 186 242 296
#     4   9  19  36  56  79 109 141 168 197 239 291
#     4   9  17  28  43  67  97 123 152 198 250 291
#     4   9  17  29  45  62  81 113 157 197 233 282
#     4   9  17  28  42  61  84 112 151 197 243 295
#     4  10  19  31  51  77 103 133 169 208 248 291
#     4   9  18  32  49  70  98 131 164 200 245 292
#
# _framework density 22.573359
#
# number of rings (size 3 to 8) (size 9 to 14) (size 15 to 20)
#    0.000    2.857    0.000    1.714    0.000    4.000 
#    0.000    4.286    0.000    1.714    0.000    9.000 
#    0.000    0.000    0.000    0.000    0.000    0.000 
#
# Total GULP energy -311996.205806 kJ/mol
# GULP energy per Si atom -5571.360818 kJ/mol
# Density = 2.252198 g / cm^3
# Si number density = 22.573359 Si / 1000 Ang^3
#
#
#
# Elastic Constant Matrix: (Units=GPa)
#
#
# Indices 1 2 3 4 5 6 
#
# 1 83.6237 61.4195 -3.0505 0.0000 0.0000 0.0000
# 2 61.4195 145.6244 3.1246 0.0000 0.0000 0.0000
# 3 -3.0505 3.1246 79.7357 0.0000 0.0000 0.0000
# 4 0.0000 0.0000 0.0000 -13.7416 0.0000 0.0000
# 5 0.0000 0.0000 0.0000 0.0000 -8.6769 0.0000
# 6 0.0000 0.0000 0.0000 0.0000 0.0000 33.5667
#
#
#
# Elastic Compliance Matrix: (Units=1/GPa)
#
#
# Indices 1 2 3 4 5 6 
#
# 1 0.017397 -0.007358 0.000954 0.000000 0.000000 0.000000
# 2 -0.007358 0.009985 -0.000673 0.000000 0.000000 0.000000
# 3 0.000954 -0.000673 0.012604 0.000000 0.000000 0.000000
# 4 0.000000 0.000000 0.000000 -0.072772 0.000000 0.000000
# 5 0.000000 0.000000 0.000000 0.000000 -0.115248 0.000000
# 6 0.000000 0.000000 0.000000 0.000000 0.000000 0.029791
#
#
# Mechanical properties :
#
#
# Convention : Reuss Voigt Hill
#
# Bulk Modulus (GPa) = 38.71071 47.99675 43.35373
# Shear Modulus (GPa) = -52.36866 18.72899 -16.81984
#
# Velocity S-wave (km/s) = -4.82179 2.88357 -2.73265
# Velocity P-wave (km/s) = 3.71665 5.69169 3.04810
#
# Compressibility (1/GPa) = 0.02583264
#
# Stress axis : x y z
#
# Youngs Moduli (GPa) = 57.47953 100.15186 79.33808
#
# Poissons Ratio (x) = 0.73693 -0.07568
# Poissons Ratio (y) = 0.42294 0.05338
# Poissons Ratio (z) = -0.05483 0.06738
#
# Static dielectric constant tensor:
#      x y z
#    x 1.816300 0.000000 0.000000 
#    y 0.000000 1.884340 0.000000 
#    z 0.000000 0.000000 1.868660 
# 
# From -- ./inp_files/7310.got.cif
#   From: 2010.05.17/outbox.cif.g08.bks.cpg/sg47_4_cif.got.tgz:7310.got - 2010.06.03 20:15:42.
