data_PCOD9383087
_publ_section_title
;
Structure prediction by ZEFSAII (Michael W. Deem and Ramdas Pophale) SiO2 
 PCOD9383087
Probable space group: P M M M
;
_chemical_formula_sum "Si O2"
_cell_formula_units_Z 40
_cell_length_a 13.062918
_cell_length_b 18.351195
_cell_length_c 7.404835
_cell_angle_alpha 90.000000
_cell_angle_beta 90.000000
_cell_angle_gamma 90.000000
_cell_volume 1775.088198
_symmetry_space_group_name_H-M "P M M M"
_symmetry_group_IT_number 47
_symmetry_cell_setting 'orthorhombic'
loop_
_space_group_symop_operation_xyz
x,y,z
-x,-y,z
x,-y,-z
-x,y,-z
-x,-y,-z
x,y,-z
-x,y,z
x,-y,z
loop_
_atom_site_type_symbol
_atom_site_label
_atom_site_fract_x
_atom_site_fract_y
_atom_site_fract_z
Si Si1 0.835962 0.579144 0.711760
Si Si2 0.000000 0.305366 0.281087
Si Si3 0.781563 0.917602 0.221111
Si Si4 0.614509 0.198094 0.780260
Si Si5 0.000000 0.864819 0.209185
Si Si6 0.614008 0.365931 0.217842
O O1 0.861229 0.576488 0.500000
O O2 0.863699 0.500000 0.789449
O O3 0.901228 0.647687 0.780740
O O4 0.714414 0.590559 0.727190
O O5 0.000000 0.300013 0.500000
O O6 0.000000 0.222725 0.215678
O O7 0.700230 0.857563 0.282202
O O8 0.894619 0.895815 0.285347
O O9 0.755860 0.000000 0.273428
O O10 0.781310 0.915302 0.000000
O O11 0.500000 0.175559 0.727098
O O12 0.629326 0.281879 0.723614
O O13 0.617134 0.199033 0.000000
O O14 0.000000 0.887871 0.000000
O O15 0.500000 0.389914 0.278099
O O16 0.612077 0.367134 0.000000
#
# Coordination Sequence:
#
# PCOD9383087 Si02
#       6
#     8   4   8   8   4   8
#     4  10  21  36  53  73  98 127 160 202 250 296
#     4  10  21  37  55  73  95 126 164 204 248 296
#     4   9  16  25  40  65  95 124 155 193 236 280
#     4   8  14  25  41  62  90 124 159 193 230 274
#     4  10  19  31  49  71  95 124 158 196 238 286
#     4   9  18  33  52  74 102 134 165 199 241 288
#
# _framework density 22.534092000000001
#
# number of rings (size 3 to 8) (size 9 to 14) (size 15 to 20)
#    0.000    2.800    0.000    3.000    0.000    6.400 
#    0.000    4.000    0.000    3.000    0.000    0.000 
#    0.000    0.000    0.000   17.200    0.000   14.000 
#
# Total GULP energy -223409.798797 kJ/mol
# GULP energy per Si atom -5585.244970 kJ/mol
# Density = 2.248280 g / cm^3
# Si number density = 22.534092 Si / 1000 Ang^3
#
#
#
# Elastic Constant Matrix: (Units=GPa)
#
#
# Indices 1 2 3 4 5 6 
#
# 1 90.6627 9.5015 -6.1309 0.0000 0.0000 0.0000
# 2 9.5015 44.7683 -8.6379 0.0000 0.0000 0.0000
# 3 -6.1309 -8.6379 73.9031 0.0000 0.0000 0.0000
# 4 0.0000 0.0000 0.0000 12.4296 0.0000 0.0000
# 5 0.0000 0.0000 0.0000 0.0000 3.3352 0.0000
# 6 0.0000 0.0000 0.0000 0.0000 0.0000 -164.9544
#
#
#
# Elastic Compliance Matrix: (Units=1/GPa)
#
#
# Indices 1 2 3 4 5 6 
#
# 1 0.011313 -0.002271 0.000673 0.000000 0.000000 0.000000
# 2 -0.002271 0.023309 0.002536 0.000000 0.000000 0.000000
# 3 0.000673 0.002536 0.013883 0.000000 0.000000 0.000000
# 4 0.000000 0.000000 0.000000 0.080453 0.000000 0.000000
# 5 0.000000 0.000000 0.000000 0.000000 0.299831 0.000000
# 6 0.000000 0.000000 0.000000 0.000000 0.000000 -0.006062
#
#
# Mechanical properties :
#
#
# Convention : Reuss Voigt Hill
#
# Bulk Modulus (GPa) = 19.84877 22.08884 20.96881
# Shear Modulus (GPa) = 11.42478 -15.53116 -2.05319
#
# Velocity S-wave (km/s) = 2.25411 -2.62817 -0.95558
# Velocity P-wave (km/s) = 3.94995 0.78359 2.84747
#
# Compressibility (1/GPa) = 0.05038096
#
# Stress axis : x y z
#
# Youngs Moduli (GPa) = 88.39045 42.90265 72.02810
#
# Poissons Ratio (x) = 0.09744 -0.04848
# Poissons Ratio (y) = 0.20076 -0.18266
# Poissons Ratio (z) = -0.05949 -0.10880
#
# Static dielectric constant tensor:
#      x y z
#    x 1.815950 0.000000 0.000000 
#    y 0.000000 1.791120 0.000000 
#    z 0.000000 0.000000 1.895310 
# 
# From -- ./inp_files/4124.got.cif
#   From: 2010.05.17/outbox.cif.g08.bks.cpg/sg47_3_cif.got.tgz:4124.got - 2010.06.03 20:15:42.
