data_PCOD9383504
_publ_section_title
;
Structure prediction by ZEFSAII (Michael W. Deem and Ramdas Pophale) SiO2 
 PCOD9383504
Probable space group: P M M M
;
_chemical_formula_sum "Si O2"
_cell_formula_units_Z 56
_cell_length_a 22.929012
_cell_length_b 9.991352
_cell_length_c 14.327888
_cell_angle_alpha 90.000000
_cell_angle_beta 90.000000
_cell_angle_gamma 90.000000
_cell_volume 3282.402081
_symmetry_space_group_name_H-M "P M M M"
_symmetry_group_IT_number 47
_symmetry_cell_setting 'orthorhombic'
loop_
_space_group_symop_operation_xyz
x,y,z
-x,-y,z
x,-y,-z
-x,y,-z
-x,-y,-z
x,y,-z
-x,y,z
x,-y,z
loop_
_atom_site_type_symbol
_atom_site_label
_atom_site_fract_x
_atom_site_fract_y
_atom_site_fract_z
Si Si1 0.733464 0.841846 0.306468
Si Si2 0.062868 0.143310 0.249531
Si Si3 0.606739 0.844527 0.387482
Si Si4 0.932929 0.500000 0.388208
Si Si5 0.500000 0.344894 0.386404
Si Si6 0.890397 0.656137 0.892818
Si Si7 0.777536 0.844887 0.104182
Si Si8 0.851549 0.755510 0.389396
O O1 0.669583 0.810416 0.344796
O O2 0.737531 0.825550 0.194671
O O3 0.784905 0.756607 0.354708
O O4 0.744424 0.000000 0.327779
O O5 0.069285 0.263681 0.177705
O O6 0.114444 0.142088 0.323824
O O7 0.000000 0.154524 0.298342
O O8 0.064279 0.000000 0.198745
O O9 0.611137 0.839308 0.500000
O O10 0.556838 0.740541 0.358027
O O11 0.592490 0.000000 0.363286
O O12 0.939706 0.500000 0.500000
O O13 0.891300 0.625664 0.367818
O O14 0.000000 0.500000 0.350009
O O15 0.500000 0.500000 0.355537
O O16 0.500000 0.346720 0.500000
O O17 0.883492 0.500000 0.868100
O O18 0.829841 0.738755 0.888073
O O19 0.910883 0.662645 0.000000
O O20 0.798897 0.000000 0.109559
O O21 0.751398 0.829341 0.000000
O O22 0.853304 0.781168 0.500000
#
# Coordination Sequence:
#
# PCOD9383504 Si02
#       8
#     8   8   8   4   4   8   8   8
#     4  10  19  32  52  79 105 132 171 215 262 314
#     4  11  24  38  53  75  99 128 168 212 262 318
#     4   9  17  30  49  74 106 144 179 210 247 296
#     4   9  20  38  54  68  91 132 182 222 264 318
#     4   9  17  31  49  73 106 145 182 216 247 283
#     4  10  21  37  57  78  98 124 161 208 263 323
#     4   9  17  32  54  76 102 134 165 205 259 315
#     4  11  22  36  53  74 102 137 175 218 264 311
#
# _framework density 17.060677999999999
#
# number of rings (size 3 to 8) (size 9 to 14) (size 15 to 20)
#    0.000    2.143    1.429    1.929    1.000    4.857 
#    1.286    2.143    0.000    0.000    0.000    0.500 
#    0.000    4.000    0.000    0.000    0.000    0.000 
#
# Total GULP energy -311970.652987 kJ/mol
# GULP energy per Si atom -5570.904518 kJ/mol
# Density = 1.702185 g / cm^3
# Si number density = 17.060678 Si / 1000 Ang^3
#
#
#
# Elastic Constant Matrix: (Units=GPa)
#
#
# Indices 1 2 3 4 5 6 
#
# 1 135.1183 62.5826 40.5503 0.0000 0.0000 0.0000
# 2 62.5826 119.8558 40.6157 0.0000 0.0000 0.0000
# 3 40.5503 40.6157 70.7385 0.0000 0.0000 0.0000
# 4 0.0000 0.0000 0.0000 19.4676 0.0000 0.0000
# 5 0.0000 0.0000 0.0000 0.0000 16.6090 0.0000
# 6 0.0000 0.0000 0.0000 0.0000 0.0000 217.2886
#
#
#
# Elastic Compliance Matrix: (Units=1/GPa)
#
#
# Indices 1 2 3 4 5 6 
#
# 1 0.010430 -0.004246 -0.003541 0.000000 0.000000 0.000000
# 2 -0.004246 0.012088 -0.004506 0.000000 0.000000 0.000000
# 3 -0.003541 -0.004506 0.018754 0.000000 0.000000 0.000000
# 4 0.000000 0.000000 0.000000 0.051367 0.000000 0.000000
# 5 0.000000 0.000000 0.000000 0.000000 0.060208 0.000000
# 6 0.000000 0.000000 0.000000 0.000000 0.000000 0.004602
#
#
# Mechanical properties :
#
#
# Convention : Reuss Voigt Hill
#
# Bulk Modulus (GPa) = 59.93502 68.13443 64.03473
# Shear Modulus (GPa) = 26.65277 62.80398 44.72838
#
# Velocity S-wave (km/s) = 3.95680 6.07388 5.12583
# Velocity P-wave (km/s) = 7.48878 9.44524 8.52333
#
# Compressibility (1/GPa) = 0.01668473
#
# Stress axis : x y z
#
# Youngs Moduli (GPa) = 95.87403 82.72994 53.32261
#
# Poissons Ratio (x) = 0.35129 0.18882
# Poissons Ratio (y) = 0.40710 0.24028
# Poissons Ratio (z) = 0.33950 0.37279
#
# Static dielectric constant tensor:
#      x y z
#    x 1.560410 0.000000 0.000000 
#    y 0.000000 1.640900 0.000000 
#    z 0.000000 0.000000 1.587740 
# 
# From -- ./inp_files/25175.got.cif
#   From: 2010.05.17/outbox.cif.g08.bks.cpg/sg47_13_cif.got.tgz:25175.got - 2010.06.03 20:15:42.
