data_PCOD9383804
_publ_section_title
;
Structure prediction by ZEFSAII (Michael W. Deem and Ramdas Pophale) SiO2 
 PCOD9383804
Probable space group: P M M M
;
_chemical_formula_sum "Si O2"
_cell_formula_units_Z 48
_cell_length_a 8.907471
_cell_length_b 29.846229
_cell_length_c 10.294575
_cell_angle_alpha 90.000000
_cell_angle_beta 90.000000
_cell_angle_gamma 90.000000
_cell_volume 2736.858258
_symmetry_space_group_name_H-M "P M M M"
_symmetry_group_IT_number 47
_symmetry_cell_setting 'orthorhombic'
loop_
_space_group_symop_operation_xyz
x,y,z
-x,-y,z
x,-y,-z
-x,y,-z
-x,-y,-z
x,y,-z
-x,y,z
x,-y,z
loop_
_atom_site_type_symbol
_atom_site_label
_atom_site_fract_x
_atom_site_fract_y
_atom_site_fract_z
Si Si1 0.319459 0.947539 0.649547
Si Si2 0.178317 0.689932 0.155752
Si Si3 0.679441 0.400299 0.751198
Si Si4 0.819885 0.553129 0.500000
Si Si5 0.327614 0.216609 0.842431
Si Si6 0.174827 0.446354 0.000000
Si Si7 0.820308 0.122417 0.847823
O O1 0.278224 0.936306 0.500000
O O2 0.500000 0.942989 0.660161
O O3 0.241586 0.916051 0.754367
O O4 0.283128 0.000000 0.670419
O O5 0.263094 0.650391 0.229713
O O6 0.239039 0.738674 0.196171
O O7 0.000000 0.686825 0.175784
O O8 0.206123 0.684606 0.000000
O O9 0.500000 0.401641 0.747358
O O10 0.749735 0.423295 0.625226
O O11 0.742685 0.427273 0.874504
O O12 0.786440 0.500000 0.500000
O O13 0.000000 0.558179 0.500000
O O14 0.500000 0.217898 0.797920
O O15 0.248474 0.170220 0.805749
O O16 0.328503 0.216971 0.000000
O O17 0.177894 0.500000 0.000000
O O18 0.000000 0.431648 0.000000
O O19 0.000000 0.124558 0.841310
O O20 0.778716 0.114719 0.000000
#
# Coordination Sequence:
#
# PCOD9383804 Si02
#       7
#     8   8   8   4   8   4   8
#     4   9  19  36  56  77 104 142 187 232 280 333
#     4  10  19  33  56  84 116 150 186 227 277 334
#     4  12  24  38  60  88 117 148 188 235 282 334
#     4  11  25  45  65  83 111 153 193 229 280 345
#     4   9  17  30  51  79 111 145 184 228 276 327
#     4  11  23  39  59  85 117 151 189 233 282 333
#     4  10  20  33  51  79 113 146 183 226 275 330
#
# _framework density 17.538357999999999
#
# number of rings (size 3 to 8) (size 9 to 14) (size 15 to 20)
#    0.000    1.833    0.833    4.500    0.000    8.000 
#    0.000    2.500    1.833    0.000    0.000    0.000 
#    0.000    0.000    0.000    0.000    0.000    0.000 
#
# Total GULP energy -268060.694651 kJ/mol
# GULP energy per Si atom -5584.597805 kJ/mol
# Density = 1.749844 g / cm^3
# Si number density = 17.538358 Si / 1000 Ang^3
#
#
#
# Elastic Constant Matrix: (Units=GPa)
#
#
# Indices 1 2 3 4 5 6 
#
# 1 121.0827 84.0012 66.7344 0.0000 0.0000 0.0000
# 2 84.0012 150.3458 82.7358 0.0000 0.0000 0.0000
# 3 66.7344 82.7358 113.1096 0.0000 0.0000 0.0000
# 4 0.0000 0.0000 0.0000 24.2394 0.0000 0.0000
# 5 0.0000 0.0000 0.0000 0.0000 29.0361 0.0000
# 6 0.0000 0.0000 0.0000 0.0000 0.0000 37.7462
#
#
#
# Elastic Compliance Matrix: (Units=1/GPa)
#
#
# Indices 1 2 3 4 5 6 
#
# 1 0.014722 -0.005767 -0.004468 0.000000 0.000000 0.000000
# 2 -0.005767 0.013391 -0.006393 0.000000 0.000000 0.000000
# 3 -0.004468 -0.006393 0.016153 0.000000 0.000000 0.000000
# 4 0.000000 0.000000 0.000000 0.041255 0.000000 0.000000
# 5 0.000000 0.000000 0.000000 0.000000 0.034440 0.000000
# 6 0.000000 0.000000 0.000000 0.000000 0.000000 0.026493
#
#
# Mechanical properties :
#
#
# Convention : Reuss Voigt Hill
#
# Bulk Modulus (GPa) = 90.81358 94.60898 92.71128
# Shear Modulus (GPa) = 27.26583 28.27546 27.77065
#
# Velocity S-wave (km/s) = 3.94717 4.01959 3.98354
# Velocity P-wave (km/s) = 8.52443 8.69505 8.61016
#
# Compressibility (1/GPa) = 0.01101157
#
# Stress axis : x y z
#
# Youngs Moduli (GPa) = 67.92596 74.67437 61.90761
#
# Poissons Ratio (x) = 0.43064 0.27658
# Poissons Ratio (y) = 0.39172 0.39577
# Poissons Ratio (z) = 0.30347 0.47739
#
# Static dielectric constant tensor:
#      x y z
#    x 1.583280 0.000000 0.000000 
#    y 0.000000 1.583930 0.000000 
#    z 0.000000 0.000000 1.561100 
# 
# From -- ./inp_files/2712.got.cif
#   From: 2010.05.17/outbox.cif.g08.bks.cpg/sg47_2_cif.got.tgz:2712.got - 2010.06.03 20:15:42.
