data_PCOD9383947
_publ_section_title
;
Structure prediction by ZEFSAII (Michael W. Deem and Ramdas Pophale) SiO2 
 PCOD9383947
Probable space group: P M M M
;
_chemical_formula_sum "Si O2"
_cell_formula_units_Z 48
_cell_length_a 19.777186
_cell_length_b 14.269146
_cell_length_c 7.960555
_cell_angle_alpha 90.000000
_cell_angle_beta 90.000000
_cell_angle_gamma 90.000000
_cell_volume 2246.496917
_symmetry_space_group_name_H-M "P M M M"
_symmetry_group_IT_number 47
_symmetry_cell_setting 'orthorhombic'
loop_
_space_group_symop_operation_xyz
x,y,z
-x,-y,z
x,-y,-z
-x,y,-z
-x,-y,-z
x,y,-z
-x,y,z
x,-y,z
loop_
_atom_site_type_symbol
_atom_site_label
_atom_site_fract_x
_atom_site_fract_y
_atom_site_fract_z
Si Si1 0.125813 0.000000 0.704413
Si Si2 0.643793 0.817547 0.309954
Si Si3 0.304939 0.366643 0.808980
Si Si4 0.500000 0.109017 0.798304
Si Si5 0.921817 0.208673 0.296011
Si Si6 0.718829 0.000000 0.801266
Si Si7 0.154943 0.603953 0.697186
Si Si8 0.422810 0.500000 0.204808
O O1 0.095464 0.898509 0.759258
O O2 0.123246 0.000000 0.500000
O O3 0.202076 0.000000 0.768761
O O4 0.648727 0.783302 0.500000
O O5 0.679239 0.742117 0.194392
O O6 0.566815 0.839529 0.264230
O O7 0.685039 0.911671 0.285394
O O8 0.236192 0.388678 0.713072
O O9 0.374440 0.413899 0.745530
O O10 0.293981 0.397617 0.000000
O O11 0.500000 0.000000 0.741910
O O12 0.500000 0.108962 0.000000
O O13 0.914476 0.206470 0.500000
O O14 0.877428 0.298380 0.234804
O O15 0.000000 0.227280 0.255843
O O16 0.703119 0.000000 0.000000
O O17 0.137044 0.602093 0.500000
O O18 0.135324 0.500000 0.766882
O O19 0.500000 0.500000 0.267514
O O20 0.427600 0.500000 0.000000
#
# Coordination Sequence:
#
# PCOD9383947 Si02
#       8
#     4   8   8   4   8   4   8   4
#     4  10  19  34  59  87 118 155 196 249 306 357
#     4  12  25  40  60  87 120 156 199 253 309 362
#     4  11  22  39  63  88 117 157 203 253 307 371
#     4  11  23  41  63  86 118 161 206 252 305 370
#     4   9  18  33  56  87 119 155 202 251 303 364
#     4  12  24  40  60  87 118 157 203 245 290 357
#     4  10  20  35  57  85 120 159 201 257 315 369
#     4   9  20  38  59  85 112 149 199 251 302 354
#
# _framework density 21.366599999999998
#
# number of rings (size 3 to 8) (size 9 to 14) (size 15 to 20)
#    0.000    1.500    1.667    4.250    1.167    3.000 
#    0.000    1.667    0.000    4.500    0.000    1.167 
#    0.000    0.000    0.000    0.000    0.000    0.000 
#
# Total GULP energy -267889.406096 kJ/mol
# GULP energy per Si atom -5581.029294 kJ/mol
# Density = 2.131797 g / cm^3
# Si number density = 21.366600 Si / 1000 Ang^3
#
#
#
# Elastic Constant Matrix: (Units=GPa)
#
#
# Indices 1 2 3 4 5 6 
#
# 1 124.6431 61.5168 -2.2621 0.0000 0.0000 0.0000
# 2 61.5168 171.2127 8.8204 0.0000 0.0000 0.0000
# 3 -2.2621 8.8204 41.8195 0.0000 0.0000 0.0000
# 4 0.0000 0.0000 0.0000 11.1552 0.0000 0.0000
# 5 0.0000 0.0000 0.0000 0.0000 52.2307 0.0000
# 6 0.0000 0.0000 0.0000 0.0000 0.0000 50.8102
#
#
#
# Elastic Compliance Matrix: (Units=1/GPa)
#
#
# Indices 1 2 3 4 5 6 
#
# 1 0.009821 -0.003595 0.001289 0.000000 0.000000 0.000000
# 2 -0.003595 0.007221 -0.001717 0.000000 0.000000 0.000000
# 3 0.001289 -0.001717 0.024344 0.000000 0.000000 0.000000
# 4 0.000000 0.000000 0.000000 0.089644 0.000000 0.000000
# 5 0.000000 0.000000 0.000000 0.000000 0.019146 0.000000
# 6 0.000000 0.000000 0.000000 0.000000 0.000000 0.019681
#
#
# Mechanical properties :
#
#
# Convention : Reuss Voigt Hill
#
# Bulk Modulus (GPa) = 29.99420 52.64729 41.32074
# Shear Modulus (GPa) = 26.45275 40.81255 33.63265
#
# Velocity S-wave (km/s) = 3.52240 4.37522 3.97177
# Velocity P-wave (km/s) = 5.53276 7.08639 6.35721
#
# Compressibility (1/GPa) = 0.03333978
#
# Stress axis : x y z
#
# Youngs Moduli (GPa) = 101.82692 138.48798 41.07738
#
# Poissons Ratio (x) = 0.49786 -0.05297
# Poissons Ratio (y) = 0.36606 0.07055
# Poissons Ratio (z) = -0.13130 0.23785
#
# Static dielectric constant tensor:
#      x y z
#    x 1.723610 0.000000 0.000000 
#    y 0.000000 1.833650 0.000000 
#    z 0.000000 0.000000 1.777510 
# 
# From -- ./inp_files/9294.got.cif
#   From: 2010.05.17/outbox.cif.g08.bks.cpg/sg47_5_cif.got.tgz:9294.got - 2010.06.03 20:15:42.
