data_PCOD9383908
_publ_section_title
;
Structure prediction by ZEFSAII (Michael W. Deem and Ramdas Pophale) SiO2 
 PCOD9383908
Probable space group: P M M M
;
_chemical_formula_sum "Si O2"
_cell_formula_units_Z 52
_cell_length_a 17.794397
_cell_length_b 18.509715
_cell_length_c 7.942667
_cell_angle_alpha 90.000000
_cell_angle_beta 90.000000
_cell_angle_gamma 90.000000
_cell_volume 2616.070011
_symmetry_space_group_name_H-M "P M M M"
_symmetry_group_IT_number 47
_symmetry_cell_setting 'orthorhombic'
loop_
_space_group_symop_operation_xyz
x,y,z
-x,-y,z
x,-y,-z
-x,y,-z
-x,-y,-z
x,y,-z
-x,y,z
x,-y,z
loop_
_atom_site_type_symbol
_atom_site_label
_atom_site_fract_x
_atom_site_fract_y
_atom_site_fract_z
Si Si1 0.585459 0.500000 0.799798
Si Si2 0.000000 0.854907 0.200271
Si Si3 0.000000 0.310578 0.800170
Si Si4 0.161200 0.854562 0.701808
Si Si5 0.413852 0.217680 0.293996
Si Si6 0.838479 0.312271 0.297660
Si Si7 0.322000 0.358444 0.702922
Si Si8 0.682080 0.919498 0.293888
O O1 0.500000 0.500000 0.729719
O O2 0.631798 0.570788 0.749077
O O3 0.579764 0.500000 0.000000
O O4 0.000000 0.772072 0.270314
O O5 0.079748 0.886718 0.254945
O O6 0.000000 0.852003 0.000000
O O7 0.079769 0.343271 0.747457
O O8 0.000000 0.306137 0.000000
O O9 0.166164 0.851075 0.500000
O O10 0.165227 0.771274 0.765065
O O11 0.233573 0.898481 0.760938
O O12 0.413359 0.218146 0.500000
O O13 0.500000 0.222700 0.239492
O O14 0.365721 0.286738 0.238319
O O15 0.374109 0.143670 0.240136
O O16 0.835100 0.309297 0.500000
O O17 0.764479 0.354235 0.237264
O O18 0.319883 0.355298 0.500000
O O19 0.681783 0.919404 0.500000
O O20 0.661826 0.000000 0.238679
#
# Coordination Sequence:
#
# PCOD9383908 Si02
#       8
#     4   4   4   8   8   8   8   8
#     4  11  25  41  55  78 113 144 171 211 264 317
#     4   9  17  27  42  66  94 125 167 214 257 302
#     4   9  17  27  43  73 107 135 169 210 256 305
#     4   9  15  27  45  67  96 131 169 208 252 300
#     4   9  16  27  46  73 102 131 168 213 257 304
#     4   9  16  28  49  74 102 134 173 215 254 299
#     4  10  19  34  57  82 105 137 178 216 256 307
#     4   9  16  26  42  67 100 135 170 210 256 305
#
# _framework density 19.877143
#
# number of rings (size 3 to 8) (size 9 to 14) (size 15 to 20)
#    0.000    2.692    1.538    1.154    0.000    4.000 
#    0.000    1.923    0.000    3.231    0.000    3.231 
#    0.000    0.000    0.000    4.615    0.000    4.615 
#
# Total GULP energy -289962.917785 kJ/mol
# GULP energy per Si atom -5576.209957 kJ/mol
# Density = 1.983190 g / cm^3
# Si number density = 19.877143 Si / 1000 Ang^3
#
#
#
# Elastic Constant Matrix: (Units=GPa)
#
#
# Indices 1 2 3 4 5 6 
#
# 1 204.4312 88.3647 14.9412 0.0000 0.0000 0.0000
# 2 88.3647 113.2480 7.0400 0.0000 0.0000 0.0000
# 3 14.9412 7.0400 17.4293 0.0000 0.0000 0.0000
# 4 0.0000 0.0000 0.0000 -1.9086 0.0000 0.0000
# 5 0.0000 0.0000 0.0000 0.0000 -6.3179 0.0000
# 6 0.0000 0.0000 0.0000 0.0000 0.0000 8.4785
#
#
#
# Elastic Compliance Matrix: (Units=1/GPa)
#
#
# Indices 1 2 3 4 5 6 
#
# 1 0.007679 -0.005726 -0.004270 0.000000 0.000000 0.000000
# 2 -0.005726 0.013328 -0.000475 0.000000 0.000000 0.000000
# 3 -0.004270 -0.000475 0.061226 0.000000 0.000000 0.000000
# 4 0.000000 0.000000 0.000000 -0.523950 0.000000 0.000000
# 5 0.000000 0.000000 0.000000 0.000000 -0.158281 0.000000
# 6 0.000000 0.000000 0.000000 0.000000 0.000000 0.117946
#
#
# Mechanical properties :
#
#
# Convention : Reuss Voigt Hill
#
# Bulk Modulus (GPa) = 16.31535 61.75561 39.03548
# Shear Modulus (GPa) = -11.34607 15.03458 1.84425
#
# Velocity S-wave (km/s) = -2.39176 2.75321 0.96428
# Velocity P-wave (km/s) = 0.77369 6.42207 4.57393
#
# Compressibility (1/GPa) = 0.06129197
#
# Stress axis : x y z
#
# Youngs Moduli (GPa) = 130.22886 75.03194 16.33283
#
# Poissons Ratio (x) = 0.42964 0.06974
# Poissons Ratio (y) = 0.74571 0.00775
# Poissons Ratio (z) = 0.55604 0.03561
#
# Static dielectric constant tensor:
#      x y z
#    x 1.725580 0.000000 0.000000 
#    y 0.000000 1.683400 0.000000 
#    z 0.000000 0.000000 1.709640 
# 
# From -- ./inp_files/9629.got.cif
#   From: 2010.05.17/outbox.cif.g08.bks.cpg/sg47_5_cif.got.tgz:9629.got - 2010.06.03 20:15:42.
