data_PCOD9383422
_publ_section_title
;
Structure prediction by ZEFSAII (Michael W. Deem and Ramdas Pophale) SiO2 
 PCOD9383422
Probable space group: P M M M
;
_chemical_formula_sum "Si O2"
_cell_formula_units_Z 48
_cell_length_a 13.955269
_cell_length_b 11.791714
_cell_length_c 18.541325
_cell_angle_alpha 90.000000
_cell_angle_beta 90.000000
_cell_angle_gamma 90.000000
_cell_volume 3051.096305
_symmetry_space_group_name_H-M "P M M M"
_symmetry_group_IT_number 47
_symmetry_cell_setting 'orthorhombic'
loop_
_space_group_symop_operation_xyz
x,y,z
-x,-y,z
x,-y,-z
-x,y,-z
-x,-y,-z
x,y,-z
-x,y,z
x,-y,z
loop_
_atom_site_type_symbol
_atom_site_label
_atom_site_fract_x
_atom_site_fract_y
_atom_site_fract_z
Si Si1 0.383422 0.000000 0.084480
Si Si2 0.884112 0.627036 0.500000
Si Si3 0.384306 0.625837 0.000000
Si Si4 0.385124 0.758204 0.853387
Si Si5 0.115902 0.242948 0.354102
Si Si6 0.225879 0.362221 0.776723
Si Si7 0.883855 0.000000 0.584595
Si Si8 0.110996 0.637115 0.078836
O O1 0.355718 0.886970 0.127788
O O2 0.500000 0.000000 0.080848
O O3 0.351579 0.000000 0.000000
O O4 0.846319 0.500000 0.500000
O O5 0.858343 0.691564 0.427524
O O6 0.000000 0.622783 0.500000
O O7 0.361678 0.689472 0.926614
O O8 0.342098 0.500000 0.000000
O O9 0.500000 0.617779 0.000000
O O10 0.500000 0.755228 0.842726
O O11 0.328776 0.696170 0.789520
O O12 0.169627 0.304388 0.288916
O O13 0.142629 0.112782 0.371311
O O14 0.000000 0.249277 0.343465
O O15 0.230701 0.500000 0.769936
O O16 0.168938 0.331873 0.850336
O O17 0.851291 0.000000 0.500000
O O18 0.000000 0.000000 0.580143
O O19 0.111171 0.500000 0.077325
O O20 0.000000 0.672760 0.085369
O O21 0.147248 0.676177 0.000000
#
# Coordination Sequence:
#
# PCOD9383422 Si02
#       8
#     4   4   4   8   8   8   4   8
#     4   9  16  31  52  70  89 119 165 219 268 310
#     4   9  16  27  47  73 100 127 153 190 247 306
#     4   9  16  27  45  67  90 119 157 204 259 310
#     4  10  20  33  49  69  95 128 167 214 265 310
#     4  10  19  32  51  75 103 134 167 204 248 299
#     4  11  22  31  45  71 103 135 169 210 257 306
#     4   9  16  31  54  78 104 135 167 201 247 302
#     4   8  15  28  43  59  86 128 171 204 236 282
#
# _framework density 15.732049999999999
#
# number of rings (size 3 to 8) (size 9 to 14) (size 15 to 20)
#    0.000    2.500    1.667    2.000    1.167    3.333 
#    0.000    0.000    0.000    0.000    0.000    0.583 
#    0.000    8.667    0.000    0.000    0.000    0.000 
#
# Total GULP energy -267391.344169 kJ/mol
# GULP energy per Si atom -5570.653004 kJ/mol
# Density = 1.569624 g / cm^3
# Si number density = 15.732050 Si / 1000 Ang^3
#
#
#
# Elastic Constant Matrix: (Units=GPa)
#
#
# Indices 1 2 3 4 5 6 
#
# 1 53.7336 34.9123 46.0543 0.0000 0.0000 0.0000
# 2 34.9123 137.8624 62.3836 0.0000 0.0000 0.0000
# 3 46.0543 62.3836 119.0910 0.0000 0.0000 0.0000
# 4 0.0000 0.0000 0.0000 24.1713 0.0000 0.0000
# 5 0.0000 0.0000 0.0000 0.0000 15.7557 0.0000
# 6 0.0000 0.0000 0.0000 0.0000 0.0000 14.6901
#
#
#
# Elastic Compliance Matrix: (Units=1/GPa)
#
#
# Indices 1 2 3 4 5 6 
#
# 1 0.028721 -0.002946 -0.009564 0.000000 0.000000 0.000000
# 2 -0.002946 0.009809 -0.003999 0.000000 0.000000 0.000000
# 3 -0.009564 -0.003999 0.014190 0.000000 0.000000 0.000000
# 4 0.000000 0.000000 0.000000 0.041371 0.000000 0.000000
# 5 0.000000 0.000000 0.000000 0.000000 0.063469 0.000000
# 6 0.000000 0.000000 0.000000 0.000000 0.000000 0.068073
#
#
# Mechanical properties :
#
#
# Convention : Reuss Voigt Hill
#
# Bulk Modulus (GPa) = 50.75305 66.37637 58.56471
# Shear Modulus (GPa) = 18.85229 22.07922 20.46575
#
# Velocity S-wave (km/s) = 3.46546 3.75034 3.61071
# Velocity P-wave (km/s) = 6.95295 7.81260 7.39528
#
# Compressibility (1/GPa) = 0.01970325
#
# Stress axis : x y z
#
# Youngs Moduli (GPa) = 34.81740 101.94447 70.47020
#
# Poissons Ratio (x) = 0.30029 0.67397
# Poissons Ratio (y) = 0.10256 0.28183
# Poissons Ratio (z) = 0.33299 0.40770
#
# Static dielectric constant tensor:
#      x y z
#    x 1.547140 0.000000 0.000000 
#    y 0.000000 1.546720 0.000000 
#    z 0.000000 0.000000 1.512750 
# 
# From -- ./inp_files/23625.got.cif
#   From: 2010.05.17/outbox.cif.g08.bks.cpg/sg47_12_cif.got.tgz:23625.got - 2010.06.03 20:15:42.
