data_PCOD9383581
_publ_section_title
;
Structure prediction by ZEFSAII (Michael W. Deem and Ramdas Pophale) SiO2 
 PCOD9383581
Probable space group: P M M M
;
_chemical_formula_sum "Si O2"
_cell_formula_units_Z 56
_cell_length_a 21.842904
_cell_length_b 7.467059
_cell_length_c 14.997579
_cell_angle_alpha 90.000000
_cell_angle_beta 90.000000
_cell_angle_gamma 90.000000
_cell_volume 2446.138923
_symmetry_space_group_name_H-M "P M M M"
_symmetry_group_IT_number 47
_symmetry_cell_setting 'orthorhombic'
loop_
_space_group_symop_operation_xyz
x,y,z
-x,-y,z
x,-y,-z
-x,y,-z
-x,-y,-z
x,y,-z
-x,y,z
x,-y,z
loop_
_atom_site_type_symbol
_atom_site_label
_atom_site_fract_x
_atom_site_fract_y
_atom_site_fract_z
Si Si1 0.197900 0.701894 0.604524
Si Si2 0.381273 0.713937 0.788167
Si Si3 0.669488 0.719800 0.603518
Si Si4 0.743050 0.785309 0.103756
Si Si5 0.932357 0.295504 0.350994
Si Si6 0.500000 0.280452 0.896462
Si Si7 0.928494 0.286444 0.000000
Si Si8 0.867761 0.796863 0.181193
O O1 0.208028 0.684397 0.500000
O O2 0.192977 0.500000 0.643339
O O3 0.262274 0.782946 0.633752
O O4 0.131017 0.787240 0.613727
O O5 0.387838 0.500000 0.781783
O O6 0.373796 0.776590 0.685355
O O7 0.320348 0.748196 0.846293
O O8 0.439832 0.780177 0.842978
O O9 0.656388 0.773757 0.500000
O O10 0.671490 0.500000 0.602202
O O11 0.800226 0.717923 0.163646
O O12 0.751054 0.000000 0.099183
O O13 0.744094 0.720841 0.000000
O O14 0.934648 0.500000 0.385495
O O15 0.915664 0.297688 0.246531
O O16 0.000000 0.217465 0.366724
O O17 0.500000 0.500000 0.897456
O O18 0.500000 0.224390 0.000000
O O19 0.897675 0.204207 0.085498
O O20 0.918050 0.500000 0.000000
O O21 0.000000 0.252614 0.000000
O O22 0.860957 0.000000 0.214390
#
# Coordination Sequence:
#
# PCOD9383581 Si02
#       8
#     8   8   8   8   8   4   4   8
#     4   8  14  26  45  69  98 130 163 208 266 316
#     4  10  19  32  54  80 105 141 181 211 254 311
#     4   8  14  26  46  74 105 133 168 216 262 306
#     4  10  21  37  53  74 104 132 167 220 270 309
#     4  10  20  32  47  71 100 128 168 219 259 303
#     4   9  18  32  48  74 114 147 177 221 260 299
#     4  11  23  37  53  73  97 126 165 212 255 299
#     4  11  22  37  53  70  97 133 168 205 259 319
#
# _framework density 22.893221
#
# number of rings (size 3 to 8) (size 9 to 14) (size 15 to 20)
#    0.000    2.429    0.714    3.214    0.000    6.000 
#    0.000    2.143    0.000    4.286    0.000    5.000 
#    0.000    1.143    0.000    0.000    0.000    0.000 
#
# Total GULP energy -312286.629909 kJ/mol
# GULP energy per Si atom -5576.546963 kJ/mol
# Density = 2.284111 g / cm^3
# Si number density = 22.893221 Si / 1000 Ang^3
#
#
#
# Elastic Constant Matrix: (Units=GPa)
#
#
# Indices 1 2 3 4 5 6 
#
# 1 146.9291 30.3122 54.5521 0.0000 0.0000 0.0000
# 2 30.3122 55.2108 15.1265 0.0000 0.0000 0.0000
# 3 54.5521 15.1265 123.4436 0.0000 0.0000 0.0000
# 4 0.0000 0.0000 0.0000 81.1992 0.0000 0.0000
# 5 0.0000 0.0000 0.0000 0.0000 60.8431 0.0000
# 6 0.0000 0.0000 0.0000 0.0000 0.0000 5.7308
#
#
#
# Elastic Compliance Matrix: (Units=1/GPa)
#
#
# Indices 1 2 3 4 5 6 
#
# 1 0.008900 -0.003941 -0.003450 0.000000 0.000000 0.000000
# 2 -0.003941 0.020487 -0.000769 0.000000 0.000000 0.000000
# 3 -0.003450 -0.000769 0.009720 0.000000 0.000000 0.000000
# 4 0.000000 0.000000 0.000000 0.012315 0.000000 0.000000
# 5 0.000000 0.000000 0.000000 0.000000 0.016436 0.000000
# 6 0.000000 0.000000 0.000000 0.000000 0.000000 0.174495
#
#
# Mechanical properties :
#
#
# Convention : Reuss Voigt Hill
#
# Bulk Modulus (GPa) = 43.88557 58.39614 51.14086
# Shear Modulus (GPa) = 18.77808 44.59413 31.68611
#
# Velocity S-wave (km/s) = 2.86710 4.41831 3.72436
# Velocity P-wave (km/s) = 5.49287 7.18276 6.39389
#
# Compressibility (1/GPa) = 0.02278653
#
# Stress axis : x y z
#
# Youngs Moduli (GPa) = 112.35873 48.81198 102.88314
#
# Poissons Ratio (x) = 0.19237 0.35497
# Poissons Ratio (y) = 0.44282 0.07909
# Poissons Ratio (z) = 0.38766 0.03752
#
# Static dielectric constant tensor:
#      x y z
#    x 1.851270 0.000000 0.000000 
#    y 0.000000 1.897840 0.000000 
#    z 0.000000 0.000000 1.873890 
# 
# From -- ./inp_files/25196.got.cif
#   From: 2010.05.17/outbox.cif.g08.bks.cpg/sg47_13_cif.got.tgz:25196.got - 2010.06.03 20:15:42.
