data_PCOD9383763
_publ_section_title
;
Structure prediction by ZEFSAII (Michael W. Deem and Ramdas Pophale) SiO2 
 PCOD9383763
Probable space group: P M M M
;
_chemical_formula_sum "Si O2"
_cell_formula_units_Z 48
_cell_length_a 7.948226
_cell_length_b 14.535810
_cell_length_c 21.339380
_cell_angle_alpha 90.000000
_cell_angle_beta 90.000000
_cell_angle_gamma 90.000000
_cell_volume 2465.421858
_symmetry_space_group_name_H-M "P M M M"
_symmetry_group_IT_number 47
_symmetry_cell_setting 'orthorhombic'
loop_
_space_group_symop_operation_xyz
x,y,z
-x,-y,z
x,-y,-z
-x,y,-z
-x,-y,-z
x,y,-z
-x,y,z
x,-y,z
loop_
_atom_site_type_symbol
_atom_site_label
_atom_site_fract_x
_atom_site_fract_y
_atom_site_fract_z
Si Si1 0.798716 0.104724 0.748841
Si Si2 0.297213 0.396377 0.571724
Si Si3 0.300662 0.207653 0.874520
Si Si4 0.201937 0.791592 0.625486
Si Si5 0.796955 0.603862 0.071974
Si Si6 0.705811 0.106581 0.000000
Si Si7 0.205877 0.106448 0.500000
O O1 0.767068 0.160942 0.812073
O O2 0.732632 0.159742 0.688222
O O3 0.000000 0.098089 0.741439
O O4 0.732517 0.000000 0.752548
O O5 0.239354 0.376720 0.500000
O O6 0.500000 0.396867 0.570531
O O7 0.241147 0.500000 0.587938
O O8 0.241301 0.315773 0.617455
O O9 0.500000 0.194955 0.873571
O O10 0.262780 0.315324 0.883131
O O11 0.234203 0.157230 0.937205
O O12 0.264740 0.842634 0.562784
O O13 0.000000 0.800832 0.625728
O O14 0.742540 0.500000 0.088352
O O15 0.000000 0.604492 0.071566
O O16 0.740561 0.622486 0.000000
O O17 0.500000 0.110193 0.000000
O O18 0.754593 0.000000 0.000000
O O19 0.000000 0.109105 0.500000
O O20 0.255293 0.000000 0.500000
#
# Coordination Sequence:
#
# PCOD9383763 Si02
#       7
#     8   8   8   8   8   4   4
#     4  10  22  39  56  77 110 150 187 224 271 328
#     4   9  18  33  53  78 110 145 176 214 271 330
#     4  11  21  35  56  82 111 145 183 227 276 324
#     4  10  19  33  55  82 107 137 180 227 271 316
#     4   9  18  34  57  84 114 146 178 219 274 331
#     4   9  18  32  50  75 106 136 173 223 272 317
#     4   9  16  28  50  79 106 132 169 219 270 317
#
# _framework density 19.469283999999998
#
# number of rings (size 3 to 8) (size 9 to 14) (size 15 to 20)
#    0.000    2.333    1.667    2.500    0.000    4.333 
#    0.000    2.500    0.000    5.000    0.000    0.000 
#    0.000    0.000    0.000    0.000    0.000    0.000 
#
# Total GULP energy -267905.895336 kJ/mol
# GULP energy per Si atom -5581.372819 kJ/mol
# Density = 1.942497 g / cm^3
# Si number density = 19.469284 Si / 1000 Ang^3
#
#
#
# Elastic Constant Matrix: (Units=GPa)
#
#
# Indices 1 2 3 4 5 6 
#
# 1 16.2108 3.1749 9.6694 0.0000 0.0000 0.0000
# 2 3.1749 179.1553 103.7554 0.0000 0.0000 0.0000
# 3 9.6694 103.7554 158.0047 0.0000 0.0000 0.0000
# 4 0.0000 0.0000 0.0000 27.0881 0.0000 0.0000
# 5 0.0000 0.0000 0.0000 0.0000 15.1257 0.0000
# 6 0.0000 0.0000 0.0000 0.0000 0.0000 144.4338
#
#
#
# Elastic Compliance Matrix: (Units=1/GPa)
#
#
# Indices 1 2 3 4 5 6 
#
# 1 0.064399 0.001841 -0.005150 0.000000 0.000000 0.000000
# 2 0.001841 0.009060 -0.006062 0.000000 0.000000 0.000000
# 3 -0.005150 -0.006062 0.010625 0.000000 0.000000 0.000000
# 4 0.000000 0.000000 0.000000 0.036917 0.000000 0.000000
# 5 0.000000 0.000000 0.000000 0.000000 0.066113 0.000000
# 6 0.000000 0.000000 0.000000 0.000000 0.000000 0.006924
#
#
# Mechanical properties :
#
#
# Convention : Reuss Voigt Hill
#
# Bulk Modulus (GPa) = 15.30411 65.17448 40.23930
# Shear Modulus (GPa) = 21.31669 53.11426 37.21548
#
# Velocity S-wave (km/s) = 3.31250 5.22879 4.37681
# Velocity P-wave (km/s) = 4.74425 8.36672 6.80110
#
# Compressibility (1/GPa) = 0.06534193
#
# Stress axis : x y z
#
# Youngs Moduli (GPa) = 15.52824 110.37800 94.12028
#
# Poissons Ratio (x) = -0.20325 0.48474
# Poissons Ratio (y) = -0.02859 0.57055
# Poissons Ratio (z) = 0.07997 0.66910
#
# Static dielectric constant tensor:
#      x y z
#    x 1.708080 0.000000 0.000000 
#    y 0.000000 1.682410 0.000000 
#    z 0.000000 0.000000 1.663430 
# 
# From -- ./inp_files/26500.got.cif
#   From: 2010.05.17/outbox.cif.g08.bks.cpg/sg47_14_cif.got.tgz:26500.got - 2010.06.03 20:15:42.
