data_PCOD9383588
_publ_section_title
;
Structure prediction by ZEFSAII (Michael W. Deem and Ramdas Pophale) SiO2 
 PCOD9383588
Probable space group: P M M M
;
_chemical_formula_sum "Si O2"
_cell_formula_units_Z 52
_cell_length_a 15.082466
_cell_length_b 7.730425
_cell_length_c 21.087497
_cell_angle_alpha 90.000000
_cell_angle_beta 90.000000
_cell_angle_gamma 90.000000
_cell_volume 2458.672931
_symmetry_space_group_name_H-M "P M M M"
_symmetry_group_IT_number 47
_symmetry_cell_setting 'orthorhombic'
loop_
_space_group_symop_operation_xyz
x,y,z
-x,-y,z
x,-y,-z
-x,y,-z
-x,-y,-z
x,y,-z
-x,y,z
x,-y,z
loop_
_atom_site_type_symbol
_atom_site_label
_atom_site_fract_x
_atom_site_fract_y
_atom_site_fract_z
Si Si1 0.194289 0.208246 0.572079
Si Si2 0.903170 0.292192 0.098256
Si Si3 0.094914 0.709134 0.751240
Si Si4 0.000000 0.798287 0.577393
Si Si5 0.400889 0.294319 0.193422
Si Si6 0.294336 0.201470 0.931849
Si Si7 0.277688 0.291929 0.304706
O O1 0.209728 0.267774 0.500000
O O2 0.096774 0.277706 0.594411
O O3 0.271914 0.253114 0.620954
O O4 0.186434 0.000000 0.570332
O O5 0.900263 0.500000 0.089282
O O6 0.901663 0.257662 0.173612
O O7 0.812091 0.219757 0.071654
O O8 0.000000 0.232006 0.074726
O O9 0.095023 0.500000 0.744461
O O10 0.183824 0.778997 0.720951
O O11 0.000000 0.773658 0.726435
O O12 0.000000 0.795203 0.500000
O O13 0.000000 0.000000 0.596077
O O14 0.500000 0.223450 0.183880
O O15 0.408714 0.500000 0.202143
O O16 0.339469 0.272671 0.131524
O O17 0.353296 0.225885 0.257203
O O18 0.316644 0.000000 0.932233
O O19 0.323376 0.277948 0.000000
O O20 0.276973 0.500000 0.298309
#
# Coordination Sequence:
#
# PCOD9383588 Si02
#       7
#     8   8   8   4   8   8   8
#     4   9  18  32  49  72 107 149 187 219 255 308
#     4   9  17  33  57  81 110 151 194 230 265 313
#     4   8  14  26  46  73 105 137 170 216 270 315
#     4   7  12  26  45  65  99 147 188 217 246 289
#     4  10  22  42  65  85 105 134 179 233 286 342
#     4  11  24  39  56  82 117 151 181 222 277 333
#     4  10  19  32  54  81 107 135 172 222 277 325
#
# _framework density 21.149619999999999
#
# number of rings (size 3 to 8) (size 9 to 14) (size 15 to 20)
#    0.000    2.692    1.538    2.308    1.077    3.385 
#    0.000    3.077    0.000    1.846    0.000    3.231 
#    0.000    0.000    0.000    0.000    0.000    0.000 
#
# Total GULP energy -289997.502164 kJ/mol
# GULP energy per Si atom -5576.875042 kJ/mol
# Density = 2.110148 g / cm^3
# Si number density = 21.149620 Si / 1000 Ang^3
#
#
#
# Elastic Constant Matrix: (Units=GPa)
#
#
# Indices 1 2 3 4 5 6 
#
# 1 118.3862 4.7718 70.0842 0.0000 0.0000 0.0000
# 2 4.7718 31.6404 5.7925 0.0000 0.0000 0.0000
# 3 70.0842 5.7925 131.0208 0.0000 0.0000 0.0000
# 4 0.0000 0.0000 0.0000 15.8064 0.0000 0.0000
# 5 0.0000 0.0000 0.0000 0.0000 12.4995 0.0000
# 6 0.0000 0.0000 0.0000 0.0000 0.0000 0.2115
#
#
#
# Elastic Compliance Matrix: (Units=1/GPa)
#
#
# Indices 1 2 3 4 5 6 
#
# 1 0.012375 -0.000660 -0.006590 0.000000 0.000000 0.000000
# 2 -0.000660 0.031898 -0.001057 0.000000 0.000000 0.000000
# 3 -0.006590 -0.001057 0.011204 0.000000 0.000000 0.000000
# 4 0.000000 0.000000 0.000000 0.063266 0.000000 0.000000
# 5 0.000000 0.000000 0.000000 0.000000 0.080003 0.000000
# 6 0.000000 0.000000 0.000000 0.000000 0.000000 4.728934
#
#
# Mechanical properties :
#
#
# Convention : Reuss Voigt Hill
#
# Bulk Modulus (GPa) = 25.73157 49.14935 37.44046
# Shear Modulus (GPa) = 1.00862 19.06339 10.03601
#
# Velocity S-wave (km/s) = 0.69133 3.00552 2.18072
# Velocity P-wave (km/s) = 3.58191 5.94420 4.90732
#
# Compressibility (1/GPa) = 0.03886276
#
# Stress axis : x y z
#
# Youngs Moduli (GPa) = 80.80838 31.34966 89.25121
#
# Poissons Ratio (x) = 0.02068 0.58819
# Poissons Ratio (y) = 0.05332 0.09437
# Poissons Ratio (z) = 0.53255 0.03315
#
# Static dielectric constant tensor:
#      x y z
#    x 1.779500 0.000000 0.000000 
#    y 0.000000 1.769590 0.000000 
#    z 0.000000 0.000000 1.821850 
# 
# From -- ./inp_files/30879.got.cif
#   From: 2010.05.17/outbox.cif.g08.bks.cpg/sg47_16_cif.got.tgz:30879.got - 2010.06.03 20:15:42.
