data_PCOD9383684
_publ_section_title
;
Structure prediction by ZEFSAII (Michael W. Deem and Ramdas Pophale) SiO2 
 PCOD9383684
Probable space group: P M M M
;
_chemical_formula_sum "Si O2"
_cell_formula_units_Z 40
_cell_length_a 8.225487
_cell_length_b 20.431246
_cell_length_c 13.262237
_cell_angle_alpha 90.000000
_cell_angle_beta 90.000000
_cell_angle_gamma 90.000000
_cell_volume 2228.811079
_symmetry_space_group_name_H-M "P M M M"
_symmetry_group_IT_number 47
_symmetry_cell_setting 'orthorhombic'
loop_
_space_group_symop_operation_xyz
x,y,z
-x,-y,z
x,-y,-z
-x,y,-z
-x,-y,-z
x,y,-z
-x,y,z
x,-y,z
loop_
_atom_site_type_symbol
_atom_site_label
_atom_site_fract_x
_atom_site_fract_y
_atom_site_fract_z
Si Si1 0.693547 0.168418 0.823514
Si Si2 0.190840 0.361017 0.319053
Si Si3 0.193647 0.074058 0.000000
Si Si4 0.304104 0.314991 0.112947
Si Si5 0.196500 0.217770 0.613141
Si Si6 0.813086 0.500000 0.619493
O O1 0.500000 0.164670 0.823276
O O2 0.740264 0.238755 0.871274
O O3 0.750464 0.172808 0.707150
O O4 0.755782 0.112848 0.898880
O O5 0.214056 0.353873 0.199886
O O6 0.255879 0.292620 0.365245
O O7 0.263988 0.430605 0.350530
O O8 0.000000 0.362502 0.347761
O O9 0.000000 0.071229 0.000000
O O10 0.259608 0.000000 0.000000
O O11 0.500000 0.320157 0.126539
O O12 0.263870 0.335456 0.000000
O O13 0.247807 0.198139 0.500000
O O14 0.000000 0.219333 0.614976
O O15 0.823585 0.500000 0.500000
O O16 0.000000 0.500000 0.661040
#
# Coordination Sequence:
#
# PCOD9383684 Si02
#       6
#     8   8   4   8   8   4
#     4  10  19  33  53  77 104 135 171 208 248 294
#     4   9  17  28  45  70  93 123 166 208 252 299
#     4  11  23  37  55  81 111 138 165 198 241 295
#     4   9  17  31  48  67  94 126 159 199 247 295
#     4   9  17  30  49  75 105 134 169 214 260 305
#     4   9  16  28  46  65  90 122 157 203 254 301
#
# _framework density 17.946788000000002
#
# number of rings (size 3 to 8) (size 9 to 14) (size 15 to 20)
#    0.000    2.600    1.000    1.500    0.000    4.800 
#    0.000    1.000    0.000    6.000    0.000    4.200 
#    0.000    0.000    0.000    0.000    0.000    0.000 
#
# Total GULP energy -222816.132907 kJ/mol
# GULP energy per Si atom -5570.403323 kJ/mol
# Density = 1.790594 g / cm^3
# Si number density = 17.946788 Si / 1000 Ang^3
#
#
#
# Elastic Constant Matrix: (Units=GPa)
#
#
# Indices 1 2 3 4 5 6 
#
# 1 11.8314 16.4709 17.3659 0.0000 0.0000 0.0000
# 2 16.4709 108.5810 61.4788 0.0000 0.0000 0.0000
# 3 17.3659 61.4788 137.3097 0.0000 0.0000 0.0000
# 4 0.0000 0.0000 0.0000 17.7520 0.0000 0.0000
# 5 0.0000 0.0000 0.0000 0.0000 -179.2158 0.0000
# 6 0.0000 0.0000 0.0000 0.0000 0.0000 6.1995
#
#
#
# Elastic Compliance Matrix: (Units=1/GPa)
#
#
# Indices 1 2 3 4 5 6 
#
# 1 0.114913 -0.012328 -0.009014 0.000000 0.000000 0.000000
# 2 -0.012328 0.013660 -0.004557 0.000000 0.000000 0.000000
# 3 -0.009014 -0.004557 0.010463 0.000000 0.000000 0.000000
# 4 0.000000 0.000000 0.000000 0.056332 0.000000 0.000000
# 5 0.000000 0.000000 0.000000 0.000000 -0.005580 0.000000
# 6 0.000000 0.000000 0.000000 0.000000 0.000000 0.161303
#
#
# Mechanical properties :
#
#
# Convention : Reuss Voigt Hill
#
# Bulk Modulus (GPa) = 11.46274 49.81704 30.63989
# Shear Modulus (GPa) = 11.57494 -20.22575 -4.32541
#
# Velocity S-wave (km/s) = 2.54236 -3.36070 -1.55414
# Velocity P-wave (km/s) = 3.87544 3.57203 3.72682
#
# Compressibility (1/GPa) = 0.08723919
#
# Stress axis : x y z
#
# Youngs Moduli (GPa) = 8.70222 73.20698 95.57401
#
# Poissons Ratio (x) = 0.90249 0.86147
# Poissons Ratio (y) = 0.10728 0.43552
# Poissons Ratio (z) = 0.07844 0.33360
#
# Static dielectric constant tensor:
#      x y z
#    x 1.637650 0.000000 0.000000 
#    y 0.000000 1.627390 0.000000 
#    z 0.000000 0.000000 1.621790 
# 
# From -- ./inp_files/15104.got.cif
#   From: 2010.05.17/outbox.cif.g08.bks.cpg/sg47_8_cif.got.tgz:15104.got - 2010.06.03 20:15:42.
