data_PCOD9383218
_publ_section_title
;
Structure prediction by ZEFSAII (Michael W. Deem and Ramdas Pophale) SiO2 
 PCOD9383218
Probable space group: P M M M
;
_chemical_formula_sum "Si O2"
_cell_formula_units_Z 64
_cell_length_a 28.666166
_cell_length_b 14.883802
_cell_length_c 8.752945
_cell_angle_alpha 90.000000
_cell_angle_beta 90.000000
_cell_angle_gamma 90.000000
_cell_volume 3734.544983
_symmetry_space_group_name_H-M "P M M M"
_symmetry_group_IT_number 47
_symmetry_cell_setting 'orthorhombic'
loop_
_space_group_symop_operation_xyz
x,y,z
-x,-y,z
x,-y,-z
-x,y,-z
-x,-y,-z
x,y,-z
-x,y,z
x,-y,z
loop_
_atom_site_type_symbol
_atom_site_label
_atom_site_fract_x
_atom_site_fract_y
_atom_site_fract_z
Si Si1 0.446000 0.896065 0.683975
Si Si2 0.138913 0.287402 0.318571
Si Si3 0.167858 0.098350 0.814424
Si Si4 0.327809 0.598774 0.682226
Si Si5 0.267230 0.145410 0.827570
Si Si6 0.637785 0.784964 0.183898
Si Si7 0.053890 0.605190 0.816643
Si Si8 0.232469 0.648188 0.172970
O O1 0.442221 0.889549 0.500000
O O2 0.500000 0.877737 0.724493
O O3 0.409890 0.828663 0.760508
O O4 0.435883 0.000000 0.726291
O O5 0.143224 0.285205 0.500000
O O6 0.143495 0.185980 0.253731
O O7 0.090980 0.332703 0.266604
O O8 0.181993 0.345191 0.249644
O O9 0.221870 0.099229 0.757784
O O10 0.147485 0.000000 0.779608
O O11 0.169106 0.108286 0.000000
O O12 0.330384 0.608159 0.500000
O O13 0.346518 0.500000 0.725782
O O14 0.353435 0.683788 0.757532
O O15 0.273599 0.601878 0.733224
O O16 0.318564 0.153421 0.757422
O O17 0.250264 0.248760 0.836969
O O18 0.272629 0.109395 0.000000
O O19 0.640487 0.783911 0.000000
O O20 0.061962 0.500000 0.780255
O O21 0.000000 0.626013 0.778467
O O22 0.059121 0.615040 0.000000
O O23 0.229295 0.613157 0.000000
#
# Coordination Sequence:
#
# PCOD9383218 Si02
#       8
#     8   8   8   8   8   8   8   8
#     4   9  19  36  55  74  99 132 168 208 258 312
#     4  11  21  32  50  76 107 139 169 206 254 307
#     4   9  17  31  51  72  99 139 181 214 244 287
#     4  10  20  33  50  74 105 139 174 211 251 298
#     4   7  13  26  43  66  93 122 159 200 240 280
#     4  10  19  31  51  77 104 135 169 207 253 305
#     4   9  19  37  59  79  98 124 162 208 257 309
#     4   9  17  31  49  68  95 132 173 211 244 284
#
# _framework density 17.137294000000001
#
# number of rings (size 3 to 8) (size 9 to 14) (size 15 to 20)
#    0.000    2.750    0.000    4.500    0.000    3.250 
#    0.000    3.125    0.000    0.750    0.000    5.250 
#    0.000    0.000    0.000    0.000    0.000    0.000 
#
# Total GULP energy -356522.231024 kJ/mol
# GULP energy per Si atom -5570.659860 kJ/mol
# Density = 1.709829 g / cm^3
# Si number density = 17.137294 Si / 1000 Ang^3
#
#
#
# Elastic Constant Matrix: (Units=GPa)
#
#
# Indices 1 2 3 4 5 6 
#
# 1 108.1024 66.2767 42.9857 0.0000 0.0000 0.0000
# 2 66.2767 100.0010 37.4959 0.0000 0.0000 0.0000
# 3 42.9857 37.4959 53.9747 0.0000 0.0000 0.0000
# 4 0.0000 0.0000 0.0000 13.1349 0.0000 0.0000
# 5 0.0000 0.0000 0.0000 0.0000 24.6606 0.0000
# 6 0.0000 0.0000 0.0000 0.0000 0.0000 23.5469
#
#
#
# Elastic Compliance Matrix: (Units=1/GPa)
#
#
# Indices 1 2 3 4 5 6 
#
# 1 0.017877 -0.008803 -0.008122 0.000000 0.000000 0.000000
# 2 -0.008803 0.017857 -0.005394 0.000000 0.000000 0.000000
# 3 -0.008122 -0.005394 0.028743 0.000000 0.000000 0.000000
# 4 0.000000 0.000000 0.000000 0.076133 0.000000 0.000000
# 5 0.000000 0.000000 0.000000 0.000000 0.040550 0.000000
# 6 0.000000 0.000000 0.000000 0.000000 0.000000 0.042468
#
#
# Mechanical properties :
#
#
# Convention : Reuss Voigt Hill
#
# Bulk Modulus (GPa) = 50.40746 61.73276 56.07011
# Shear Modulus (GPa) = 18.18973 19.95647 19.07310
#
# Velocity S-wave (km/s) = 3.26147 3.41619 3.33972
# Velocity P-wave (km/s) = 6.60762 7.18757 6.90369
#
# Compressibility (1/GPa) = 0.01983833
#
# Stress axis : x y z
#
# Youngs Moduli (GPa) = 55.93758 56.00140 34.79089
#
# Poissons Ratio (x) = 0.49297 0.28258
# Poissons Ratio (y) = 0.49241 0.18768
# Poissons Ratio (z) = 0.45433 0.30209
#
# Static dielectric constant tensor:
#      x y z
#    x 1.576470 0.000000 0.000000 
#    y 0.000000 1.599320 0.000000 
#    z 0.000000 0.000000 1.581770 
# 
# From -- ./inp_files/14316.got.cif
#   From: 2010.05.17/outbox.cif.g08.bks.cpg/sg47_8_cif.got.tgz:14316.got - 2010.06.03 20:15:42.
