data_PCOD9383573
_publ_section_title
;
Structure prediction by ZEFSAII (Michael W. Deem and Ramdas Pophale) SiO2 
 PCOD9383573
Probable space group: P M M M
;
_chemical_formula_sum "Si O2"
_cell_formula_units_Z 52
_cell_length_a 13.131520
_cell_length_b 8.416773
_cell_length_c 27.152684
_cell_angle_alpha 90.000000
_cell_angle_beta 90.000000
_cell_angle_gamma 90.000000
_cell_volume 3001.051023
_symmetry_space_group_name_H-M "P M M M"
_symmetry_group_IT_number 47
_symmetry_cell_setting 'orthorhombic'
loop_
_space_group_symop_operation_xyz
x,y,z
-x,-y,z
x,-y,-z
-x,y,-z
-x,-y,-z
x,y,-z
-x,y,z
x,-y,z
loop_
_atom_site_type_symbol
_atom_site_label
_atom_site_fract_x
_atom_site_fract_y
_atom_site_fract_z
Si Si1 0.693603 0.308366 0.106084
Si Si2 0.500000 0.692451 0.171167
Si Si3 0.883784 0.191735 0.278693
Si Si4 0.116055 0.191689 0.834011
Si Si5 0.381332 0.305946 0.000000
Si Si6 0.500000 0.810999 0.282926
Si Si7 0.381075 0.306586 0.445370
Si Si8 0.302936 0.309712 0.658151
O O1 0.691729 0.500000 0.105511
O O2 0.600422 0.256157 0.141211
O O3 0.799733 0.253766 0.128822
O O4 0.672012 0.253151 0.050404
O O5 0.500000 0.500000 0.172686
O O6 0.500000 0.755258 0.226455
O O7 0.860298 0.242257 0.222339
O O8 0.800192 0.254013 0.316138
O O9 0.000000 0.241359 0.289856
O O10 0.881460 0.000000 0.279247
O O11 0.000000 0.242117 0.845264
O O12 0.117689 0.000000 0.834573
O O13 0.380584 0.500000 0.000000
O O14 0.500000 0.258712 0.000000
O O15 0.399667 0.748178 0.310452
O O16 0.500000 0.000000 0.284601
O O17 0.348615 0.252969 0.500000
O O18 0.500000 0.262650 0.438543
O O19 0.378335 0.500000 0.445731
O O20 0.317839 0.252129 0.398136
O O21 0.304999 0.500000 0.657731
#
# Coordination Sequence:
#
# PCOD9383573 Si02
#       8
#     8   4   8   8   4   4   8   8
#     4  10  19  32  54  79 100 128 164 205 249 296
#     4  10  20  33  50  75 103 128 164 208 250 293
#     4   9  19  36  55  74 101 140 177 206 250 312
#     4   9  19  36  54  71  97 134 171 206 247 296
#     4   9  16  32  54  75 102 134 163 194 245 306
#     4  12  24  34  46  70 107 145 168 195 254 319
#     4   8  14  27  48  72  99 133 169 206 254 304
#     4  11  20  32  52  78 105 130 168 219 260 296
#
# _framework density 17.327262000000001
#
# number of rings (size 3 to 8) (size 9 to 14) (size 15 to 20)
#    0.000    2.385    1.538    3.462    0.000    4.308 
#    0.000    2.308    0.000    5.538    0.000    3.231 
#    0.000    0.000    0.000    0.000    0.000    0.000 
#
# Total GULP energy -290079.993984 kJ/mol
# GULP energy per Si atom -5578.461423 kJ/mol
# Density = 1.728782 g / cm^3
# Si number density = 17.327262 Si / 1000 Ang^3
#
#
#
# Elastic Constant Matrix: (Units=GPa)
#
#
# Indices 1 2 3 4 5 6 
#
# 1 135.9354 21.4180 115.7067 0.0000 0.0000 0.0000
# 2 21.4180 15.5683 24.6933 0.0000 0.0000 0.0000
# 3 115.7067 24.6933 191.8724 0.0000 0.0000 0.0000
# 4 0.0000 0.0000 0.0000 -3.1177 0.0000 0.0000
# 5 0.0000 0.0000 0.0000 0.0000 19.8091 0.0000
# 6 0.0000 0.0000 0.0000 0.0000 0.0000 28.6855
#
#
#
# Elastic Compliance Matrix: (Units=1/GPa)
#
#
# Indices 1 2 3 4 5 6 
#
# 1 0.015944 -0.008399 -0.008534 0.000000 0.000000 0.000000
# 2 -0.008399 0.085132 -0.005891 0.000000 0.000000 0.000000
# 3 -0.008534 -0.005891 0.011116 0.000000 0.000000 0.000000
# 4 0.000000 0.000000 0.000000 -0.320746 0.000000 0.000000
# 5 0.000000 0.000000 0.000000 0.000000 0.050482 0.000000
# 6 0.000000 0.000000 0.000000 0.000000 0.000000 0.034861
#
#
# Mechanical properties :
#
#
# Convention : Reuss Voigt Hill
#
# Bulk Modulus (GPa) = 15.02757 74.11246 44.57002
# Shear Modulus (GPa) = -90.28234 21.17924 -34.55155
#
# Velocity S-wave (km/s) = -7.22616 3.49994 -4.47033
# Velocity P-wave (km/s) = 7.80586 7.69401 0.93103
#
# Compressibility (1/GPa) = 0.06654434
#
# Stress axis : x y z
#
# Youngs Moduli (GPa) = 62.72133 11.74640 89.95898
#
# Poissons Ratio (x) = 0.09865 0.76768
# Poissons Ratio (y) = 0.52678 0.52999
# Poissons Ratio (z) = 0.53525 0.06920
#
# Static dielectric constant tensor:
#      x y z
#    x 1.572210 0.000000 0.000000 
#    y 0.000000 1.600020 0.000000 
#    z 0.000000 0.000000 1.594000 
# 
# From -- ./inp_files/33606.got.cif
#   From: 2010.05.17/outbox.cif.g08.bks.cpg/sg47_17_cif.got.tgz:33606.got - 2010.06.03 20:15:42.
