data_PCOD9383172
_publ_section_title
;
Structure prediction by ZEFSAII (Michael W. Deem and Ramdas Pophale) SiO2 
 PCOD9383172
Probable space group: P M M M
;
_chemical_formula_sum "Si O2"
_cell_formula_units_Z 40
_cell_length_a 9.421851
_cell_length_b 15.376999
_cell_length_c 13.577169
_cell_angle_alpha 90.000000
_cell_angle_beta 90.000000
_cell_angle_gamma 90.000000
_cell_volume 1967.057440
_symmetry_space_group_name_H-M "P M M M"
_symmetry_group_IT_number 47
_symmetry_cell_setting 'orthorhombic'
loop_
_space_group_symop_operation_xyz
x,y,z
-x,-y,z
x,-y,-z
-x,y,-z
-x,-y,-z
x,y,-z
-x,y,z
x,-y,z
loop_
_atom_site_type_symbol
_atom_site_label
_atom_site_fract_x
_atom_site_fract_y
_atom_site_fract_z
Si Si1 0.335102 0.862016 0.889083
Si Si2 0.161818 0.142253 0.301481
Si Si3 0.838390 0.397135 0.500000
Si Si4 0.160740 0.350302 0.707802
Si Si5 0.337464 0.896199 0.500000
Si Si6 0.664104 0.350278 0.107879
O O1 0.500000 0.887466 0.875419
O O2 0.240692 0.891903 0.796879
O O3 0.332823 0.755885 0.889408
O O4 0.290326 0.889008 0.000000
O O5 0.152909 0.246159 0.286533
O O6 0.251937 0.128192 0.400866
O O7 0.000000 0.109522 0.311521
O O8 0.849922 0.500000 0.500000
O O9 0.770065 0.370148 0.397592
O O10 0.000000 0.358120 0.500000
O O11 0.246035 0.383379 0.801063
O O12 0.000000 0.385582 0.707666
O O13 0.500000 0.861371 0.500000
O O14 0.346476 0.000000 0.500000
O O15 0.500000 0.375757 0.116531
O O16 0.717534 0.376685 0.000000
#
# Coordination Sequence:
#
# PCOD9383172 Si02
#       6
#     8   8   4   8   4   8
#     4   8  14  26  45  70 100 130 158 189 227 276
#     4  10  19  31  50  75 101 125 153 196 244 286
#     4   9  17  30  47  65  90 125 160 196 238 279
#     4   9  17  29  47  72  97 121 155 195 233 277
#     4  11  24  39  53  69  92 125 164 200 234 281
#     4   8  14  25  42  66  95 124 153 187 230 277
#
# _framework density 20.334941000000001
#
# number of rings (size 3 to 8) (size 9 to 14) (size 15 to 20)
#    0.000    3.000    0.000    2.700    0.000    4.000 
#    0.000    4.500    0.000    2.400    0.000    8.400 
#    0.000    0.000    0.000    0.000    0.000    0.000 
#
# Total GULP energy -222972.106716 kJ/mol
# GULP energy per Si atom -5574.302668 kJ/mol
# Density = 2.028866 g / cm^3
# Si number density = 20.334941 Si / 1000 Ang^3
#
#
#
# Elastic Constant Matrix: (Units=GPa)
#
#
# Indices 1 2 3 4 5 6 
#
# 1 113.7251 0.4616 114.1303 0.0000 0.0000 0.0000
# 2 0.4616 25.6518 3.0789 0.0000 0.0000 0.0000
# 3 114.1303 3.0789 248.8003 0.0000 0.0000 0.0000
# 4 0.0000 0.0000 0.0000 -38.3534 0.0000 0.0000
# 5 0.0000 0.0000 0.0000 0.0000 7.2803 0.0000
# 6 0.0000 0.0000 0.0000 0.0000 0.0000 -15.2403
#
#
#
# Elastic Compliance Matrix: (Units=1/GPa)
#
#
# Indices 1 2 3 4 5 6 
#
# 1 0.016304 0.000605 -0.007486 0.000000 0.000000 0.000000
# 2 0.000605 0.039064 -0.000761 0.000000 0.000000 0.000000
# 3 -0.007486 -0.000761 0.007463 0.000000 0.000000 0.000000
# 4 0.000000 0.000000 0.000000 -0.026073 0.000000 0.000000
# 5 0.000000 0.000000 0.000000 0.000000 0.137357 0.000000
# 6 0.000000 0.000000 0.000000 0.000000 0.000000 -0.065615
#
#
# Mechanical properties :
#
#
# Convention : Reuss Voigt Hill
#
# Bulk Modulus (GPa) = 21.03215 69.27987 45.15601
# Shear Modulus (GPa) = 35.80832 8.77107 22.28970
#
# Velocity S-wave (km/s) = 4.20089 2.07910 3.31437
# Velocity P-wave (km/s) = 5.82197 6.31719 6.07463
#
# Compressibility (1/GPa) = 0.04754626
#
# Stress axis : x y z
#
# Youngs Moduli (GPa) = 61.33563 25.59893 133.99658
#
# Poissons Ratio (x) = -0.01549 1.00315
# Poissons Ratio (y) = -0.03712 0.10197
# Poissons Ratio (z) = 0.45918 0.01948
#
# Static dielectric constant tensor:
#      x y z
#    x 1.718630 0.000000 0.000000 
#    y 0.000000 1.740510 0.000000 
#    z 0.000000 0.000000 1.706540 
# 
# From -- ./inp_files/15142.got.cif
#   From: 2010.05.17/outbox.cif.g08.bks.cpg/sg47_8_cif.got.tgz:15142.got - 2010.06.03 20:15:42.
