data_PCOD9383930
_publ_section_title
;
Structure prediction by ZEFSAII (Michael W. Deem and Ramdas Pophale) SiO2 
 PCOD9383930
Probable space group: P M M M
;
_chemical_formula_sum "Si O2"
_cell_formula_units_Z 64
_cell_length_a 23.765816
_cell_length_b 14.705903
_cell_length_c 9.925472
_cell_angle_alpha 90.000000
_cell_angle_beta 90.000000
_cell_angle_gamma 90.000000
_cell_volume 3468.930477
_symmetry_space_group_name_H-M "P M M M"
_symmetry_group_IT_number 47
_symmetry_cell_setting 'orthorhombic'
loop_
_space_group_symop_operation_xyz
x,y,z
-x,-y,z
x,-y,-z
-x,y,-z
-x,-y,-z
x,y,-z
-x,y,z
x,-y,z
loop_
_atom_site_type_symbol
_atom_site_label
_atom_site_fract_x
_atom_site_fract_y
_atom_site_fract_z
Si Si1 0.751941 0.603629 0.842653
Si Si2 0.336585 0.896530 0.663254
Si Si3 0.932649 0.762131 0.151349
Si Si4 0.565761 0.762017 0.660321
Si Si5 0.877945 0.106980 0.651450
Si Si6 0.384186 0.395722 0.156793
Si Si7 0.931348 0.603819 0.348021
Si Si8 0.766915 0.770507 0.656633
O O1 0.768449 0.500000 0.806861
O O2 0.683725 0.608781 0.831595
O O3 0.775179 0.681524 0.746349
O O4 0.766246 0.618519 0.000000
O O5 0.332480 0.900739 0.500000
O O6 0.395482 0.848434 0.696317
O O7 0.286671 0.828997 0.706558
O O8 0.331382 0.000000 0.713249
O O9 0.917328 0.851410 0.234887
O O10 0.912266 0.675904 0.238213
O O11 0.000000 0.754782 0.143868
O O12 0.909819 0.762984 0.000000
O O13 0.573538 0.745071 0.500000
O O14 0.500000 0.778406 0.684527
O O15 0.587363 0.676230 0.745090
O O16 0.901297 0.121955 0.500000
O O17 0.819956 0.162387 0.660643
O O18 0.868266 0.000000 0.667700
O O19 0.400757 0.500000 0.187109
O O20 0.398157 0.377284 0.000000
O O21 0.912985 0.628553 0.500000
O O22 0.914445 0.500000 0.319955
O O23 0.000000 0.604818 0.349063
O O24 0.757261 0.744667 0.500000
#
# Coordination Sequence:
#
# PCOD9383930 Si02
#       8
#     8   8   8   8   8   8   8   8
#     4   9  18  33  54  80 109 140 173 211 259 316
#     4   9  17  31  52  76 102 133 169 213 265 316
#     4  10  21  36  55  81 113 148 184 222 267 321
#     4  10  20  32  48  75 107 137 174 220 267 314
#     4  10  22  39  58  81 108 139 179 227 274 320
#     4   9  18  33  52  73 100 138 179 214 256 315
#     4   8  14  27  50  79 109 142 180 220 261 307
#     4  10  19  34  58  84 106 132 172 220 266 313
#
# _framework density 18.449490999999998
#
# number of rings (size 3 to 8) (size 9 to 14) (size 15 to 20)
#    0.000    2.625    1.250    1.875    0.000    4.750 
#    0.000    6.875    0.000    3.000    0.000    0.875 
#    0.000    0.000    0.000    0.000    0.000    0.000 
#
# Total GULP energy -357043.408754 kJ/mol
# GULP energy per Si atom -5578.803262 kJ/mol
# Density = 1.840750 g / cm^3
# Si number density = 18.449491 Si / 1000 Ang^3
#
#
#
# Elastic Constant Matrix: (Units=GPa)
#
#
# Indices 1 2 3 4 5 6 
#
# 1 35.0826 23.1259 28.2439 0.0000 0.0000 0.0000
# 2 23.1259 145.6258 84.0663 0.0000 0.0000 0.0000
# 3 28.2439 84.0663 98.1663 0.0000 0.0000 0.0000
# 4 0.0000 0.0000 0.0000 -145.7854 0.0000 0.0000
# 5 0.0000 0.0000 0.0000 0.0000 15.2102 0.0000
# 6 0.0000 0.0000 0.0000 0.0000 0.0000 19.6108
#
#
#
# Elastic Compliance Matrix: (Units=1/GPa)
#
#
# Indices 1 2 3 4 5 6 
#
# 1 0.037118 0.000535 -0.011137 0.000000 0.000000 0.000000
# 2 0.000535 0.013588 -0.011791 0.000000 0.000000 0.000000
# 3 -0.011137 -0.011791 0.023488 0.000000 0.000000 0.000000
# 4 0.000000 0.000000 0.000000 -0.006859 0.000000 0.000000
# 5 0.000000 0.000000 0.000000 0.000000 0.065745 0.000000
# 6 0.000000 0.000000 0.000000 0.000000 0.000000 0.050992
#
#
# Mechanical properties :
#
#
# Convention : Reuss Voigt Hill
#
# Bulk Modulus (GPa) = 34.00391 61.08297 47.54344
# Shear Modulus (GPa) = 20.95018 -12.63028 4.15995
#
# Velocity S-wave (km/s) = 3.37344 -2.61930 1.50322
# Velocity P-wave (km/s) = 5.80037 4.90229 5.37014
#
# Compressibility (1/GPa) = 0.02940838
#
# Stress axis : x y z
#
# Youngs Moduli (GPa) = 26.94118 73.59250 42.57455
#
# Poissons Ratio (x) = -0.03937 0.47417
# Poissons Ratio (y) = -0.01441 0.50198
# Poissons Ratio (z) = 0.30006 0.86769
#
# Static dielectric constant tensor:
#      x y z
#    x 1.657720 0.000000 0.000000 
#    y 0.000000 1.617610 0.000000 
#    z 0.000000 0.000000 1.628010 
# 
# From -- ./inp_files/12753.got.cif
#   From: 2010.05.17/outbox.cif.g08.bks.cpg/sg47_7_cif.got.tgz:12753.got - 2010.06.03 20:15:42.
