data_PCOD9383382
_publ_section_title
;
Structure prediction by ZEFSAII (Michael W. Deem and Ramdas Pophale) SiO2 
 PCOD9383382
Probable space group: P M M M
;
_chemical_formula_sum "Si O2"
_cell_formula_units_Z 40
_cell_length_a 25.062581
_cell_length_b 8.972534
_cell_length_c 10.359999
_cell_angle_alpha 90.000000
_cell_angle_beta 90.000000
_cell_angle_gamma 90.000000
_cell_volume 2329.703326
_symmetry_space_group_name_H-M "P M M M"
_symmetry_group_IT_number 47
_symmetry_cell_setting 'orthorhombic'
loop_
_space_group_symop_operation_xyz
x,y,z
-x,-y,z
x,-y,-z
-x,y,-z
-x,-y,-z
x,y,-z
-x,y,z
x,-y,z
loop_
_atom_site_type_symbol
_atom_site_label
_atom_site_fract_x
_atom_site_fract_y
_atom_site_fract_z
Si Si1 0.383042 0.178291 0.751442
Si Si2 0.833015 0.829558 0.842976
Si Si3 0.941025 0.674593 0.156872
Si Si4 0.563635 0.678480 0.500000
Si Si5 0.436122 0.673216 0.000000
Si Si6 0.277144 0.676207 0.154766
O O1 0.409515 0.249076 0.625205
O O2 0.322373 0.233110 0.770676
O O3 0.385877 0.000000 0.748435
O O4 0.414248 0.243988 0.874543
O O5 0.889610 0.764762 0.797223
O O6 0.781964 0.730507 0.807895
O O7 0.825573 0.000000 0.801995
O O8 0.834847 0.828258 0.000000
O O9 0.935534 0.500000 0.189816
O O10 0.000000 0.726639 0.199273
O O11 0.940967 0.682306 0.000000
O O12 0.571583 0.500000 0.500000
O O13 0.500000 0.706258 0.500000
O O14 0.417966 0.500000 0.000000
O O15 0.500000 0.674328 0.000000
O O16 0.283225 0.500000 0.176237
O O17 0.283677 0.703292 0.000000
#
# Coordination Sequence:
#
# PCOD9383382 Si02
#       6
#     8   8   8   4   4   8
#     4  12  24  38  59  85 112 139 174 222 269 313
#     4   9  16  24  36  57  86 118 158 208 259 305
#     4   8  13  21  32  47  72 111 159 204 247 301
#     4  11  25  45  65  83 109 145 180 213 258 323
#     4  11  23  39  59  83 111 143 178 213 256 313
#     4  10  19  32  51  72  99 134 173 213 259 316
#
# _framework density 17.169568000000002
#
# number of rings (size 3 to 8) (size 9 to 14) (size 15 to 20)
#    0.000    2.000    1.000    4.800    0.000    7.600 
#    0.000    2.000    0.000    0.000    0.000    0.000 
#    0.000    0.000    0.000    0.900    0.000   17.000 
#
# Total GULP energy -223196.622464 kJ/mol
# GULP energy per Si atom -5579.915562 kJ/mol
# Density = 1.713049 g / cm^3
# Si number density = 17.169568 Si / 1000 Ang^3
#
#
#
# Elastic Constant Matrix: (Units=GPa)
#
#
# Indices 1 2 3 4 5 6 
#
# 1 143.1623 80.2977 46.4022 0.0000 0.0000 0.0000
# 2 80.2977 133.9842 49.2644 0.0000 0.0000 0.0000
# 3 46.4022 49.2644 77.6804 0.0000 0.0000 0.0000
# 4 0.0000 0.0000 0.0000 21.8813 0.0000 0.0000
# 5 0.0000 0.0000 0.0000 0.0000 12.3529 0.0000
# 6 0.0000 0.0000 0.0000 0.0000 0.0000 -69.5812
#
#
#
# Elastic Compliance Matrix: (Units=1/GPa)
#
#
# Indices 1 2 3 4 5 6 
#
# 1 0.011079 -0.005486 -0.003139 0.000000 0.000000 0.000000
# 2 -0.005486 0.012449 -0.004618 0.000000 0.000000 0.000000
# 3 -0.003139 -0.004618 0.017677 0.000000 0.000000 0.000000
# 4 0.000000 0.000000 0.000000 0.045701 0.000000 0.000000
# 5 0.000000 0.000000 0.000000 0.000000 0.080952 0.000000
# 6 0.000000 0.000000 0.000000 0.000000 0.000000 -0.014372
#
#
# Mechanical properties :
#
#
# Convention : Reuss Voigt Hill
#
# Bulk Modulus (GPa) = 67.93732 78.52837 73.23284
# Shear Modulus (GPa) = 27.04438 4.85479 15.94958
#
# Velocity S-wave (km/s) = 3.97310 1.68336 3.05117
# Velocity P-wave (km/s) = 7.79113 7.04376 7.42685
#
# Compressibility (1/GPa) = 0.01471945
#
# Stress axis : x y z
#
# Youngs Moduli (GPa) = 90.25717 80.32558 56.56923
#
# Poissons Ratio (x) = 0.44064 0.17759
# Poissons Ratio (y) = 0.49513 0.26126
# Poissons Ratio (z) = 0.28334 0.37098
#
# Static dielectric constant tensor:
#      x y z
#    x 1.598560 0.000000 0.000000 
#    y 0.000000 1.571910 0.000000 
#    z 0.000000 0.000000 1.566270 
# 
# From -- ./inp_files/12984.got.cif
#   From: 2010.05.17/outbox.cif.g08.bks.cpg/sg47_7_cif.got.tgz:12984.got - 2010.06.03 20:15:42.
