data_PCOD9383484
_publ_section_title
;
Structure prediction by ZEFSAII (Michael W. Deem and Ramdas Pophale) SiO2 
 PCOD9383484
Probable space group: P M M M
;
_chemical_formula_sum "Si O2"
_cell_formula_units_Z 52
_cell_length_a 7.536058
_cell_length_b 22.802327
_cell_length_c 13.677467
_cell_angle_alpha 90.000000
_cell_angle_beta 90.000000
_cell_angle_gamma 90.000000
_cell_volume 2350.331263
_symmetry_space_group_name_H-M "P M M M"
_symmetry_group_IT_number 47
_symmetry_cell_setting 'orthorhombic'
loop_
_space_group_symop_operation_xyz
x,y,z
-x,-y,z
x,-y,-z
-x,y,-z
-x,-y,-z
x,y,-z
-x,y,z
x,-y,z
loop_
_atom_site_type_symbol
_atom_site_label
_atom_site_fract_x
_atom_site_fract_y
_atom_site_fract_z
Si Si1 0.284677 0.687864 0.393375
Si Si2 0.706713 0.387269 0.893058
Si Si3 0.716122 0.931331 0.390303
Si Si4 0.716804 0.564621 0.312472
Si Si5 0.717094 0.068012 0.000000
Si Si6 0.293526 0.870877 0.805589
Si Si7 0.202032 0.262192 0.813786
O O1 0.230273 0.709127 0.500000
O O2 0.500000 0.691092 0.387403
O O3 0.233103 0.619747 0.378731
O O4 0.211729 0.722178 0.301026
O O5 0.500000 0.403992 0.897375
O O6 0.779738 0.420243 0.797791
O O7 0.714442 0.317825 0.868905
O O8 0.785336 0.398826 0.000000
O O9 0.776931 0.914671 0.500000
O O10 0.500000 0.928104 0.393194
O O11 0.779789 0.891872 0.299471
O O12 0.761036 0.000000 0.373762
O O13 0.500000 0.564567 0.311247
O O14 0.774628 0.500000 0.342861
O O15 0.783866 0.097621 0.900611
O O16 0.500000 0.073700 0.000000
O O17 0.759786 0.000000 0.000000
O O18 0.500000 0.888178 0.801669
O O19 0.284427 0.801553 0.823716
O O20 0.000000 0.259029 0.846849
#
# Coordination Sequence:
#
# PCOD9383484 Si02
#       7
#     8   8   8   8   4   8   8
#     4   9  18  34  55  77 103 137 175 214 258 308
#     4   9  18  33  53  74  99 133 172 214 259 307
#     4   8  14  26  47  75 102 126 157 202 252 300
#     4   8  14  26  47  79 111 131 157 205 263 318
#     4   9  18  32  53  81 107 133 168 215 266 313
#     4  10  19  32  52  77 103 133 171 214 260 310
#     4  11  23  36  50  72 103 137 175 217 259 306
#
# _framework density 22.124541000000001
#
# number of rings (size 3 to 8) (size 9 to 14) (size 15 to 20)
#    0.000    2.846    0.000    3.231    1.077    3.692 
#    0.000    4.615    0.000    9.692    0.000    9.692 
#    0.000    0.000    0.000    0.000    0.000    0.000 
#
# Total GULP energy -290156.924862 kJ/mol
# GULP energy per Si atom -5579.940863 kJ/mol
# Density = 2.207418 g / cm^3
# Si number density = 22.124541 Si / 1000 Ang^3
#
#
#
# Elastic Constant Matrix: (Units=GPa)
#
#
# Indices 1 2 3 4 5 6 
#
# 1 53.9137 -13.3684 3.9380 0.0000 0.0000 0.0000
# 2 -13.3684 67.7133 6.7388 0.0000 0.0000 0.0000
# 3 3.9380 6.7388 53.6939 0.0000 0.0000 0.0000
# 4 0.0000 0.0000 0.0000 -0.7501 0.0000 0.0000
# 5 0.0000 0.0000 0.0000 0.0000 66.1896 0.0000
# 6 0.0000 0.0000 0.0000 0.0000 0.0000 -102.7759
#
#
#
# Elastic Compliance Matrix: (Units=1/GPa)
#
#
# Indices 1 2 3 4 5 6 
#
# 1 0.019704 0.004085 -0.001958 0.000000 0.000000 0.000000
# 2 0.004085 0.015802 -0.002283 0.000000 0.000000 0.000000
# 3 -0.001958 -0.002283 0.019054 0.000000 0.000000 0.000000
# 4 0.000000 0.000000 0.000000 -1.333136 0.000000 0.000000
# 5 0.000000 0.000000 0.000000 0.000000 0.015108 0.000000
# 6 0.000000 0.000000 0.000000 0.000000 0.000000 -0.009730
#
#
# Mechanical properties :
#
#
# Convention : Reuss Voigt Hill
#
# Bulk Modulus (GPa) = 18.43362 18.88199 18.65780
# Shear Modulus (GPa) = -3.98469 4.40023 0.20777
#
# Velocity S-wave (km/s) = -1.34348 1.41179 0.30678
# Velocity P-wave (km/s) = 2.43788 3.34821 2.92863
#
# Compressibility (1/GPa) = 0.05424870
#
# Stress axis : x y z
#
# Youngs Moduli (GPa) = 50.75097 63.28395 52.48198
#
# Poissons Ratio (x) = -0.25851 0.10275
# Poissons Ratio (y) = -0.20731 0.11980
# Poissons Ratio (z) = 0.09936 0.14446
#
# Static dielectric constant tensor:
#      x y z
#    x 1.874610 0.000000 0.000000 
#    y 0.000000 1.763660 0.000000 
#    z 0.000000 0.000000 1.815060 
# 
# From -- ./inp_files/11030.got.cif
#   From: 2010.05.17/outbox.cif.g08.bks.cpg/sg47_6_cif.got.tgz:11030.got - 2010.06.03 20:15:42.
