data_PCOD9383490
_publ_section_title
;
Structure prediction by ZEFSAII (Michael W. Deem and Ramdas Pophale) SiO2 
 PCOD9383490
Probable space group: P M M M
;
_chemical_formula_sum "Si O2"
_cell_formula_units_Z 64
_cell_length_a 16.049947
_cell_length_b 13.845689
_cell_length_c 16.333354
_cell_angle_alpha 90.000000
_cell_angle_beta 90.000000
_cell_angle_gamma 90.000000
_cell_volume 3629.639978
_symmetry_space_group_name_H-M "P M M M"
_symmetry_group_IT_number 47
_symmetry_cell_setting 'orthorhombic'
loop_
_space_group_symop_operation_xyz
x,y,z
-x,-y,z
x,-y,-z
-x,y,-z
-x,-y,-z
x,y,-z
-x,y,z
x,-y,z
loop_
_atom_site_type_symbol
_atom_site_label
_atom_site_fract_x
_atom_site_fract_y
_atom_site_fract_z
Si Si1 0.398877 0.818014 0.910161
Si Si2 0.900046 0.115606 0.089719
Si Si3 0.843966 0.112681 0.733401
Si Si4 0.245141 0.608361 0.402127
Si Si5 0.647726 0.892036 0.261697
Si Si6 0.597661 0.606933 0.863138
Si Si7 0.094884 0.748732 0.595969
Si Si8 0.408074 0.312184 0.319813
O O1 0.500000 0.817945 0.900703
O O2 0.361952 0.878402 0.835925
O O3 0.369747 0.705981 0.902968
O O4 0.378720 0.855898 0.000000
O O5 0.861854 0.152713 0.174966
O O6 0.000000 0.128557 0.094057
O O7 0.884320 0.000000 0.088536
O O8 0.871729 0.153313 0.000000
O O9 0.745132 0.118819 0.717483
O O10 0.891798 0.166182 0.660931
O O11 0.867944 0.000000 0.733824
O O12 0.245965 0.603519 0.500000
O O13 0.241019 0.500000 0.368494
O O14 0.163733 0.669628 0.380312
O O15 0.330185 0.657572 0.373605
O O16 0.599225 0.801799 0.299984
O O17 0.619902 0.000000 0.284826
O O18 0.500000 0.602608 0.886731
O O19 0.633295 0.500000 0.880429
O O20 0.599950 0.630358 0.766201
O O21 0.108933 0.776671 0.500000
O O22 0.000000 0.712753 0.601228
O O23 0.500000 0.333340 0.353921
#
# Coordination Sequence:
#
# PCOD9383490 Si02
#       8
#     8   8   8   8   8   8   8   8
#     4   9  18  30  43  64  96 134 178 226 272 321
#     4   8  14  25  42  67 100 135 170 212 264 318
#     4  10  19  32  52  77 105 140 185 229 271 321
#     4  10  21  37  57  82 110 136 166 210 264 320
#     4  10  20  33  49  70  98 137 182 224 267 317
#     4   8  14  25  43  67  93 125 166 210 260 317
#     4  10  21  37  57  82 113 146 178 215 264 323
#     4  10  19  33  53  76 104 136 174 218 263 313
#
# _framework density 17.632603
#
# number of rings (size 3 to 8) (size 9 to 14) (size 15 to 20)
#    0.000    2.625    1.250    2.250    0.000    4.250 
#    0.000    5.625    0.000    0.375    0.000    0.875 
#    0.000    0.500    0.000    2.625    0.000    0.250 
#
# Total GULP energy -356468.650425 kJ/mol
# GULP energy per Si atom -5569.822663 kJ/mol
# Density = 1.759247 g / cm^3
# Si number density = 17.632603 Si / 1000 Ang^3
#
#
#
# Elastic Constant Matrix: (Units=GPa)
#
#
# Indices 1 2 3 4 5 6 
#
# 1 76.1111 25.5237 27.3994 0.0000 0.0000 0.0000
# 2 25.5237 66.5500 23.8224 0.0000 0.0000 0.0000
# 3 27.3994 23.8224 39.3642 0.0000 0.0000 0.0000
# 4 0.0000 0.0000 0.0000 1.6209 0.0000 0.0000
# 5 0.0000 0.0000 0.0000 0.0000 24.2211 0.0000
# 6 0.0000 0.0000 0.0000 0.0000 0.0000 -4.0909
#
#
#
# Elastic Compliance Matrix: (Units=1/GPa)
#
#
# Indices 1 2 3 4 5 6 
#
# 1 0.018016 -0.003090 -0.010670 0.000000 0.000000 0.000000
# 2 -0.003090 0.019712 -0.009778 0.000000 0.000000 0.000000
# 3 -0.010670 -0.009778 0.038748 0.000000 0.000000 0.000000
# 4 0.000000 0.000000 0.000000 0.616931 0.000000 0.000000
# 5 0.000000 0.000000 0.000000 0.000000 0.041286 0.000000
# 6 0.000000 0.000000 0.000000 0.000000 0.000000 -0.244446
#
#
# Mechanical properties :
#
#
# Convention : Reuss Voigt Hill
#
# Bulk Modulus (GPa) = 34.01443 37.27957 35.64700
# Shear Modulus (GPa) = 9.13869 11.36888 10.25379
#
# Velocity S-wave (km/s) = 2.27905 2.54198 2.41410
# Velocity P-wave (km/s) = 5.12425 5.45929 5.29442
#
# Compressibility (1/GPa) = 0.02939929
#
# Stress axis : x y z
#
# Youngs Moduli (GPa) = 55.50603 50.73130 25.80766
#
# Poissons Ratio (x) = 0.15677 0.27537
# Poissons Ratio (y) = 0.17152 0.25235
# Poissons Ratio (z) = 0.59225 0.49606
#
# Static dielectric constant tensor:
#      x y z
#    x 1.610610 0.000000 0.000000 
#    y 0.000000 1.617180 0.000000 
#    z 0.000000 0.000000 1.624110 
# 
# From -- ./inp_files/28379.got.cif
#   From: 2010.05.17/outbox.cif.g08.bks.cpg/sg47_15_cif.got.tgz:28379.got - 2010.06.03 20:15:42.
