data_PCOD9383975
_publ_section_title
;
Structure prediction by ZEFSAII (Michael W. Deem and Ramdas Pophale) SiO2 
 PCOD9383975
Probable space group: P M M M
;
_chemical_formula_sum "Si O2"
_cell_formula_units_Z 56
_cell_length_a 16.430815
_cell_length_b 7.917347
_cell_length_c 20.739173
_cell_angle_alpha 90.000000
_cell_angle_beta 90.000000
_cell_angle_gamma 90.000000
_cell_volume 2697.927157
_symmetry_space_group_name_H-M "P M M M"
_symmetry_group_IT_number 47
_symmetry_cell_setting 'orthorhombic'
loop_
_space_group_symop_operation_xyz
x,y,z
-x,-y,z
x,-y,-z
-x,y,-z
-x,-y,-z
x,y,-z
-x,y,z
x,-y,z
loop_
_atom_site_type_symbol
_atom_site_label
_atom_site_fract_x
_atom_site_fract_y
_atom_site_fract_z
Si Si1 0.410721 0.297461 0.283639
Si Si2 0.095374 0.692696 0.500000
Si Si3 0.188241 0.194238 0.618166
Si Si4 0.364279 0.205037 0.426538
Si Si5 0.500000 0.309458 0.077748
Si Si6 0.907543 0.200392 0.738981
Si Si7 0.251896 0.693934 0.796739
Si Si8 0.676971 0.196263 0.073963
O O1 0.500000 0.236282 0.259255
O O2 0.409665 0.500000 0.274954
O O3 0.408276 0.259923 0.360550
O O4 0.327730 0.234265 0.247332
O O5 0.128416 0.500000 0.500000
O O6 0.125219 0.794044 0.438933
O O7 0.000000 0.680763 0.500000
O O8 0.272108 0.264032 0.589521
O O9 0.141175 0.276188 0.677713
O O10 0.207285 0.000000 0.635633
O O11 0.387553 0.260678 0.500000
O O12 0.367642 0.000000 0.428656
O O13 0.500000 0.500000 0.104826
O O14 0.582419 0.214796 0.093150
O O15 0.500000 0.322729 0.000000
O O16 0.836936 0.222516 0.791511
O O17 0.000000 0.265920 0.748850
O O18 0.916533 0.000000 0.727707
O O19 0.242965 0.500000 0.777062
O O20 0.276927 0.704878 0.871009
O O21 0.699929 0.000000 0.075942
O O22 0.686519 0.256789 0.000000
#
# Coordination Sequence:
#
# PCOD9383975 Si02
#       8
#     8   4   8   8   4   8   8   8
#     4  10  23  41  58  81 114 153 197 241 290 348
#     4  11  23  33  45  73 108 139 176 225 283 346
#     4  10  19  35  56  77 104 142 184 229 286 350
#     4  10  20  36  58  82 108 142 190 246 296 344
#     4   9  17  31  53  83 121 161 198 237 284 341
#     4  10  21  38  61  86 113 148 191 240 293 354
#     4  11  23  38  61  89 120 158 195 242 298 353
#     4  10  21  37  58  87 123 162 204 246 290 348
#
# _framework density 20.756675000000001
#
# number of rings (size 3 to 8) (size 9 to 14) (size 15 to 20)
#    0.000    1.857    2.143    1.714    1.000    5.714 
#    0.000    1.429    0.000    0.429    0.000    3.000 
#    0.000    0.000    0.000    0.000    0.000    0.000 
#
# Total GULP energy -312013.169660 kJ/mol
# GULP energy per Si atom -5571.663744 kJ/mol
# Density = 2.070943 g / cm^3
# Si number density = 20.756675 Si / 1000 Ang^3
#
#
#
# Elastic Constant Matrix: (Units=GPa)
#
#
# Indices 1 2 3 4 5 6 
#
# 1 99.3467 7.9550 35.4708 0.0000 0.0000 0.0000
# 2 7.9550 31.0912 2.4931 0.0000 0.0000 0.0000
# 3 35.4708 2.4931 93.1236 0.0000 0.0000 0.0000
# 4 0.0000 0.0000 0.0000 18.9799 0.0000 0.0000
# 5 0.0000 0.0000 0.0000 0.0000 18.8626 0.0000
# 6 0.0000 0.0000 0.0000 0.0000 0.0000 17.1330
#
#
#
# Elastic Compliance Matrix: (Units=1/GPa)
#
#
# Indices 1 2 3 4 5 6 
#
# 1 0.011869 -0.002680 -0.004449 0.000000 0.000000 0.000000
# 2 -0.002680 0.032838 0.000142 0.000000 0.000000 0.000000
# 3 -0.004449 0.000142 0.012429 0.000000 0.000000 0.000000
# 4 0.000000 0.000000 0.000000 0.052687 0.000000 0.000000
# 5 0.000000 0.000000 0.000000 0.000000 0.053015 0.000000
# 6 0.000000 0.000000 0.000000 0.000000 0.000000 0.058367
#
#
# Mechanical properties :
#
#
# Convention : Reuss Voigt Hill
#
# Bulk Modulus (GPa) = 23.16902 35.04436 29.10669
# Shear Modulus (GPa) = 20.03468 22.83792 21.43630
#
# Velocity S-wave (km/s) = 3.11016 3.32063 3.21712
# Velocity P-wave (km/s) = 4.90754 5.62336 5.27760
#
# Compressibility (1/GPa) = 0.04316108
#
# Stress axis : x y z
#
# Youngs Moduli (GPa) = 84.25398 30.45273 80.45511
#
# Poissons Ratio (x) = 0.08161 0.35795
# Poissons Ratio (y) = 0.22580 -0.01140
# Poissons Ratio (z) = 0.37485 -0.00432
#
# Static dielectric constant tensor:
#      x y z
#    x 1.792980 0.000000 0.000000 
#    y 0.000000 1.790840 0.000000 
#    z 0.000000 0.000000 1.758880 
# 
# From -- ./inp_files/7375.got.cif
#   From: 2010.05.17/outbox.cif.g08.bks.cpg/sg47_4_cif.got.tgz:7375.got - 2010.06.03 20:15:42.
