data_PCOD9383742
_publ_section_title
;
Structure prediction by ZEFSAII (Michael W. Deem and Ramdas Pophale) SiO2 
 PCOD9383742
Probable space group: P M M M
;
_chemical_formula_sum "Si O2"
_cell_formula_units_Z 64
_cell_length_a 20.911265
_cell_length_b 17.824844
_cell_length_c 8.495024
_cell_angle_alpha 90.000000
_cell_angle_beta 90.000000
_cell_angle_gamma 90.000000
_cell_volume 3166.435556
_symmetry_space_group_name_H-M "P M M M"
_symmetry_group_IT_number 47
_symmetry_cell_setting 'orthorhombic'
loop_
_space_group_symop_operation_xyz
x,y,z
-x,-y,z
x,-y,-z
-x,y,-z
-x,-y,-z
x,y,-z
-x,y,z
x,-y,z
loop_
_atom_site_type_symbol
_atom_site_label
_atom_site_fract_x
_atom_site_fract_y
_atom_site_fract_z
Si Si1 0.296027 0.289464 0.316899
Si Si2 0.708006 0.122990 0.187555
Si Si3 0.793754 0.417144 0.813899
Si Si4 0.072273 0.377560 0.684585
Si Si5 0.926593 0.215203 0.180950
Si Si6 0.843014 0.917395 0.313514
Si Si7 0.429738 0.702652 0.185268
Si Si8 0.431420 0.115550 0.813783
O O1 0.291692 0.269669 0.500000
O O2 0.288405 0.212715 0.218412
O O3 0.243086 0.350473 0.272819
O O4 0.366699 0.321260 0.277528
O O5 0.768332 0.087754 0.272428
O O6 0.638637 0.094160 0.246953
O O7 0.711660 0.109760 0.000000
O O8 0.770319 0.500000 0.766227
O O9 0.869019 0.413170 0.776281
O O10 0.783817 0.408077 0.000000
O O11 0.077275 0.395681 0.500000
O O12 0.079866 0.288124 0.710500
O O13 0.000000 0.397076 0.737823
O O14 0.879185 0.149358 0.226756
O O15 0.000000 0.188813 0.194005
O O16 0.915499 0.238987 0.000000
O O17 0.851904 0.908594 0.500000
O O18 0.866825 0.000000 0.266292
O O19 0.500000 0.675683 0.238351
O O20 0.431534 0.793610 0.196290
O O21 0.422527 0.684703 0.000000
O O22 0.500000 0.089653 0.746919
O O23 0.431796 0.096685 0.000000
#
# Coordination Sequence:
#
# PCOD9383742 Si02
#       8
#     8   8   8   8   8   8   8   8
#     4  11  21  33  53  80 111 143 177 221 272 325
#     4  10  19  33  55  79 105 139 180 223 265 315
#     4  11  24  40  57  77 105 143 185 226 266 312
#     4  10  21  38  61  87 114 142 172 211 262 319
#     4  10  21  38  61  86 110 137 173 217 260 308
#     4  11  24  39  54  75 107 144 179 219 268 320
#     4   8  14  27  48  74 105 139 176 219 265 315
#     4   7  11  22  43  72 101 128 163 210 260 304
#
# _framework density 20.212001999999998
#
# number of rings (size 3 to 8) (size 9 to 14) (size 15 to 20)
#    0.000    2.250    0.000    5.250    0.000    4.250 
#    0.000    2.500    0.000    1.875    0.000    5.250 
#    0.000    0.000    0.000    0.000    0.000    0.000 
#
# Total GULP energy -357223.093700 kJ/mol
# GULP energy per Si atom -5581.610839 kJ/mol
# Density = 2.016600 g / cm^3
# Si number density = 20.212002 Si / 1000 Ang^3
#
#
#
# Elastic Constant Matrix: (Units=GPa)
#
#
# Indices 1 2 3 4 5 6 
#
# 1 78.0146 23.2042 2.2168 0.0000 0.0000 0.0000
# 2 23.2042 46.0045 -5.2596 0.0000 0.0000 0.0000
# 3 2.2168 -5.2596 21.9935 0.0000 0.0000 0.0000
# 4 0.0000 0.0000 0.0000 11.6972 0.0000 0.0000
# 5 0.0000 0.0000 0.0000 0.0000 18.0606 0.0000
# 6 0.0000 0.0000 0.0000 0.0000 0.0000 -38.0988
#
#
#
# Elastic Compliance Matrix: (Units=1/GPa)
#
#
# Indices 1 2 3 4 5 6 
#
# 1 0.015337 -0.008135 -0.003491 0.000000 0.000000 0.000000
# 2 -0.008135 0.026663 0.007196 0.000000 0.000000 0.000000
# 3 -0.003491 0.007196 0.047541 0.000000 0.000000 0.000000
# 4 0.000000 0.000000 0.000000 0.085491 0.000000 0.000000
# 5 0.000000 0.000000 0.000000 0.000000 0.055369 0.000000
# 6 0.000000 0.000000 0.000000 0.000000 0.000000 -0.026248
#
#
# Mechanical properties :
#
#
# Convention : Reuss Voigt Hill
#
# Bulk Modulus (GPa) = 12.39455 20.70394 16.54925
# Shear Modulus (GPa) = 20.84144 6.72187 13.78165
#
# Velocity S-wave (km/s) = 3.21462 1.82562 2.61407
# Velocity P-wave (km/s) = 4.46363 3.83530 4.16134
#
# Compressibility (1/GPa) = 0.08068064
#
# Stress axis : x y z
#
# Youngs Moduli (GPa) = 65.20201 37.50519 21.03457
#
# Poissons Ratio (x) = 0.30510 0.07344
# Poissons Ratio (y) = 0.53042 -0.15137
# Poissons Ratio (z) = 0.22764 -0.26990
#
# Static dielectric constant tensor:
#      x y z
#    x 1.749350 0.000000 0.000000 
#    y 0.000000 1.712860 0.000000 
#    z 0.000000 0.000000 1.677900 
# 
# From -- ./inp_files/11664.got.cif
#   From: 2010.05.17/outbox.cif.g08.bks.cpg/sg47_6_cif.got.tgz:11664.got - 2010.06.03 20:15:42.
