data_PCOD9383885
_publ_section_title
;
Structure prediction by ZEFSAII (Michael W. Deem and Ramdas Pophale) SiO2 
 PCOD9383885
Probable space group: P M M M
;
_chemical_formula_sum "Si O2"
_cell_formula_units_Z 42
_cell_length_a 16.699004
_cell_length_b 13.287207
_cell_length_c 11.322068
_cell_angle_alpha 90.000000
_cell_angle_beta 90.000000
_cell_angle_gamma 90.000000
_cell_volume 2512.175805
_symmetry_space_group_name_H-M "P M M M"
_symmetry_group_IT_number 47
_symmetry_cell_setting 'orthorhombic'
loop_
_space_group_symop_operation_xyz
x,y,z
-x,-y,z
x,-y,-z
-x,y,-z
-x,-y,-z
x,y,-z
-x,y,z
x,-y,z
loop_
_atom_site_type_symbol
_atom_site_label
_atom_site_fract_x
_atom_site_fract_y
_atom_site_fract_z
Si Si1 0.749584 0.187652 0.000000
Si Si2 0.500000 0.121515 0.362841
Si Si3 0.087483 0.000000 0.738918
Si Si4 0.178440 0.808031 0.638199
Si Si5 0.866818 0.000000 0.000000
Si Si6 0.090989 0.675739 0.000000
Si Si7 0.333017 0.122995 0.238533
Si Si8 0.092016 0.612729 0.734091
O O1 0.807065 0.092231 0.000000
O O2 0.820879 0.270727 0.000000
O O3 0.694155 0.176195 0.116197
O O4 0.500000 0.158209 0.500000
O O5 0.420870 0.147654 0.287914
O O6 0.500000 0.000000 0.370804
O O7 0.131363 0.898900 0.700342
O O8 0.085014 0.000000 0.879944
O O9 0.000000 0.000000 0.685508
O O10 0.162928 0.810293 0.500000
O O11 0.269841 0.835081 0.666710
O O12 0.148568 0.701825 0.689202
O O13 0.090657 0.617399 0.123402
O O14 0.000000 0.729521 0.000000
O O15 0.325865 0.000000 0.226394
O O16 0.115137 0.500000 0.696204
O O17 0.000000 0.631800 0.694619
#
# Coordination Sequence:
#
# PCOD9383885 Si02
#       8
#     4   4   4   8   2   4   8   8
#     4  12  18  32  54  79 111 143 178 232 283 329
#     4   9  20  35  55  79 108 148 190 228 276 341
#     4  12  24  36  53  77 106 148 194 233 276 333
#     4  12  23  36  54  76 110 151 187 230 280 335
#     4  12  19  36  48  73 104 142 182 223 278 320
#     4  10  19  34  56  80 107 141 186 237 285 330
#     4  11  20  36  55  81 112 145 186 229 281 339
#     4  10  21  37  56  79 107 144 192 241 286 328
#
# _framework density 16.718575999999999
#
# number of rings (size 3 to 8) (size 9 to 14) (size 15 to 20)
#    0.000    1.048    5.714    1.857    0.000    6.857 
#    0.000    2.381    0.000    0.000    0.000    0.667 
#    0.000    3.810    0.000    0.000    0.000    0.000 
#
# Total GULP energy -234046.012566 kJ/mol
# GULP energy per Si atom -5572.524109 kJ/mol
# Density = 1.668052 g / cm^3
# Si number density = 16.718576 Si / 1000 Ang^3
#
#
#
# Elastic Constant Matrix: (Units=GPa)
#
#
# Indices 1 2 3 4 5 6 
#
# 1 144.0455 53.3222 37.5525 0.0000 0.0000 0.0000
# 2 53.3222 85.6051 26.8559 0.0000 0.0000 0.0000
# 3 37.5525 26.8559 105.3595 0.0000 0.0000 0.0000
# 4 0.0000 0.0000 0.0000 14.5801 0.0000 0.0000
# 5 0.0000 0.0000 0.0000 0.0000 76.4485 0.0000
# 6 0.0000 0.0000 0.0000 0.0000 0.0000 283.0323
#
#
#
# Elastic Compliance Matrix: (Units=1/GPa)
#
#
# Indices 1 2 3 4 5 6 
#
# 1 0.009402 -0.005223 -0.002020 0.000000 0.000000 0.000000
# 2 -0.005223 0.015598 -0.002114 0.000000 0.000000 0.000000
# 3 -0.002020 -0.002114 0.010750 0.000000 0.000000 0.000000
# 4 0.000000 0.000000 0.000000 0.068587 0.000000 0.000000
# 5 0.000000 0.000000 0.000000 0.000000 0.013081 0.000000
# 6 0.000000 0.000000 0.000000 0.000000 0.000000 0.003533
#
#
# Mechanical properties :
#
#
# Convention : Reuss Voigt Hill
#
# Bulk Modulus (GPa) = 58.69811 63.38569 61.04190
# Shear Modulus (GPa) = 34.40116 89.29750 61.84933
#
# Velocity S-wave (km/s) = 4.54107 7.31629 6.08890
# Velocity P-wave (km/s) = 7.91712 10.45784 9.27489
#
# Compressibility (1/GPa) = 0.01703632
#
# Stress axis : x y z
#
# Youngs Moduli (GPa) = 106.35827 64.11045 93.02159
#
# Poissons Ratio (x) = 0.33484 0.18789
# Poissons Ratio (y) = 0.55549 0.19668
# Poissons Ratio (z) = 0.21483 0.13555
#
# Static dielectric constant tensor:
#      x y z
#    x 1.560830 0.000000 0.000000 
#    y 0.000000 1.527720 0.000000 
#    z 0.000000 0.000000 1.588450 
# 
# From -- ./inp_files/18393.got.cif
#   From: 2010.05.17/outbox.cif.g08.bks.cpg/sg47_10_cif.got.tgz:18393.got - 2010.06.03 20:15:42.
