data_PCOD9383640
_publ_section_title
;
Structure prediction by ZEFSAII (Michael W. Deem and Ramdas Pophale) SiO2 
 PCOD9383640
Probable space group: P M M M
;
_chemical_formula_sum "Si O2"
_cell_formula_units_Z 40
_cell_length_a 23.908323
_cell_length_b 9.405599
_cell_length_c 11.884954
_cell_angle_alpha 90.000000
_cell_angle_beta 90.000000
_cell_angle_gamma 90.000000
_cell_volume 2672.594551
_symmetry_space_group_name_H-M "P M M M"
_symmetry_group_IT_number 47
_symmetry_cell_setting 'orthorhombic'
loop_
_space_group_symop_operation_xyz
x,y,z
-x,-y,z
x,-y,-z
-x,y,-z
-x,-y,-z
x,y,-z
-x,y,z
x,-y,z
loop_
_atom_site_type_symbol
_atom_site_label
_atom_site_fract_x
_atom_site_fract_y
_atom_site_fract_z
Si Si1 0.829044 0.836589 0.137089
Si Si2 0.717849 0.330981 0.132643
Si Si3 0.062372 0.665443 0.136793
Si Si4 0.601707 0.671565 0.253349
Si Si5 0.500000 0.832381 0.134664
Si Si6 0.564515 0.327941 0.500000
O O1 0.772896 0.753488 0.169696
O O2 0.885633 0.759047 0.176015
O O3 0.827509 0.000000 0.172614
O O4 0.830095 0.833811 0.000000
O O5 0.728381 0.500000 0.141988
O O6 0.662606 0.296201 0.203263
O O7 0.707520 0.300629 0.000000
O O8 0.069837 0.500000 0.167767
O O9 0.000000 0.711866 0.172588
O O10 0.062588 0.670044 0.000000
O O11 0.593006 0.500000 0.243228
O O12 0.554104 0.753734 0.184890
O O13 0.594583 0.712252 0.384206
O O14 0.500000 0.000000 0.163734
O O15 0.500000 0.819957 0.000000
O O16 0.562391 0.500000 0.500000
O O17 0.500000 0.277356 0.500000
#
# Coordination Sequence:
#
# PCOD9383640 Si02
#       6
#     8   8   8   8   4   4
#     4   9  16  24  35  52  76 107 139 173 213 252
#     4   9  17  28  42  60  81 108 143 177 208 250
#     4   8  13  21  33  49  71 102 140 178 210 241
#     4  10  19  33  52  69  86 112 145 178 215 262
#     4  11  23  34  45  66  94 117 138 173 218 257
#     4   9  16  30  52  74  90 106 135 180 223 258
#
# _framework density 14.966729000000001
#
# number of rings (size 3 to 8) (size 9 to 14) (size 15 to 20)
#    0.000    2.800    1.000    2.100    0.000    5.200 
#    0.000    5.000    0.000    0.000    0.000    0.000 
#    0.000    0.000    0.000    0.900    0.000   21.000 
#
# Total GULP energy -222765.716873 kJ/mol
# GULP energy per Si atom -5569.142922 kJ/mol
# Density = 1.493266 g / cm^3
# Si number density = 14.966729 Si / 1000 Ang^3
#
#
#
# Elastic Constant Matrix: (Units=GPa)
#
#
# Indices 1 2 3 4 5 6 
#
# 1 179.2303 86.0453 54.1855 0.0000 0.0000 0.0000
# 2 86.0453 64.4364 32.8356 0.0000 0.0000 0.0000
# 3 54.1855 32.8356 54.4719 0.0000 0.0000 0.0000
# 4 0.0000 0.0000 0.0000 8.2091 0.0000 0.0000
# 5 0.0000 0.0000 0.0000 0.0000 0.3574 0.0000
# 6 0.0000 0.0000 0.0000 0.0000 0.0000 5.1624
#
#
#
# Elastic Compliance Matrix: (Units=1/GPa)
#
#
# Indices 1 2 3 4 5 6 
#
# 1 0.016261 -0.019444 -0.004455 0.000000 0.000000 0.000000
# 2 -0.019444 0.045650 -0.008176 0.000000 0.000000 0.000000
# 3 -0.004455 -0.008176 0.027718 0.000000 0.000000 0.000000
# 4 0.000000 0.000000 0.000000 0.121816 0.000000 0.000000
# 5 0.000000 0.000000 0.000000 0.000000 2.797875 0.000000
# 6 0.000000 0.000000 0.000000 0.000000 0.000000 0.193707
#
#
# Mechanical properties :
#
#
# Convention : Reuss Voigt Hill
#
# Bulk Modulus (GPa) = 39.24727 71.58572 55.41649
# Shear Modulus (GPa) = 1.52641 11.08395 6.30518
#
# Velocity S-wave (km/s) = 1.01098 2.72430 2.05474
# Velocity P-wave (km/s) = 5.25763 7.60457 6.53728
#
# Compressibility (1/GPa) = 0.02547948
#
# Stress axis : x y z
#
# Youngs Moduli (GPa) = 61.49747 21.90573 36.07802
#
# Poissons Ratio (x) = 0.42594 0.16071
# Poissons Ratio (y) = 1.19576 0.29498
# Poissons Ratio (z) = 0.27394 0.17910
#
# Static dielectric constant tensor:
#      x y z
#    x 1.492840 0.000000 0.000000 
#    y 0.000000 1.495310 0.000000 
#    z 0.000000 0.000000 1.470070 
# 
# From -- ./inp_files/18930.got.cif
#   From: 2010.05.17/outbox.cif.g08.bks.cpg/sg47_10_cif.got.tgz:18930.got - 2010.06.03 20:15:42.
