data_PCOD9383207
_publ_section_title
;
Structure prediction by ZEFSAII (Michael W. Deem and Ramdas Pophale) SiO2 
 PCOD9383207
Probable space group: P M M M
;
_chemical_formula_sum "Si O2"
_cell_formula_units_Z 64
_cell_length_a 8.154187
_cell_length_b 15.073140
_cell_length_c 24.877833
_cell_angle_alpha 90.000000
_cell_angle_beta 90.000000
_cell_angle_gamma 90.000000
_cell_volume 3057.714607
_symmetry_space_group_name_H-M "P M M M"
_symmetry_group_IT_number 47
_symmetry_cell_setting 'orthorhombic'
loop_
_space_group_symop_operation_xyz
x,y,z
-x,-y,z
x,-y,-z
-x,y,-z
-x,-y,-z
x,y,-z
-x,y,z
x,-y,z
loop_
_atom_site_type_symbol
_atom_site_label
_atom_site_fract_x
_atom_site_fract_y
_atom_site_fract_z
Si Si1 0.686965 0.903323 0.435645
Si Si2 0.189651 0.287919 0.440274
Si Si3 0.198587 0.601697 0.894670
Si Si4 0.800303 0.601862 0.772000
Si Si5 0.305719 0.218717 0.941102
Si Si6 0.805957 0.898414 0.841761
Si Si7 0.306691 0.899485 0.276825
Si Si8 0.802370 0.720686 0.673856
O O1 0.674543 0.912170 0.500000
O O2 0.500000 0.885377 0.416293
O O3 0.801033 0.818324 0.430775
O O4 0.739434 0.000000 0.414322
O O5 0.262730 0.305908 0.500000
O O6 0.262258 0.318183 0.383067
O O7 0.000000 0.315935 0.442886
O O8 0.246065 0.500000 0.906888
O O9 0.250491 0.622477 0.833055
O O10 0.268852 0.677579 0.932165
O O11 0.000000 0.605500 0.896698
O O12 0.755432 0.500000 0.760722
O O13 0.740285 0.666404 0.725430
O O14 0.000000 0.606285 0.772348
O O15 0.500000 0.204776 0.940088
O O16 0.232172 0.164494 0.891545
O O17 0.242212 0.191208 0.000000
O O18 0.725020 0.872707 0.785207
O O19 0.000000 0.896800 0.832191
O O20 0.755140 0.000000 0.853909
O O21 0.500000 0.903250 0.285676
O O22 0.236309 0.823669 0.315000
O O23 0.239522 0.000000 0.283276
O O24 0.000000 0.712006 0.672013
#
# Coordination Sequence:
#
# PCOD9383207 Si02
#       8
#     8   8   8   8   8   8   8   8
#     4   8  14  25  40  56  75 105 149 196 236 278
#     4   9  18  30  42  61  92 128 165 205 250 300
#     4   9  18  34  57  82 106 135 175 225 278 330
#     4   8  15  30  53  79 101 122 158 210 264 314
#     4  11  24  38  53  78 113 151 187 223 265 314
#     4  10  21  38  60  82 105 138 181 227 271 315
#     4  10  21  36  54  78 108 138 168 209 264 320
#     4  10  19  31  51  75  99 133 173 213 258 309
#
# _framework density 20.930665999999999
#
# number of rings (size 3 to 8) (size 9 to 14) (size 15 to 20)
#    0.000    2.625    0.000    3.000    0.000    5.500 
#    0.000    6.250    0.000    1.500    0.000    2.625 
#    0.000    0.000    0.000    4.250    0.000    4.500 
#
# Total GULP energy -356843.858040 kJ/mol
# GULP energy per Si atom -5575.685282 kJ/mol
# Density = 2.088303 g / cm^3
# Si number density = 20.930666 Si / 1000 Ang^3
#
#
#
# Elastic Constant Matrix: (Units=GPa)
#
#
# Indices 1 2 3 4 5 6 
#
# 1 14.3952 -1.5223 5.1384 0.0000 0.0000 0.0000
# 2 -1.5223 31.9094 32.1906 0.0000 0.0000 0.0000
# 3 5.1384 32.1906 122.5194 0.0000 0.0000 0.0000
# 4 0.0000 0.0000 0.0000 2.4715 0.0000 0.0000
# 5 0.0000 0.0000 0.0000 0.0000 -0.5773 0.0000
# 6 0.0000 0.0000 0.0000 0.0000 0.0000 -16.0946
#
#
#
# Elastic Compliance Matrix: (Units=1/GPa)
#
#
# Indices 1 2 3 4 5 6 
#
# 1 0.072317 0.008857 -0.005360 0.000000 0.000000 0.000000
# 2 0.008857 0.043726 -0.011860 0.000000 0.000000 0.000000
# 3 -0.005360 -0.011860 0.011503 0.000000 0.000000 0.000000
# 4 0.000000 0.000000 0.000000 0.404609 0.000000 0.000000
# 5 0.000000 0.000000 0.000000 0.000000 -1.732076 0.000000
# 6 0.000000 0.000000 0.000000 0.000000 0.000000 -0.062133
#
#
# Mechanical properties :
#
#
# Convention : Reuss Voigt Hill
#
# Bulk Modulus (GPa) = 9.02360 26.71528 17.86944
# Shear Modulus (GPa) = -4.13774 6.02775 0.94501
#
# Velocity S-wave (km/s) = -1.40754 1.69886 0.67266
# Velocity P-wave (km/s) = 1.29576 4.07916 3.02643
#
# Compressibility (1/GPa) = 0.11082052
#
# Stress axis : x y z
#
# Youngs Moduli (GPa) = 13.82794 22.86987 86.93517
#
# Poissons Ratio (x) = -0.20257 0.46598
# Poissons Ratio (y) = -0.12248 1.03104
# Poissons Ratio (z) = 0.07412 0.27123
#
# Static dielectric constant tensor:
#      x y z
#    x 1.748110 0.000000 0.000000 
#    y 0.000000 1.761660 0.000000 
#    z 0.000000 0.000000 1.810100 
# 
# From -- ./inp_files/7922.got.cif
#   From: 2010.05.17/outbox.cif.g08.bks.cpg/sg47_4_cif.got.tgz:7922.got - 2010.06.03 20:15:42.
