data_PCOD9383044
_publ_section_title
;
Structure prediction by ZEFSAII (Michael W. Deem and Ramdas Pophale) SiO2 
 PCOD9383044
Probable space group: P M M M
;
_chemical_formula_sum "Si O2"
_cell_formula_units_Z 52
_cell_length_a 14.152892
_cell_length_b 8.032261
_cell_length_c 28.738309
_cell_angle_alpha 90.000000
_cell_angle_beta 90.000000
_cell_angle_gamma 90.000000
_cell_volume 3266.962991
_symmetry_space_group_name_H-M "P M M M"
_symmetry_group_IT_number 47
_symmetry_cell_setting 'orthorhombic'
loop_
_space_group_symop_operation_xyz
x,y,z
-x,-y,z
x,-y,-z
-x,y,-z
-x,-y,-z
x,y,-z
-x,y,z
x,-y,z
loop_
_atom_site_type_symbol
_atom_site_label
_atom_site_fract_x
_atom_site_fract_y
_atom_site_fract_z
Si Si1 0.606047 0.798257 0.195301
Si Si2 0.209457 0.799969 0.144802
Si Si3 0.107954 0.299716 0.051798
Si Si4 0.387405 0.187717 0.383220
Si Si5 0.614563 0.500000 0.553091
Si Si6 0.107264 0.201884 0.238827
Si Si7 0.293535 0.304606 0.290241
O O1 0.500000 0.739295 0.186222
O O2 0.685551 0.741583 0.158693
O O3 0.642262 0.743575 0.245936
O O4 0.605497 0.000000 0.195003
O O5 0.173090 0.749630 0.094537
O O6 0.140949 0.744159 0.187066
O O7 0.209766 0.000000 0.146339
O O8 0.105318 0.500000 0.050569
O O9 0.000000 0.240947 0.059922
O O10 0.137200 0.242056 0.000000
O O11 0.500000 0.208547 0.373375
O O12 0.358713 0.333472 0.418765
O O13 0.330088 0.209392 0.335509
O O14 0.374363 0.000000 0.401583
O O15 0.500000 0.500000 0.551428
O O16 0.649101 0.500000 0.500000
O O17 0.186556 0.263723 0.274650
O O18 0.000000 0.256014 0.247977
O O19 0.109459 0.000000 0.239622
O O20 0.303100 0.500000 0.299311
#
# Coordination Sequence:
#
# PCOD9383044 Si02
#       7
#     8   8   8   8   4   8   8
#     4   9  18  32  47  63  87 120 154 187 226 273
#     4   9  17  29  46  67  87 110 144 185 228 271
#     4   9  18  31  45  62  85 112 141 175 219 273
#     4  10  19  31  48  69  97 133 167 202 245 287
#     4   9  18  32  48  70  99 129 167 209 245 288
#     4   9  18  32  47  64  91 125 156 187 228 281
#     4  11  20  29  44  68  97 125 159 199 233 275
#
# _framework density 15.916923000000001
#
# number of rings (size 3 to 8) (size 9 to 14) (size 15 to 20)
#    0.000    2.538    0.769    3.692    0.000    6.462 
#    0.000    2.308    0.000    0.462    0.000    3.231 
#    0.000    1.231    0.000    3.231    0.000    0.154 
#
# Total GULP energy -289868.598170 kJ/mol
# GULP energy per Si atom -5574.396119 kJ/mol
# Density = 1.588070 g / cm^3
# Si number density = 15.916923 Si / 1000 Ang^3
#
#
#
# Elastic Constant Matrix: (Units=GPa)
#
#
# Indices 1 2 3 4 5 6 
#
# 1 94.6126 27.1528 51.8651 0.0000 0.0000 0.0000
# 2 27.1528 50.8891 34.1807 0.0000 0.0000 0.0000
# 3 51.8651 34.1807 117.7547 0.0000 0.0000 0.0000
# 4 0.0000 0.0000 0.0000 38.8711 0.0000 0.0000
# 5 0.0000 0.0000 0.0000 0.0000 17.8682 0.0000
# 6 0.0000 0.0000 0.0000 0.0000 0.0000 15.6137
#
#
#
# Elastic Compliance Matrix: (Units=1/GPa)
#
#
# Indices 1 2 3 4 5 6 
#
# 1 0.014664 -0.004330 -0.005202 0.000000 0.000000 0.000000
# 2 -0.004330 0.025688 -0.005549 0.000000 0.000000 0.000000
# 3 -0.005202 -0.005549 0.012394 0.000000 0.000000 0.000000
# 4 0.000000 0.000000 0.000000 0.025726 0.000000 0.000000
# 5 0.000000 0.000000 0.000000 0.000000 0.055965 0.000000
# 6 0.000000 0.000000 0.000000 0.000000 0.000000 0.064046
#
#
# Mechanical properties :
#
#
# Convention : Reuss Voigt Hill
#
# Bulk Modulus (GPa) = 44.27979 54.40596 49.34288
# Shear Modulus (GPa) = 21.17081 24.47444 22.82263
#
# Velocity S-wave (km/s) = 3.65099 3.92553 3.79074
# Velocity P-wave (km/s) = 6.75667 7.40282 7.08711
#
# Compressibility (1/GPa) = 0.02258367
#
# Stress axis : x y z
#
# Youngs Moduli (GPa) = 68.19603 38.92811 80.68347
#
# Poissons Ratio (x) = 0.16857 0.41969
# Poissons Ratio (y) = 0.29530 0.44774
# Poissons Ratio (z) = 0.35473 0.21602
#
# Static dielectric constant tensor:
#      x y z
#    x 1.530500 0.000000 0.000000 
#    y 0.000000 1.565980 0.000000 
#    z 0.000000 0.000000 1.509690 
# 
# From -- ./inp_files/7646.got.cif
#   From: 2010.05.17/outbox.cif.g08.bks.cpg/sg47_4_cif.got.tgz:7646.got - 2010.06.03 20:15:42.
