data_PCOD9383022
_publ_section_title
;
Structure prediction by ZEFSAII (Michael W. Deem and Ramdas Pophale) SiO2 
 PCOD9383022
Probable space group: P M M M
;
_chemical_formula_sum "Si O2"
_cell_formula_units_Z 40
_cell_length_a 7.336882
_cell_length_b 15.596660
_cell_length_c 15.631062
_cell_angle_alpha 90.000000
_cell_angle_beta 90.000000
_cell_angle_gamma 90.000000
_cell_volume 1788.675774
_symmetry_space_group_name_H-M "P M M M"
_symmetry_group_IT_number 47
_symmetry_cell_setting 'orthorhombic'
loop_
_space_group_symop_operation_xyz
x,y,z
-x,-y,z
x,-y,-z
-x,y,-z
-x,-y,-z
x,y,-z
-x,y,z
x,-y,z
loop_
_atom_site_type_symbol
_atom_site_label
_atom_site_fract_x
_atom_site_fract_y
_atom_site_fract_z
Si Si1 0.777107 0.500000 0.900591
Si Si2 0.788614 0.906257 0.639731
Si Si3 0.207720 0.358929 0.232772
Si Si4 0.777038 0.714844 0.405030
Si Si5 0.277996 0.902078 0.000000
Si Si6 0.280394 0.833040 0.181193
O O1 0.717258 0.419106 0.842278
O O2 0.000000 0.500000 0.905555
O O3 0.715943 0.500000 0.000000
O O4 0.714916 0.814305 0.607334
O O5 0.779118 0.895485 0.742476
O O6 0.000000 0.907559 0.613091
O O7 0.711357 0.000000 0.615764
O O8 0.287784 0.346503 0.328112
O O9 0.210349 0.261525 0.200616
O O10 0.000000 0.388944 0.244846
O O11 0.728322 0.686366 0.500000
O O12 0.000000 0.717286 0.398827
O O13 0.218049 0.859857 0.912221
O O14 0.500000 0.899330 0.000000
O O15 0.222503 0.000000 0.000000
O O16 0.500000 0.831456 0.182983
#
# Coordination Sequence:
#
# PCOD9383022 Si02
#       6
#     4   8   8   8   4   8
#     4   9  18  32  52  76 100 127 155 191 242 294
#     4   9  17  29  45  67  95 126 163 203 238 278
#     4   9  18  33  51  72  96 123 158 196 235 289
#     4   8  14  26  45  69  97 127 157 195 242 285
#     4   9  18  30  43  62  89 122 160 195 229 277
#     4  10  19  31  48  67  92 127 162 197 243 288
#
# _framework density 22.362912000000001
#
# number of rings (size 3 to 8) (size 9 to 14) (size 15 to 20)
#    0.000    3.000    0.000    2.400    1.400    1.600 
#    0.000    4.500    0.000   16.800    0.000    5.600 
#    0.000    6.400    0.000    0.000    0.000    0.000 
#
# Total GULP energy -223039.041403 kJ/mol
# GULP energy per Si atom -5575.976035 kJ/mol
# Density = 2.231201 g / cm^3
# Si number density = 22.362912 Si / 1000 Ang^3
#
#
#
# Elastic Constant Matrix: (Units=GPa)
#
#
# Indices 1 2 3 4 5 6 
#
# 1 91.7467 -0.2747 0.3654 0.0000 0.0000 0.0000
# 2 -0.2747 93.7778 63.3720 0.0000 0.0000 0.0000
# 3 0.3654 63.3720 217.0460 0.0000 0.0000 0.0000
# 4 0.0000 0.0000 0.0000 -40.3438 0.0000 0.0000
# 5 0.0000 0.0000 0.0000 0.0000 10.8637 0.0000
# 6 0.0000 0.0000 0.0000 0.0000 0.0000 21.8988
#
#
#
# Elastic Compliance Matrix: (Units=1/GPa)
#
#
# Indices 1 2 3 4 5 6 
#
# 1 0.010900 0.000055 -0.000034 0.000000 0.000000 0.000000
# 2 0.000055 0.013285 -0.003879 0.000000 0.000000 0.000000
# 3 -0.000034 -0.003879 0.005740 0.000000 0.000000 0.000000
# 4 0.000000 0.000000 0.000000 -0.024787 0.000000 0.000000
# 5 0.000000 0.000000 0.000000 0.000000 0.092050 0.000000
# 6 0.000000 0.000000 0.000000 0.000000 0.000000 0.045665
#
#
# Mechanical properties :
#
#
# Convention : Reuss Voigt Hill
#
# Bulk Modulus (GPa) = 45.02813 58.83286 51.93050
# Shear Modulus (GPa) = 31.65133 21.09093 26.37113
#
# Velocity S-wave (km/s) = 3.76619 3.07436 3.43772
# Velocity P-wave (km/s) = 6.25229 6.24240 6.24735
#
# Compressibility (1/GPa) = 0.02220834
#
# Stress axis : x y z
#
# Youngs Moduli (GPa) = 91.74411 75.27323 174.21797
#
# Poissons Ratio (x) = -0.00416 0.00601
# Poissons Ratio (y) = -0.00507 0.67578
# Poissons Ratio (z) = 0.00316 0.29198
#
# Static dielectric constant tensor:
#      x y z
#    x 1.850880 0.000000 0.000000 
#    y 0.000000 1.784330 0.000000 
#    z 0.000000 0.000000 1.987690 
# 
# From -- ./inp_files/20683.got.cif
#   From: 2010.05.17/outbox.cif.g08.bks.cpg/sg47_11_cif.got.tgz:20683.got - 2010.06.03 20:15:42.
