data_PCOD9383063
_publ_section_title
;
Structure prediction by ZEFSAII (Michael W. Deem and Ramdas Pophale) SiO2 
 PCOD9383063
Probable space group: P M M M
;
_chemical_formula_sum "Si O2"
_cell_formula_units_Z 40
_cell_length_a 29.658418
_cell_length_b 8.210568
_cell_length_c 7.699003
_cell_angle_alpha 90.000000
_cell_angle_beta 90.000000
_cell_angle_gamma 90.000000
_cell_volume 1874.803143
_symmetry_space_group_name_H-M "P M M M"
_symmetry_group_IT_number 47
_symmetry_cell_setting 'orthorhombic'
loop_
_space_group_symop_operation_xyz
x,y,z
-x,-y,z
x,-y,-z
-x,y,-z
-x,-y,-z
x,y,-z
-x,y,z
x,-y,z
loop_
_atom_site_type_symbol
_atom_site_label
_atom_site_fract_x
_atom_site_fract_y
_atom_site_fract_z
Si Si1 0.299317 0.315751 0.708732
Si Si2 0.893520 0.679488 0.212445
Si Si3 0.392800 0.822376 0.291248
Si Si4 0.200645 0.815898 0.791367
Si Si5 0.550630 0.500000 0.793984
Si Si6 0.052013 0.000000 0.787599
O O1 0.302891 0.320618 0.500000
O O2 0.303746 0.500000 0.775031
O O3 0.341736 0.211191 0.772449
O O4 0.250021 0.248989 0.749159
O O5 0.909042 0.500000 0.268463
O O6 0.841682 0.708845 0.267755
O O7 0.922611 0.835224 0.268740
O O8 0.894531 0.679999 0.000000
O O9 0.391118 0.831127 0.500000
O O10 0.422747 0.664571 0.252674
O O11 0.408846 0.000000 0.227501
O O12 0.195482 0.000000 0.725255
O O13 0.197448 0.821230 0.000000
O O14 0.500000 0.500000 0.719056
O O15 0.547241 0.500000 0.000000
O O16 0.000000 0.000000 0.734385
O O17 0.053263 0.000000 0.000000
#
# Coordination Sequence:
#
# PCOD9383063 Si02
#       6
#     8   8   8   8   4   4
#     4  10  20  35  55  80 112 146 181 226 275 322
#     4   9  16  27  42  61  91 129 168 215 266 316
#     4  10  21  40  65  89 116 153 196 241 288 340
#     4  10  19  31  48  72 104 141 179 218 265 325
#     4  11  25  43  63  89 123 159 193 239 294 343
#     4   9  16  26  40  60  89 127 173 221 268 321
#
# _framework density 21.335571999999999
#
# number of rings (size 3 to 8) (size 9 to 14) (size 15 to 20)
#    0.000    2.200    2.000    1.500    0.000    5.200 
#    0.000    4.000    0.000    0.000    0.000    0.000 
#    0.000    1.600    0.000    4.200    0.000    4.000 
#
# Total GULP energy -223324.833242 kJ/mol
# GULP energy per Si atom -5583.120831 kJ/mol
# Density = 2.128701 g / cm^3
# Si number density = 21.335572 Si / 1000 Ang^3
#
#
#
# Elastic Constant Matrix: (Units=GPa)
#
#
# Indices 1 2 3 4 5 6 
#
# 1 159.8294 100.0025 3.3264 0.0000 0.0000 0.0000
# 2 100.0025 223.6593 11.5398 0.0000 0.0000 0.0000
# 3 3.3264 11.5398 33.8527 0.0000 0.0000 0.0000
# 4 0.0000 0.0000 0.0000 5.2238 0.0000 0.0000
# 5 0.0000 0.0000 0.0000 0.0000 25.3851 0.0000
# 6 0.0000 0.0000 0.0000 0.0000 0.0000 27.6458
#
#
#
# Elastic Compliance Matrix: (Units=1/GPa)
#
#
# Indices 1 2 3 4 5 6 
#
# 1 0.008694 -0.003912 0.000479 0.000000 0.000000 0.000000
# 2 -0.003912 0.006311 -0.001767 0.000000 0.000000 0.000000
# 3 0.000479 -0.001767 0.030095 0.000000 0.000000 0.000000
# 4 0.000000 0.000000 0.000000 0.191432 0.000000 0.000000
# 5 0.000000 0.000000 0.000000 0.000000 0.039393 0.000000
# 6 0.000000 0.000000 0.000000 0.000000 0.000000 0.036172
#
#
# Mechanical properties :
#
#
# Convention : Reuss Voigt Hill
#
# Bulk Modulus (GPa) = 28.81763 71.89765 50.35764
# Shear Modulus (GPa) = 14.96712 31.81576 23.39144
#
# Velocity S-wave (km/s) = 2.65148 3.86580 3.31472
# Velocity P-wave (km/s) = 4.78643 7.32786 6.18900
#
# Compressibility (1/GPa) = 0.03470097
#
# Stress axis : x y z
#
# Youngs Moduli (GPa) = 115.01526 158.44128 33.22813
#
# Poissons Ratio (x) = 0.61986 -0.01593
# Poissons Ratio (y) = 0.44996 0.05872
# Poissons Ratio (z) = -0.05512 0.27998
#
# Static dielectric constant tensor:
#      x y z
#    x 1.751980 0.000000 0.000000 
#    y 0.000000 1.581950 0.000000 
#    z 0.000000 0.000000 1.803390 
# 
# From -- ./inp_files/13077.got.cif
#   From: 2010.05.17/outbox.cif.g08.bks.cpg/sg47_7_cif.got.tgz:13077.got - 2010.06.03 20:15:42.
