data_PCOD9383699
_publ_section_title
;
Structure prediction by ZEFSAII (Michael W. Deem and Ramdas Pophale) SiO2 
 PCOD9383699
Probable space group: P M M M
;
_chemical_formula_sum "Si O2"
_cell_formula_units_Z 48
_cell_length_a 9.610147
_cell_length_b 8.044885
_cell_length_c 33.388938
_cell_angle_alpha 90.000000
_cell_angle_beta 90.000000
_cell_angle_gamma 90.000000
_cell_volume 2581.383186
_symmetry_space_group_name_H-M "P M M M"
_symmetry_group_IT_number 47
_symmetry_cell_setting 'orthorhombic'
loop_
_space_group_symop_operation_xyz
x,y,z
-x,-y,z
x,-y,-z
-x,y,-z
-x,-y,-z
x,y,-z
-x,y,z
x,-y,z
loop_
_atom_site_type_symbol
_atom_site_label
_atom_site_fract_x
_atom_site_fract_y
_atom_site_fract_z
Si Si1 0.658905 0.697497 0.241152
Si Si2 0.340363 0.796235 0.000000
Si Si3 0.840049 0.797254 0.075360
Si Si4 0.830588 0.316558 0.402357
Si Si5 0.170024 0.000000 0.453757
Si Si6 0.839960 0.195667 0.683996
Si Si7 0.839179 0.201074 0.834210
O O1 0.500000 0.758966 0.239991
O O2 0.656869 0.500000 0.247206
O O3 0.744829 0.774236 0.277769
O O4 0.737679 0.734422 0.199788
O O5 0.259908 0.741069 0.960085
O O6 0.500000 0.743687 0.000000
O O7 0.338193 0.000000 0.000000
O O8 0.801594 0.745660 0.120515
O O9 0.000000 0.747599 0.067809
O O10 0.838331 0.000000 0.075266
O O11 0.787122 0.500000 0.415905
O O12 0.790426 0.287418 0.356118
O O13 0.000000 0.311994 0.402459
O O14 0.783856 0.165107 0.430199
O O15 0.213035 0.000000 0.500000
O O16 0.000000 0.000000 0.453194
O O17 0.000000 0.246966 0.692813
O O18 0.842476 0.000000 0.674413
O O19 0.000000 0.251092 0.826699
O O20 0.835982 0.000000 0.833211
#
# Coordination Sequence:
#
# PCOD9383699 Si02
#       7
#     8   4   8   8   4   8   8
#     4  11  24  37  48  69 101 132 164 204 251 306
#     4   9  15  21  33  59  92 123 156 193 236 290
#     4   8  14  25  41  61  88 120 153 193 241 291
#     4   9  16  27  44  67  97 134 175 218 265 315
#     4   9  16  26  40  64 101 139 177 221 267 320
#     4  10  19  33  54  76  98 128 170 216 257 306
#     4   9  18  33  52  73  95 124 165 207 248 300
#
# _framework density 18.594681999999999
#
# number of rings (size 3 to 8) (size 9 to 14) (size 15 to 20)
#    0.000    2.667    0.833    2.750    0.000    6.667 
#    0.000    3.333    0.000    0.000    0.000    0.583 
#    0.000    6.000    0.000    3.500    0.000    3.333 
#
# Total GULP energy -267741.243888 kJ/mol
# GULP energy per Si atom -5577.942581 kJ/mol
# Density = 1.855236 g / cm^3
# Si number density = 18.594682 Si / 1000 Ang^3
#
#
#
# Elastic Constant Matrix: (Units=GPa)
#
#
# Indices 1 2 3 4 5 6 
#
# 1 67.0638 20.8284 66.5880 0.0000 0.0000 0.0000
# 2 20.8284 63.7141 41.8038 0.0000 0.0000 0.0000
# 3 66.5880 41.8038 143.1185 0.0000 0.0000 0.0000
# 4 0.0000 0.0000 0.0000 -7.9058 0.0000 0.0000
# 5 0.0000 0.0000 0.0000 0.0000 -5.0112 0.0000
# 6 0.0000 0.0000 0.0000 0.0000 0.0000 13.0958
#
#
#
# Elastic Compliance Matrix: (Units=1/GPa)
#
#
# Indices 1 2 3 4 5 6 
#
# 1 0.027742 -0.000743 -0.012691 0.000000 0.000000 0.000000
# 2 -0.000743 0.019436 -0.005332 0.000000 0.000000 0.000000
# 3 -0.012691 -0.005332 0.014449 0.000000 0.000000 0.000000
# 4 0.000000 0.000000 0.000000 -0.126490 0.000000 0.000000
# 5 0.000000 0.000000 0.000000 0.000000 -0.199552 0.000000
# 6 0.000000 0.000000 0.000000 0.000000 0.000000 0.076360
#
#
# Mechanical properties :
#
#
# Convention : Reuss Voigt Hill
#
# Bulk Modulus (GPa) = 41.49756 59.14853 50.32305
# Shear Modulus (GPa) = -35.08981 9.68083 -12.70449
#
# Velocity S-wave (km/s) = -4.34878 2.28419 -2.61671
# Velocity P-wave (km/s) = 1.68833 6.23179 4.24174
#
# Compressibility (1/GPa) = 0.02409780
#
# Stress axis : x y z
#
# Youngs Moduli (GPa) = 36.04582 51.45085 69.20855
#
# Poissons Ratio (x) = 0.03821 0.87830
# Poissons Ratio (y) = 0.02677 0.36899
# Poissons Ratio (z) = 0.45745 0.27432
#
# Static dielectric constant tensor:
#      x y z
#    x 1.614330 0.000000 0.000000 
#    y 0.000000 1.676240 0.000000 
#    z 0.000000 0.000000 1.621130 
# 
# From -- ./inp_files/34211.got.cif
#   From: 2010.05.17/outbox.cif.g08.bks.cpg/sg47_18_cif.got.tgz:34211.got - 2010.06.03 20:15:42.
