data_PCOD9383149
_publ_section_title
;
Structure prediction by ZEFSAII (Michael W. Deem and Ramdas Pophale) SiO2 
 PCOD9383149
Probable space group: P M M M
;
_chemical_formula_sum "Si O2"
_cell_formula_units_Z 32
_cell_length_a 13.296832
_cell_length_b 14.846620
_cell_length_c 7.574375
_cell_angle_alpha 90.000000
_cell_angle_beta 90.000000
_cell_angle_gamma 90.000000
_cell_volume 1495.280182
_symmetry_space_group_name_H-M "P M M M"
_symmetry_group_IT_number 47
_symmetry_cell_setting 'orthorhombic'
loop_
_space_group_symop_operation_xyz
x,y,z
-x,-y,z
x,-y,-z
-x,y,-z
-x,-y,-z
x,y,-z
-x,y,z
x,-y,z
loop_
_atom_site_type_symbol
_atom_site_label
_atom_site_fract_x
_atom_site_fract_y
_atom_site_fract_z
Si Si1 0.805960 0.790341 0.800046
Si Si2 0.120962 0.598611 0.292515
Si Si3 0.000000 0.105241 0.215689
Si Si4 0.385158 0.500000 0.710464
Si Si5 0.614359 0.702267 0.211030
O O1 0.845980 0.687920 0.804942
O O2 0.897129 0.847660 0.719160
O O3 0.695439 0.774279 0.718324
O O4 0.791805 0.824865 0.000000
O O5 0.149314 0.606078 0.500000
O O6 0.155414 0.500000 0.228396
O O7 0.000000 0.597278 0.286051
O O8 0.000000 0.000000 0.256182
O O9 0.000000 0.116068 0.000000
O O10 0.500000 0.500000 0.781431
O O11 0.386541 0.500000 0.500000
O O12 0.347691 0.599459 0.760706
O O13 0.500000 0.709130 0.280401
O O14 0.610373 0.714728 0.000000
#
# Coordination Sequence:
#
# PCOD9383149 Si02
#       5
#     8   8   4   4   8
#     4  10  19  31  50  72  92 123 165 199 234 283
#     4   9  18  31  45  65  98 134 159 187 236 285
#     4   9  18  34  54  75  96 116 149 203 258 299
#     4   9  17  29  45  66  93 130 174 206 227 263
#     4   9  18  31  45  64  95 131 164 198 234 272
#
# _framework density 21.400672
#
# number of rings (size 3 to 8) (size 9 to 14) (size 15 to 20)
#    0.000    2.750    1.250    1.125    1.750    3.000 
#    0.000    1.250    0.000    2.250    0.000    5.250 
#    0.000    0.000    0.000    8.500    0.000    9.000 
#
# Total GULP energy -178392.014756 kJ/mol
# GULP energy per Si atom -5574.750461 kJ/mol
# Density = 2.135196 g / cm^3
# Si number density = 21.400672 Si / 1000 Ang^3
#
#
#
# Elastic Constant Matrix: (Units=GPa)
#
#
# Indices 1 2 3 4 5 6 
#
# 1 168.0086 72.5841 3.8980 0.0000 0.0000 0.0000
# 2 72.5841 96.1565 1.7863 0.0000 0.0000 0.0000
# 3 3.8980 1.7863 52.0354 0.0000 0.0000 0.0000
# 4 0.0000 0.0000 0.0000 58.1938 0.0000 0.0000
# 5 0.0000 0.0000 0.0000 0.0000 2.6938 0.0000
# 6 0.0000 0.0000 0.0000 0.0000 0.0000 21.5474
#
#
#
# Elastic Compliance Matrix: (Units=1/GPa)
#
#
# Indices 1 2 3 4 5 6 
#
# 1 0.008842 -0.006667 -0.000434 0.000000 0.000000 0.000000
# 2 -0.006667 0.015433 -0.000030 0.000000 0.000000 0.000000
# 3 -0.000434 -0.000030 0.019251 0.000000 0.000000 0.000000
# 4 0.000000 0.000000 0.000000 0.017184 0.000000 0.000000
# 5 0.000000 0.000000 0.000000 0.000000 0.371220 0.000000
# 6 0.000000 0.000000 0.000000 0.000000 0.000000 0.046409
#
#
# Mechanical properties :
#
#
# Convention : Reuss Voigt Hill
#
# Bulk Modulus (GPa) = 34.17040 52.52635 43.34837
# Shear Modulus (GPa) = 9.95311 32.34914 21.15113
#
# Velocity S-wave (km/s) = 2.15892 3.89214 3.14720
# Velocity P-wave (km/s) = 4.71341 6.69297 5.78844
#
# Compressibility (1/GPa) = 0.02926510
#
# Stress axis : x y z
#
# Youngs Moduli (GPa) = 113.09324 64.79810 51.94481
#
# Poissons Ratio (x) = 0.43198 0.02252
# Poissons Ratio (y) = 0.75394 0.00158
# Poissons Ratio (z) = 0.04903 0.00197
#
# Static dielectric constant tensor:
#      x y z
#    x 1.914480 0.000000 0.000000 
#    y 0.000000 1.714040 0.000000 
#    z 0.000000 0.000000 1.794040 
# 
# From -- ./inp_files/5381.got.cif
#   From: 2010.05.17/outbox.cif.g08.bks.cpg/sg47_3_cif.got.tgz:5381.got - 2010.06.03 20:15:42.
