data_PCOD9383788
_publ_section_title
;
Structure prediction by ZEFSAII (Michael W. Deem and Ramdas Pophale) SiO2 
 PCOD9383788
Probable space group: P M M M
;
_chemical_formula_sum "Si O2"
_cell_formula_units_Z 56
_cell_length_a 20.887392
_cell_length_b 7.861638
_cell_length_c 16.092612
_cell_angle_alpha 90.000000
_cell_angle_beta 90.000000
_cell_angle_gamma 90.000000
_cell_volume 2642.553569
_symmetry_space_group_name_H-M "P M M M"
_symmetry_group_IT_number 47
_symmetry_cell_setting 'orthorhombic'
loop_
_space_group_symop_operation_xyz
x,y,z
-x,-y,z
x,-y,-z
-x,y,-z
-x,-y,-z
x,y,-z
-x,y,z
x,-y,z
loop_
_atom_site_type_symbol
_atom_site_label
_atom_site_fract_x
_atom_site_fract_y
_atom_site_fract_z
Si Si1 0.401558 0.300282 0.911234
Si Si2 0.262429 0.206297 0.865294
Si Si3 0.119738 0.794758 0.090010
Si Si4 0.168517 0.298485 0.408924
Si Si5 0.569785 0.294518 0.726092
Si Si6 0.292002 0.201260 0.322272
Si Si7 0.070854 0.704120 0.270409
O O1 0.418650 0.500000 0.911146
O O2 0.324830 0.281548 0.908178
O O3 0.423893 0.230315 0.821976
O O4 0.423722 0.227457 0.000000
O O5 0.194181 0.257713 0.901182
O O6 0.267801 0.259180 0.768881
O O7 0.266998 0.000000 0.870188
O O8 0.085218 0.740992 0.174107
O O9 0.118567 0.000000 0.089479
O O10 0.094678 0.735766 0.000000
O O11 0.153454 0.226242 0.500000
O O12 0.156055 0.500000 0.412112
O O13 0.243412 0.276806 0.388479
O O14 0.125383 0.228434 0.333144
O O15 0.500000 0.241806 0.693812
O O16 0.571351 0.500000 0.729426
O O17 0.632613 0.240839 0.675819
O O18 0.284376 0.000000 0.325903
O O19 0.070407 0.500000 0.278000
O O20 0.000000 0.768362 0.292237
#
# Coordination Sequence:
#
# PCOD9383788 Si02
#       7
#     8   8   8   8   8   8   8
#     4   9  17  27  41  66  99 135 179 229 276 321
#     4   9  17  30  48  70  99 137 180 226 274 320
#     4  10  20  34  53  77 108 149 194 234 274 324
#     4  10  21  38  62  89 114 142 178 221 274 340
#     4   9  18  32  50  73 105 147 188 225 272 330
#     4  10  19  33  56  82 109 141 179 227 276 323
#     4  10  22  39  58  82 114 149 184 228 278 326
#
# _framework density 21.191624000000001
#
# number of rings (size 3 to 8) (size 9 to 14) (size 15 to 20)
#    0.000    2.429    1.429    0.857    0.000    4.000 
#    0.000    4.286    0.000    0.429    0.000    9.000 
#    0.000    0.000    0.000    0.000    0.000    0.000 
#
# Total GULP energy -312424.879745 kJ/mol
# GULP energy per Si atom -5579.015710 kJ/mol
# Density = 2.114339 g / cm^3
# Si number density = 21.191624 Si / 1000 Ang^3
#
#
#
# Elastic Constant Matrix: (Units=GPa)
#
#
# Indices 1 2 3 4 5 6 
#
# 1 120.2321 2.8998 55.3419 0.0000 0.0000 0.0000
# 2 2.8998 20.8977 8.9801 0.0000 0.0000 0.0000
# 3 55.3419 8.9801 112.2560 0.0000 0.0000 0.0000
# 4 0.0000 0.0000 0.0000 5.8515 0.0000 0.0000
# 5 0.0000 0.0000 0.0000 0.0000 -21.2393 0.0000
# 6 0.0000 0.0000 0.0000 0.0000 0.0000 -275.2480
#
#
#
# Elastic Compliance Matrix: (Units=1/GPa)
#
#
# Indices 1 2 3 4 5 6 
#
# 1 0.010772 0.000815 -0.005376 0.000000 0.000000 0.000000
# 2 0.000815 0.049617 -0.004371 0.000000 0.000000 0.000000
# 3 -0.005376 -0.004371 0.011908 0.000000 0.000000 0.000000
# 4 0.000000 0.000000 0.000000 0.170896 0.000000 0.000000
# 5 0.000000 0.000000 0.000000 0.000000 -0.047082 0.000000
# 6 0.000000 0.000000 0.000000 0.000000 0.000000 -0.003633
#
#
# Mechanical properties :
#
#
# Convention : Reuss Voigt Hill
#
# Bulk Modulus (GPa) = 18.37077 43.09213 30.73145
# Shear Modulus (GPa) = 21.88317 -45.71622 -11.91652
#
# Velocity S-wave (km/s) = 3.21695 -4.64969 -2.37391
# Velocity P-wave (km/s) = 4.74194 2.90646 2.64939
#
# Compressibility (1/GPa) = 0.05443431
#
# Stress axis : x y z
#
# Youngs Moduli (GPa) = 92.83305 20.15422 83.97612
#
# Poissons Ratio (x) = -0.01643 0.45144
# Poissons Ratio (y) = -0.07569 0.36707
# Poissons Ratio (z) = 0.49905 0.08810
#
# Static dielectric constant tensor:
#      x y z
#    x 1.767650 0.000000 0.000000 
#    y 0.000000 1.771300 0.000000 
#    z 0.000000 0.000000 1.784840 
# 
# From -- ./inp_files/7266.got.cif
#   From: 2010.05.17/outbox.cif.g08.bks.cpg/sg47_4_cif.got.tgz:7266.got - 2010.06.03 20:15:42.
