data_PCOD9383221
_publ_section_title
;
Structure prediction by ZEFSAII (Michael W. Deem and Ramdas Pophale) SiO2 
 PCOD9383221
Probable space group: P M M M
;
_chemical_formula_sum "Si O2"
_cell_formula_units_Z 56
_cell_length_a 14.914355
_cell_length_b 23.366254
_cell_length_c 9.090800
_cell_angle_alpha 90.000000
_cell_angle_beta 90.000000
_cell_angle_gamma 90.000000
_cell_volume 3168.076593
_symmetry_space_group_name_H-M "P M M M"
_symmetry_group_IT_number 47
_symmetry_cell_setting 'orthorhombic'
loop_
_space_group_symop_operation_xyz
x,y,z
-x,-y,z
x,-y,-z
-x,y,-z
-x,-y,-z
x,y,-z
-x,y,z
x,-y,z
loop_
_atom_site_type_symbol
_atom_site_label
_atom_site_fract_x
_atom_site_fract_y
_atom_site_fract_z
Si Si1 0.293993 0.935628 0.177095
Si Si2 0.147924 0.218579 0.667304
Si Si3 0.792570 0.331117 0.176522
Si Si4 0.403333 0.289395 0.176505
Si Si5 0.894846 0.566660 0.324308
Si Si6 0.096382 0.895283 0.823263
Si Si7 0.646170 0.824805 0.666650
O O1 0.188620 0.926856 0.219175
O O2 0.350817 0.885833 0.253402
O O3 0.321368 0.000000 0.216077
O O4 0.299458 0.929276 0.000000
O O5 0.115436 0.225595 0.500000
O O6 0.152141 0.278397 0.752810
O O7 0.099409 0.167851 0.753572
O O8 0.250440 0.196189 0.660846
O O9 0.687880 0.321926 0.220874
O O10 0.832780 0.389703 0.237286
O O11 0.798212 0.328415 0.000000
O O12 0.500000 0.315732 0.217577
O O13 0.399919 0.225841 0.243513
O O14 0.399922 0.284878 0.000000
O O15 0.883415 0.574700 0.500000
O O16 0.876119 0.500000 0.291186
O O17 0.000000 0.577188 0.290870
O O18 0.000000 0.922294 0.783381
O O19 0.099260 0.890618 0.000000
O O20 0.612677 0.829012 0.500000
#
# Coordination Sequence:
#
# PCOD9383221 Si02
#       7
#     8   8   8   8   8   8   8
#     4   9  17  29  45  63  84 116 157 196 239 295
#     4   9  17  29  44  62  87 120 155 190 234 289
#     4  10  19  31  51  78 104 130 164 206 248 289
#     4   9  18  33  53  77 105 134 161 193 240 299
#     4   9  19  36  55  74 100 137 177 212 247 287
#     4   9  17  28  41  59  85 115 150 197 247 291
#     4   9  17  29  46  68  92 118 151 192 236 281
#
# _framework density 17.676341000000001
#
# number of rings (size 3 to 8) (size 9 to 14) (size 15 to 20)
#    0.000    2.857    0.000    1.714    0.000    6.286 
#    0.000    2.143    0.000    0.857    0.000   10.000 
#    0.000    0.000    0.000    0.000    0.000    0.000 
#
# Total GULP energy -312011.300755 kJ/mol
# GULP energy per Si atom -5571.630371 kJ/mol
# Density = 1.763611 g / cm^3
# Si number density = 17.676341 Si / 1000 Ang^3
#
#
#
# Elastic Constant Matrix: (Units=GPa)
#
#
# Indices 1 2 3 4 5 6 
#
# 1 51.9265 33.7911 13.5659 0.0000 0.0000 0.0000
# 2 33.7911 107.2838 36.0638 0.0000 0.0000 0.0000
# 3 13.5659 36.0638 23.4602 0.0000 0.0000 0.0000
# 4 0.0000 0.0000 0.0000 18.0141 0.0000 0.0000
# 5 0.0000 0.0000 0.0000 0.0000 9.2046 0.0000
# 6 0.0000 0.0000 0.0000 0.0000 0.0000 13.4546
#
#
#
# Elastic Compliance Matrix: (Units=1/GPa)
#
#
# Indices 1 2 3 4 5 6 
#
# 1 0.024478 -0.006108 -0.004765 0.000000 0.000000 0.000000
# 2 -0.006108 0.020812 -0.028462 0.000000 0.000000 0.000000
# 3 -0.004765 -0.028462 0.089133 0.000000 0.000000 0.000000
# 4 0.000000 0.000000 0.000000 0.055512 0.000000 0.000000
# 5 0.000000 0.000000 0.000000 0.000000 0.108641 0.000000
# 6 0.000000 0.000000 0.000000 0.000000 0.000000 0.074324
#
#
# Mechanical properties :
#
#
# Convention : Reuss Voigt Hill
#
# Bulk Modulus (GPa) = 17.93590 38.83467 28.38529
# Shear Modulus (GPa) = 10.63483 14.75131 12.69307
#
# Velocity S-wave (km/s) = 2.45550 2.89195 2.68261
# Velocity P-wave (km/s) = 4.26710 5.75923 5.06838
#
# Compressibility (1/GPa) = 0.05575410
#
# Stress axis : x y z
#
# Youngs Moduli (GPa) = 40.85381 48.04837 11.21920
#
# Poissons Ratio (x) = 0.29348 0.05346
# Poissons Ratio (y) = 0.24953 0.31932
# Poissons Ratio (z) = 0.19466 1.36753
#
# Static dielectric constant tensor:
#      x y z
#    x 1.650270 0.000000 0.000000 
#    y 0.000000 1.570360 0.000000 
#    z 0.000000 0.000000 1.597380 
# 
# From -- ./inp_files/7299.got.cif
#   From: 2010.05.17/outbox.cif.g08.bks.cpg/sg47_4_cif.got.tgz:7299.got - 2010.06.03 20:15:42.
