data_PCOD9383181
_publ_section_title
;
Structure prediction by ZEFSAII (Michael W. Deem and Ramdas Pophale) SiO2 
 PCOD9383181
Probable space group: P M M M
;
_chemical_formula_sum "Si O2"
_cell_formula_units_Z 60
_cell_length_a 16.106073
_cell_length_b 13.983987
_cell_length_c 15.446859
_cell_angle_alpha 90.000000
_cell_angle_beta 90.000000
_cell_angle_gamma 90.000000
_cell_volume 3479.051495
_symmetry_space_group_name_H-M "P M M M"
_symmetry_group_IT_number 47
_symmetry_cell_setting 'orthorhombic'
loop_
_space_group_symop_operation_xyz
x,y,z
-x,-y,z
x,-y,-z
-x,y,-z
-x,-y,-z
x,y,-z
-x,y,z
x,-y,z
loop_
_atom_site_type_symbol
_atom_site_label
_atom_site_fract_x
_atom_site_fract_y
_atom_site_fract_z
Si Si1 0.903606 0.385566 0.769990
Si Si2 0.589634 0.886592 0.603985
Si Si3 0.096159 0.736024 0.403113
Si Si4 0.590515 0.612568 0.104813
Si Si5 0.818479 0.108508 0.150441
Si Si6 0.228985 0.889675 0.350951
Si Si7 0.000000 0.884799 0.098007
Si Si8 0.234903 0.694471 0.900550
O O1 0.895101 0.500000 0.763313
O O2 0.888926 0.336104 0.676584
O O3 0.837553 0.346134 0.839278
O O4 0.000000 0.364960 0.794925
O O5 0.591236 0.878846 0.500000
O O6 0.500000 0.847007 0.634111
O O7 0.677816 0.849708 0.637005
O O8 0.589160 0.000000 0.625228
O O9 0.105131 0.693731 0.500000
O O10 0.160180 0.823223 0.394215
O O11 0.000000 0.768686 0.395158
O O12 0.500000 0.648212 0.135720
O O13 0.595972 0.500000 0.125269
O O14 0.674773 0.662952 0.133482
O O15 0.589701 0.620466 0.000000
O O16 0.790825 0.108274 0.249373
O O17 0.915087 0.138839 0.145327
O O18 0.769979 0.190725 0.101128
O O19 0.810582 0.000000 0.116030
O O20 0.226237 0.000000 0.383260
O O21 0.000000 0.000000 0.092111
O O22 0.000000 0.845968 0.000000
O O23 0.224340 0.660829 0.000000
#
# Coordination Sequence:
#
# PCOD9383181 Si02
#       8
#     8   8   8   8   8   8   4   8
#     4  10  22  39  56  77 107 137 169 215 267 318
#     4   8  14  26  45  69  97 131 170 209 253 307
#     4  10  21  36  54  76 103 139 180 214 252 309
#     4   8  15  30  52  77 103 131 168 215 264 315
#     4  10  21  34  49  72 106 147 184 220 257 306
#     4  10  19  31  50  75 106 138 172 216 265 310
#     4   9  18  32  48  66  90 134 193 228 248 294
#     4  11  21  33  55  82 108 138 174 216 265 320
#
# _framework density 17.246079999999999
#
# number of rings (size 3 to 8) (size 9 to 14) (size 15 to 20)
#    0.000    2.467    1.333    2.000    1.867    3.200 
#    0.000    3.333    0.000    1.200    0.000    1.867 
#    0.000    0.000    0.000    5.600    0.000    0.533 
#
# Total GULP energy -334198.172636 kJ/mol
# GULP energy per Si atom -5569.969544 kJ/mol
# Density = 1.720683 g / cm^3
# Si number density = 17.246080 Si / 1000 Ang^3
#
#
#
# Elastic Constant Matrix: (Units=GPa)
#
#
# Indices 1 2 3 4 5 6 
#
# 1 164.3690 58.6956 54.8792 0.0000 0.0000 0.0000
# 2 58.6956 66.8481 17.1081 0.0000 0.0000 0.0000
# 3 54.8792 17.1081 69.9103 0.0000 0.0000 0.0000
# 4 0.0000 0.0000 0.0000 18.5450 0.0000 0.0000
# 5 0.0000 0.0000 0.0000 0.0000 12.8691 0.0000
# 6 0.0000 0.0000 0.0000 0.0000 0.0000 9.0154
#
#
#
# Elastic Compliance Matrix: (Units=1/GPa)
#
#
# Indices 1 2 3 4 5 6 
#
# 1 0.011288 -0.008154 -0.006866 0.000000 0.000000 0.000000
# 2 -0.008154 0.021849 0.001054 0.000000 0.000000 0.000000
# 3 -0.006866 0.001054 0.019435 0.000000 0.000000 0.000000
# 4 0.000000 0.000000 0.000000 0.053923 0.000000 0.000000
# 5 0.000000 0.000000 0.000000 0.000000 0.077706 0.000000
# 6 0.000000 0.000000 0.000000 0.000000 0.000000 0.110922
#
#
# Mechanical properties :
#
#
# Convention : Reuss Voigt Hill
#
# Bulk Modulus (GPa) = 40.58187 62.49924 51.54055
# Shear Modulus (GPa) = 15.09352 19.44886 17.27119
#
# Velocity S-wave (km/s) = 2.96156 3.36181 3.16801
# Velocity P-wave (km/s) = 5.93941 7.16850 6.58270
#
# Compressibility (1/GPa) = 0.02464155
#
# Stress axis : x y z
#
# Youngs Moduli (GPa) = 88.58980 45.76808 51.45232
#
# Poissons Ratio (x) = 0.37321 0.35325
# Poissons Ratio (y) = 0.72239 -0.05424
# Poissons Ratio (z) = 0.60822 -0.04825
#
# Static dielectric constant tensor:
#      x y z
#    x 1.610810 0.000000 0.000000 
#    y 0.000000 1.592390 0.000000 
#    z 0.000000 0.000000 1.592260 
# 
# From -- ./inp_files/23964.got.cif
#   From: 2010.05.17/outbox.cif.g08.bks.cpg/sg47_12_cif.got.tgz:23964.got - 2010.06.03 20:15:42.
