data_PCOD9383562
_publ_section_title
;
Structure prediction by ZEFSAII (Michael W. Deem and Ramdas Pophale) SiO2 
 PCOD9383562
Probable space group: P M M M
;
_chemical_formula_sum "Si O2"
_cell_formula_units_Z 56
_cell_length_a 21.175156
_cell_length_b 15.402412
_cell_length_c 8.248843
_cell_angle_alpha 90.000000
_cell_angle_beta 90.000000
_cell_angle_gamma 90.000000
_cell_volume 2690.347580
_symmetry_space_group_name_H-M "P M M M"
_symmetry_group_IT_number 47
_symmetry_cell_setting 'orthorhombic'
loop_
_space_group_symop_operation_xyz
x,y,z
-x,-y,z
x,-y,-z
-x,y,-z
-x,-y,-z
x,y,-z
-x,y,z
x,-y,z
loop_
_atom_site_type_symbol
_atom_site_label
_atom_site_fract_x
_atom_site_fract_y
_atom_site_fract_z
Si Si1 0.333969 0.355912 0.188201
Si Si2 0.907277 0.903165 0.306854
Si Si3 0.357024 0.172676 0.313316
Si Si4 0.068491 0.289713 0.194753
Si Si5 0.764977 0.100368 0.815427
Si Si6 0.808466 0.398020 0.802371
Si Si7 0.573255 0.000000 0.697426
Si Si8 0.428861 0.500000 0.308943
O O1 0.360887 0.259944 0.212970
O O2 0.261621 0.366554 0.252564
O O3 0.385324 0.418971 0.263682
O O4 0.329554 0.378117 0.000000
O O5 0.916366 0.901431 0.500000
O O6 0.931872 0.812768 0.236204
O O7 0.833970 0.898905 0.258771
O O8 0.928991 0.000000 0.250032
O O9 0.375337 0.187991 0.500000
O O10 0.283744 0.147736 0.298924
O O11 0.394440 0.089206 0.247405
O O12 0.131960 0.339136 0.254639
O O13 0.000000 0.325562 0.251303
O O14 0.069931 0.297280 0.000000
O O15 0.745248 0.000000 0.825070
O O16 0.765189 0.136447 0.000000
O O17 0.816118 0.500000 0.759404
O O18 0.808773 0.392973 0.000000
O O19 0.500000 0.000000 0.738159
O O20 0.580021 0.000000 0.500000
O O21 0.500000 0.500000 0.236612
O O22 0.436002 0.500000 0.500000
#
# Coordination Sequence:
#
# PCOD9383562 Si02
#       8
#     8   8   8   8   8   8   4   4
#     4  11  22  39  65  95 125 162 206 256 314 370
#     4  10  21  36  55  79 111 155 203 248 299 362
#     4  11  21  35  58  87 120 159 204 252 301 360
#     4  10  21  36  57  87 121 157 199 249 304 363
#     4  10  19  32  53  81 114 149 192 249 307 357
#     4   9  18  36  62  89 118 153 195 245 299 359
#     4   9  20  38  57  79 115 165 212 249 290 347
#     4  11  25  45  67  93 126 161 200 252 315 383
#
# _framework density 20.815154
#
# number of rings (size 3 to 8) (size 9 to 14) (size 15 to 20)
#    0.000    1.857    1.429    2.786    0.000    4.571 
#    0.000    5.000    0.000    3.000    0.000    1.000 
#    0.000    0.000    0.000    0.000    0.000    0.000 
#
# Total GULP energy -312382.949842 kJ/mol
# GULP energy per Si atom -5578.266961 kJ/mol
# Density = 2.076778 g / cm^3
# Si number density = 20.815154 Si / 1000 Ang^3
#
#
#
# Elastic Constant Matrix: (Units=GPa)
#
#
# Indices 1 2 3 4 5 6 
#
# 1 164.7259 87.5757 16.7733 0.0000 0.0000 0.0000
# 2 87.5757 131.8443 4.9185 0.0000 0.0000 0.0000
# 3 16.7733 4.9185 17.3784 0.0000 0.0000 0.0000
# 4 0.0000 0.0000 0.0000 26.7448 0.0000 0.0000
# 5 0.0000 0.0000 0.0000 0.0000 -74.2418 0.0000
# 6 0.0000 0.0000 0.0000 0.0000 0.0000 61.3369
#
#
#
# Elastic Compliance Matrix: (Units=1/GPa)
#
#
# Indices 1 2 3 4 5 6 
#
# 1 0.010423 -0.006618 -0.008187 0.000000 0.000000 0.000000
# 2 -0.006618 0.011867 0.003028 0.000000 0.000000 0.000000
# 3 -0.008187 0.003028 0.064587 0.000000 0.000000 0.000000
# 4 0.000000 0.000000 0.000000 0.037390 0.000000 0.000000
# 5 0.000000 0.000000 0.000000 0.000000 -0.013469 0.000000
# 6 0.000000 0.000000 0.000000 0.000000 0.000000 0.016303
#
#
# Mechanical properties :
#
#
# Convention : Reuss Voigt Hill
#
# Bulk Modulus (GPa) = 15.79146 59.16484 37.47815
# Shear Modulus (GPa) = 29.11014 16.41340 22.76177
#
# Velocity S-wave (km/s) = 3.74372 2.81113 3.31043
# Velocity P-wave (km/s) = 5.12740 6.24678 5.71456
#
# Compressibility (1/GPa) = 0.06332536
#
# Stress axis : x y z
#
# Youngs Moduli (GPa) = 95.94616 84.26463 15.48296
#
# Poissons Ratio (x) = 0.55763 0.12675
# Poissons Ratio (y) = 0.63493 -0.04689
# Poissons Ratio (z) = 0.78548 -0.25519
#
# Static dielectric constant tensor:
#      x y z
#    x 1.944970 0.000000 0.000000 
#    y 0.000000 1.783350 0.000000 
#    z 0.000000 0.000000 1.736900 
# 
# From -- ./inp_files/11337.got.cif
#   From: 2010.05.17/outbox.cif.g08.bks.cpg/sg47_6_cif.got.tgz:11337.got - 2010.06.03 20:15:42.
