data_PCOD9383454
_publ_section_title
;
Structure prediction by ZEFSAII (Michael W. Deem and Ramdas Pophale) SiO2 
 PCOD9383454
Probable space group: P M M M
;
_chemical_formula_sum "Si O2"
_cell_formula_units_Z 64
_cell_length_a 20.733274
_cell_length_b 20.733321
_cell_length_c 8.330306
_cell_angle_alpha 90.000000
_cell_angle_beta 90.000000
_cell_angle_gamma 90.000000
_cell_volume 3580.945518
_symmetry_space_group_name_H-M "P M M M"
_symmetry_group_IT_number 47
_symmetry_cell_setting 'orthorhombic'
loop_
_space_group_symop_operation_xyz
x,y,z
-x,-y,z
x,-y,-z
-x,y,-z
-x,-y,-z
x,y,-z
-x,y,z
x,-y,z
loop_
_atom_site_type_symbol
_atom_site_label
_atom_site_fract_x
_atom_site_fract_y
_atom_site_fract_z
Si Si1 0.822613 0.822613 0.195936
Si Si2 0.073427 0.426288 0.693716
Si Si3 0.178088 0.675898 0.808158
Si Si4 0.573712 0.073427 0.306284
Si Si5 0.324102 0.821911 0.808158
Si Si6 0.073562 0.926438 0.195935
Si Si7 0.573557 0.573557 0.304100
Si Si8 0.322566 0.322566 0.307883
O O1 0.837605 0.749183 0.246311
O O2 0.749183 0.837604 0.246310
O O3 0.874543 0.874543 0.252815
O O4 0.823673 0.823673 0.000000
O O5 0.073833 0.425954 0.500000
O O6 0.087763 0.500000 0.745380
O O7 0.125636 0.375454 0.752380
O O8 0.000000 0.410755 0.745826
O O9 0.250228 0.661239 0.748150
O O10 0.179666 0.676566 0.000000
O O11 0.574046 0.073833 0.500000
O O12 0.500000 0.087763 0.254619
O O13 0.624547 0.125636 0.247619
O O14 0.589245 0.000000 0.254175
O O15 0.338762 0.749773 0.748148
O O16 0.323434 0.820332 0.000000
O O17 0.000000 0.911447 0.244676
O O18 0.088553 0.000000 0.244677
O O19 0.074335 0.925666 0.000000
O O20 0.574244 0.574244 0.500000
O O21 0.500000 0.588557 0.255066
O O22 0.588558 0.500000 0.255067
O O23 0.625471 0.625471 0.247724
O O24 0.323444 0.323445 0.500000
#
# Coordination Sequence:
#
# PCOD9383454 Si02
#       8
#     8   8   8   8   8   8   8   8
#     4   8  16  29  42  62  96 130 159 194 236 285
#     4   9  19  36  55  74  98 129 167 211 256 307
#     4  10  20  33  49  72 102 133 166 207 252 298
#     4   9  19  36  55  74  98 129 167 211 256 307
#     4  10  20  33  49  72 102 133 166 207 252 298
#     4   8  13  22  38  60  86 118 155 191 227 271
#     4   8  15  29  49  73  97 120 155 203 245 285
#     4  10  19  32  52  75 101 136 171 204 248 301
#
# _framework density 17.872374000000001
#
# number of rings (size 3 to 8) (size 9 to 14) (size 15 to 20)
#    0.000    3.000    0.000    3.375    0.000    3.000 
#    0.000    6.250    0.000    2.250    0.000    3.500 
#    0.000    0.000    0.000   49.500    0.000   44.500 
#
# Total GULP energy -356740.648381 kJ/mol
# GULP energy per Si atom -5574.072631 kJ/mol
# Density = 1.783170 g / cm^3
# Si number density = 17.872374 Si / 1000 Ang^3
#
#
#
# Elastic Constant Matrix: (Units=GPa)
#
#
# Indices 1 2 3 4 5 6 
#
# 1 168.9368 155.9124 24.3242 0.0000 0.0000 0.0000
# 2 155.9124 168.9413 24.3250 0.0000 0.0000 0.0000
# 3 24.3242 24.3250 19.3603 0.0000 0.0000 0.0000
# 4 0.0000 0.0000 0.0000 16.2367 0.0000 0.0000
# 5 0.0000 0.0000 0.0000 0.0000 16.2359 0.0000
# 6 0.0000 0.0000 0.0000 0.0000 0.0000 45.4575
#
#
#
# Elastic Compliance Matrix: (Units=1/GPa)
#
#
# Indices 1 2 3 4 5 6 
#
# 1 0.040279 -0.036487 -0.004763 0.000000 0.000000 0.000000
# 2 -0.036487 0.040278 -0.004765 0.000000 0.000000 0.000000
# 3 -0.004763 -0.004765 0.063623 0.000000 0.000000 0.000000
# 4 0.000000 0.000000 0.000000 0.061589 0.000000 0.000000
# 5 0.000000 0.000000 0.000000 0.000000 0.061592 0.000000
# 6 0.000000 0.000000 0.000000 0.000000 0.000000 0.021999
#
#
# Mechanical properties :
#
#
# Convention : Reuss Voigt Hill
#
# Bulk Modulus (GPa) = 19.17522 85.15130 52.16326
# Shear Modulus (GPa) = 12.53844 25.76446 19.15145
#
# Velocity S-wave (km/s) = 2.65156 3.80093 3.27703
# Velocity P-wave (km/s) = 4.48627 8.18598 6.60064
#
# Compressibility (1/GPa) = 0.05215065
#
# Stress axis : x y z
#
# Youngs Moduli (GPa) = 24.82686 24.82728 15.71750
#
# Poissons Ratio (x) = 0.90587 0.07486
# Poissons Ratio (y) = 0.90585 0.07490
# Poissons Ratio (z) = 0.11825 0.11831
#
# Static dielectric constant tensor:
#      x y z
#    x 1.603540 0.000000 0.000000 
#    y 0.000000 1.603540 0.000000 
#    z 0.000000 0.000000 1.627640 
# 
# From -- ./inp_files/9945.got.cif
#   From: 2010.05.17/outbox.cif.g08.bks.cpg/sg47_5_cif.got.tgz:9945.got - 2010.06.03 20:15:42.
