data_PCOD9383361
_publ_section_title
;
Structure prediction by ZEFSAII (Michael W. Deem and Ramdas Pophale) SiO2 
 PCOD9383361
Probable space group: P M M M
;
_chemical_formula_sum "Si O2"
_cell_formula_units_Z 36
_cell_length_a 7.788838
_cell_length_b 12.022913
_cell_length_c 21.933754
_cell_angle_alpha 90.000000
_cell_angle_beta 90.000000
_cell_angle_gamma 90.000000
_cell_volume 2053.975901
_symmetry_space_group_name_H-M "P M M M"
_symmetry_group_IT_number 47
_symmetry_cell_setting 'orthorhombic'
loop_
_space_group_symop_operation_xyz
x,y,z
-x,-y,z
x,-y,-z
-x,y,-z
-x,-y,-z
x,y,-z
-x,y,z
x,-y,z
loop_
_atom_site_type_symbol
_atom_site_label
_atom_site_fract_x
_atom_site_fract_y
_atom_site_fract_z
Si Si1 0.294680 0.134800 0.500000
Si Si2 0.292929 0.871080 0.368949
Si Si3 0.295874 0.500000 0.930006
Si Si4 0.210285 0.872180 0.000000
Si Si5 0.205795 0.128151 0.764100
Si Si6 0.206155 0.739252 0.881270
O O1 0.500000 0.154615 0.500000
O O2 0.229177 0.175724 0.565898
O O3 0.273324 0.000000 0.500000
O O4 0.500000 0.871578 0.371436
O O5 0.242935 0.824412 0.303303
O O6 0.234132 0.000000 0.366990
O O7 0.500000 0.500000 0.934868
O O8 0.244351 0.610981 0.894268
O O9 0.225353 0.500000 0.000000
O O10 0.269421 0.808836 0.060414
O O11 0.000000 0.870207 0.000000
O O12 0.263105 0.000000 0.000000
O O13 0.271318 0.205672 0.818735
O O14 0.000000 0.121325 0.769639
O O15 0.271868 0.000000 0.768605
O O16 0.000000 0.750259 0.880240
#
# Coordination Sequence:
#
# PCOD9383361 Si02
#       6
#     4   8   4   4   8   8
#     4   7  10  18  33  53  77 110 155 192 209 237
#     4   8  13  22  37  56  81 117 155 185 214 253
#     4  11  23  37  51  67  89 112 141 188 237 269
#     4   9  16  27  47  72  90 109 144 183 212 249
#     4   9  17  28  42  65  95 120 144 181 225 264
#     4  10  19  32  51  69  87 115 151 184 217 265
#
# _framework density 17.526982
#
# number of rings (size 3 to 8) (size 9 to 14) (size 15 to 20)
#    0.000    3.000    1.111    2.333    0.000    4.000 
#    0.000    0.556    0.000    6.000    0.000    0.000 
#    0.000    0.889    0.000   10.000    0.000    7.111 
#
# Total GULP energy -200403.644038 kJ/mol
# GULP energy per Si atom -5566.767890 kJ/mol
# Density = 1.748709 g / cm^3
# Si number density = 17.526982 Si / 1000 Ang^3
#
#
#
# Elastic Constant Matrix: (Units=GPa)
#
#
# Indices 1 2 3 4 5 6 
#
# 1 21.2622 -0.3112 11.8175 0.0000 0.0000 0.0000
# 2 -0.3112 88.9694 76.9199 0.0000 0.0000 0.0000
# 3 11.8175 76.9199 222.8129 0.0000 0.0000 0.0000
# 4 0.0000 0.0000 0.0000 1.4571 0.0000 0.0000
# 5 0.0000 0.0000 0.0000 0.0000 19.8170 0.0000
# 6 0.0000 0.0000 0.0000 0.0000 0.0000 -2.1500
#
#
#
# Elastic Compliance Matrix: (Units=1/GPa)
#
#
# Indices 1 2 3 4 5 6 
#
# 1 0.049197 0.003461 -0.003804 0.000000 0.000000 0.000000
# 2 0.003461 0.016265 -0.005799 0.000000 0.000000 0.000000
# 3 -0.003804 -0.005799 0.006692 0.000000 0.000000 0.000000
# 4 0.000000 0.000000 0.000000 0.686275 0.000000 0.000000
# 5 0.000000 0.000000 0.000000 0.000000 0.050462 0.000000
# 6 0.000000 0.000000 0.000000 0.000000 0.000000 -0.465117
#
#
# Mechanical properties :
#
#
# Convention : Reuss Voigt Hill
#
# Bulk Modulus (GPa) = 16.70281 56.65521 36.67901
# Shear Modulus (GPa) = 13.29736 20.13271 16.71504
#
# Velocity S-wave (km/s) = 2.75740 3.39288 3.09151
# Velocity P-wave (km/s) = 4.43713 6.90967 5.80654
#
# Compressibility (1/GPa) = 0.05987016
#
# Stress axis : x y z
#
# Youngs Moduli (GPa) = 20.32649 61.48070 149.43964
#
# Poissons Ratio (x) = -0.21278 0.56848
# Poissons Ratio (y) = -0.07035 0.86655
# Poissons Ratio (z) = 0.07732 0.35651
#
# Static dielectric constant tensor:
#      x y z
#    x 1.647070 0.000000 0.000000 
#    y 0.000000 1.557670 0.000000 
#    z 0.000000 0.000000 1.665220 
# 
# From -- ./inp_files/15026.got.cif
#   From: 2010.05.17/outbox.cif.g08.bks.cpg/sg47_8_cif.got.tgz:15026.got - 2010.06.03 20:15:42.
