data_PCOD9383971
_publ_section_title
;
Structure prediction by ZEFSAII (Michael W. Deem and Ramdas Pophale) SiO2 
 PCOD9383971
Probable space group: P M M M
;
_chemical_formula_sum "Si O2"
_cell_formula_units_Z 52
_cell_length_a 7.425746
_cell_length_b 16.696243
_cell_length_c 18.162131
_cell_angle_alpha 90.000000
_cell_angle_beta 90.000000
_cell_angle_gamma 90.000000
_cell_volume 2251.778409
_symmetry_space_group_name_H-M "P M M M"
_symmetry_group_IT_number 47
_symmetry_cell_setting 'orthorhombic'
loop_
_space_group_symop_operation_xyz
x,y,z
-x,-y,z
x,-y,-z
-x,y,-z
-x,-y,-z
x,y,-z
-x,y,z
x,-y,z
loop_
_atom_site_type_symbol
_atom_site_label
_atom_site_fract_x
_atom_site_fract_y
_atom_site_fract_z
Si Si1 0.214566 0.090830 0.185270
Si Si2 0.791010 0.749766 0.421235
Si Si3 0.717519 0.500000 0.584959
Si Si4 0.285653 0.911462 0.357792
Si Si5 0.779924 0.410594 0.143905
Si Si6 0.794229 0.360230 0.304076
Si Si7 0.219372 0.237843 0.083729
O O1 0.244155 0.105103 0.271961
O O2 0.281989 0.166767 0.138096
O O3 0.000000 0.088004 0.172799
O O4 0.283545 0.000000 0.168432
O O5 0.710537 0.725503 0.500000
O O6 0.787970 0.844042 0.410749
O O7 0.708042 0.714346 0.346375
O O8 0.000000 0.724071 0.422369
O O9 0.500000 0.500000 0.587003
O O10 0.773951 0.500000 0.500000
O O11 0.787351 0.574699 0.631392
O O12 0.500000 0.911281 0.365923
O O13 0.216736 0.000000 0.374113
O O14 0.721150 0.500000 0.119467
O O15 0.721318 0.396654 0.228870
O O16 0.723271 0.328854 0.103320
O O17 0.000000 0.412956 0.140591
O O18 0.000000 0.338171 0.284080
O O19 0.000000 0.239146 0.088020
O O20 0.269868 0.219174 0.000000
#
# Coordination Sequence:
#
# PCOD9383971 Si02
#       7
#     8   8   4   8   8   8   8
#     4   9  17  31  52  76 103 136 173 215 262 311
#     4  10  21  35  53  78 105 136 175 219 269 320
#     4  11  23  35  49  75 108 135 164 212 269 315
#     4  10  21  36  54  76 103 138 179 220 263 313
#     4   9  16  27  46  72 100 132 170 210 253 302
#     4  10  19  35  56  75  99 135 177 216 255 309
#     4   9  17  28  45  74 109 138 166 208 262 317
#
# _framework density 23.092858
#
# number of rings (size 3 to 8) (size 9 to 14) (size 15 to 20)
#    0.000    2.385    0.769    2.077    0.000    6.462 
#    0.000    4.615    0.000    0.462    0.000    2.154 
#    0.000    0.615    0.000    0.000    0.000    0.000 
#
# Total GULP energy -290169.922669 kJ/mol
# GULP energy per Si atom -5580.190821 kJ/mol
# Density = 2.304030 g / cm^3
# Si number density = 23.092858 Si / 1000 Ang^3
#
#
#
# Elastic Constant Matrix: (Units=GPa)
#
#
# Indices 1 2 3 4 5 6 
#
# 1 79.6434 2.5126 -2.6900 0.0000 0.0000 0.0000
# 2 2.5126 123.5778 14.4220 0.0000 0.0000 0.0000
# 3 -2.6900 14.4220 21.2817 0.0000 0.0000 0.0000
# 4 0.0000 0.0000 0.0000 29.8986 0.0000 0.0000
# 5 0.0000 0.0000 0.0000 0.0000 -371.3806 0.0000
# 6 0.0000 0.0000 0.0000 0.0000 0.0000 29.8937
#
#
#
# Elastic Compliance Matrix: (Units=1/GPa)
#
#
# Indices 1 2 3 4 5 6 
#
# 1 0.012636 -0.000481 0.001923 0.000000 0.000000 0.000000
# 2 -0.000481 0.008805 -0.006028 0.000000 0.000000 0.000000
# 3 0.001923 -0.006028 0.051317 0.000000 0.000000 0.000000
# 4 0.000000 0.000000 0.000000 0.033446 0.000000 0.000000
# 5 0.000000 0.000000 0.000000 0.000000 -0.002693 0.000000
# 6 0.000000 0.000000 0.000000 0.000000 0.000000 0.033452
#
#
# Mechanical properties :
#
#
# Convention : Reuss Voigt Hill
#
# Bulk Modulus (GPa) = 15.72664 28.11023 21.91843
# Shear Modulus (GPa) = 29.88086 -48.30044 -9.20979
#
# Velocity S-wave (km/s) = 3.60105 -4.57834 -1.99920
# Velocity P-wave (km/s) = 4.91070 3.96851 2.04523
#
# Compressibility (1/GPa) = 0.06358638
#
# Stress axis : x y z
#
# Youngs Moduli (GPa) = 79.13827 113.56740 19.48680
#
# Poissons Ratio (x) = 0.05467 -0.03748
# Poissons Ratio (y) = 0.03810 0.11747
# Poissons Ratio (z) = -0.15222 0.68458
#
# Static dielectric constant tensor:
#      x y z
#    x 1.893690 0.000000 0.000000 
#    y 0.000000 1.902170 0.000000 
#    z 0.000000 0.000000 1.829310 
# 
# From -- ./inp_files/26728.got.cif
#   From: 2010.05.17/outbox.cif.g08.bks.cpg/sg47_14_cif.got.tgz:26728.got - 2010.06.03 20:15:42.
