data_PCOD9383951
_publ_section_title
;
Structure prediction by ZEFSAII (Michael W. Deem and Ramdas Pophale) SiO2 
 PCOD9383951
Probable space group: P M M M
;
_chemical_formula_sum "Si O2"
_cell_formula_units_Z 56
_cell_length_a 22.537513
_cell_length_b 7.702380
_cell_length_c 14.168838
_cell_angle_alpha 90.000000
_cell_angle_beta 90.000000
_cell_angle_gamma 90.000000
_cell_volume 2459.603860
_symmetry_space_group_name_H-M "P M M M"
_symmetry_group_IT_number 47
_symmetry_cell_setting 'orthorhombic'
loop_
_space_group_symop_operation_xyz
x,y,z
-x,-y,z
x,-y,-z
-x,y,-z
-x,-y,-z
x,y,-z
-x,y,z
x,-y,z
loop_
_atom_site_type_symbol
_atom_site_label
_atom_site_fract_x
_atom_site_fract_y
_atom_site_fract_z
Si Si1 0.092992 0.706734 0.599200
Si Si2 0.223141 0.207091 0.348611
Si Si3 0.808332 0.301863 0.858354
Si Si4 0.357466 0.707835 0.604590
Si Si5 0.407794 0.694305 0.000000
Si Si6 0.568326 0.290069 0.212637
Si Si7 0.715034 0.816964 0.000000
Si Si8 0.935572 0.712654 0.190601
O O1 0.068942 0.776548 0.500000
O O2 0.081637 0.500000 0.600573
O O3 0.163616 0.737764 0.598032
O O4 0.069969 0.771875 0.700122
O O5 0.212853 0.297812 0.248708
O O6 0.287033 0.257248 0.388369
O O7 0.221755 0.000000 0.337581
O O8 0.808747 0.500000 0.892643
O O9 0.759120 0.198905 0.913546
O O10 0.875557 0.231582 0.861633
O O11 0.377590 0.772220 0.500000
O O12 0.366552 0.500000 0.604361
O O13 0.389609 0.773309 0.701026
O O14 0.422588 0.772682 0.103781
O O15 0.434206 0.500000 0.000000
O O16 0.336782 0.680897 0.000000
O O17 0.500000 0.256526 0.238436
O O18 0.577296 0.500000 0.207446
O O19 0.682911 0.000000 0.000000
O O20 0.933117 0.500000 0.190895
O O21 0.000000 0.763730 0.152826
#
# Coordination Sequence:
#
# PCOD9383951 Si02
#       8
#     8   8   8   8   4   8   4   8
#     4   9  17  29  47  72 102 136 174 218 268 321
#     4  11  21  33  51  75 105 140 179 225 273 322
#     4  10  20  36  57  79 106 139 174 216 269 326
#     4  10  20  33  51  76 108 147 188 229 274 328
#     4  10  19  34  60  87 111 142 179 223 275 328
#     4   9  18  33  55  83 110 138 179 229 275 320
#     4  12  24  37  56  84 114 139 171 216 263 316
#     4   8  15  29  50  75 100 129 171 221 266 311
#
# _framework density 22.767893000000001
#
# number of rings (size 3 to 8) (size 9 to 14) (size 15 to 20)
#    0.000    2.286    0.000    4.714    0.000    4.857 
#    0.000    3.214    0.000   15.000    0.000    5.000 
#    0.000    0.000    0.000    0.000    0.000    0.000 
#
# Total GULP energy -312321.526987 kJ/mol
# GULP energy per Si atom -5577.170125 kJ/mol
# Density = 2.271607 g / cm^3
# Si number density = 22.767893 Si / 1000 Ang^3
#
#
#
# Elastic Constant Matrix: (Units=GPa)
#
#
# Indices 1 2 3 4 5 6 
#
# 1 127.2543 -6.8182 44.2683 0.0000 0.0000 0.0000
# 2 -6.8182 48.6868 4.7026 0.0000 0.0000 0.0000
# 3 44.2683 4.7026 110.7759 0.0000 0.0000 0.0000
# 4 0.0000 0.0000 0.0000 0.6932 0.0000 0.0000
# 5 0.0000 0.0000 0.0000 0.0000 -59.3362 0.0000
# 6 0.0000 0.0000 0.0000 0.0000 0.0000 -26.3319
#
#
#
# Elastic Compliance Matrix: (Units=1/GPa)
#
#
# Indices 1 2 3 4 5 6 
#
# 1 0.009259 0.001661 -0.003771 0.000000 0.000000 0.000000
# 2 0.001661 0.020922 -0.001552 0.000000 0.000000 0.000000
# 3 -0.003771 -0.001552 0.010600 0.000000 0.000000 0.000000
# 4 0.000000 0.000000 0.000000 1.442527 0.000000 0.000000
# 5 0.000000 0.000000 0.000000 0.000000 -0.016853 0.000000
# 6 0.000000 0.000000 0.000000 0.000000 0.000000 -0.037977
#
#
# Mechanical properties :
#
#
# Convention : Reuss Voigt Hill
#
# Bulk Modulus (GPa) = 29.88859 41.22470 35.55664
# Shear Modulus (GPa) = 3.45554 -0.69069 1.38242
#
# Velocity S-wave (km/s) = 1.23330 -0.55138 0.78006
# Velocity P-wave (km/s) = 3.89667 4.21194 4.05737
#
# Compressibility (1/GPa) = 0.03345759
#
# Stress axis : x y z
#
# Youngs Moduli (GPa) = 108.00375 47.79676 94.34053
#
# Poissons Ratio (x) = -0.07938 0.35572
# Poissons Ratio (y) = -0.17938 0.14640
# Poissons Ratio (z) = 0.40723 0.07417
#
# Static dielectric constant tensor:
#      x y z
#    x 1.809930 0.000000 0.000000 
#    y 0.000000 1.859460 0.000000 
#    z 0.000000 0.000000 2.061160 
# 
# From -- ./inp_files/25203.got.cif
#   From: 2010.05.17/outbox.cif.g08.bks.cpg/sg47_13_cif.got.tgz:25203.got - 2010.06.03 20:15:42.
