data_PCOD9383198
_publ_section_title
;
Structure prediction by ZEFSAII (Michael W. Deem and Ramdas Pophale) SiO2 
 PCOD9383198
Probable space group: P M M M
;
_chemical_formula_sum "Si O2"
_cell_formula_units_Z 48
_cell_length_a 10.036262
_cell_length_b 19.677467
_cell_length_c 14.290614
_cell_angle_alpha 90.000000
_cell_angle_beta 90.000000
_cell_angle_gamma 90.000000
_cell_volume 2822.227840
_symmetry_space_group_name_H-M "P M M M"
_symmetry_group_IT_number 47
_symmetry_cell_setting 'orthorhombic'
loop_
_space_group_symop_operation_xyz
x,y,z
-x,-y,z
x,-y,-z
-x,y,-z
-x,-y,-z
x,y,-z
-x,y,z
x,-y,z
loop_
_atom_site_type_symbol
_atom_site_label
_atom_site_fract_x
_atom_site_fract_y
_atom_site_fract_z
Si Si1 0.500000 0.081596 0.110638
Si Si2 0.660679 0.424285 0.212059
Si Si3 0.339753 0.289067 0.109625
Si Si4 0.248589 0.152973 0.203168
Si Si5 0.841093 0.792706 0.391854
Si Si6 0.655492 0.660018 0.393058
Si Si7 0.000000 0.920774 0.888111
O O1 0.374903 0.111617 0.165915
O O2 0.500000 0.000000 0.111553
O O3 0.500000 0.103027 0.000000
O O4 0.500000 0.427963 0.202379
O O5 0.713779 0.500000 0.195196
O O6 0.703876 0.363723 0.143466
O O7 0.686808 0.397133 0.316734
O O8 0.500000 0.283383 0.125256
O O9 0.269317 0.230114 0.167825
O O10 0.315292 0.279657 0.000000
O O11 0.219378 0.157362 0.313726
O O12 0.126072 0.117631 0.152654
O O13 0.826656 0.815553 0.500000
O O14 0.756553 0.722899 0.383452
O O15 0.000000 0.782747 0.374340
O O16 0.663572 0.635338 0.500000
O O17 0.500000 0.681777 0.376870
O O18 0.000000 0.000000 0.860785
O O19 0.000000 0.917654 0.000000
#
# Coordination Sequence:
#
# PCOD9383198 Si02
#       7
#     4   8   8   8   8   8   4
#     4  11  24  40  61  89 120 152 182 221 283 345
#     4   9  17  28  44  71 110 147 180 227 281 329
#     4  10  19  31  50  77 109 146 189 231 273 329
#     4  12  21  37  61  86 114 150 190 232 281 332
#     4  10  21  37  57  84 114 147 189 236 284 332
#     4   9  17  30  51  78 106 139 182 233 288 338
#     4  11  24  40  59  87 120 148 182 229 281 339
#
# _framework density 17.007840000000002
#
# number of rings (size 3 to 8) (size 9 to 14) (size 15 to 20)
#    0.000    1.833    3.333    2.000    1.167    2.000 
#    0.000    3.333    0.000    3.500    0.000    2.333 
#    0.000    3.333    0.000    0.000    0.000    0.000 
#
# Total GULP energy -267616.841198 kJ/mol
# GULP energy per Si atom -5575.350858 kJ/mol
# Density = 1.696913 g / cm^3
# Si number density = 17.007840 Si / 1000 Ang^3
#
#
#
# Elastic Constant Matrix: (Units=GPa)
#
#
# Indices 1 2 3 4 5 6 
#
# 1 93.2393 39.1858 42.2074 0.0000 0.0000 0.0000
# 2 39.1858 90.4470 56.5561 0.0000 0.0000 0.0000
# 3 42.2074 56.5561 106.7543 0.0000 0.0000 0.0000
# 4 0.0000 0.0000 0.0000 23.2261 0.0000 0.0000
# 5 0.0000 0.0000 0.0000 0.0000 22.0039 0.0000
# 6 0.0000 0.0000 0.0000 0.0000 0.0000 -53.2450
#
#
#
# Elastic Compliance Matrix: (Units=1/GPa)
#
#
# Indices 1 2 3 4 5 6 
#
# 1 0.013914 -0.003870 -0.003451 0.000000 0.000000 0.000000
# 2 -0.003870 0.017610 -0.007799 0.000000 0.000000 0.000000
# 3 -0.003451 -0.007799 0.014863 0.000000 0.000000 0.000000
# 4 0.000000 0.000000 0.000000 0.043055 0.000000 0.000000
# 5 0.000000 0.000000 0.000000 0.000000 0.045447 0.000000
# 6 0.000000 0.000000 0.000000 0.000000 0.000000 -0.018781
#
#
# Mechanical properties :
#
#
# Convention : Reuss Voigt Hill
#
# Bulk Modulus (GPa) = 61.93212 62.92659 62.42935
# Shear Modulus (GPa) = 32.95338 8.56309 20.75823
#
# Velocity S-wave (km/s) = 4.40653 2.24627 3.49737
# Velocity P-wave (km/s) = 7.89828 6.61865 7.28661
#
# Compressibility (1/GPa) = 0.01614671
#
# Stress axis : x y z
#
# Youngs Moduli (GPa) = 71.87143 56.78682 67.27984
#
# Poissons Ratio (x) = 0.21979 0.23216
# Poissons Ratio (y) = 0.27817 0.52472
# Poissons Ratio (z) = 0.24800 0.44288
#
# Static dielectric constant tensor:
#      x y z
#    x 1.148770 0.000000 0.000000 
#    y 0.000000 1.565600 0.000000 
#    z 0.000000 0.000000 1.587080 
# 
# From -- ./inp_files/21104.got.cif
#   From: 2010.05.17/outbox.cif.g08.bks.cpg/sg47_11_cif.got.tgz:21104.got - 2010.06.03 20:15:42.
