data_PCOD9383205
_publ_section_title
;
Structure prediction by ZEFSAII (Michael W. Deem and Ramdas Pophale) SiO2 
 PCOD9383205
Probable space group: P M M M
;
_chemical_formula_sum "Si O2"
_cell_formula_units_Z 60
_cell_length_a 20.819273
_cell_length_b 9.505446
_cell_length_c 18.136216
_cell_angle_alpha 90.000000
_cell_angle_beta 90.000000
_cell_angle_gamma 90.000000
_cell_volume 3589.093221
_symmetry_space_group_name_H-M "P M M M"
_symmetry_group_IT_number 47
_symmetry_cell_setting 'orthorhombic'
loop_
_space_group_symop_operation_xyz
x,y,z
-x,-y,z
x,-y,-z
-x,y,-z
-x,-y,-z
x,y,-z
-x,y,z
x,-y,z
loop_
_atom_site_type_symbol
_atom_site_label
_atom_site_fract_x
_atom_site_fract_y
_atom_site_fract_z
Si Si1 0.244091 0.834521 0.648935
Si Si2 0.575587 0.167662 0.830294
Si Si3 0.868076 0.668303 0.582026
Si Si4 0.607486 0.838345 0.341111
Si Si5 0.500000 0.343919 0.412677
Si Si6 0.793880 0.669469 0.795237
Si Si7 0.070844 0.330102 0.738554
Si Si8 0.313413 0.331711 0.085869
O O1 0.197575 0.754579 0.592617
O O2 0.319399 0.824386 0.633265
O O3 0.234314 0.755056 0.726508
O O4 0.227408 0.000000 0.654241
O O5 0.500000 0.206500 0.837591
O O6 0.598377 0.191008 0.745967
O O7 0.624712 0.251805 0.881739
O O8 0.580504 0.000000 0.844629
O O9 0.895304 0.694495 0.500000
O O10 0.856050 0.500000 0.587574
O O11 0.910576 0.707096 0.653744
O O12 0.561978 0.737053 0.385192
O O13 0.587194 0.000000 0.351842
O O14 0.500000 0.500000 0.381097
O O15 0.500000 0.349425 0.500000
O O16 0.789594 0.500000 0.782419
O O17 0.869737 0.707500 0.792013
O O18 0.750398 0.701891 0.866176
O O19 0.067843 0.500000 0.740029
O O20 0.000000 0.275312 0.757331
O O21 0.323640 0.500000 0.092461
O O22 0.304338 0.297729 0.000000
#
# Coordination Sequence:
#
# PCOD9383205 Si02
#       8
#     8   8   8   8   4   8   8   8
#     4  10  19  31  51  74  95 123 165 210 250 296
#     4  10  20  36  56  77 102 131 169 210 249 298
#     4   9  18  31  46  68 100 134 166 204 252 302
#     4  10  20  36  55  73  95 128 167 209 256 306
#     4  11  25  39  51  73 100 127 166 213 257 302
#     4   9  17  31  51  74 101 132 167 206 247 293
#     4   8  14  26  47  74  99 128 171 215 250 290
#     4  10  21  35  52  77 108 138 166 200 247 302
#
# _framework density 16.717314999999999
#
# number of rings (size 3 to 8) (size 9 to 14) (size 15 to 20)
#    0.000    2.467    2.000    1.400    0.000    4.000 
#    0.000    5.333    0.000    6.800    0.000    6.533 
#    0.000    0.000    0.000    6.000    0.000    6.667 
#
# Total GULP energy -334223.531576 kJ/mol
# GULP energy per Si atom -5570.392193 kJ/mol
# Density = 1.667927 g / cm^3
# Si number density = 16.717315 Si / 1000 Ang^3
#
#
#
# Elastic Constant Matrix: (Units=GPa)
#
#
# Indices 1 2 3 4 5 6 
#
# 1 106.1534 27.0113 23.5583 0.0000 0.0000 0.0000
# 2 27.0113 30.6748 18.1515 0.0000 0.0000 0.0000
# 3 23.5583 18.1515 47.5822 0.0000 0.0000 0.0000
# 4 0.0000 0.0000 0.0000 11.9088 0.0000 0.0000
# 5 0.0000 0.0000 0.0000 0.0000 27.2307 0.0000
# 6 0.0000 0.0000 0.0000 0.0000 0.0000 17.5212
#
#
#
# Elastic Compliance Matrix: (Units=1/GPa)
#
#
# Indices 1 2 3 4 5 6 
#
# 1 0.012375 -0.009391 -0.002544 0.000000 0.000000 0.000000
# 2 -0.009391 0.049231 -0.014131 0.000000 0.000000 0.000000
# 3 -0.002544 -0.014131 0.027667 0.000000 0.000000 0.000000
# 4 0.000000 0.000000 0.000000 0.083972 0.000000 0.000000
# 5 0.000000 0.000000 0.000000 0.000000 0.036723 0.000000
# 6 0.000000 0.000000 0.000000 0.000000 0.000000 0.057074
#
#
# Mechanical properties :
#
#
# Convention : Reuss Voigt Hill
#
# Bulk Modulus (GPa) = 26.92527 35.76139 31.34333
# Shear Modulus (GPa) = 15.08051 19.04477 17.06264
#
# Velocity S-wave (km/s) = 3.00674 3.37890 3.19824
# Velocity P-wave (km/s) = 5.30991 6.05482 5.69456
#
# Compressibility (1/GPa) = 0.03713983
#
# Stress axis : x y z
#
# Youngs Moduli (GPa) = 80.81071 20.31221 36.14470
#
# Poissons Ratio (x) = 0.19076 0.09196
# Poissons Ratio (y) = 0.75891 0.51076
# Poissons Ratio (z) = 0.20560 0.28703
#
# Static dielectric constant tensor:
#      x y z
#    x 1.577320 0.000000 0.000000 
#    y 0.000000 1.554260 0.000000 
#    z 0.000000 0.000000 1.554010 
# 
# From -- ./inp_files/28777.got.cif
#   From: 2010.05.17/outbox.cif.g08.bks.cpg/sg47_15_cif.got.tgz:28777.got - 2010.06.03 20:15:42.
