data_PCOD9383674
_publ_section_title
;
Structure prediction by ZEFSAII (Michael W. Deem and Ramdas Pophale) SiO2 
 PCOD9383674
Probable space group: P M M M
;
_chemical_formula_sum "Si O2"
_cell_formula_units_Z 40
_cell_length_a 7.543838
_cell_length_b 21.836832
_cell_length_c 11.373140
_cell_angle_alpha 90.000000
_cell_angle_beta 90.000000
_cell_angle_gamma 90.000000
_cell_volume 1873.537420
_symmetry_space_group_name_H-M "P M M M"
_symmetry_group_IT_number 47
_symmetry_cell_setting 'orthorhombic'
loop_
_space_group_symop_operation_xyz
x,y,z
-x,-y,z
x,-y,-z
-x,y,-z
-x,-y,-z
x,y,-z
-x,y,z
x,-y,z
loop_
_atom_site_type_symbol
_atom_site_label
_atom_site_fract_x
_atom_site_fract_y
_atom_site_fract_z
Si Si1 0.786377 0.209340 0.500000
Si Si2 0.705381 0.870860 0.727815
Si Si3 0.216647 0.352387 0.500000
Si Si4 0.282141 0.000000 0.637011
Si Si5 0.783667 0.637269 0.242044
Si Si6 0.792373 0.241193 0.128325
Si Si7 0.784168 0.570957 0.000000
O O1 0.724478 0.170997 0.387830
O O2 0.731850 0.280300 0.500000
O O3 0.000000 0.209485 0.500000
O O4 0.500000 0.879564 0.754719
O O5 0.779796 0.828175 0.829568
O O6 0.779781 0.937785 0.699260
O O7 0.274604 0.380311 0.374244
O O8 0.000000 0.353814 0.500000
O O9 0.500000 0.000000 0.636834
O O10 0.229589 0.000000 0.500000
O O11 0.726844 0.707834 0.219291
O O12 0.000000 0.633033 0.244761
O O13 0.726611 0.601803 0.123503
O O14 0.000000 0.255286 0.119441
O O15 0.711588 0.249725 0.000000
O O16 0.734244 0.500000 0.000000
O O17 0.000000 0.575159 0.000000
#
# Coordination Sequence:
#
# PCOD9383674 Si02
#       7
#     4   8   4   4   8   8   4
#     4  11  19  30  50  76 104 134 168 207 260 321
#     4  11  21  34  52  74 102 133 168 215 262 309
#     4   9  16  25  43  70  98 127 162 205 258 312
#     4   9  18  34  51  68  97 137 170 197 255 330
#     4   9  15  26  44  68  97 132 170 208 255 309
#     4  10  19  33  53  74  98 133 174 214 262 319
#     4   9  16  26  42  66  99 140 181 210 242 303
#
# _framework density 21.349988
#
# number of rings (size 3 to 8) (size 9 to 14) (size 15 to 20)
#    0.000    2.200    4.000    0.900    0.000    0.400 
#    0.000    3.500    0.000    6.000    0.000    0.000 
#    0.000    1.600    0.000    1.800    0.000    2.600 
#
# Total GULP energy -223037.886104 kJ/mol
# GULP energy per Si atom -5575.947153 kJ/mol
# Density = 2.130139 g / cm^3
# Si number density = 21.349988 Si / 1000 Ang^3
#
#
#
# Elastic Constant Matrix: (Units=GPa)
#
#
# Indices 1 2 3 4 5 6 
#
# 1 44.6907 -1.4055 1.2965 0.0000 0.0000 0.0000
# 2 -1.4055 106.8611 60.5272 0.0000 0.0000 0.0000
# 3 1.2965 60.5272 182.2948 0.0000 0.0000 0.0000
# 4 0.0000 0.0000 0.0000 27.4954 0.0000 0.0000
# 5 0.0000 0.0000 0.0000 0.0000 27.1470 0.0000
# 6 0.0000 0.0000 0.0000 0.0000 0.0000 15.3929
#
#
#
# Elastic Compliance Matrix: (Units=1/GPa)
#
#
# Indices 1 2 3 4 5 6 
#
# 1 0.022400 0.000474 -0.000317 0.000000 0.000000 0.000000
# 2 0.000474 0.011536 -0.003834 0.000000 0.000000 0.000000
# 3 -0.000317 -0.003834 0.006761 0.000000 0.000000 0.000000
# 4 0.000000 0.000000 0.000000 0.036370 0.000000 0.000000
# 5 0.000000 0.000000 0.000000 0.000000 0.036837 0.000000
# 6 0.000000 0.000000 0.000000 0.000000 0.000000 0.064965
#
#
# Mechanical properties :
#
#
# Convention : Reuss Voigt Hill
#
# Bulk Modulus (GPa) = 29.99048 50.52034 40.25541
# Shear Modulus (GPa) = 25.33765 32.23559 28.78662
#
# Velocity S-wave (km/s) = 3.44870 3.88991 3.67593
# Velocity P-wave (km/s) = 5.47134 6.62492 6.07557
#
# Compressibility (1/GPa) = 0.03334392
#
# Stress axis : x y z
#
# Youngs Moduli (GPa) = 44.64267 86.68881 147.91349
#
# Poissons Ratio (x) = -0.04109 0.04684
# Poissons Ratio (y) = -0.02116 0.56703
# Poissons Ratio (z) = 0.01414 0.33232
#
# Static dielectric constant tensor:
#      x y z
#    x 1.809970 0.000000 0.000000 
#    y 0.000000 1.750270 0.000000 
#    z 0.000000 0.000000 1.795470 
# 
# From -- ./inp_files/15153.got.cif
#   From: 2010.05.17/outbox.cif.g08.bks.cpg/sg47_8_cif.got.tgz:15153.got - 2010.06.03 20:15:42.
