data_PCOD9383913
_publ_section_title
;
Structure prediction by ZEFSAII (Michael W. Deem and Ramdas Pophale) SiO2 
 PCOD9383913
Probable space group: P M M M
;
_chemical_formula_sum "Si O2"
_cell_formula_units_Z 28
_cell_length_a 7.795940
_cell_length_b 17.020027
_cell_length_c 11.865227
_cell_angle_alpha 90.000000
_cell_angle_beta 90.000000
_cell_angle_gamma 90.000000
_cell_volume 1574.362672
_symmetry_space_group_name_H-M "P M M M"
_symmetry_group_IT_number 47
_symmetry_cell_setting 'orthorhombic'
loop_
_space_group_symop_operation_xyz
x,y,z
-x,-y,z
x,-y,-z
-x,y,-z
-x,-y,-z
x,y,-z
-x,y,z
x,-y,z
loop_
_atom_site_type_symbol
_atom_site_label
_atom_site_fract_x
_atom_site_fract_y
_atom_site_fract_z
Si Si1 0.693989 0.202409 0.796400
Si Si2 0.000000 0.584297 0.702574
Si Si3 0.000000 0.762815 0.629943
Si Si4 0.302403 0.618970 0.128430
Si Si5 0.793474 0.090946 0.000000
O O1 0.500000 0.195376 0.752667
O O2 0.707157 0.286413 0.859876
O O3 0.729062 0.135832 0.888830
O O4 0.834700 0.206118 0.698234
O O5 0.166567 0.587112 0.783160
O O6 0.000000 0.500000 0.641409
O O7 0.000000 0.667046 0.637018
O O8 0.000000 0.786390 0.500000
O O9 0.500000 0.596505 0.151617
O O10 0.260990 0.596957 0.000000
O O11 0.000000 0.095203 0.000000
O O12 0.741232 0.000000 0.000000
#
# Coordination Sequence:
#
# PCOD9383913 Si02
#       5
#     8   4   4   8   4
#     4  10  19  34  57  82 112 146 182 225 268 320
#     4  10  21  33  48  72 101 135 177 226 280 327
#     4  10  22  39  58  77 102 142 193 241 276 315
#     4   9  17  29  48  73 103 140 176 212 260 323
#     4  11  21  33  57  94 127 150 170 208 272 331
#
# _framework density 17.784973999999998
#
# number of rings (size 3 to 8) (size 9 to 14) (size 15 to 20)
#    0.000    2.143    2.857    0.857    0.000    3.714 
#    0.000    1.429    0.000    1.714    0.000   10.000 
#    0.000    0.000    0.000    0.000    0.000    0.000 
#
# Total GULP energy -156251.066917 kJ/mol
# GULP energy per Si atom -5580.395247 kJ/mol
# Density = 1.774450 g / cm^3
# Si number density = 17.784974 Si / 1000 Ang^3
#
#
#
# Elastic Constant Matrix: (Units=GPa)
#
#
# Indices 1 2 3 4 5 6 
#
# 1 112.2423 32.8389 61.2797 0.0000 0.0000 0.0000
# 2 32.8389 115.8125 32.6052 0.0000 0.0000 0.0000
# 3 61.2797 32.6052 115.4063 0.0000 0.0000 0.0000
# 4 0.0000 0.0000 0.0000 42.8510 0.0000 0.0000
# 5 0.0000 0.0000 0.0000 0.0000 3.8255 0.0000
# 6 0.0000 0.0000 0.0000 0.0000 0.0000 -11.3027
#
#
#
# Elastic Compliance Matrix: (Units=1/GPa)
#
#
# Indices 1 2 3 4 5 6 
#
# 1 0.012913 -0.001881 -0.006325 0.000000 0.000000 0.000000
# 2 -0.001881 0.009655 -0.001729 0.000000 0.000000 0.000000
# 3 -0.006325 -0.001729 0.012512 0.000000 0.000000 0.000000
# 4 0.000000 0.000000 0.000000 0.023337 0.000000 0.000000
# 5 0.000000 0.000000 0.000000 0.000000 0.261400 0.000000
# 6 0.000000 0.000000 0.000000 0.000000 0.000000 -0.088474
#
#
# Mechanical properties :
#
#
# Convention : Reuss Voigt Hill
#
# Bulk Modulus (GPa) = 65.74744 66.32320 66.03532
# Shear Modulus (GPa) = 19.50971 21.52392 20.51682
#
# Velocity S-wave (km/s) = 3.31566 3.48261 3.40016
# Velocity P-wave (km/s) = 7.19071 7.31738 7.25432
#
# Compressibility (1/GPa) = 0.01520972
#
# Stress axis : x y z
#
# Youngs Moduli (GPa) = 77.44209 103.57631 79.92187
#
# Poissons Ratio (x) = 0.19479 0.50553
# Poissons Ratio (y) = 0.14564 0.13819
# Poissons Ratio (z) = 0.48984 0.17909
#
# Static dielectric constant tensor:
#      x y z
#    x 1.615650 0.000000 0.000000 
#    y 0.000000 1.628560 0.000000 
#    z 0.000000 0.000000 1.549410 
# 
# From -- ./inp_files/14778.got.cif
#   From: 2010.05.17/outbox.cif.g08.bks.cpg/sg47_8_cif.got.tgz:14778.got - 2010.06.03 20:15:42.
