data_PCOD9383239
_publ_section_title
;
Structure prediction by ZEFSAII (Michael W. Deem and Ramdas Pophale) SiO2 
 PCOD9383239
Probable space group: P M M M
;
_chemical_formula_sum "Si O2"
_cell_formula_units_Z 64
_cell_length_a 24.446217
_cell_length_b 16.067565
_cell_length_c 8.004251
_cell_angle_alpha 90.000000
_cell_angle_beta 90.000000
_cell_angle_gamma 90.000000
_cell_volume 3143.999201
_symmetry_space_group_name_H-M "P M M M"
_symmetry_group_IT_number 47
_symmetry_cell_setting 'orthorhombic'
loop_
_space_group_symop_operation_xyz
x,y,z
-x,-y,z
x,-y,-z
-x,y,-z
-x,-y,-z
x,y,-z
-x,y,z
x,-y,z
loop_
_atom_site_type_symbol
_atom_site_label
_atom_site_fract_x
_atom_site_fract_y
_atom_site_fract_z
Si Si1 0.563240 0.906126 0.296081
Si Si2 0.060950 0.641349 0.803382
Si Si3 0.060668 0.832473 0.300293
Si Si4 0.756755 0.752865 0.196819
Si Si5 0.367856 0.250428 0.699319
Si Si6 0.826806 0.091593 0.798788
Si Si7 0.436688 0.593317 0.296015
Si Si8 0.178304 0.590939 0.304183
O O1 0.564690 0.906874 0.500000
O O2 0.500000 0.889103 0.249771
O O3 0.603367 0.833690 0.235726
O O4 0.577486 0.000000 0.241049
O O5 0.066400 0.741015 0.780133
O O6 0.113089 0.601076 0.717162
O O7 0.000000 0.618275 0.741436
O O8 0.063554 0.621852 0.000000
O O9 0.063194 0.821404 0.500000
O O10 0.110438 0.889487 0.245346
O O11 0.000000 0.864592 0.257176
O O12 0.696468 0.746879 0.270577
O O13 0.790233 0.832110 0.266317
O O14 0.791547 0.669196 0.223863
O O15 0.750408 0.765343 0.000000
O O16 0.376832 0.250166 0.500000
O O17 0.397972 0.333021 0.765233
O O18 0.810575 0.000000 0.737391
O O19 0.822701 0.091703 0.000000
O O20 0.435032 0.592853 0.500000
O O21 0.500000 0.608373 0.249903
O O22 0.421159 0.500000 0.241338
O O23 0.191445 0.593303 0.500000
O O24 0.194431 0.500000 0.236686
#
# Coordination Sequence:
#
# PCOD9383239 Si02
#       8
#     8   8   8   8   8   8   8   8
#     4   8  14  26  47  78 113 144 178 225 278 328
#     4  10  20  35  58  87 118 151 184 221 272 336
#     4  10  20  34  56  86 117 146 179 226 283 338
#     4  11  24  41  58  78 109 150 192 235 281 335
#     4  10  19  31  52  79 106 139 181 228 274 324
#     4  10  22  40  60  80 105 144 192 237 284 339
#     4   8  14  26  47  77 109 137 169 213 264 317
#     4  11  24  41  62  86 112 144 185 236 289 336
#
# _framework density 20.35624
#
# number of rings (size 3 to 8) (size 9 to 14) (size 15 to 20)
#    0.000    2.250    1.250    2.625    0.000    6.250 
#    0.000    3.750    0.000    1.500    0.000    1.750 
#    0.000    0.000    0.000    0.000    0.000    0.000 
#
# Total GULP energy -357296.360188 kJ/mol
# GULP energy per Si atom -5582.755628 kJ/mol
# Density = 2.030991 g / cm^3
# Si number density = 20.356240 Si / 1000 Ang^3
#
#
#
# Elastic Constant Matrix: (Units=GPa)
#
#
# Indices 1 2 3 4 5 6 
#
# 1 116.5215 89.9366 -5.2662 0.0000 0.0000 0.0000
# 2 89.9366 155.6420 3.4434 0.0000 0.0000 0.0000
# 3 -5.2662 3.4434 14.7211 0.0000 0.0000 0.0000
# 4 0.0000 0.0000 0.0000 14.3104 0.0000 0.0000
# 5 0.0000 0.0000 0.0000 0.0000 190.6119 0.0000
# 6 0.0000 0.0000 0.0000 0.0000 0.0000 -5.3160
#
#
#
# Elastic Compliance Matrix: (Units=1/GPa)
#
#
# Indices 1 2 3 4 5 6 
#
# 1 0.016405 -0.009659 0.008128 0.000000 0.000000 0.000000
# 2 -0.009659 0.012146 -0.006296 0.000000 0.000000 0.000000
# 3 0.008128 -0.006296 0.072310 0.000000 0.000000 0.000000
# 4 0.000000 0.000000 0.000000 0.069879 0.000000 0.000000
# 5 0.000000 0.000000 0.000000 0.000000 0.005246 0.000000
# 6 0.000000 0.000000 0.000000 0.000000 0.000000 -0.188111
#
#
# Mechanical properties :
#
#
# Convention : Reuss Voigt Hill
#
# Bulk Modulus (GPa) = 11.73640 51.45692 31.59666
# Shear Modulus (GPa) = 156.58178 53.17264 104.87721
#
# Velocity S-wave (km/s) = 8.77996 5.11642 7.18559
# Velocity P-wave (km/s) = 10.41930 7.76123 9.18691
#
# Compressibility (1/GPa) = 0.08520504
#
# Stress axis : x y z
#
# Youngs Moduli (GPa) = 60.95725 82.33262 13.82937
#
# Poissons Ratio (x) = 0.79528 -0.11240
# Poissons Ratio (y) = 0.58880 0.08708
# Poissons Ratio (z) = -0.49545 0.51840
#
# Static dielectric constant tensor:
#      x y z
#    x 1.685990 0.000000 0.000000 
#    y 0.000000 1.742950 0.000000 
#    z 0.000000 0.000000 1.732640 
# 
# From -- ./inp_files/12785.got.cif
#   From: 2010.05.17/outbox.cif.g08.bks.cpg/sg47_7_cif.got.tgz:12785.got - 2010.06.03 20:15:42.
