data_PCOD9383543
_publ_section_title
;
Structure prediction by ZEFSAII (Michael W. Deem and Ramdas Pophale) SiO2 
 PCOD9383543
Probable space group: P M M M
;
_chemical_formula_sum "Si O2"
_cell_formula_units_Z 56
_cell_length_a 16.637388
_cell_length_b 7.623727
_cell_length_c 20.096510
_cell_angle_alpha 90.000000
_cell_angle_beta 90.000000
_cell_angle_gamma 90.000000
_cell_volume 2549.019305
_symmetry_space_group_name_H-M "P M M M"
_symmetry_group_IT_number 47
_symmetry_cell_setting 'orthorhombic'
loop_
_space_group_symop_operation_xyz
x,y,z
-x,-y,z
x,-y,-z
-x,y,-z
-x,-y,-z
x,y,-z
-x,y,z
x,-y,z
loop_
_atom_site_type_symbol
_atom_site_label
_atom_site_fract_x
_atom_site_fract_y
_atom_site_fract_z
Si Si1 0.663554 0.791147 0.714719
Si Si2 0.751787 0.289347 0.075748
Si Si3 0.412631 0.211154 0.153044
Si Si4 0.842447 0.787095 0.713358
Si Si5 0.592762 0.289077 0.572622
Si Si6 0.905625 0.786818 0.428044
Si Si7 0.912315 0.292350 0.148645
O O1 0.602959 0.725368 0.771138
O O2 0.752720 0.723128 0.729047
O O3 0.639784 0.760937 0.638624
O O4 0.666802 0.000000 0.723150
O O5 0.758879 0.500000 0.074135
O O6 0.667167 0.252845 0.111536
O O7 0.831313 0.220684 0.113985
O O8 0.750422 0.224253 0.000000
O O9 0.500000 0.275893 0.128898
O O10 0.417020 0.000000 0.153706
O O11 0.865078 0.724892 0.639542
O O12 0.900563 0.730550 0.772308
O O13 0.843256 0.000000 0.712348
O O14 0.623460 0.227737 0.500000
O O15 0.500000 0.229422 0.578919
O O16 0.591736 0.500000 0.570829
O O17 0.873369 0.726435 0.500000
O O18 0.000000 0.742849 0.425285
O O19 0.900485 0.000000 0.427982
O O20 0.914189 0.500000 0.134426
O O21 0.000000 0.219863 0.128718
#
# Coordination Sequence:
#
# PCOD9383543 Si02
#       7
#     8   8   8   8   8   8   8
#     4  10  20  33  52  79 109 141 183 235 283 329
#     4  10  22  40  61  86 115 146 184 229 273 326
#     4  10  21  38  59  84 116 151 186 227 281 339
#     4  10  19  32  53  79 106 140 184 231 274 322
#     4   9  19  35  52  72 102 142 188 235 283 336
#     4   8  14  25  42  67  99 133 171 216 263 309
#     4  10  21  37  58  84 114 148 183 223 276 333
#
# _framework density 21.969231000000001
#
# number of rings (size 3 to 8) (size 9 to 14) (size 15 to 20)
#    0.000    2.429    1.429    1.714    0.000    4.857 
#    0.000    5.000    0.000    0.429    0.000    4.000 
#    0.000    0.000    0.000    0.000    0.000    0.000 
#
# Total GULP energy -312491.815849 kJ/mol
# GULP energy per Si atom -5580.210997 kJ/mol
# Density = 2.191923 g / cm^3
# Si number density = 21.969231 Si / 1000 Ang^3
#
#
#
# Elastic Constant Matrix: (Units=GPa)
#
#
# Indices 1 2 3 4 5 6 
#
# 1 164.7491 9.2910 79.5895 0.0000 0.0000 0.0000
# 2 9.2910 42.8196 -0.7140 0.0000 0.0000 0.0000
# 3 79.5895 -0.7140 137.0106 0.0000 0.0000 0.0000
# 4 0.0000 0.0000 0.0000 20.2392 0.0000 0.0000
# 5 0.0000 0.0000 0.0000 0.0000 8.3086 0.0000
# 6 0.0000 0.0000 0.0000 0.0000 0.0000 20.2177
#
#
#
# Elastic Compliance Matrix: (Units=1/GPa)
#
#
# Indices 1 2 3 4 5 6 
#
# 1 0.008597 -0.001949 -0.005004 0.000000 0.000000 0.000000
# 2 -0.001949 0.023798 0.001256 0.000000 0.000000 0.000000
# 3 -0.005004 0.001256 0.010212 0.000000 0.000000 0.000000
# 4 0.000000 0.000000 0.000000 0.049409 0.000000 0.000000
# 5 0.000000 0.000000 0.000000 0.000000 0.120357 0.000000
# 6 0.000000 0.000000 0.000000 0.000000 0.000000 0.049462
#
#
# Mechanical properties :
#
#
# Convention : Reuss Voigt Hill
#
# Bulk Modulus (GPa) = 32.03794 57.87916 44.95855
# Shear Modulus (GPa) = 17.62842 26.84730 22.23786
#
# Velocity S-wave (km/s) = 2.83576 3.49956 3.18500
# Velocity P-wave (km/s) = 5.03357 6.53697 5.83390
#
# Compressibility (1/GPa) = 0.03121299
#
# Stress axis : x y z
#
# Youngs Moduli (GPa) = 116.31532 42.02101 97.92138
#
# Poissons Ratio (x) = 0.08189 0.49003
# Poissons Ratio (y) = 0.22669 -0.12300
# Poissons Ratio (z) = 0.58208 -0.05278
#
# Static dielectric constant tensor:
#      x y z
#    x 1.811780 0.000000 0.000000 
#    y 0.000000 1.824500 0.000000 
#    z 0.000000 0.000000 1.800530 
# 
# From -- ./inp_files/7291.got.cif
#   From: 2010.05.17/outbox.cif.g08.bks.cpg/sg47_4_cif.got.tgz:7291.got - 2010.06.03 20:15:42.
