data_PCOD9383950
_publ_section_title
;
Structure prediction by ZEFSAII (Michael W. Deem and Ramdas Pophale) SiO2 
 PCOD9383950
Probable space group: P M M M
;
_chemical_formula_sum "Si O2"
_cell_formula_units_Z 45
_cell_length_a 7.558096
_cell_length_b 14.685382
_cell_length_c 22.320661
_cell_angle_alpha 90.000000
_cell_angle_beta 90.000000
_cell_angle_gamma 90.000000
_cell_volume 2477.448888
_symmetry_space_group_name_H-M "P M M M"
_symmetry_group_IT_number 47
_symmetry_cell_setting 'orthorhombic'
loop_
_space_group_symop_operation_xyz
x,y,z
-x,-y,z
x,-y,-z
-x,y,-z
-x,-y,-z
x,y,-z
-x,y,z
x,-y,z
loop_
_atom_site_type_symbol
_atom_site_label
_atom_site_fract_x
_atom_site_fract_y
_atom_site_fract_z
Si Si1 0.285947 0.601794 0.883036
Si Si2 0.000000 0.898708 0.623906
Si Si3 0.205702 0.206809 0.934855
Si Si4 0.707904 0.101628 0.814911
Si Si5 0.000000 0.000000 0.500000
Si Si6 0.284983 0.398746 0.255813
Si Si7 0.715058 0.792610 0.695698
O O1 0.500000 0.603813 0.883969
O O2 0.230415 0.500000 0.901575
O O3 0.222879 0.685563 0.922346
O O4 0.230476 0.615526 0.813591
O O5 0.173129 0.843836 0.645199
O O6 0.000000 0.922035 0.553736
O O7 0.000000 0.000000 0.653677
O O8 0.277340 0.153914 0.877542
O O9 0.000000 0.183576 0.936868
O O10 0.284897 0.184945 0.000000
O O11 0.500000 0.092796 0.803333
O O12 0.771475 0.160443 0.758648
O O13 0.784889 0.000000 0.817846
O O14 0.500000 0.399160 0.254534
O O15 0.226731 0.500000 0.274260
O O16 0.235534 0.313564 0.296586
O O17 0.500000 0.799695 0.688180
#
# Coordination Sequence:
#
# PCOD9383950 Si02
#       7
#     8   4   8   8   1   8   8
#     4   9  17  32  53  72  94 131 176 224 284 346
#     4  10  22  40  61  85 124 161 189 234 269 320
#     4  11  24  37  48  66  97 138 184 234 293 353
#     4  10  21  36  54  77 103 131 177 238 286 337
#     4   8  24  48  58  92 134 162 202 228 270 312
#     4   8  14  27  50  81 116 145 175 231 295 346
#     4  10  19  34  59  90 118 151 194 235 286 341
#
# _framework density 18.163847000000001
#
# number of rings (size 3 to 8) (size 9 to 14) (size 15 to 20)
#    0.267    2.133    1.778    2.133    1.244    3.911 
#    0.000    4.889    0.000    0.000    0.000    1.244 
#    0.000    2.844    0.000    0.000    0.000    0.000 
#
# Total GULP energy -250579.304759 kJ/mol
# GULP energy per Si atom -5568.428995 kJ/mol
# Density = 1.812250 g / cm^3
# Si number density = 18.163847 Si / 1000 Ang^3
#
#
#
# Elastic Constant Matrix: (Units=GPa)
#
#
# Indices 1 2 3 4 5 6 
#
# 1 52.7104 16.2109 19.2733 0.0000 0.0000 0.0000
# 2 16.2109 119.5082 59.5283 0.0000 0.0000 0.0000
# 3 19.2733 59.5283 113.0697 0.0000 0.0000 0.0000
# 4 0.0000 0.0000 0.0000 22.9326 0.0000 0.0000
# 5 0.0000 0.0000 0.0000 0.0000 5.4130 0.0000
# 6 0.0000 0.0000 0.0000 0.0000 0.0000 -29.5081
#
#
#
# Elastic Compliance Matrix: (Units=1/GPa)
#
#
# Indices 1 2 3 4 5 6 
#
# 1 0.020405 -0.001403 -0.002739 0.000000 0.000000 0.000000
# 2 -0.001403 0.011438 -0.005783 0.000000 0.000000 0.000000
# 3 -0.002739 -0.005783 0.012356 0.000000 0.000000 0.000000
# 4 0.000000 0.000000 0.000000 0.043606 0.000000 0.000000
# 5 0.000000 0.000000 0.000000 0.000000 0.184740 0.000000
# 6 0.000000 0.000000 0.000000 0.000000 0.000000 -0.033889
#
#
# Mechanical properties :
#
#
# Convention : Reuss Voigt Hill
#
# Bulk Modulus (GPa) = 41.07141 52.81260 46.94201
# Shear Modulus (GPa) = 18.75309 12.45254 15.60282
#
# Velocity S-wave (km/s) = 3.21665 2.62118 2.93406
# Velocity P-wave (km/s) = 6.03792 6.18866 6.11376
#
# Compressibility (1/GPa) = 0.02434784
#
# Stress axis : x y z
#
# Youngs Moduli (GPa) = 49.00804 87.42410 80.93533
#
# Poissons Ratio (x) = 0.12269 0.22170
# Poissons Ratio (y) = 0.06878 0.46804
# Poissons Ratio (z) = 0.13425 0.50556
#
# Static dielectric constant tensor:
#      x y z
#    x 1.675420 0.000000 0.000000 
#    y 0.000000 1.657440 0.000000 
#    z 0.000000 0.000000 1.595500 
# 
# From -- ./inp_files/29485.got.cif
#   From: 2010.05.17/outbox.cif.g08.bks.cpg/sg47_15_cif.got.tgz:29485.got - 2010.06.03 20:15:42.
