data_PCOD9383245
_publ_section_title
;
Structure prediction by ZEFSAII (Michael W. Deem and Ramdas Pophale) SiO2 
 PCOD9383245
Probable space group: P M M M
;
_chemical_formula_sum "Si O2"
_cell_formula_units_Z 48
_cell_length_a 36.415401
_cell_length_b 8.104600
_cell_length_c 7.463069
_cell_angle_alpha 90.000000
_cell_angle_beta 90.000000
_cell_angle_gamma 90.000000
_cell_volume 2202.592413
_symmetry_space_group_name_H-M "P M M M"
_symmetry_group_IT_number 47
_symmetry_cell_setting 'orthorhombic'
loop_
_space_group_symop_operation_xyz
x,y,z
-x,-y,z
x,-y,-z
-x,y,-z
-x,-y,-z
x,y,-z
-x,y,z
x,-y,z
loop_
_atom_site_type_symbol
_atom_site_label
_atom_site_fract_x
_atom_site_fract_y
_atom_site_fract_z
Si Si1 0.420974 0.315043 0.783464
Si Si2 0.344262 0.824148 0.289593
Si Si3 0.042442 0.000000 0.719175
Si Si4 0.172906 0.812309 0.785702
Si Si5 0.219269 0.500000 0.784514
Si Si6 0.909705 0.311767 0.285208
Si Si7 0.500000 0.808679 0.218196
Si Si8 0.694576 0.500000 0.713975
O O1 0.411679 0.500000 0.724954
O O2 0.388045 0.198781 0.725077
O O3 0.461829 0.270286 0.720836
O O4 0.421750 0.310918 0.000000
O O5 0.335132 0.828580 0.500000
O O6 0.324421 0.664489 0.211503
O O7 0.333448 0.000000 0.210330
O O8 0.063148 0.166914 0.779502
O O9 0.043810 0.000000 0.500000
O O10 0.000000 0.000000 0.772115
O O11 0.199751 0.667692 0.717224
O O12 0.131549 0.749880 0.752181
O O13 0.177896 0.000000 0.716395
O O14 0.177989 0.820992 0.000000
O O15 0.262166 0.500000 0.743584
O O16 0.214742 0.500000 0.000000
O O17 0.914075 0.319316 0.500000
O O18 0.915053 0.500000 0.217635
O O19 0.500000 0.000000 0.265945
O O20 0.500000 0.796776 0.000000
O O21 0.687751 0.500000 0.500000
#
# Coordination Sequence:
#
# PCOD9383245 Si02
#       8
#     8   8   4   8   4   8   4   4
#     4  10  19  32  53  80 108 141 181 222 266 315
#     4  10  21  38  59  80 106 142 181 218 263 318
#     4   9  18  32  49  75 113 149 183 229 277 315
#     4  10  20  35  56  81 109 143 177 214 267 324
#     4  10  22  38  56  82 112 138 172 217 267 324
#     4  10  19  31  52  80 107 140 184 227 268 317
#     4   9  17  29  46  73 110 143 174 219 269 312
#     4  10  22  40  58  79 109 141 174 216 266 319
#
# _framework density 21.792501000000001
#
# number of rings (size 3 to 8) (size 9 to 14) (size 15 to 20)
#    0.000    2.167    2.500    0.750    0.000    4.333 
#    0.000    2.083    0.000    3.500    0.000    1.167 
#    0.000    0.000    0.000    0.000    0.000    0.000 
#
# Total GULP energy -268099.571925 kJ/mol
# GULP energy per Si atom -5585.407748 kJ/mol
# Density = 2.174290 g / cm^3
# Si number density = 21.792501 Si / 1000 Ang^3
#
#
#
# Elastic Constant Matrix: (Units=GPa)
#
#
# Indices 1 2 3 4 5 6 
#
# 1 146.0672 101.9720 -9.8458 0.0000 0.0000 0.0000
# 2 101.9720 249.9970 14.4003 0.0000 0.0000 0.0000
# 3 -9.8458 14.4003 66.4736 0.0000 0.0000 0.0000
# 4 0.0000 0.0000 0.0000 2.4702 0.0000 0.0000
# 5 0.0000 0.0000 0.0000 0.0000 -1.0936 0.0000
# 6 0.0000 0.0000 0.0000 0.0000 0.0000 131.3434
#
#
#
# Elastic Compliance Matrix: (Units=1/GPa)
#
#
# Indices 1 2 3 4 5 6 
#
# 1 0.009930 -0.004187 0.002378 0.000000 0.000000 0.000000
# 2 -0.004187 0.005816 -0.001880 0.000000 0.000000 0.000000
# 3 0.002378 -0.001880 0.015803 0.000000 0.000000 0.000000
# 4 0.000000 0.000000 0.000000 0.404823 0.000000 0.000000
# 5 0.000000 0.000000 0.000000 0.000000 -0.914435 0.000000
# 6 0.000000 0.000000 0.000000 0.000000 0.000000 0.007614
#
#
# Mechanical properties :
#
#
# Convention : Reuss Voigt Hill
#
# Bulk Modulus (GPa) = 41.37393 75.06567 58.21980
# Shear Modulus (GPa) = -10.98868 50.27810 19.64471
#
# Velocity S-wave (km/s) = -2.24797 4.80847 3.00566
# Velocity P-wave (km/s) = 3.50554 8.08387 6.23048
#
# Compressibility (1/GPa) = 0.02416981
#
# Stress axis : x y z
#
# Youngs Moduli (GPa) = 100.70925 171.93159 63.27887
#
# Poissons Ratio (x) = 0.71991 -0.15046
# Poissons Ratio (y) = 0.42169 0.11898
# Poissons Ratio (z) = -0.23947 0.32326
#
# Static dielectric constant tensor:
#      x y z
#    x 1.733750 0.000000 0.000000 
#    y 0.000000 1.807310 0.000000 
#    z 0.000000 0.000000 1.846540 
# 
# From -- ./inp_files/14014.got.cif
#   From: 2010.05.17/outbox.cif.g08.bks.cpg/sg47_8_cif.got.tgz:14014.got - 2010.06.03 20:15:42.
