data_PCOD9383363
_publ_section_title
;
Structure prediction by ZEFSAII (Michael W. Deem and Ramdas Pophale) SiO2 
 PCOD9383363
Probable space group: P M M M
;
_chemical_formula_sum "Si O2"
_cell_formula_units_Z 64
_cell_length_a 21.761177
_cell_length_b 18.154373
_cell_length_c 7.884722
_cell_angle_alpha 90.000000
_cell_angle_beta 90.000000
_cell_angle_gamma 90.000000
_cell_volume 3114.942406
_symmetry_space_group_name_H-M "P M M M"
_symmetry_group_IT_number 47
_symmetry_cell_setting 'orthorhombic'
loop_
_space_group_symop_operation_xyz
x,y,z
-x,-y,z
x,-y,-z
-x,y,-z
-x,-y,-z
x,y,-z
-x,y,z
x,-y,z
loop_
_atom_site_type_symbol
_atom_site_label
_atom_site_fract_x
_atom_site_fract_y
_atom_site_fract_z
Si Si1 0.799200 0.790711 0.293466
Si Si2 0.090068 0.580362 0.805386
Si Si3 0.568928 0.123156 0.706636
Si Si4 0.294485 0.081804 0.292919
Si Si5 0.216417 0.624655 0.692841
Si Si6 0.066508 0.252890 0.298710
Si Si7 0.432162 0.705425 0.295846
Si Si8 0.657473 0.421641 0.195869
O O1 0.800484 0.796488 0.500000
O O2 0.752746 0.854592 0.234003
O O3 0.773843 0.709326 0.251809
O O4 0.870643 0.785614 0.233797
O O5 0.072410 0.500000 0.731939
O O6 0.163915 0.585892 0.799023
O O7 0.070617 0.658353 0.725539
O O8 0.069890 0.581747 0.000000
O O9 0.567741 0.117049 0.500000
O O10 0.500000 0.097821 0.762646
O O11 0.633959 0.089166 0.762844
O O12 0.574739 0.209394 0.752664
O O13 0.296128 0.086726 0.500000
O O14 0.272459 0.000000 0.247349
O O15 0.192642 0.626817 0.500000
O O16 0.280726 0.584955 0.699017
O O17 0.066041 0.239317 0.500000
O O18 0.000000 0.228934 0.228256
O O19 0.428636 0.704382 0.500000
O O20 0.500000 0.681376 0.242926
O O21 0.383512 0.648879 0.227647
O O22 0.625859 0.500000 0.233358
O O23 0.676005 0.421457 0.000000
#
# Coordination Sequence:
#
# PCOD9383363 Si02
#       8
#     8   8   8   8   8   8   8   8
#     4   8  15  28  45  65  89 118 154 196 236 274
#     4  10  20  32  46  68 100 129 151 188 244 294
#     4   8  14  25  41  63  92 123 155 192 231 274
#     4   9  15  22  37  64  97 129 154 179 224 288
#     4  10  19  32  51  69  88 122 165 201 232 274
#     4   9  18  32  49  67  88 122 168 209 241 278
#     4   9  18  33  51  66  82 113 158 202 241 286
#     4  11  23  34  44  63  92 121 150 195 253 298
#
# _framework density 20.546126999999998
#
# number of rings (size 3 to 8) (size 9 to 14) (size 15 to 20)
#    0.000    2.750    0.000    3.750    0.000    6.750 
#    0.000    3.750    0.000    0.375    0.000    2.625 
#    0.000   32.000    0.000   15.500    0.000   16.000 
#
# Total GULP energy -356656.122353 kJ/mol
# GULP energy per Si atom -5572.751912 kJ/mol
# Density = 2.049936 g / cm^3
# Si number density = 20.546127 Si / 1000 Ang^3
#
#
#
# Elastic Constant Matrix: (Units=GPa)
#
#
# Indices 1 2 3 4 5 6 
#
# 1 127.4049 66.9321 9.0656 0.0000 0.0000 0.0000
# 2 66.9321 102.3246 8.2433 0.0000 0.0000 0.0000
# 3 9.0656 8.2433 19.7068 0.0000 0.0000 0.0000
# 4 0.0000 0.0000 0.0000 22.5402 0.0000 0.0000
# 5 0.0000 0.0000 0.0000 0.0000 -23.4344 0.0000
# 6 0.0000 0.0000 0.0000 0.0000 0.0000 -28.6089
#
#
#
# Elastic Compliance Matrix: (Units=1/GPa)
#
#
# Indices 1 2 3 4 5 6 
#
# 1 0.012061 -0.007702 -0.002327 0.000000 0.000000 0.000000
# 2 -0.007702 0.015032 -0.002745 0.000000 0.000000 0.000000
# 3 -0.002327 -0.002745 0.052962 0.000000 0.000000 0.000000
# 4 0.000000 0.000000 0.000000 0.044365 0.000000 0.000000
# 5 0.000000 0.000000 0.000000 0.000000 -0.042672 0.000000
# 6 0.000000 0.000000 0.000000 0.000000 0.000000 -0.034954
#
#
# Mechanical properties :
#
#
# Convention : Reuss Voigt Hill
#
# Bulk Modulus (GPa) = 18.34573 46.43537 32.39055
# Shear Modulus (GPa) = 55.24332 5.11240 30.17786
#
# Velocity S-wave (km/s) = 5.19094 1.57913 3.83663
# Velocity P-wave (km/s) = 6.69897 5.09652 5.95192
#
# Compressibility (1/GPa) = 0.05450859
#
# Stress axis : x y z
#
# Youngs Moduli (GPa) = 82.91493 66.52627 18.88137
#
# Poissons Ratio (x) = 0.51236 0.04393
# Poissons Ratio (y) = 0.63857 0.05183
# Poissons Ratio (z) = 0.19291 0.18260
#
# Static dielectric constant tensor:
#      x y z
#    x 1.762540 0.000000 0.000000 
#    y 0.000000 1.718390 0.000000 
#    z 0.000000 0.000000 1.754870 
# 
# From -- ./inp_files/12718.got.cif
#   From: 2010.05.17/outbox.cif.g08.bks.cpg/sg47_7_cif.got.tgz:12718.got - 2010.06.03 20:15:42.
