data_PCOD9383213
_publ_section_title
;
Structure prediction by ZEFSAII (Michael W. Deem and Ramdas Pophale) SiO2 
 PCOD9383213
Probable space group: P M M M
;
_chemical_formula_sum "Si O2"
_cell_formula_units_Z 64
_cell_length_a 24.198270
_cell_length_b 15.435077
_cell_length_c 7.683397
_cell_angle_alpha 90.000000
_cell_angle_beta 90.000000
_cell_angle_gamma 90.000000
_cell_volume 2869.765381
_symmetry_space_group_name_H-M "P M M M"
_symmetry_group_IT_number 47
_symmetry_cell_setting 'orthorhombic'
loop_
_space_group_symop_operation_xyz
x,y,z
-x,-y,z
x,-y,-z
-x,y,-z
-x,-y,-z
x,y,-z
-x,y,z
x,-y,z
loop_
_atom_site_type_symbol
_atom_site_label
_atom_site_fract_x
_atom_site_fract_y
_atom_site_fract_z
Si Si1 0.675859 0.410600 0.298543
Si Si2 0.686002 0.095299 0.291526
Si Si3 0.249841 0.261131 0.287008
Si Si4 0.839455 0.401267 0.703959
Si Si5 0.064635 0.094032 0.709513
Si Si6 0.561338 0.846372 0.209262
Si Si7 0.062929 0.284448 0.794023
Si Si8 0.559673 0.643052 0.790153
O O1 0.692634 0.411942 0.500000
O O2 0.696436 0.500000 0.216791
O O3 0.699255 0.321953 0.229295
O O4 0.610711 0.406040 0.287609
O O5 0.692736 0.094009 0.500000
O O6 0.730005 0.166874 0.226003
O O7 0.620511 0.115290 0.264107
O O8 0.697404 0.000000 0.220536
O O9 0.245024 0.254400 0.500000
O O10 0.198989 0.322115 0.226610
O O11 0.825549 0.408159 0.500000
O O12 0.834534 0.500000 0.775260
O O13 0.900515 0.361688 0.719783
O O14 0.065772 0.093095 0.500000
O O15 0.087652 0.187682 0.762416
O O16 0.000000 0.094911 0.765385
O O17 0.087792 0.000000 0.768208
O O18 0.500000 0.879524 0.269708
O O19 0.563054 0.744614 0.256590
O O20 0.560171 0.852930 0.000000
O O21 0.000000 0.284571 0.724427
O O22 0.060736 0.296365 0.000000
O O23 0.500000 0.610093 0.736071
O O24 0.563251 0.637363 0.000000
#
# Coordination Sequence:
#
# PCOD9383213 Si02
#       8
#     8   8   8   8   8   8   8   8
#     4  10  19  31  51  76  98 127 169 213 261 316
#     4  10  20  34  55  82 108 137 175 218 270 331
#     4   9  18  36  57  77 104 135 169 219 275 319
#     4  10  21  38  61  84 106 141 189 235 279 332
#     4   8  14  27  50  80 113 150 192 232 264 301
#     4   9  18  33  52  74 103 141 182 221 265 320
#     4  10  21  36  55  83 121 159 188 223 279 339
#     4   9  18  32  48  68  98 135 172 211 259 313
#
# _framework density 22.301473999999999
#
# number of rings (size 3 to 8) (size 9 to 14) (size 15 to 20)
#    0.000    2.625    1.250    1.875    0.000    4.500 
#    0.000    8.125    0.000    3.750    0.000    0.000 
#    0.000    0.000    0.000    0.000    0.000    0.000 
#
# Total GULP energy -356480.435245 kJ/mol
# GULP energy per Si atom -5570.006801 kJ/mol
# Density = 2.225072 g / cm^3
# Si number density = 22.301474 Si / 1000 Ang^3
#
#
#
# Elastic Constant Matrix: (Units=GPa)
#
#
# Indices 1 2 3 4 5 6 
#
# 1 90.2217 68.8692 0.4654 0.0000 0.0000 0.0000
# 2 68.8692 183.6519 10.4311 0.0000 0.0000 0.0000
# 3 0.4654 10.4311 36.0839 0.0000 0.0000 0.0000
# 4 0.0000 0.0000 0.0000 33.2552 0.0000 0.0000
# 5 0.0000 0.0000 0.0000 0.0000 27.0985 0.0000
# 6 0.0000 0.0000 0.0000 0.0000 0.0000 -3.5419
#
#
#
# Elastic Compliance Matrix: (Units=1/GPa)
#
#
# Indices 1 2 3 4 5 6 
#
# 1 0.015610 -0.005940 0.001516 0.000000 0.000000 0.000000
# 2 -0.005940 0.007796 -0.002177 0.000000 0.000000 0.000000
# 3 0.001516 -0.002177 0.028323 0.000000 0.000000 0.000000
# 4 0.000000 0.000000 0.000000 0.030070 0.000000 0.000000
# 5 0.000000 0.000000 0.000000 0.000000 0.036902 0.000000
# 6 0.000000 0.000000 0.000000 0.000000 0.000000 -0.282335
#
#
# Mechanical properties :
#
#
# Convention : Reuss Voigt Hill
#
# Bulk Modulus (GPa) = 25.95589 52.16544 39.06067
# Shear Modulus (GPa) = -36.34022 26.70849 -4.81586
#
# Velocity S-wave (km/s) = -4.04108 3.46441 -1.47110
# Velocity P-wave (km/s) = 3.17961 6.28050 3.82980
#
# Compressibility (1/GPa) = 0.03852689
#
# Stress axis : x y z
#
# Youngs Moduli (GPa) = 64.06117 128.26799 35.30697
#
# Poissons Ratio (x) = 0.76189 -0.05352
# Poissons Ratio (y) = 0.38051 0.07687
# Poissons Ratio (z) = -0.09710 0.27925
#
# Static dielectric constant tensor:
#      x y z
#    x 1.855910 0.000000 0.000000 
#    y 0.000000 1.869540 0.000000 
#    z 0.000000 0.000000 1.823060 
# 
# From -- ./inp_files/12688.got.cif
#   From: 2010.05.17/outbox.cif.g08.bks.cpg/sg47_7_cif.got.tgz:12688.got - 2010.06.03 20:15:42.
