data_PCOD9383162
_publ_section_title
;
Structure prediction by ZEFSAII (Michael W. Deem and Ramdas Pophale) SiO2 
 PCOD9383162
Probable space group: P M M M
;
_chemical_formula_sum "Si O2"
_cell_formula_units_Z 52
_cell_length_a 8.202013
_cell_length_b 28.342434
_cell_length_c 13.041020
_cell_angle_alpha 90.000000
_cell_angle_beta 90.000000
_cell_angle_gamma 90.000000
_cell_volume 3031.580872
_symmetry_space_group_name_H-M "P M M M"
_symmetry_group_IT_number 47
_symmetry_cell_setting 'orthorhombic'
loop_
_space_group_symop_operation_xyz
x,y,z
-x,-y,z
x,-y,-z
-x,y,-z
-x,-y,-z
x,y,-z
-x,y,z
x,-y,z
loop_
_atom_site_type_symbol
_atom_site_label
_atom_site_fract_x
_atom_site_fract_y
_atom_site_fract_z
Si Si1 0.196710 0.382552 0.616259
Si Si2 0.815215 0.115447 0.123791
Si Si3 0.197106 0.725478 0.381294
Si Si4 0.306231 0.784204 0.189846
Si Si5 0.305685 0.446516 0.197784
Si Si6 0.696036 0.280726 0.000000
Si Si7 0.807364 0.388634 0.000000
Si Si8 0.500000 0.945823 0.875424
O O1 0.251151 0.393182 0.500000
O O2 0.247431 0.328734 0.641498
O O3 0.255560 0.419546 0.699268
O O4 0.000000 0.382614 0.616263
O O5 0.783936 0.166412 0.173432
O O6 0.666159 0.081253 0.155078
O O7 0.000000 0.098810 0.146771
O O8 0.804239 0.121129 0.000000
O O9 0.240128 0.735320 0.500000
O O10 0.272581 0.760638 0.299233
O O11 0.000000 0.727681 0.373615
O O12 0.500000 0.792375 0.176207
O O13 0.250552 0.747742 0.101188
O O14 0.500000 0.449060 0.194845
O O15 0.239725 0.500000 0.193914
O O16 0.251068 0.416196 0.100485
O O17 0.500000 0.280608 0.000000
O O18 0.750009 0.334627 0.000000
O O19 0.000000 0.388418 0.000000
O O20 0.500000 0.000000 0.840454
O O21 0.500000 0.946225 0.000000
#
# Coordination Sequence:
#
# PCOD9383162 Si02
#       8
#     8   8   8   8   8   4   4   4
#     4   9  19  37  59  81 105 132 166 211 259 312
#     4  10  19  31  50  74 107 147 187 232 278 323
#     4   9  19  35  52  73 104 139 175 216 263 316
#     4  11  20  32  51  76 109 143 181 222 264 319
#     4  11  24  40  57  76 101 132 166 209 262 318
#     4  10  22  35  53  78 108 142 171 212 263 316
#     4  12  25  39  56  77 102 130 171 217 258 315
#     4   9  18  32  50  72 107 149 191 237 276 322
#
# _framework density 17.152767999999998
#
# number of rings (size 3 to 8) (size 9 to 14) (size 15 to 20)
#    0.000    1.923    1.538    3.692    0.000    7.692 
#    0.000    4.615    0.000    0.000    0.000    0.000 
#    0.000    1.231    0.000    3.231    0.000    0.154 
#
# Total GULP energy -290294.446635 kJ/mol
# GULP energy per Si atom -5582.585512 kJ/mol
# Density = 1.711373 g / cm^3
# Si number density = 17.152768 Si / 1000 Ang^3
#
#
#
# Elastic Constant Matrix: (Units=GPa)
#
#
# Indices 1 2 3 4 5 6 
#
# 1 69.3912 54.8565 25.8760 0.0000 0.0000 0.0000
# 2 54.8565 134.1094 59.2443 0.0000 0.0000 0.0000
# 3 25.8760 59.2443 69.2945 0.0000 0.0000 0.0000
# 4 0.0000 0.0000 0.0000 194.4200 0.0000 0.0000
# 5 0.0000 0.0000 0.0000 0.0000 32.4982 0.0000
# 6 0.0000 0.0000 0.0000 0.0000 0.0000 11.2798
#
#
#
# Elastic Compliance Matrix: (Units=1/GPa)
#
#
# Indices 1 2 3 4 5 6 
#
# 1 0.021327 -0.008365 -0.000812 0.000000 0.000000 0.000000
# 2 -0.008365 0.015263 -0.009926 0.000000 0.000000 0.000000
# 3 -0.000812 -0.009926 0.023221 0.000000 0.000000 0.000000
# 4 0.000000 0.000000 0.000000 0.005144 0.000000 0.000000
# 5 0.000000 0.000000 0.000000 0.000000 0.030771 0.000000
# 6 0.000000 0.000000 0.000000 0.000000 0.000000 0.088654
#
#
# Mechanical properties :
#
#
# Convention : Reuss Voigt Hill
#
# Bulk Modulus (GPa) = 46.28615 61.41654 53.85135
# Shear Modulus (GPa) = 21.75946 56.49416 39.12681
#
# Velocity S-wave (km/s) = 3.56556 5.74521 4.78125
# Velocity P-wave (km/s) = 6.63281 8.93830 7.87043
#
# Compressibility (1/GPa) = 0.02160473
#
# Stress axis : x y z
#
# Youngs Moduli (GPa) = 46.89001 65.51858 43.06528
#
# Poissons Ratio (x) = 0.54804 0.03498
# Poissons Ratio (y) = 0.39222 0.42745
# Poissons Ratio (z) = 0.03809 0.65031
#
# Static dielectric constant tensor:
#      x y z
#    x 1.605260 0.000000 0.000000 
#    y 0.000000 1.537060 0.000000 
#    z 0.000000 0.000000 1.549820 
# 
# From -- ./inp_files/15527.got.cif
#   From: 2010.05.17/outbox.cif.g08.bks.cpg/sg47_8_cif.got.tgz:15527.got - 2010.06.03 20:15:42.
