data_PCOD9383726
_publ_section_title
;
Structure prediction by ZEFSAII (Michael W. Deem and Ramdas Pophale) SiO2 
 PCOD9383726
Probable space group: P M M M
;
_chemical_formula_sum "Si O2"
_cell_formula_units_Z 48
_cell_length_a 8.804839
_cell_length_b 15.796062
_cell_length_c 18.006686
_cell_angle_alpha 90.000000
_cell_angle_beta 90.000000
_cell_angle_gamma 90.000000
_cell_volume 2504.401990
_symmetry_space_group_name_H-M "P M M M"
_symmetry_group_IT_number 47
_symmetry_cell_setting 'orthorhombic'
loop_
_space_group_symop_operation_xyz
x,y,z
-x,-y,z
x,-y,-z
-x,y,-z
-x,-y,-z
x,y,-z
-x,y,z
x,-y,z
loop_
_atom_site_type_symbol
_atom_site_label
_atom_site_fract_x
_atom_site_fract_y
_atom_site_fract_z
Si Si1 0.676172 0.500000 0.308433
Si Si2 0.182249 0.138953 0.083051
Si Si3 0.316470 0.683059 0.697362
Si Si4 0.817291 0.000000 0.646338
Si Si5 0.324629 0.500000 0.127388
Si Si6 0.183211 0.817797 0.415411
Si Si7 0.818631 0.323780 0.862151
Si Si8 0.680250 0.000000 0.189514
O O1 0.500000 0.500000 0.331091
O O2 0.739638 0.590730 0.331673
O O3 0.680889 0.500000 0.218143
O O4 0.215728 0.238501 0.092714
O O5 0.261629 0.081887 0.144533
O O6 0.000000 0.128713 0.090949
O O7 0.225204 0.111523 0.000000
O O8 0.500000 0.682143 0.701693
O O9 0.259586 0.756256 0.643863
O O10 0.251091 0.691224 0.780308
O O11 0.775001 0.914563 0.603356
O O12 0.747146 0.000000 0.728029
O O13 0.000000 0.000000 0.653688
O O14 0.500000 0.500000 0.104969
O O15 0.246561 0.411658 0.105636
O O16 0.226026 0.797117 0.500000
O O17 0.000000 0.810837 0.409072
O O18 0.000000 0.332235 0.856073
O O19 0.500000 0.000000 0.192707
#
# Coordination Sequence:
#
# PCOD9383726 Si02
#       8
#     4   8   8   4   4   8   8   4
#     4   7  14  29  48  71 100 136 175 211 250 303
#     4  10  22  40  59  79 108 147 186 224 270 325
#     4  10  19  33  54  79 108 142 179 221 272 325
#     4  10  21  39  61  80 103 141 181 216 264 326
#     4   9  17  31  52  79 112 146 179 222 276 326
#     4  10  21  37  56  79 107 139 178 223 268 317
#     4  10  19  33  56  83 108 140 186 233 272 315
#     4  12  25  38  57  86 113 138 175 226 278 328
#
# _framework density 19.166252
#
# number of rings (size 3 to 8) (size 9 to 14) (size 15 to 20)
#    0.000    2.167    0.000    4.500    0.000    8.667 
#    0.000    2.083    0.000    6.500    0.000    0.000 
#    0.000    0.000    0.000    0.000    0.000    0.000 
#
# Total GULP energy -267950.686184 kJ/mol
# GULP energy per Si atom -5582.305962 kJ/mol
# Density = 1.912263 g / cm^3
# Si number density = 19.166252 Si / 1000 Ang^3
#
#
#
# Elastic Constant Matrix: (Units=GPa)
#
#
# Indices 1 2 3 4 5 6 
#
# 1 33.0354 25.1998 9.5024 0.0000 0.0000 0.0000
# 2 25.1998 94.3562 4.7458 0.0000 0.0000 0.0000
# 3 9.5024 4.7458 46.0812 0.0000 0.0000 0.0000
# 4 0.0000 0.0000 0.0000 -17.1962 0.0000 0.0000
# 5 0.0000 0.0000 0.0000 0.0000 -10.8680 0.0000
# 6 0.0000 0.0000 0.0000 0.0000 0.0000 -161.5164
#
#
#
# Elastic Compliance Matrix: (Units=1/GPa)
#
#
# Indices 1 2 3 4 5 6 
#
# 1 0.040280 -0.010394 -0.007236 0.000000 0.000000 0.000000
# 2 -0.010394 0.013335 0.000770 0.000000 0.000000 0.000000
# 3 -0.007236 0.000770 0.023114 0.000000 0.000000 0.000000
# 4 0.000000 0.000000 0.000000 -0.058152 0.000000 0.000000
# 5 0.000000 0.000000 0.000000 0.000000 -0.092013 0.000000
# 6 0.000000 0.000000 0.000000 0.000000 0.000000 -0.006191
#
#
# Mechanical properties :
#
#
# Convention : Reuss Voigt Hill
#
# Bulk Modulus (GPa) = 23.25038 28.04096 25.64567
# Shear Modulus (GPa) = -158.36875 -28.98114 -93.67495
#
# Velocity S-wave (km/s) = -9.09991 -3.89278 -6.99865
# Velocity P-wave (km/s) = 9.91231 2.35433 7.20405
#
# Compressibility (1/GPa) = 0.04301004
#
# Stress axis : x y z
#
# Youngs Moduli (GPa) = 24.82600 74.98902 43.26455
#
# Poissons Ratio (x) = 0.77942 0.31305
# Poissons Ratio (y) = 0.25804 -0.03331
# Poissons Ratio (z) = 0.17964 -0.05774
#
# Static dielectric constant tensor:
#      x y z
#    x 1.646330 0.000000 0.000000 
#    y 0.000000 1.692980 0.000000 
#    z 0.000000 0.000000 1.627570 
# 
# From -- ./inp_files/26611.got.cif
#   From: 2010.05.17/outbox.cif.g08.bks.cpg/sg47_14_cif.got.tgz:26611.got - 2010.06.03 20:15:42.
