data_PCOD9383355
_publ_section_title
;
Structure prediction by ZEFSAII (Michael W. Deem and Ramdas Pophale) SiO2 
 PCOD9383355
Probable space group: P M M M
;
_chemical_formula_sum "Si O2"
_cell_formula_units_Z 52
_cell_length_a 8.105590
_cell_length_b 28.272549
_cell_length_c 13.040926
_cell_angle_alpha 90.000000
_cell_angle_beta 90.000000
_cell_angle_gamma 90.000000
_cell_volume 2988.532811
_symmetry_space_group_name_H-M "P M M M"
_symmetry_group_IT_number 47
_symmetry_cell_setting 'orthorhombic'
loop_
_space_group_symop_operation_xyz
x,y,z
-x,-y,z
x,-y,-z
-x,y,-z
-x,-y,-z
x,y,-z
-x,y,z
x,-y,z
loop_
_atom_site_type_symbol
_atom_site_label
_atom_site_fract_x
_atom_site_fract_y
_atom_site_fract_z
Si Si1 0.199212 0.385025 0.616455
Si Si2 0.815427 0.116354 0.123206
Si Si3 0.199502 0.723255 0.381592
Si Si4 0.308753 0.785147 0.192964
Si Si5 0.301981 0.446369 0.193047
Si Si6 0.195347 0.275652 0.000000
Si Si7 0.700740 0.384271 0.000000
Si Si8 0.500000 0.945781 0.875392
O O1 0.253236 0.395641 0.500000
O O2 0.250617 0.331031 0.641438
O O3 0.260669 0.421746 0.699813
O O4 0.000000 0.385432 0.617090
O O5 0.793899 0.167154 0.176005
O O6 0.666185 0.082037 0.154945
O O7 0.000000 0.097498 0.142447
O O8 0.800234 0.124013 0.000000
O O9 0.244447 0.733214 0.500000
O O10 0.272149 0.759042 0.299451
O O11 0.000000 0.724957 0.374726
O O12 0.500000 0.798330 0.185790
O O13 0.267739 0.749172 0.100876
O O14 0.500000 0.448709 0.183582
O O15 0.237810 0.500000 0.186476
O O16 0.243531 0.413164 0.100257
O O17 0.234272 0.331118 0.000000
O O18 0.000000 0.268154 0.000000
O O19 0.500000 0.382154 0.000000
O O20 0.500000 0.000000 0.839843
O O21 0.500000 0.946611 0.000000
#
# Coordination Sequence:
#
# PCOD9383355 Si02
#       8
#     8   8   8   8   8   4   4   4
#     4   9  19  36  55  74  98 127 161 205 255 308
#     4  10  19  32  50  74 108 147 188 234 279 323
#     4   9  19  36  55  75 103 139 175 214 264 320
#     4  12  22  33  51  77 109 143 182 223 267 321
#     4  10  21  36  54  74  97 126 160 202 254 311
#     4  12  24  35  51  77 104 137 175 213 263 323
#     4  10  21  38  54  72  98 128 163 205 254 308
#     4   9  18  32  50  74 107 149 193 235 278 326
#
# _framework density 17.399843000000001
#
# number of rings (size 3 to 8) (size 9 to 14) (size 15 to 20)
#    0.000    1.923    1.538    4.154    0.000    6.154 
#    0.000    4.615    0.000    1.385    0.000    0.000 
#    0.000    1.231    0.000    3.231    0.000    0.154 
#
# Total GULP energy -290340.163723 kJ/mol
# GULP energy per Si atom -5583.464687 kJ/mol
# Density = 1.736024 g / cm^3
# Si number density = 17.399843 Si / 1000 Ang^3
#
#
#
# Elastic Constant Matrix: (Units=GPa)
#
#
# Indices 1 2 3 4 5 6 
#
# 1 61.9562 25.9335 13.5404 0.0000 0.0000 0.0000
# 2 25.9335 113.1048 43.0579 0.0000 0.0000 0.0000
# 3 13.5404 43.0579 61.8502 0.0000 0.0000 0.0000
# 4 0.0000 0.0000 0.0000 -6.6915 0.0000 0.0000
# 5 0.0000 0.0000 0.0000 0.0000 20.5777 0.0000
# 6 0.0000 0.0000 0.0000 0.0000 0.0000 11.2615
#
#
#
# Elastic Compliance Matrix: (Units=1/GPa)
#
#
# Indices 1 2 3 4 5 6 
#
# 1 0.017949 -0.003564 -0.001448 0.000000 0.000000 0.000000
# 2 -0.003564 0.012737 -0.008087 0.000000 0.000000 0.000000
# 3 -0.001448 -0.008087 0.022115 0.000000 0.000000 0.000000
# 4 0.000000 0.000000 0.000000 -0.149442 0.000000 0.000000
# 5 0.000000 0.000000 0.000000 0.000000 0.048596 0.000000
# 6 0.000000 0.000000 0.000000 0.000000 0.000000 0.088798
#
#
# Mechanical properties :
#
#
# Convention : Reuss Voigt Hill
#
# Bulk Modulus (GPa) = 37.59046 44.66389 41.12717
# Shear Modulus (GPa) = 65.94697 15.32151 40.63424
#
# Velocity S-wave (km/s) = 6.16305 2.97063 4.83776
# Velocity P-wave (km/s) = 8.50265 6.12300 7.40899
#
# Compressibility (1/GPa) = 0.02660249
#
# Stress axis : x y z
#
# Youngs Moduli (GPa) = 55.71406 78.51042 45.21834
#
# Poissons Ratio (x) = 0.27982 0.06548
# Poissons Ratio (y) = 0.19857 0.36568
# Poissons Ratio (z) = 0.08068 0.63490
#
# Static dielectric constant tensor:
#      x y z
#    x 1.625260 0.000000 0.000000 
#    y 0.000000 1.567770 0.000000 
#    z 0.000000 0.000000 1.565590 
# 
# From -- ./inp_files/15525.got.cif
#   From: 2010.05.17/outbox.cif.g08.bks.cpg/sg47_8_cif.got.tgz:15525.got - 2010.06.03 20:15:42.
