data_PCOD9383153
_publ_section_title
;
Structure prediction by ZEFSAII (Michael W. Deem and Ramdas Pophale) SiO2 
 PCOD9383153
Probable space group: P M M M
;
_chemical_formula_sum "Si O2"
_cell_formula_units_Z 64
_cell_length_a 16.685906
_cell_length_b 8.036167
_cell_length_c 23.076678
_cell_angle_alpha 90.000000
_cell_angle_beta 90.000000
_cell_angle_gamma 90.000000
_cell_volume 3094.368534
_symmetry_space_group_name_H-M "P M M M"
_symmetry_group_IT_number 47
_symmetry_cell_setting 'orthorhombic'
loop_
_space_group_symop_operation_xyz
x,y,z
-x,-y,z
x,-y,-z
-x,y,-z
-x,-y,-z
x,y,-z
-x,y,z
x,-y,z
loop_
_atom_site_type_symbol
_atom_site_label
_atom_site_fract_x
_atom_site_fract_y
_atom_site_fract_z
Si Si1 0.731687 0.202576 0.434977
Si Si2 0.415370 0.694756 0.907991
Si Si3 0.909239 0.190673 0.591398
Si Si4 0.380752 0.807031 0.217352
Si Si5 0.193903 0.187380 0.186946
Si Si6 0.238837 0.701471 0.063386
Si Si7 0.909852 0.683691 0.285798
Si Si8 0.409998 0.796682 0.348905
O O1 0.703110 0.239846 0.500000
O O2 0.824163 0.264041 0.429733
O O3 0.665681 0.259794 0.387832
O O4 0.736092 0.000000 0.429020
O O5 0.500000 0.768691 0.928098
O O6 0.415430 0.500000 0.923847
O O7 0.413030 0.710344 0.838237
O O8 0.331032 0.763855 0.930345
O O9 0.898212 0.192865 0.660995
O O10 0.000000 0.261169 0.579860
O O11 0.912091 0.000000 0.570614
O O12 0.285497 0.806132 0.208103
O O13 0.400957 0.745026 0.281551
O O14 0.407241 0.000000 0.213048
O O15 0.192606 0.236787 0.119792
O O16 0.146320 0.299036 0.231338
O O17 0.163695 0.000000 0.193619
O O18 0.240582 0.500000 0.066222
O O19 0.208015 0.750236 0.000000
O O20 0.901300 0.500000 0.312232
O O21 0.000000 0.703517 0.264519
O O22 0.500000 0.749127 0.369118
O O23 0.407235 0.000000 0.348953
#
# Coordination Sequence:
#
# PCOD9383153 Si02
#       8
#     8   8   8   8   8   8   8   8
#     4   9  17  28  42  63  92 124 161 204 243 284
#     4   9  17  28  43  66  94 121 154 199 245 287
#     4   9  17  30  49  72  98 127 157 192 238 290
#     4   9  17  29  45  65  90 121 156 194 241 295
#     4  10  19  31  50  73  97 126 158 196 240 283
#     4   9  18  32  48  66  92 129 169 204 239 281
#     4  10  20  33  51  76 103 127 151 183 229 287
#     4   9  16  25  39  60  87 121 159 198 241 288
#
# _framework density 20.682735000000001
#
# number of rings (size 3 to 8) (size 9 to 14) (size 15 to 20)
#    0.000    2.750    0.000    1.875    0.000    5.000 
#    0.000    3.750    0.000    0.750    0.000    7.875 
#    0.000    0.000    0.000    5.375    0.000    5.500 
#
# Total GULP energy -356599.859155 kJ/mol
# GULP energy per Si atom -5571.872799 kJ/mol
# Density = 2.063566 g / cm^3
# Si number density = 20.682735 Si / 1000 Ang^3
#
#
#
# Elastic Constant Matrix: (Units=GPa)
#
#
# Indices 1 2 3 4 5 6 
#
# 1 68.4085 9.2763 45.2379 0.0000 0.0000 0.0000
# 2 9.2763 21.1441 1.5306 0.0000 0.0000 0.0000
# 3 45.2379 1.5306 99.4489 0.0000 0.0000 0.0000
# 4 0.0000 0.0000 0.0000 29.2115 0.0000 0.0000
# 5 0.0000 0.0000 0.0000 0.0000 -12.5634 0.0000
# 6 0.0000 0.0000 0.0000 0.0000 0.0000 5.2650
#
#
#
# Elastic Compliance Matrix: (Units=1/GPa)
#
#
# Indices 1 2 3 4 5 6 
#
# 1 0.022551 -0.009161 -0.010117 0.000000 0.000000 0.000000
# 2 -0.009161 0.051069 0.003381 0.000000 0.000000 0.000000
# 3 -0.010117 0.003381 0.014605 0.000000 0.000000 0.000000
# 4 0.000000 0.000000 0.000000 0.034233 0.000000 0.000000
# 5 0.000000 0.000000 0.000000 0.000000 -0.079597 0.000000
# 6 0.000000 0.000000 0.000000 0.000000 0.000000 0.189935
#
#
# Mechanical properties :
#
#
# Convention : Reuss Voigt Hill
#
# Bulk Modulus (GPa) = 17.72061 33.45456 25.58758
# Shear Modulus (GPa) = 17.64288 13.24640 15.44464
#
# Velocity S-wave (km/s) = 2.92383 2.53347 2.73562
# Velocity P-wave (km/s) = 4.47043 4.97677 4.73038
#
# Compressibility (1/GPa) = 0.05643148
#
# Stress axis : x y z
#
# Youngs Moduli (GPa) = 44.34484 19.58140 68.46769
#
# Poissons Ratio (x) = 0.17938 0.69268
# Poissons Ratio (y) = 0.40624 -0.23150
# Poissons Ratio (z) = 0.44863 -0.06621
#
# Static dielectric constant tensor:
#      x y z
#    x 1.768630 0.000000 0.000000 
#    y 0.000000 1.763040 0.000000 
#    z 0.000000 0.000000 1.721820 
# 
# From -- ./inp_files/28787.got.cif
#   From: 2010.05.17/outbox.cif.g08.bks.cpg/sg47_15_cif.got.tgz:28787.got - 2010.06.03 20:15:42.
