data_PCOD9383523
_publ_section_title
;
Structure prediction by ZEFSAII (Michael W. Deem and Ramdas Pophale) SiO2 
 PCOD9383523
Probable space group: P M M M
;
_chemical_formula_sum "Si O2"
_cell_formula_units_Z 52
_cell_length_a 12.209166
_cell_length_b 9.160056
_cell_length_c 29.003981
_cell_angle_alpha 90.000000
_cell_angle_beta 90.000000
_cell_angle_gamma 90.000000
_cell_volume 3243.707906
_symmetry_space_group_name_H-M "P M M M"
_symmetry_group_IT_number 47
_symmetry_cell_setting 'orthorhombic'
loop_
_space_group_symop_operation_xyz
x,y,z
-x,-y,z
x,-y,-z
-x,y,-z
-x,-y,-z
x,y,-z
-x,y,z
x,-y,z
loop_
_atom_site_type_symbol
_atom_site_label
_atom_site_fract_x
_atom_site_fract_y
_atom_site_fract_z
Si Si1 0.875089 0.177061 0.000000
Si Si2 0.872323 0.175442 0.825753
Si Si3 0.866930 0.667327 0.269161
Si Si4 0.724399 0.823244 0.913463
Si Si5 0.129583 0.826549 0.361593
Si Si6 0.500000 0.334562 0.555787
Si Si7 0.500000 0.675408 0.944767
Si Si8 0.723153 0.175640 0.553075
O O1 0.806276 0.218400 0.044958
O O2 0.000000 0.231263 0.000000
O O3 0.880674 0.000000 0.000000
O O4 0.838683 0.247105 0.777409
O O5 0.788456 0.214393 0.866438
O O6 0.000000 0.216683 0.836168
O O7 0.871464 0.000000 0.821182
O O8 0.831059 0.500000 0.266910
O O9 0.828866 0.743354 0.316274
O O10 0.000000 0.669493 0.270845
O O11 0.608800 0.745216 0.922224
O O12 0.709131 0.000000 0.914673
O O13 0.187192 0.782987 0.409133
O O14 0.000000 0.800991 0.365748
O O15 0.145977 0.000000 0.354886
O O16 0.500000 0.500000 0.573312
O O17 0.500000 0.340369 0.500000
O O18 0.609319 0.248035 0.567924
O O19 0.500000 0.500000 0.939551
O O20 0.500000 0.708260 0.000000
O O21 0.748514 0.218796 0.500000
O O22 0.712234 0.000000 0.553186
#
# Coordination Sequence:
#
# PCOD9383523 Si02
#       8
#     4   8   8   8   8   4   4   8
#     4   9  16  27  47  76 104 125 150 189 234 277
#     4   9  17  30  50  77 103 124 152 195 246 292
#     4   9  17  29  46  68  95 129 164 195 231 282
#     4  10  19  32  53  76  98 127 163 200 236 280
#     4   9  17  29  46  69  97 128 160 195 236 283
#     4   9  17  29  45  64  87 118 157 197 234 274
#     4  11  23  37  51  68  97 136 175 207 235 275
#     4   9  17  29  46  68  94 124 158 197 241 288
#
# _framework density 16.031036
#
# number of rings (size 3 to 8) (size 9 to 14) (size 15 to 20)
#    0.000    2.692    0.769    1.385    0.000    6.462 
#    0.000    1.538    0.000    2.769    0.000   10.769 
#    0.000    0.000    0.000    0.000    0.000    0.000 
#
# Total GULP energy -289678.185762 kJ/mol
# GULP energy per Si atom -5570.734342 kJ/mol
# Density = 1.599455 g / cm^3
# Si number density = 16.031036 Si / 1000 Ang^3
#
#
#
# Elastic Constant Matrix: (Units=GPa)
#
#
# Indices 1 2 3 4 5 6 
#
# 1 95.6231 42.0130 71.6849 0.0000 0.0000 0.0000
# 2 42.0130 34.6238 54.5511 0.0000 0.0000 0.0000
# 3 71.6849 54.5511 147.0555 0.0000 0.0000 0.0000
# 4 0.0000 0.0000 0.0000 14.4017 0.0000 0.0000
# 5 0.0000 0.0000 0.0000 0.0000 2.7874 0.0000
# 6 0.0000 0.0000 0.0000 0.0000 0.0000 12.3301
#
#
#
# Elastic Compliance Matrix: (Units=1/GPa)
#
#
# Indices 1 2 3 4 5 6 
#
# 1 0.022650 -0.024277 -0.002036 0.000000 0.000000 0.000000
# 2 -0.024277 0.095524 -0.023601 0.000000 0.000000 0.000000
# 3 -0.002036 -0.023601 0.016547 0.000000 0.000000 0.000000
# 4 0.000000 0.000000 0.000000 0.069436 0.000000 0.000000
# 5 0.000000 0.000000 0.000000 0.000000 0.358754 0.000000
# 6 0.000000 0.000000 0.000000 0.000000 0.000000 0.081102
#
#
# Mechanical properties :
#
#
# Convention : Reuss Voigt Hill
#
# Bulk Modulus (GPa) = 28.65764 68.20003 48.42883
# Shear Modulus (GPa) = 6.61838 13.17407 9.89622
#
# Velocity S-wave (km/s) = 2.03407 2.86979 2.48728
# Velocity P-wave (km/s) = 4.84063 7.32228 6.20675
#
# Compressibility (1/GPa) = 0.03489471
#
# Stress axis : x y z
#
# Youngs Moduli (GPa) = 44.15029 10.46857 60.43257
#
# Poissons Ratio (x) = 0.25414 0.12301
# Poissons Ratio (y) = 1.07182 1.42627
# Poissons Ratio (z) = 0.08987 0.24707
#
# Static dielectric constant tensor:
#      x y z
#    x 1.517630 0.000000 0.000000 
#    y 0.000000 1.536240 0.000000 
#    z 0.000000 0.000000 1.530570 
# 
# From -- ./inp_files/34563.got.cif
#   From: 2010.05.17/outbox.cif.g08.bks.cpg/sg47_18_cif.got.tgz:34563.got - 2010.06.03 20:15:42.
