data_PCOD9383126
_publ_section_title
;
Structure prediction by ZEFSAII (Michael W. Deem and Ramdas Pophale) SiO2 
 PCOD9383126
Probable space group: P M M M
;
_chemical_formula_sum "Si O2"
_cell_formula_units_Z 52
_cell_length_a 17.058787
_cell_length_b 13.781360
_cell_length_c 13.288141
_cell_angle_alpha 90.000000
_cell_angle_beta 90.000000
_cell_angle_gamma 90.000000
_cell_volume 3123.952717
_symmetry_space_group_name_H-M "P M M M"
_symmetry_group_IT_number 47
_symmetry_cell_setting 'orthorhombic'
loop_
_space_group_symop_operation_xyz
x,y,z
-x,-y,z
x,-y,-z
-x,y,-z
-x,-y,-z
x,y,-z
-x,y,z
x,-y,z
loop_
_atom_site_type_symbol
_atom_site_label
_atom_site_fract_x
_atom_site_fract_y
_atom_site_fract_z
Si Si1 0.817710 0.304777 0.693765
Si Si2 0.093246 0.615944 0.884123
Si Si3 0.410448 0.805689 0.678544
Si Si4 0.906158 0.386168 0.500000
Si Si5 0.250952 0.889950 0.616514
Si Si6 0.341741 0.390520 0.380743
Si Si7 0.594722 0.888787 0.888975
O O1 0.858707 0.328650 0.798804
O O2 0.872281 0.336785 0.600331
O O3 0.792971 0.192838 0.679237
O O4 0.737714 0.365884 0.678714
O O5 0.105363 0.500000 0.871132
O O6 0.000000 0.633360 0.871780
O O7 0.113994 0.640333 0.000000
O O8 0.500000 0.839033 0.663687
O O9 0.343717 0.865434 0.621051
O O10 0.401991 0.694052 0.647045
O O11 0.387409 0.820504 0.795610
O O12 0.882775 0.500000 0.500000
O O13 0.000000 0.381129 0.500000
O O14 0.226375 0.881055 0.500000
O O15 0.237682 0.000000 0.650453
O O16 0.323889 0.382000 0.500000
O O17 0.368410 0.500000 0.361066
O O18 0.500000 0.891351 0.893913
O O19 0.620222 0.000000 0.868578
O O20 0.623396 0.859891 0.000000
#
# Coordination Sequence:
#
# PCOD9383126 Si02
#       7
#     8   8   8   4   8   8   8
#     4  11  18  33  53  74 102 137 172 207 247 303
#     4   9  18  32  52  81 114 143 168 200 249 303
#     4  10  19  31  49  73  96 122 167 218 261 307
#     4  11  20  28  49  85 108 121 155 209 253 283
#     4  10  21  36  51  69  99 138 172 210 265 315
#     4  10  20  33  48  67  98 139 171 200 249 308
#     4   8  14  26  45  67  89 113 143 189 252 306
#
# _framework density 16.645578
#
# number of rings (size 3 to 8) (size 9 to 14) (size 15 to 20)
#    0.000    2.231    1.538    4.615    0.000    3.692 
#    0.000    4.615    0.000    5.077    0.000    3.231 
#    0.000    0.000    0.000    0.000    0.000    0.000 
#
# Total GULP energy -289859.540959 kJ/mol
# GULP energy per Si atom -5574.221942 kJ/mol
# Density = 1.660769 g / cm^3
# Si number density = 16.645578 Si / 1000 Ang^3
#
#
#
# Elastic Constant Matrix: (Units=GPa)
#
#
# Indices 1 2 3 4 5 6 
#
# 1 56.9830 27.1054 38.2063 0.0000 0.0000 0.0000
# 2 27.1054 109.5021 52.9742 0.0000 0.0000 0.0000
# 3 38.2063 52.9742 109.1773 0.0000 0.0000 0.0000
# 4 0.0000 0.0000 0.0000 23.6014 0.0000 0.0000
# 5 0.0000 0.0000 0.0000 0.0000 29.0361 0.0000
# 6 0.0000 0.0000 0.0000 0.0000 0.0000 -0.2658
#
#
#
# Elastic Compliance Matrix: (Units=1/GPa)
#
#
# Indices 1 2 3 4 5 6 
#
# 1 0.023399 -0.002392 -0.007028 0.000000 0.000000 0.000000
# 2 -0.002392 0.012178 -0.005072 0.000000 0.000000 0.000000
# 3 -0.007028 -0.005072 0.014080 0.000000 0.000000 0.000000
# 4 0.000000 0.000000 0.000000 0.042370 0.000000 0.000000
# 5 0.000000 0.000000 0.000000 0.000000 0.034440 0.000000
# 6 0.000000 0.000000 0.000000 0.000000 0.000000 -3.762802
#
#
# Mechanical properties :
#
#
# Convention : Reuss Voigt Hill
#
# Bulk Modulus (GPa) = 48.37169 56.91493 52.64331
# Shear Modulus (GPa) = -1.38871 20.96612 9.78871
#
# Velocity S-wave (km/s) = -0.91438 3.55288 2.42764
# Velocity P-wave (km/s) = 5.29227 7.14822 6.28908
#
# Compressibility (1/GPa) = 0.02067325
#
# Stress axis : x y z
#
# Youngs Moduli (GPa) = 42.73695 82.11539 71.02473
#
# Poissons Ratio (x) = 0.19644 0.49914
# Poissons Ratio (y) = 0.10224 0.36022
# Poissons Ratio (z) = 0.30034 0.41647
#
# Static dielectric constant tensor:
#      x y z
#    x 1.560950 0.000000 0.000000 
#    y 0.000000 1.561840 0.000000 
#    z 0.000000 0.000000 1.578790 
# 
# From -- ./inp_files/18546.got.cif
#   From: 2010.05.17/outbox.cif.g08.bks.cpg/sg47_10_cif.got.tgz:18546.got - 2010.06.03 20:15:42.
