data_PCOD9383783
_publ_section_title
;
Structure prediction by ZEFSAII (Michael W. Deem and Ramdas Pophale) SiO2 
 PCOD9383783
Probable space group: P M M M
;
_chemical_formula_sum "Si O2"
_cell_formula_units_Z 40
_cell_length_a 7.621671
_cell_length_b 12.433336
_cell_length_c 20.847580
_cell_angle_alpha 90.000000
_cell_angle_beta 90.000000
_cell_angle_gamma 90.000000
_cell_volume 1975.574979
_symmetry_space_group_name_H-M "P M M M"
_symmetry_group_IT_number 47
_symmetry_cell_setting 'orthorhombic'
loop_
_space_group_symop_operation_xyz
x,y,z
-x,-y,z
x,-y,-z
-x,y,-z
-x,-y,-z
x,y,-z
-x,y,z
x,-y,z
loop_
_atom_site_type_symbol
_atom_site_label
_atom_site_fract_x
_atom_site_fract_y
_atom_site_fract_z
Si Si1 0.799430 0.000000 0.715295
Si Si2 0.788776 0.224849 0.072358
Si Si3 0.215056 0.376348 0.187367
Si Si4 0.207670 0.233970 0.693113
Si Si5 0.711858 0.377861 0.572815
Si Si6 0.295635 0.000000 0.860624
O O1 0.717373 0.113354 0.694264
O O2 0.802135 0.000000 0.792686
O O3 0.000000 0.000000 0.690530
O O4 0.727903 0.313644 0.123423
O O5 0.746196 0.106826 0.099396
O O6 0.000000 0.232803 0.070219
O O7 0.721985 0.238614 0.000000
O O8 0.271956 0.500000 0.189682
O O9 0.276092 0.308582 0.249154
O O10 0.000000 0.377149 0.187912
O O11 0.229526 0.294486 0.626177
O O12 0.000000 0.222524 0.706237
O O13 0.769331 0.353225 0.500000
O O14 0.500000 0.378475 0.572722
O O15 0.770008 0.500000 0.588486
O O16 0.500000 0.000000 0.844709
#
# Coordination Sequence:
#
# PCOD9383783 Si02
#       6
#     4   8   8   8   8   4
#     4  10  20  37  58  79 108 141 174 215 266 322
#     4  10  20  35  55  76 104 143 179 215 267 325
#     4   9  17  30  51  80 108 133 170 220 267 312
#     4  10  19  33  56  81 107 138 175 223 268 308
#     4   9  19  36  56  79 111 148 180 213 256 308
#     4  12  23  35  54  78 105 135 176 230 271 308
#
# _framework density 20.247271000000001
#
# number of rings (size 3 to 8) (size 9 to 14) (size 15 to 20)
#    0.000    2.200    2.000    2.400    0.000    4.400 
#    0.000    3.500    0.000    3.600    0.000    1.400 
#    0.000    0.000    0.000    0.000    0.000    0.000 
#
# Total GULP energy -223370.258134 kJ/mol
# GULP energy per Si atom -5584.256453 kJ/mol
# Density = 2.020119 g / cm^3
# Si number density = 20.247271 Si / 1000 Ang^3
#
#
#
# Elastic Constant Matrix: (Units=GPa)
#
#
# Indices 1 2 3 4 5 6 
#
# 1 41.7185 2.4579 -5.9654 0.0000 0.0000 0.0000
# 2 2.4579 226.3392 118.3664 0.0000 0.0000 0.0000
# 3 -5.9654 118.3664 137.1361 0.0000 0.0000 0.0000
# 4 0.0000 0.0000 0.0000 36.4611 0.0000 0.0000
# 5 0.0000 0.0000 0.0000 0.0000 67.3592 0.0000
# 6 0.0000 0.0000 0.0000 0.0000 0.0000 4.2844
#
#
#
# Elastic Compliance Matrix: (Units=1/GPa)
#
#
# Indices 1 2 3 4 5 6 
#
# 1 0.024394 -0.001494 0.002351 0.000000 0.000000 0.000000
# 2 -0.001494 0.008145 -0.007095 0.000000 0.000000 0.000000
# 3 0.002351 -0.007095 0.013518 0.000000 0.000000 0.000000
# 4 0.000000 0.000000 0.000000 0.027426 0.000000 0.000000
# 5 0.000000 0.000000 0.000000 0.000000 0.014846 0.000000
# 6 0.000000 0.000000 0.000000 0.000000 0.000000 0.233406
#
#
# Mechanical properties :
#
#
# Convention : Reuss Voigt Hill
#
# Bulk Modulus (GPa) = 29.77910 70.54575 50.16243
# Shear Modulus (GPa) = 14.47571 40.97659 27.72615
#
# Velocity S-wave (km/s) = 2.67675 4.50356 3.70452
# Velocity P-wave (km/s) = 4.92879 7.87149 6.56709
#
# Compressibility (1/GPa) = 0.03358060
#
# Stress axis : x y z
#
# Youngs Moduli (GPa) = 40.99300 122.77787 73.97420
#
# Poissons Ratio (x) = 0.18348 -0.17391
# Poissons Ratio (y) = 0.06126 0.52485
# Poissons Ratio (z) = -0.09637 0.87111
#
# Static dielectric constant tensor:
#      x y z
#    x 1.765740 0.000000 0.000000 
#    y 0.000000 1.703980 0.000000 
#    z 0.000000 0.000000 1.681970 
# 
# From -- ./inp_files/4080.got.cif
#   From: 2010.05.17/outbox.cif.g08.bks.cpg/sg47_3_cif.got.tgz:4080.got - 2010.06.03 20:15:42.
