data_PCOD9383849
_publ_section_title
;
Structure prediction by ZEFSAII (Michael W. Deem and Ramdas Pophale) SiO2 
 PCOD9383849
Probable space group: P M M M
;
_chemical_formula_sum "Si O2"
_cell_formula_units_Z 44
_cell_length_a 15.033086
_cell_length_b 17.112356
_cell_length_c 7.276212
_cell_angle_alpha 90.000000
_cell_angle_beta 90.000000
_cell_angle_gamma 90.000000
_cell_volume 1871.816593
_symmetry_space_group_name_H-M "P M M M"
_symmetry_group_IT_number 47
_symmetry_cell_setting 'orthorhombic'
loop_
_space_group_symop_operation_xyz
x,y,z
-x,-y,z
x,-y,-z
-x,y,-z
-x,-y,-z
x,y,-z
-x,y,z
x,-y,z
loop_
_atom_site_type_symbol
_atom_site_label
_atom_site_fract_x
_atom_site_fract_y
_atom_site_fract_z
Si Si1 0.399036 0.262329 0.776340
Si Si2 0.894950 0.500000 0.775562
Si Si3 0.906466 0.750233 0.722290
Si Si4 0.644359 0.086791 0.786869
Si Si5 0.760150 0.365263 0.204237
Si Si6 0.145229 0.917035 0.278235
O O1 0.500000 0.283966 0.733589
O O2 0.384217 0.172060 0.712503
O O3 0.329406 0.328626 0.710800
O O4 0.388539 0.260129 0.000000
O O5 0.831809 0.572839 0.716765
O O6 0.000000 0.500000 0.716024
O O7 0.899236 0.500000 0.000000
O O8 0.899814 0.746149 0.500000
O O9 0.821523 0.710743 0.805403
O O10 0.904368 0.839922 0.779399
O O11 0.000000 0.712369 0.776475
O O12 0.751411 0.088095 0.775788
O O13 0.617518 0.000000 0.711839
O O14 0.616197 0.086215 0.000000
O O15 0.737115 0.395176 0.000000
O O16 0.142502 0.917179 0.500000
O O17 0.109788 0.000000 0.213940
#
# Coordination Sequence:
#
# PCOD9383849 Si02
#       6
#     8   4   8   8   8   8
#     4   9  17  29  47  73 101 128 162 203 245 289
#     4   9  18  32  52  78 102 125 159 199 242 299
#     4  10  20  32  48  72 100 129 163 203 246 292
#     4   9  16  27  45  68  94 126 164 204 244 285
#     4  10  19  34  54  74  98 129 161 200 246 294
#     4   9  17  29  45  65  93 129 165 201 241 285
#
# _framework density 23.506575000000002
#
# number of rings (size 3 to 8) (size 9 to 14) (size 15 to 20)
#    0.000    2.636    1.818    0.545    0.000    1.818 
#    0.000    4.545    0.000    6.545    0.000    6.364 
#    0.000    1.455    0.000    0.000    0.000    0.000 
#
# Total GULP energy -245239.465442 kJ/mol
# GULP energy per Si atom -5573.624215 kJ/mol
# Density = 2.345307 g / cm^3
# Si number density = 23.506575 Si / 1000 Ang^3
#
#
#
# Elastic Constant Matrix: (Units=GPa)
#
#
# Indices 1 2 3 4 5 6 
#
# 1 177.6161 76.7418 1.4024 0.0000 0.0000 0.0000
# 2 76.7418 137.0877 5.3040 0.0000 0.0000 0.0000
# 3 1.4024 5.3040 100.9806 0.0000 0.0000 0.0000
# 4 0.0000 0.0000 0.0000 -1.9379 0.0000 0.0000
# 5 0.0000 0.0000 0.0000 0.0000 -9.8897 0.0000
# 6 0.0000 0.0000 0.0000 0.0000 0.0000 17.2738
#
#
#
# Elastic Compliance Matrix: (Units=1/GPa)
#
#
# Indices 1 2 3 4 5 6 
#
# 1 0.007428 -0.004162 0.000115 0.000000 0.000000 0.000000
# 2 -0.004162 0.009642 -0.000449 0.000000 0.000000 0.000000
# 3 0.000115 -0.000449 0.009925 0.000000 0.000000 0.000000
# 4 0.000000 0.000000 0.000000 -0.516014 0.000000 0.000000
# 5 0.000000 0.000000 0.000000 0.000000 -0.101115 0.000000
# 6 0.000000 0.000000 0.000000 0.000000 0.000000 0.057891
#
#
# Mechanical properties :
#
#
# Convention : Reuss Voigt Hill
#
# Bulk Modulus (GPa) = 55.54524 64.73122 60.13823
# Shear Modulus (GPa) = -9.66649 23.23832 6.78591
#
# Velocity S-wave (km/s) = -2.03007 3.14759 1.70091
# Velocity P-wave (km/s) = 4.26451 6.38804 5.43107
#
# Compressibility (1/GPa) = 0.01800334
#
# Stress axis : x y z
#
# Youngs Moduli (GPa) = 134.63161 103.71159 100.75719
#
# Poissons Ratio (x) = 0.43170 -0.01164
# Poissons Ratio (y) = 0.56040 0.04520
# Poissons Ratio (z) = -0.01555 0.04653
#
# Static dielectric constant tensor:
#      x y z
#    x 1.833930 0.000000 0.000000 
#    y 0.000000 1.940830 0.000000 
#    z 0.000000 0.000000 1.965920 
# 
# From -- ./inp_files/6156.got.cif
#   From: 2010.05.17/outbox.cif.g08.bks.cpg/sg47_4_cif.got.tgz:6156.got - 2010.06.03 20:15:42.
