data_PCOD9383586
_publ_section_title
;
Structure prediction by ZEFSAII (Michael W. Deem and Ramdas Pophale) SiO2 
 PCOD9383586
Probable space group: P M M M
;
_chemical_formula_sum "Si O2"
_cell_formula_units_Z 44
_cell_length_a 32.096857
_cell_length_b 9.129682
_cell_length_c 7.994025
_cell_angle_alpha 90.000000
_cell_angle_beta 90.000000
_cell_angle_gamma 90.000000
_cell_volume 2342.521902
_symmetry_space_group_name_H-M "P M M M"
_symmetry_group_IT_number 47
_symmetry_cell_setting 'orthorhombic'
loop_
_space_group_symop_operation_xyz
x,y,z
-x,-y,z
x,-y,-z
-x,y,-z
-x,-y,-z
x,y,-z
-x,y,z
x,-y,z
loop_
_atom_site_type_symbol
_atom_site_label
_atom_site_fract_x
_atom_site_fract_y
_atom_site_fract_z
Si Si1 0.952192 0.677935 0.188969
Si Si2 0.500000 0.666016 0.299670
Si Si3 0.894338 0.321613 0.500000
Si Si4 0.583442 0.833894 0.199604
Si Si5 0.665985 0.668580 0.696480
Si Si6 0.243419 0.676425 0.809920
Si Si7 0.196096 0.176168 0.500000
O O1 0.952542 0.500000 0.188445
O O2 0.920855 0.720420 0.335394
O O3 0.000000 0.724117 0.222359
O O4 0.940747 0.724790 0.000000
O O5 0.500000 0.500000 0.235601
O O6 0.500000 0.662787 0.500000
O O7 0.541809 0.746471 0.243332
O O8 0.889013 0.500000 0.500000
O O9 0.850303 0.241958 0.500000
O O10 0.625030 0.761964 0.271799
O O11 0.579167 0.000000 0.260667
O O12 0.587773 0.834981 0.000000
O O13 0.676534 0.672978 0.500000
O O14 0.656582 0.500000 0.742270
O O15 0.707547 0.714233 0.793523
O O16 0.240041 0.500000 0.781325
O O17 0.218975 0.761161 0.665526
O O18 0.229216 0.706545 0.000000
O O19 0.196442 0.000000 0.500000
#
# Coordination Sequence:
#
# PCOD9383586 Si02
#       7
#     8   4   4   8   8   8   4
#     4   8  14  26  48  81 115 144 184 244 305 351
#     4  11  24  41  60  82 108 143 190 237 282 332
#     4  10  19  32  54  80 110 150 199 245 292 351
#     4  11  24  39  56  83 118 152 186 225 275 339
#     4  10  20  37  63  91 117 144 183 234 286 344
#     4  10  21  41  68  91 114 150 199 254 306 358
#     4  12  26  41  57  83 124 165 201 248 304 365
#
# _framework density 18.783176000000001
#
# number of rings (size 3 to 8) (size 9 to 14) (size 15 to 20)
#    0.000    1.909    0.909    3.818    0.000    9.455 
#    0.000    1.818    0.000    1.091    0.000    1.273 
#    0.000    0.000    0.000    0.000    0.000    0.000 
#
# Total GULP energy -245692.981541 kJ/mol
# GULP energy per Si atom -5583.931399 kJ/mol
# Density = 1.874042 g / cm^3
# Si number density = 18.783176 Si / 1000 Ang^3
#
#
#
# Elastic Constant Matrix: (Units=GPa)
#
#
# Indices 1 2 3 4 5 6 
#
# 1 138.8923 66.2263 77.3003 0.0000 0.0000 0.0000
# 2 66.2263 81.1269 50.6836 0.0000 0.0000 0.0000
# 3 77.3003 50.6836 118.7619 0.0000 0.0000 0.0000
# 4 0.0000 0.0000 0.0000 18.9922 0.0000 0.0000
# 5 0.0000 0.0000 0.0000 0.0000 -1.3944 0.0000
# 6 0.0000 0.0000 0.0000 0.0000 0.0000 -40.4586
#
#
#
# Elastic Compliance Matrix: (Units=1/GPa)
#
#
# Indices 1 2 3 4 5 6 
#
# 1 0.014283 -0.007979 -0.005892 0.000000 0.000000 0.000000
# 2 -0.007979 0.021265 -0.003882 0.000000 0.000000 0.000000
# 3 -0.005892 -0.003882 0.013912 0.000000 0.000000 0.000000
# 4 0.000000 0.000000 0.000000 0.052653 0.000000 0.000000
# 5 0.000000 0.000000 0.000000 0.000000 -0.717166 0.000000
# 6 0.000000 0.000000 0.000000 0.000000 0.000000 -0.024717
#
#
# Mechanical properties :
#
#
# Convention : Reuss Voigt Hill
#
# Bulk Modulus (GPa) = 71.65860 80.80014 76.22937
# Shear Modulus (GPa) = -8.33872 5.06591 -1.63640
#
# Velocity S-wave (km/s) = -2.10929 1.64405 -0.93440
# Velocity P-wave (km/s) = 5.68341 6.83480 6.28553
#
# Compressibility (1/GPa) = 0.01395506
#
# Stress axis : x y z
#
# Youngs Moduli (GPa) = 70.01125 47.02538 71.88290
#
# Poissons Ratio (x) = 0.37523 0.42350
# Poissons Ratio (y) = 0.55864 0.27903
# Poissons Ratio (z) = 0.41248 0.18254
#
# Static dielectric constant tensor:
#      x y z
#    x 1.668940 0.000000 0.000000 
#    y 0.000000 1.639270 0.000000 
#    z 0.000000 0.000000 1.665580 
# 
# From -- ./inp_files/13762.got.cif
#   From: 2010.05.17/outbox.cif.g08.bks.cpg/sg47_7_cif.got.tgz:13762.got - 2010.06.03 20:15:42.
