data_PCOD9383215
_publ_section_title
;
Structure prediction by ZEFSAII (Michael W. Deem and Ramdas Pophale) SiO2 
 PCOD9383215
Probable space group: P M M M
;
_chemical_formula_sum "Si O2"
_cell_formula_units_Z 52
_cell_length_a 7.573054
_cell_length_b 21.528965
_cell_length_c 15.369044
_cell_angle_alpha 90.000000
_cell_angle_beta 90.000000
_cell_angle_gamma 90.000000
_cell_volume 2505.769157
_symmetry_space_group_name_H-M "P M M M"
_symmetry_group_IT_number 47
_symmetry_cell_setting 'orthorhombic'
loop_
_space_group_symop_operation_xyz
x,y,z
-x,-y,z
x,-y,-z
-x,y,-z
-x,-y,-z
x,y,-z
-x,y,z
x,-y,z
loop_
_atom_site_type_symbol
_atom_site_label
_atom_site_fract_x
_atom_site_fract_y
_atom_site_fract_z
Si Si1 0.204717 0.088025 0.595455
Si Si2 0.787864 0.430499 0.813500
Si Si3 0.292670 0.067522 0.204969
Si Si4 0.198254 0.574885 0.000000
Si Si5 0.285868 0.232278 0.593003
Si Si6 0.711571 0.703464 0.766293
Si Si7 0.283819 0.808717 0.101551
O O1 0.278616 0.068254 0.500000
O O2 0.280240 0.070195 0.689613
O O3 0.220332 0.162166 0.594544
O O4 0.000000 0.070012 0.596683
O O5 0.725884 0.500000 0.788544
O O6 0.752330 0.369354 0.759803
O O7 0.000000 0.435440 0.822996
O O8 0.713320 0.411944 0.908734
O O9 0.500000 0.066563 0.183561
O O10 0.225005 0.130091 0.157049
O O11 0.217039 0.000000 0.178004
O O12 0.181232 0.500000 0.000000
O O13 0.000000 0.602321 0.000000
O O14 0.236043 0.260864 0.500000
O O15 0.500000 0.229941 0.596618
O O16 0.220344 0.265825 0.678246
O O17 0.500000 0.708699 0.767885
O O18 0.773755 0.745618 0.847979
O O19 0.500000 0.808794 0.102106
O O20 0.229610 0.810680 0.000000
#
# Coordination Sequence:
#
# PCOD9383215 Si02
#       7
#     8   8   8   4   8   8   8
#     4  10  20  33  51  76 105 134 164 206 262 314
#     4   9  18  32  49  70  99 135 171 206 245 292
#     4  10  20  35  55  76 100 136 179 214 249 300
#     4   7  12  26  45  63  89 127 166 199 232 278
#     4   9  17  32  54  76 100 131 168 210 253 300
#     4  10  19  31  51  77 103 131 163 205 256 302
#     4   9  18  33  51  75 107 135 166 213 261 299
#
# _framework density 20.752112
#
# number of rings (size 3 to 8) (size 9 to 14) (size 15 to 20)
#    0.000    2.692    1.538    1.385    1.077    2.769 
#    0.000    3.077    0.000    3.231    0.000    4.308 
#    0.000    0.000    0.000    0.000    0.000    0.000 
#
# Total GULP energy -289573.430515 kJ/mol
# GULP energy per Si atom -5568.719818 kJ/mol
# Density = 2.070488 g / cm^3
# Si number density = 20.752112 Si / 1000 Ang^3
#
#
#
# Elastic Constant Matrix: (Units=GPa)
#
#
# Indices 1 2 3 4 5 6 
#
# 1 44.4179 -0.0019 6.2742 0.0000 0.0000 0.0000
# 2 -0.0019 159.0630 79.2486 0.0000 0.0000 0.0000
# 3 6.2742 79.2486 124.4072 0.0000 0.0000 0.0000
# 4 0.0000 0.0000 0.0000 -15.5578 0.0000 0.0000
# 5 0.0000 0.0000 0.0000 0.0000 -23.8384 0.0000
# 6 0.0000 0.0000 0.0000 0.0000 0.0000 2.9730
#
#
#
# Elastic Compliance Matrix: (Units=1/GPa)
#
#
# Indices 1 2 3 4 5 6 
#
# 1 0.022751 0.000838 -0.001681 0.000000 0.000000 0.000000
# 2 0.000838 0.009241 -0.005929 0.000000 0.000000 0.000000
# 3 -0.001681 -0.005929 0.011899 0.000000 0.000000 0.000000
# 4 0.000000 0.000000 0.000000 -0.064277 0.000000 0.000000
# 5 0.000000 0.000000 0.000000 0.000000 -0.041949 0.000000
# 6 0.000000 0.000000 0.000000 0.000000 0.000000 0.336358
#
#
# Mechanical properties :
#
#
# Convention : Reuss Voigt Hill
#
# Bulk Modulus (GPa) = 32.95187 55.43664 44.19426
# Shear Modulus (GPa) = 16.79641 8.87320 12.83481
#
# Velocity S-wave (km/s) = 2.84805 2.07004 2.48963
# Velocity P-wave (km/s) = 5.16996 5.69958 5.44122
#
# Compressibility (1/GPa) = 0.03034729
#
# Stress axis : x y z
#
# Youngs Moduli (GPa) = 43.95421 108.21830 84.03731
#
# Poissons Ratio (x) = -0.09067 0.14127
# Poissons Ratio (y) = -0.03683 0.49822
# Poissons Ratio (z) = 0.07389 0.64158
#
# Static dielectric constant tensor:
#      x y z
#    x 1.803150 0.000000 0.000000 
#    y 0.000000 1.756430 0.000000 
#    z 0.000000 0.000000 1.784800 
# 
# From -- ./inp_files/21383.got.cif
#   From: 2010.05.17/outbox.cif.g08.bks.cpg/sg47_11_cif.got.tgz:21383.got - 2010.06.03 20:15:42.
