data_PCOD9383948
_publ_section_title
;
Structure prediction by ZEFSAII (Michael W. Deem and Ramdas Pophale) SiO2 
 PCOD9383948
Probable space group: P M M M
;
_chemical_formula_sum "Si O2"
_cell_formula_units_Z 48
_cell_length_a 18.402550
_cell_length_b 7.561631
_cell_length_c 15.196807
_cell_angle_alpha 90.000000
_cell_angle_beta 90.000000
_cell_angle_gamma 90.000000
_cell_volume 2114.685730
_symmetry_space_group_name_H-M "P M M M"
_symmetry_group_IT_number 47
_symmetry_cell_setting 'orthorhombic'
loop_
_space_group_symop_operation_xyz
x,y,z
-x,-y,z
x,-y,-z
-x,y,-z
-x,-y,-z
x,y,-z
-x,y,z
x,-y,z
loop_
_atom_site_type_symbol
_atom_site_label
_atom_site_fract_x
_atom_site_fract_y
_atom_site_fract_z
Si Si1 0.692406 0.789191 0.100626
Si Si2 0.235817 0.715893 0.595912
Si Si3 0.156586 0.798712 0.175795
Si Si4 0.914435 0.701573 0.000000
Si Si5 0.636439 0.287278 0.719673
Si Si6 0.500000 0.716528 0.602155
Si Si7 0.081358 0.703521 0.350873
O O1 0.766361 0.717111 0.145684
O O2 0.633217 0.760450 0.177157
O O3 0.703048 0.000000 0.093022
O O4 0.680705 0.724253 0.000000
O O5 0.266399 0.759890 0.500000
O O6 0.232797 0.500000 0.601842
O O7 0.288936 0.776748 0.673253
O O8 0.152869 0.781105 0.602728
O O9 0.112315 0.797413 0.086256
O O10 0.108720 0.704855 0.249774
O O11 0.167465 0.000000 0.206418
O O12 0.885709 0.500000 0.000000
O O13 0.000000 0.693677 0.000000
O O14 0.637054 0.500000 0.716003
O O15 0.570330 0.227284 0.658156
O O16 0.500000 0.500000 0.600356
O O17 0.500000 0.773357 0.500000
O O18 0.075944 0.500000 0.380509
O O19 0.000000 0.780625 0.359808
#
# Coordination Sequence:
#
# PCOD9383948 Si02
#       7
#     8   8   8   4   8   4   8
#     4  10  21  38  57  79 109 146 187 231 277 328
#     4   9  17  30  51  79 108 141 183 226 273 331
#     4  11  21  35  53  73 101 141 187 233 282 336
#     4  11  23  35  49  73 105 138 179 236 293 341
#     4  10  19  34  59  88 115 146 182 224 273 327
#     4   9  18  34  60  95 128 150 175 221 276 325
#     4  10  20  33  49  73 106 141 182 233 282 327
#
# _framework density 22.698409000000002
#
# number of rings (size 3 to 8) (size 9 to 14) (size 15 to 20)
#    0.000    2.000    2.500    1.750    0.000    6.333 
#    0.000    2.500    0.000    6.500    0.000    1.167 
#    0.000    0.000    0.000    0.000    0.000    0.000 
#
# Total GULP energy -267827.467202 kJ/mol
# GULP energy per Si atom -5579.738900 kJ/mol
# Density = 2.264675 g / cm^3
# Si number density = 22.698409 Si / 1000 Ang^3
#
#
#
# Elastic Constant Matrix: (Units=GPa)
#
#
# Indices 1 2 3 4 5 6 
#
# 1 120.5247 8.6265 69.9618 0.0000 0.0000 0.0000
# 2 8.6265 64.1750 -1.8864 0.0000 0.0000 0.0000
# 3 69.9618 -1.8864 163.2731 0.0000 0.0000 0.0000
# 4 0.0000 0.0000 0.0000 70.5503 0.0000 0.0000
# 5 0.0000 0.0000 0.0000 0.0000 41.0470 0.0000
# 6 0.0000 0.0000 0.0000 0.0000 0.0000 4.8908
#
#
#
# Elastic Compliance Matrix: (Units=1/GPa)
#
#
# Indices 1 2 3 4 5 6 
#
# 1 0.011216 -0.001649 -0.004825 0.000000 0.000000 0.000000
# 2 -0.001649 0.015830 0.000890 0.000000 0.000000 0.000000
# 3 -0.004825 0.000890 0.008202 0.000000 0.000000 0.000000
# 4 0.000000 0.000000 0.000000 0.014174 0.000000 0.000000
# 5 0.000000 0.000000 0.000000 0.000000 0.024362 0.000000
# 6 0.000000 0.000000 0.000000 0.000000 0.000000 0.204464
#
#
# Mechanical properties :
#
#
# Convention : Reuss Voigt Hill
#
# Bulk Modulus (GPa) = 41.52989 55.70850 48.61920
# Shear Modulus (GPa) = 16.80983 41.38235 29.09609
#
# Velocity S-wave (km/s) = 2.72430 4.27445 3.58419
# Velocity P-wave (km/s) = 5.31337 6.99696 6.21246
#
# Compressibility (1/GPa) = 0.02407904
#
# Stress axis : x y z
#
# Youngs Moduli (GPa) = 89.15887 63.17010 121.91418
#
# Poissons Ratio (x) = 0.10420 0.58824
# Poissons Ratio (y) = 0.14707 -0.10847
# Poissons Ratio (z) = 0.43019 -0.05620
#
# Static dielectric constant tensor:
#      x y z
#    x 1.855570 0.000000 0.000000 
#    y 0.000000 1.886750 0.000000 
#    z 0.000000 0.000000 1.848260 
# 
# From -- ./inp_files/6520.got.cif
#   From: 2010.05.17/outbox.cif.g08.bks.cpg/sg47_4_cif.got.tgz:6520.got - 2010.06.03 20:15:42.
