data_PCOD9383475
_publ_section_title
;
Structure prediction by ZEFSAII (Michael W. Deem and Ramdas Pophale) SiO2 
 PCOD9383475
Probable space group: P M M M
;
_chemical_formula_sum "Si O2"
_cell_formula_units_Z 56
_cell_length_a 8.229392
_cell_length_b 21.369757
_cell_length_c 15.025953
_cell_angle_alpha 90.000000
_cell_angle_beta 90.000000
_cell_angle_gamma 90.000000
_cell_volume 2642.465707
_symmetry_space_group_name_H-M "P M M M"
_symmetry_group_IT_number 47
_symmetry_cell_setting 'orthorhombic'
loop_
_space_group_symop_operation_xyz
x,y,z
-x,-y,z
x,-y,-z
-x,y,-z
-x,-y,-z
x,y,-z
-x,y,z
x,-y,z
loop_
_atom_site_type_symbol
_atom_site_label
_atom_site_fract_x
_atom_site_fract_y
_atom_site_fract_z
Si Si1 0.812922 0.430802 0.851169
Si Si2 0.196524 0.749429 0.394738
Si Si3 0.190136 0.835193 0.101952
Si Si4 0.801076 0.124244 0.708328
Si Si5 0.816998 0.426608 0.500000
Si Si6 0.686365 0.621074 0.319898
Si Si7 0.677387 0.295571 0.895076
Si Si8 0.198628 0.000000 0.396811
O O1 0.746120 0.500000 0.874210
O O2 0.798083 0.419135 0.745883
O O3 0.729788 0.367101 0.883010
O O4 0.000000 0.429726 0.879808
O O5 0.245508 0.744175 0.500000
O O6 0.245511 0.815103 0.350150
O O7 0.264001 0.693366 0.333069
O O8 0.000000 0.745657 0.393297
O O9 0.257199 0.871107 0.188774
O O10 0.206507 0.761716 0.129529
O O11 0.000000 0.850151 0.095775
O O12 0.256653 0.844491 0.000000
O O13 0.000000 0.124513 0.711525
O O14 0.750251 0.061859 0.656667
O O15 0.834569 0.500000 0.500000
O O16 0.716553 0.406288 0.584180
O O17 0.000000 0.398018 0.500000
O O18 0.500000 0.614355 0.291748
O O19 0.500000 0.285026 0.854222
O O20 0.664468 0.288436 0.000000
O O21 0.251345 0.000000 0.500000
O O22 0.000000 0.000000 0.398201
#
# Coordination Sequence:
#
# PCOD9383475 Si02
#       8
#     8   8   8   8   4   8   8   4
#     4  11  24  40  57  77 104 142 186 228 275 337
#     4  10  19  32  52  76 104 138 179 228 283 341
#     4   9  17  31  52  78 110 147 185 224 271 331
#     4   9  17  29  48  76 108 145 186 229 277 329
#     4  11  23  39  57  75 101 140 181 220 271 337
#     4  12  24  37  55  79 107 138 178 229 283 332
#     4  10  21  37  58  84 112 141 177 227 285 337
#     4   9  16  28  47  75 114 151 187 233 283 331
#
# _framework density 21.192326999999999
#
# number of rings (size 3 to 8) (size 9 to 14) (size 15 to 20)
#    0.000    1.857    0.714    4.071    0.000    7.429 
#    0.000    1.786    0.000    2.143    0.000    2.000 
#    0.000    5.714    0.000    0.000    0.000    0.000 
#
# Total GULP energy -312272.104734 kJ/mol
# GULP energy per Si atom -5576.287585 kJ/mol
# Density = 2.114409 g / cm^3
# Si number density = 21.192327 Si / 1000 Ang^3
#
#
#
# Elastic Constant Matrix: (Units=GPa)
#
#
# Indices 1 2 3 4 5 6 
#
# 1 27.4381 1.6022 1.5948 0.0000 0.0000 0.0000
# 2 1.6022 132.1071 35.1854 0.0000 0.0000 0.0000
# 3 1.5948 35.1854 100.0842 0.0000 0.0000 0.0000
# 4 0.0000 0.0000 0.0000 -144.7727 0.0000 0.0000
# 5 0.0000 0.0000 0.0000 0.0000 11.0031 0.0000
# 6 0.0000 0.0000 0.0000 0.0000 0.0000 -80.7394
#
#
#
# Elastic Compliance Matrix: (Units=1/GPa)
#
#
# Indices 1 2 3 4 5 6 
#
# 1 0.036492 -0.000317 -0.000470 0.000000 0.000000 0.000000
# 2 -0.000317 0.008354 -0.002932 0.000000 0.000000 0.000000
# 3 -0.000470 -0.002932 0.011030 0.000000 0.000000 0.000000
# 4 0.000000 0.000000 0.000000 -0.006907 0.000000 0.000000
# 5 0.000000 0.000000 0.000000 0.000000 0.090883 0.000000
# 6 0.000000 0.000000 0.000000 0.000000 0.000000 -0.012386
#
#
# Mechanical properties :
#
#
# Convention : Reuss Voigt Hill
#
# Bulk Modulus (GPa) = 20.64532 37.37715 29.01123
# Shear Modulus (GPa) = 33.10153 -28.15200 2.47477
#
# Velocity S-wave (km/s) = 3.95645 -3.64868 1.08180
# Velocity P-wave (km/s) = 5.53483 0.27408 3.90892
#
# Compressibility (1/GPa) = 0.04843714
#
# Stress axis : x y z
#
# Youngs Moduli (GPa) = 27.40362 119.69775 90.66316
#
# Poissons Ratio (x) = 0.03800 0.04260
# Poissons Ratio (y) = 0.00870 0.26582
# Poissons Ratio (z) = 0.01288 0.35095
#
# Static dielectric constant tensor:
#      x y z
#    x 1.775790 0.000000 0.000000 
#    y 0.000000 1.762510 0.000000 
#    z 0.000000 0.000000 1.845940 
# 
# From -- ./inp_files/21677.got.cif
#   From: 2010.05.17/outbox.cif.g08.bks.cpg/sg47_11_cif.got.tgz:21677.got - 2010.06.03 20:15:42.
