data_PCOD9383929
_publ_section_title
;
Structure prediction by ZEFSAII (Michael W. Deem and Ramdas Pophale) SiO2 
 PCOD9383929
Probable space group: P M M M
;
_chemical_formula_sum "Si O2"
_cell_formula_units_Z 64
_cell_length_a 8.202107
_cell_length_b 14.924863
_cell_length_c 26.262939
_cell_angle_alpha 90.000000
_cell_angle_beta 90.000000
_cell_angle_gamma 90.000000
_cell_volume 3214.986168
_symmetry_space_group_name_H-M "P M M M"
_symmetry_group_IT_number 47
_symmetry_cell_setting 'orthorhombic'
loop_
_space_group_symop_operation_xyz
x,y,z
-x,-y,z
x,-y,-z
-x,y,-z
-x,-y,-z
x,y,-z
-x,y,z
x,-y,z
loop_
_atom_site_type_symbol
_atom_site_label
_atom_site_fract_x
_atom_site_fract_y
_atom_site_fract_z
Si Si1 0.192864 0.289213 0.556145
Si Si2 0.302717 0.717738 0.750722
Si Si3 0.806081 0.096734 0.061308
Si Si4 0.304619 0.602105 0.653892
Si Si5 0.300325 0.398128 0.153022
Si Si6 0.694513 0.710444 0.057699
Si Si7 0.806148 0.899954 0.291134
Si Si8 0.307250 0.100525 0.593320
O O1 0.256803 0.313129 0.500000
O O2 0.267670 0.346775 0.601644
O O3 0.224744 0.184038 0.566038
O O4 0.000000 0.304544 0.557042
O O5 0.500000 0.718437 0.750070
O O6 0.244488 0.661267 0.701476
O O7 0.248674 0.667267 0.801610
O O8 0.243865 0.819170 0.745053
O O9 0.727309 0.189271 0.078304
O O10 0.000000 0.101179 0.070265
O O11 0.745937 0.000000 0.080967
O O12 0.781854 0.095197 0.000000
O O13 0.500000 0.597352 0.659303
O O14 0.241591 0.500000 0.654320
O O15 0.500000 0.397624 0.152754
O O16 0.248879 0.500000 0.161978
O O17 0.243722 0.360566 0.098637
O O18 0.500000 0.699492 0.054222
O O19 0.761377 0.702170 0.000000
O O20 0.721326 0.888155 0.346087
O O21 0.000000 0.896262 0.299859
O O22 0.765035 0.000000 0.272253
O O23 0.500000 0.104427 0.583077
O O24 0.248230 0.000000 0.579817
#
# Coordination Sequence:
#
# PCOD9383929 Si02
#       8
#     8   8   8   8   8   8   8   8
#     4  11  24  39  55  79 113 150 185 224 273 327
#     4  10  19  34  58  83 106 137 178 222 267 318
#     4   8  14  26  45  68  95 131 173 213 257 311
#     4  10  21  37  58  82 104 133 179 231 280 329
#     4   9  18  33  53  78 108 140 176 222 272 319
#     4   9  17  29  48  76 107 140 179 221 266 315
#     4  10  20  34  55  83 114 145 174 210 263 324
#     4  10  20  35  57  84 112 144 183 224 266 317
#
# _framework density 19.906773000000001
#
# number of rings (size 3 to 8) (size 9 to 14) (size 15 to 20)
#    0.000    2.375    1.250    1.875    0.000    5.250 
#    0.000    6.250    0.000    6.000    0.000    1.750 
#    0.000    0.000    0.000    0.000    0.000    0.000 
#
# Total GULP energy -357072.363690 kJ/mol
# GULP energy per Si atom -5579.255683 kJ/mol
# Density = 1.986146 g / cm^3
# Si number density = 19.906773 Si / 1000 Ang^3
#
#
#
# Elastic Constant Matrix: (Units=GPa)
#
#
# Indices 1 2 3 4 5 6 
#
# 1 6.5885 2.6120 1.7227 0.0000 0.0000 0.0000
# 2 2.6120 118.7865 60.2850 0.0000 0.0000 0.0000
# 3 1.7227 60.2850 93.0161 0.0000 0.0000 0.0000
# 4 0.0000 0.0000 0.0000 13.0436 0.0000 0.0000
# 5 0.0000 0.0000 0.0000 0.0000 -45.4232 0.0000
# 6 0.0000 0.0000 0.0000 0.0000 0.0000 -40.4657
#
#
#
# Elastic Compliance Matrix: (Units=1/GPa)
#
#
# Indices 1 2 3 4 5 6 
#
# 1 0.153173 -0.002874 -0.000974 0.000000 0.000000 0.000000
# 2 -0.002874 0.012599 -0.008112 0.000000 0.000000 0.000000
# 3 -0.000974 -0.008112 0.016026 0.000000 0.000000 0.000000
# 4 0.000000 0.000000 0.000000 0.076666 0.000000 0.000000
# 5 0.000000 0.000000 0.000000 0.000000 -0.022015 0.000000
# 6 0.000000 0.000000 0.000000 0.000000 0.000000 -0.024712
#
#
# Mechanical properties :
#
#
# Convention : Reuss Voigt Hill
#
# Bulk Modulus (GPa) = 6.33403 38.62562 22.47982
# Shear Modulus (GPa) = 17.34411 -4.31764 6.51323
#
# Velocity S-wave (km/s) = 2.95492 -1.47433 1.81079
# Velocity P-wave (km/s) = 3.85109 4.06782 3.96094
#
# Compressibility (1/GPa) = 0.15787739
#
# Stress axis : x y z
#
# Youngs Moduli (GPa) = 6.52858 79.37386 62.39688
#
# Poissons Ratio (x) = 0.22809 0.06080
# Poissons Ratio (y) = 0.01876 0.50617
# Poissons Ratio (z) = 0.00636 0.64389
#
# Static dielectric constant tensor:
#      x y z
#    x 1.696210 0.000000 0.000000 
#    y 0.000000 1.704940 0.000000 
#    z 0.000000 0.000000 1.700070 
# 
# From -- ./inp_files/32135.got.cif
#   From: 2010.05.17/outbox.cif.g08.bks.cpg/sg47_17_cif.got.tgz:32135.got - 2010.06.03 20:15:42.
