data_PCOD9383973
_publ_section_title
;
Structure prediction by ZEFSAII (Michael W. Deem and Ramdas Pophale) SiO2 
 PCOD9383973
Probable space group: P M M M
;
_chemical_formula_sum "Si O2"
_cell_formula_units_Z 40
_cell_length_a 7.505696
_cell_length_b 25.045182
_cell_length_c 10.491132
_cell_angle_alpha 90.000000
_cell_angle_beta 90.000000
_cell_angle_gamma 90.000000
_cell_volume 1972.138965
_symmetry_space_group_name_H-M "P M M M"
_symmetry_group_IT_number 47
_symmetry_cell_setting 'orthorhombic'
loop_
_space_group_symop_operation_xyz
x,y,z
-x,-y,z
x,-y,-z
-x,y,-z
-x,-y,-z
x,y,-z
-x,y,z
x,-y,z
loop_
_atom_site_type_symbol
_atom_site_label
_atom_site_fract_x
_atom_site_fract_y
_atom_site_fract_z
Si Si1 0.714612 0.765384 0.353932
Si Si2 0.709549 0.873890 0.755798
Si Si3 0.786382 0.061280 0.500000
Si Si4 0.212250 0.644430 0.645056
Si Si5 0.782489 0.561350 0.144629
Si Si6 0.281065 0.938524 0.000000
O O1 0.779069 0.771629 0.500000
O O2 0.500000 0.769246 0.357760
O O3 0.783009 0.814637 0.270339
O O4 0.758920 0.705512 0.312325
O O5 0.500000 0.867115 0.782282
O O6 0.727170 0.907472 0.625985
O O7 0.781229 0.907292 0.874360
O O8 0.000000 0.060547 0.500000
O O9 0.722393 0.000000 0.500000
O O10 0.283334 0.639007 0.500000
O O11 0.281436 0.602135 0.747655
O O12 0.000000 0.636224 0.637278
O O13 0.730341 0.500000 0.170266
O O14 0.000000 0.562455 0.145139
O O15 0.727316 0.575181 0.000000
O O16 0.500000 0.939568 0.000000
O O17 0.223948 0.000000 0.000000
#
# Coordination Sequence:
#
# PCOD9383973 Si02
#       6
#     8   8   4   8   8   4
#     4   9  17  31  49  70  96 127 161 197 240 289
#     4  10  19  35  56  76  99 132 172 210 249 297
#     4  11  23  35  51  79 107 131 164 207 254 303
#     4   9  17  28  45  70  95 121 155 197 240 280
#     4   8  14  26  44  66  94 126 158 195 237 280
#     4   9  18  32  53  79 101 123 160 211 256 294
#
# _framework density 20.282547000000001
#
# number of rings (size 3 to 8) (size 9 to 14) (size 15 to 20)
#    0.000    2.800    1.000    1.500    0.000    2.800 
#    1.800    2.500    0.000    2.400    0.000    4.200 
#    0.000    0.000    0.000    0.000    0.000    0.000 
#
# Total GULP energy -223185.025948 kJ/mol
# GULP energy per Si atom -5579.625649 kJ/mol
# Density = 2.023638 g / cm^3
# Si number density = 20.282547 Si / 1000 Ang^3
#
#
#
# Elastic Constant Matrix: (Units=GPa)
#
#
# Indices 1 2 3 4 5 6 
#
# 1 53.1642 0.5939 -2.5782 0.0000 0.0000 0.0000
# 2 0.5939 206.3188 133.7157 0.0000 0.0000 0.0000
# 3 -2.5782 133.7157 159.9483 0.0000 0.0000 0.0000
# 4 0.0000 0.0000 0.0000 48.3173 0.0000 0.0000
# 5 0.0000 0.0000 0.0000 0.0000 27.8993 0.0000
# 6 0.0000 0.0000 0.0000 0.0000 0.0000 17.5532
#
#
#
# Elastic Compliance Matrix: (Units=1/GPa)
#
#
# Indices 1 2 3 4 5 6 
#
# 1 0.018853 -0.000548 0.000762 0.000000 0.000000 0.000000
# 2 -0.000548 0.010594 -0.008866 0.000000 0.000000 0.000000
# 3 0.000762 -0.008866 0.013676 0.000000 0.000000 0.000000
# 4 0.000000 0.000000 0.000000 0.020697 0.000000 0.000000
# 5 0.000000 0.000000 0.000000 0.000000 0.035843 0.000000
# 6 0.000000 0.000000 0.000000 0.000000 0.000000 0.056970
#
#
# Mechanical properties :
#
#
# Convention : Reuss Voigt Hill
#
# Bulk Modulus (GPa) = 38.73019 75.87712 57.30366
# Shear Modulus (GPa) = 27.39097 37.93395 32.66246
#
# Velocity S-wave (km/s) = 3.67886 4.32936 4.01730
# Velocity P-wave (km/s) = 6.09772 7.90458 7.05920
#
# Compressibility (1/GPa) = 0.02581965
#
# Stress axis : x y z
#
# Youngs Moduli (GPa) = 53.04268 94.39106 73.12166
#
# Poissons Ratio (x) = 0.05175 -0.05574
# Poissons Ratio (y) = 0.02908 0.64826
# Poissons Ratio (z) = -0.04043 0.83683
#
# Static dielectric constant tensor:
#      x y z
#    x 1.777580 0.000000 0.000000 
#    y 0.000000 1.703100 0.000000 
#    z 0.000000 0.000000 1.683920 
# 
# From -- ./inp_files/1824.got.cif
#   From: 2010.05.17/outbox.cif.g08.bks.cpg/sg47_1_cif.got.tgz:1824.got - 2010.06.03 20:15:42.
