data_PCOD9383841
_publ_section_title
;
Structure prediction by ZEFSAII (Michael W. Deem and Ramdas Pophale) SiO2 
 PCOD9383841
Probable space group: P M M M
;
_chemical_formula_sum "Si O2"
_cell_formula_units_Z 48
_cell_length_a 19.759341
_cell_length_b 7.568880
_cell_length_c 15.269245
_cell_angle_alpha 90.000000
_cell_angle_beta 90.000000
_cell_angle_gamma 90.000000
_cell_volume 2283.608441
_symmetry_space_group_name_H-M "P M M M"
_symmetry_group_IT_number 47
_symmetry_cell_setting 'orthorhombic'
loop_
_space_group_symop_operation_xyz
x,y,z
-x,-y,z
x,-y,-z
-x,y,-z
-x,-y,-z
x,y,-z
-x,y,z
x,-y,z
loop_
_atom_site_type_symbol
_atom_site_label
_atom_site_fract_x
_atom_site_fract_y
_atom_site_fract_z
Si Si1 0.302296 0.286156 0.900016
Si Si2 0.419053 0.500000 0.396848
Si Si3 0.339132 0.208348 0.290489
Si Si4 0.923592 0.709727 0.671402
Si Si5 0.842006 0.298069 0.165972
Si Si6 0.786027 0.788364 0.594295
Si Si7 0.920254 0.204661 0.000000
O O1 0.300834 0.500000 0.904070
O O2 0.345799 0.236849 0.814209
O O3 0.227706 0.219849 0.870883
O O4 0.318526 0.226686 0.000000
O O5 0.500000 0.500000 0.391261
O O6 0.400580 0.500000 0.500000
O O7 0.389146 0.330072 0.346169
O O8 0.263807 0.264116 0.326316
O O9 0.347416 0.000000 0.308745
O O10 0.931208 0.500000 0.685529
O O11 0.885045 0.788120 0.756232
O O12 0.864056 0.731764 0.601261
O O13 0.000000 0.778090 0.655450
O O14 0.826325 0.500000 0.192261
O O15 0.891652 0.297833 0.084565
O O16 0.758245 0.728303 0.500000
O O17 0.786365 0.000000 0.595325
O O18 0.000000 0.208250 0.000000
O O19 0.897861 0.000000 0.000000
#
# Coordination Sequence:
#
# PCOD9383841 Si02
#       7
#     8   4   8   8   8   8   4
#     4  10  19  35  62  95 130 170 222 280 334 391
#     4  11  26  48  77 113 148 182 214 253 319 389
#     4  11  23  42  70 103 140 181 224 271 325 391
#     4  10  21  35  52  75 106 151 208 269 331 391
#     4  10  19  34  53  73 102 147 203 263 327 391
#     4  10  22  38  57  84 116 157 210 265 326 392
#     4  11  23  33  43  65 101 145 195 258 333 404
#
# _framework density 21.019365000000001
#
# number of rings (size 3 to 8) (size 9 to 14) (size 15 to 20)
#    0.000    1.667    3.333    1.250    1.167    5.333 
#    0.000    2.500    0.000    1.000    0.000    1.167 
#    0.000    0.000    0.000    0.000    0.000    0.000 
#
# Total GULP energy -267651.348483 kJ/mol
# GULP energy per Si atom -5576.069760 kJ/mol
# Density = 2.097152 g / cm^3
# Si number density = 21.019365 Si / 1000 Ang^3
#
#
#
# Elastic Constant Matrix: (Units=GPa)
#
#
# Indices 1 2 3 4 5 6 
#
# 1 88.7435 32.8984 48.0133 0.0000 0.0000 0.0000
# 2 32.8984 93.3544 32.5830 0.0000 0.0000 0.0000
# 3 48.0133 32.5830 170.5447 0.0000 0.0000 0.0000
# 4 0.0000 0.0000 0.0000 53.5468 0.0000 0.0000
# 5 0.0000 0.0000 0.0000 0.0000 23.8728 0.0000
# 6 0.0000 0.0000 0.0000 0.0000 0.0000 -34.3158
#
#
#
# Elastic Compliance Matrix: (Units=1/GPa)
#
#
# Indices 1 2 3 4 5 6 
#
# 1 0.014542 -0.003960 -0.003337 0.000000 0.000000 0.000000
# 2 -0.003960 0.012555 -0.001284 0.000000 0.000000 0.000000
# 3 -0.003337 -0.001284 0.007048 0.000000 0.000000 0.000000
# 4 0.000000 0.000000 0.000000 0.018675 0.000000 0.000000
# 5 0.000000 0.000000 0.000000 0.000000 0.041889 0.000000
# 6 0.000000 0.000000 0.000000 0.000000 0.000000 -0.029141
#
#
# Mechanical properties :
#
#
# Convention : Reuss Voigt Hill
#
# Bulk Modulus (GPa) = 58.88068 64.40357 61.64212
# Shear Modulus (GPa) = 56.56590 24.56394 40.56492
#
# Velocity S-wave (km/s) = 5.19324 3.42224 4.39781
# Velocity P-wave (km/s) = 8.00207 6.80604 7.42817
#
# Compressibility (1/GPa) = 0.01698350
#
# Stress axis : x y z
#
# Youngs Moduli (GPa) = 68.76596 79.64671 141.87479
#
# Poissons Ratio (x) = 0.31539 0.47351
# Poissons Ratio (y) = 0.27230 0.18216
# Poissons Ratio (z) = 0.22951 0.10226
#
# Static dielectric constant tensor:
#      x y z
#    x 1.747900 0.000000 0.000000 
#    y 0.000000 1.785170 0.000000 
#    z 0.000000 0.000000 1.794580 
# 
# From -- ./inp_files/24480.got.cif
#   From: 2010.05.17/outbox.cif.g08.bks.cpg/sg47_13_cif.got.tgz:24480.got - 2010.06.03 20:15:42.
