data_PCOD9383329
_publ_section_title
;
Structure prediction by ZEFSAII (Michael W. Deem and Ramdas Pophale) SiO2 
 PCOD9383329
Probable space group: P M M M
;
_chemical_formula_sum "Si O2"
_cell_formula_units_Z 64
_cell_length_a 7.723962
_cell_length_b 20.870722
_cell_length_c 18.377858
_cell_angle_alpha 90.000000
_cell_angle_beta 90.000000
_cell_angle_gamma 90.000000
_cell_volume 2962.596417
_symmetry_space_group_name_H-M "P M M M"
_symmetry_group_IT_number 47
_symmetry_cell_setting 'orthorhombic'
loop_
_space_group_symop_operation_xyz
x,y,z
-x,-y,z
x,-y,-z
-x,y,-z
-x,-y,-z
x,y,-z
-x,y,z
x,-y,z
loop_
_atom_site_type_symbol
_atom_site_label
_atom_site_fract_x
_atom_site_fract_y
_atom_site_fract_z
Si Si1 0.709593 0.398188 0.079982
Si Si2 0.700629 0.746240 0.883140
Si Si3 0.709526 0.788206 0.420870
Si Si4 0.300476 0.928082 0.611294
Si Si5 0.796269 0.431327 0.758128
Si Si6 0.196089 0.075619 0.227042
Si Si7 0.794344 0.709986 0.724312
Si Si8 0.801484 0.880638 0.922673
O O1 0.500000 0.403651 0.082568
O O2 0.755047 0.323175 0.088179
O O3 0.778178 0.428532 0.154141
O O4 0.765744 0.421307 0.000000
O O5 0.500000 0.755133 0.902500
O O6 0.718254 0.744927 0.795432
O O7 0.803286 0.804162 0.917639
O O8 0.759009 0.760642 0.500000
O O9 0.500000 0.791695 0.418050
O O10 0.775929 0.861955 0.418537
O O11 0.762970 0.747097 0.350815
O O12 0.500000 0.931526 0.587388
O O13 0.294266 0.915775 0.697891
O O14 0.224872 0.000000 0.597874
O O15 0.721334 0.500000 0.733682
O O16 0.726467 0.363777 0.727109
O O17 0.000000 0.431921 0.740463
O O18 0.282092 0.099711 0.153306
O O19 0.000000 0.103462 0.235085
O O20 0.179170 0.000000 0.218069
O O21 0.000000 0.707533 0.736786
O O22 0.000000 0.905081 0.920407
O O23 0.724740 0.900768 0.000000
#
# Coordination Sequence:
#
# PCOD9383329 Si02
#       8
#     8   8   8   8   8   8   8   8
#     4   9  18  31  46  68 100 135 169 206 250 300
#     4  10  19  32  50  70  95 129 168 207 250 301
#     4  10  21  36  55  81 111 139 166 200 244 294
#     4   9  18  33  53  76 102 134 170 204 240 288
#     4   9  19  35  53  74 100 132 172 215 257 301
#     4   9  18  32  48  65  88 122 163 205 250 300
#     4  10  20  35  56  79 103 133 169 209 252 300
#     4  10  20  31  44  65  92 123 164 215 264 305
#
# _framework density 21.602672999999999
#
# number of rings (size 3 to 8) (size 9 to 14) (size 15 to 20)
#    0.000    2.500    0.000    1.875    0.000    6.250 
#    0.000    3.750    0.000    0.375    0.000    7.875 
#    0.000    0.000    0.000    0.000    0.000    0.000 
#
# Total GULP energy -356964.237743 kJ/mol
# GULP energy per Si atom -5577.566215 kJ/mol
# Density = 2.155350 g / cm^3
# Si number density = 21.602673 Si / 1000 Ang^3
#
#
#
# Elastic Constant Matrix: (Units=GPa)
#
#
# Indices 1 2 3 4 5 6 
#
# 1 40.3766 -1.6802 -0.1749 0.0000 0.0000 0.0000
# 2 -1.6802 65.2658 55.5527 0.0000 0.0000 0.0000
# 3 -0.1749 55.5527 129.1456 0.0000 0.0000 0.0000
# 4 0.0000 0.0000 0.0000 22.5124 0.0000 0.0000
# 5 0.0000 0.0000 0.0000 0.0000 12.9212 0.0000
# 6 0.0000 0.0000 0.0000 0.0000 0.0000 -2.5999
#
#
#
# Elastic Compliance Matrix: (Units=1/GPa)
#
#
# Indices 1 2 3 4 5 6 
#
# 1 0.024805 0.000962 -0.000380 0.000000 0.000000 0.000000
# 2 0.000962 0.024210 -0.010413 0.000000 0.000000 0.000000
# 3 -0.000380 -0.010413 0.012222 0.000000 0.000000 0.000000
# 4 0.000000 0.000000 0.000000 0.044420 0.000000 0.000000
# 5 0.000000 0.000000 0.000000 0.000000 0.077392 0.000000
# 6 0.000000 0.000000 0.000000 0.000000 0.000000 -0.384625
#
#
# Mechanical properties :
#
#
# Convention : Reuss Voigt Hill
#
# Bulk Modulus (GPa) = 24.05271 38.02035 31.03653
# Shear Modulus (GPa) = -29.75203 18.63941 -5.55631
#
# Velocity S-wave (km/s) = -3.71514 2.94058 -1.60550
# Velocity P-wave (km/s) = 2.69160 5.40069 3.31079
#
# Compressibility (1/GPa) = 0.04157536
#
# Stress axis : x y z
#
# Youngs Moduli (GPa) = 40.31409 41.30564 81.82130
#
# Poissons Ratio (x) = -0.03975 0.03112
# Poissons Ratio (y) = -0.03880 0.85198
# Poissons Ratio (z) = 0.01533 0.43010
#
# Static dielectric constant tensor:
#      x y z
#    x 1.820420 0.000000 0.000000 
#    y 0.000000 1.827120 0.000000 
#    z 0.000000 0.000000 1.800000 
# 
# From -- ./inp_files/9997.got.cif
#   From: 2010.05.17/outbox.cif.g08.bks.cpg/sg47_5_cif.got.tgz:9997.got - 2010.06.03 20:15:42.
