data_PCOD9383124
_publ_section_title
;
Structure prediction by ZEFSAII (Michael W. Deem and Ramdas Pophale) SiO2 
 PCOD9383124
Probable space group: P M M M
;
_chemical_formula_sum "Si O2"
_cell_formula_units_Z 48
_cell_length_a 14.023736
_cell_length_b 13.189097
_cell_length_c 14.781635
_cell_angle_alpha 90.000000
_cell_angle_beta 90.000000
_cell_angle_gamma 90.000000
_cell_volume 2734.017335
_symmetry_space_group_name_H-M "P M M M"
_symmetry_group_IT_number 47
_symmetry_cell_setting 'orthorhombic'
loop_
_space_group_symop_operation_xyz
x,y,z
-x,-y,z
x,-y,-z
-x,y,-z
-x,-y,-z
x,y,-z
-x,y,z
x,-y,z
loop_
_atom_site_type_symbol
_atom_site_label
_atom_site_fract_x
_atom_site_fract_y
_atom_site_fract_z
Si Si1 0.814523 0.377415 0.398936
Si Si2 0.396329 0.618617 0.643311
Si Si3 0.735246 0.191743 0.896809
Si Si4 0.888209 0.702312 0.786871
Si Si5 0.884285 0.500000 0.103429
Si Si6 0.389321 0.614064 0.138191
Si Si7 0.608584 0.000000 0.109664
O O1 0.851942 0.359337 0.500000
O O2 0.817439 0.500000 0.383062
O O3 0.703586 0.343138 0.394620
O O4 0.868344 0.322325 0.317735
O O5 0.500000 0.663301 0.618167
O O6 0.399692 0.500000 0.617193
O O7 0.387906 0.621306 0.752313
O O8 0.822382 0.210885 0.829081
O O9 0.672411 0.294092 0.897803
O O10 0.667321 0.100303 0.865754
O O11 0.768096 0.172006 0.000000
O O12 0.858173 0.600535 0.841779
O O13 0.000000 0.720147 0.801698
O O14 0.000000 0.500000 0.100599
O O15 0.850529 0.500000 0.000000
O O16 0.500000 0.623621 0.110611
O O17 0.356915 0.500000 0.114028
O O18 0.500000 0.000000 0.143952
O O19 0.603323 0.000000 0.000000
#
# Coordination Sequence:
#
# PCOD9383124 Si02
#       7
#     8   8   8   8   4   8   4
#     4  10  19  31  49  73 105 150 195 229 272 332
#     4   8  14  26  43  65  98 136 171 213 266 321
#     4  11  22  35  56  80 107 145 187 226 273 329
#     4  11  22  36  51  73 108 145 187 238 280 320
#     4   9  18  32  49  69 100 145 187 223 271 326
#     4   9  17  29  47  74 109 144 176 216 267 322
#     4   9  20  40  61  83 112 145 183 225 273 335
#
# _framework density 17.556581999999999
#
# number of rings (size 3 to 8) (size 9 to 14) (size 15 to 20)
#    0.000    2.333    2.500    2.000    1.167    3.000 
#    0.000    3.750    0.000    1.500    0.000    0.583 
#    0.000    2.000    0.000    0.000    0.000    0.000 
#
# Total GULP energy -267772.223408 kJ/mol
# GULP energy per Si atom -5578.587988 kJ/mol
# Density = 1.751662 g / cm^3
# Si number density = 17.556582 Si / 1000 Ang^3
#
#
#
# Elastic Constant Matrix: (Units=GPa)
#
#
# Indices 1 2 3 4 5 6 
#
# 1 101.4702 53.4777 34.2576 0.0000 0.0000 0.0000
# 2 53.4777 73.5142 24.2406 0.0000 0.0000 0.0000
# 3 34.2576 24.2406 95.9966 0.0000 0.0000 0.0000
# 4 0.0000 0.0000 0.0000 26.1518 0.0000 0.0000
# 5 0.0000 0.0000 0.0000 0.0000 1.1692 0.0000
# 6 0.0000 0.0000 0.0000 0.0000 0.0000 18.6544
#
#
#
# Elastic Compliance Matrix: (Units=1/GPa)
#
#
# Indices 1 2 3 4 5 6 
#
# 1 0.016827 -0.011193 -0.003179 0.000000 0.000000 0.000000
# 2 -0.011193 0.022283 -0.001633 0.000000 0.000000 0.000000
# 3 -0.003179 -0.001633 0.011964 0.000000 0.000000 0.000000
# 4 0.000000 0.000000 0.000000 0.038238 0.000000 0.000000
# 5 0.000000 0.000000 0.000000 0.000000 0.855255 0.000000
# 6 0.000000 0.000000 0.000000 0.000000 0.000000 0.053607
#
#
# Mechanical properties :
#
#
# Convention : Reuss Voigt Hill
#
# Bulk Modulus (GPa) = 52.44910 54.99253 53.72081
# Shear Modulus (GPa) = 4.82375 19.79544 12.30960
#
# Velocity S-wave (km/s) = 1.65937 3.36150 2.65077
# Velocity P-wave (km/s) = 5.79746 6.81596 6.32724
#
# Compressibility (1/GPa) = 0.01906611
#
# Stress axis : x y z
#
# Youngs Moduli (GPa) = 59.42768 44.87665 83.58668
#
# Poissons Ratio (x) = 0.50229 0.26569
# Poissons Ratio (y) = 0.66516 0.13646
# Poissons Ratio (z) = 0.18890 0.07326
#
# Static dielectric constant tensor:
#      x y z
#    x 1.646660 0.000000 0.000000 
#    y 0.000000 1.569960 0.000000 
#    z 0.000000 0.000000 1.625430 
# 
# From -- ./inp_files/23600.got.cif
#   From: 2010.05.17/outbox.cif.g08.bks.cpg/sg47_12_cif.got.tgz:23600.got - 2010.06.03 20:15:42.
