data_PCOD9383470
_publ_section_title
;
Structure prediction by ZEFSAII (Michael W. Deem and Ramdas Pophale) SiO2 
 PCOD9383470
Probable space group: P M M M
;
_chemical_formula_sum "Si O2"
_cell_formula_units_Z 52
_cell_length_a 8.727984
_cell_length_b 18.228417
_cell_length_c 17.517713
_cell_angle_alpha 90.000000
_cell_angle_beta 90.000000
_cell_angle_gamma 90.000000
_cell_volume 2787.021400
_symmetry_space_group_name_H-M "P M M M"
_symmetry_group_IT_number 47
_symmetry_cell_setting 'orthorhombic'
loop_
_space_group_symop_operation_xyz
x,y,z
-x,-y,z
x,-y,-z
-x,y,-z
-x,-y,-z
x,y,-z
-x,y,z
x,-y,z
loop_
_atom_site_type_symbol
_atom_site_label
_atom_site_fract_x
_atom_site_fract_y
_atom_site_fract_z
Si Si1 0.676565 0.000000 0.906599
Si Si2 0.316952 0.294499 0.305519
Si Si3 0.684108 0.695737 0.866665
Si Si4 0.172308 0.849148 0.091397
Si Si5 0.818005 0.586075 0.412305
Si Si6 0.312605 0.585595 0.000000
Si Si7 0.675486 0.000000 0.407301
Si Si8 0.312033 0.161023 0.588783
O O1 0.755997 0.925176 0.879624
O O2 0.500000 0.000000 0.883806
O O3 0.681116 0.000000 0.000000
O O4 0.500000 0.285929 0.299604
O O5 0.257358 0.308133 0.220130
O O6 0.276595 0.364075 0.356206
O O7 0.260264 0.222992 0.351922
O O8 0.500000 0.689963 0.866014
O O9 0.729433 0.776901 0.893675
O O10 0.737897 0.632816 0.925698
O O11 0.000000 0.839070 0.120846
O O12 0.164161 0.856917 0.000000
O O13 0.780295 0.604148 0.500000
O O14 0.789021 0.500000 0.400808
O O15 0.000000 0.598292 0.401953
O O16 0.264244 0.500000 0.000000
O O17 0.500000 0.585074 0.000000
O O18 0.742997 0.079424 0.387732
O O19 0.500000 0.000000 0.378644
O O20 0.668754 0.000000 0.500000
O O21 0.268198 0.175944 0.500000
O O22 0.500000 0.159368 0.588849
#
# Coordination Sequence:
#
# PCOD9383470 Si02
#       8
#     4   8   8   8   8   4   4   8
#     4   9  17  29  50  79 106 134 170 213 262 316
#     4  10  20  31  48  78 107 130 164 214 265 311
#     4  10  20  34  52  74 102 136 173 215 269 328
#     4  10  19  32  52  76 103 135 175 219 263 311
#     4   9  19  36  55  74 100 137 175 206 248 315
#     4   9  18  34  55  72  89 124 171 215 262 321
#     4   7  10  18  35  58  86 125 162 189 226 278
#     4   8  13  23  40  64  96 129 161 199 244 291
#
# _framework density 18.657912
#
# number of rings (size 3 to 8) (size 9 to 14) (size 15 to 20)
#    0.000    2.846    0.769    2.538    0.000    4.000 
#    0.000    3.077    0.000    3.692    0.000    0.538 
#    0.000    3.077    0.000    0.000    0.000    0.000 
#
# Total GULP energy -289635.171068 kJ/mol
# GULP energy per Si atom -5569.907136 kJ/mol
# Density = 1.861545 g / cm^3
# Si number density = 18.657912 Si / 1000 Ang^3
#
#
#
# Elastic Constant Matrix: (Units=GPa)
#
#
# Indices 1 2 3 4 5 6 
#
# 1 -11.1368 4.5656 11.4593 0.0000 0.0000 0.0000
# 2 4.5656 104.1791 74.2409 0.0000 0.0000 0.0000
# 3 11.4593 74.2409 88.6851 0.0000 0.0000 0.0000
# 4 0.0000 0.0000 0.0000 368.9054 0.0000 0.0000
# 5 0.0000 0.0000 0.0000 0.0000 8.2667 0.0000
# 6 0.0000 0.0000 0.0000 0.0000 0.0000 -13.7537
#
#
#
# Elastic Compliance Matrix: (Units=1/GPa)
#
#
# Indices 1 2 3 4 5 6 
#
# 1 -0.075650 -0.009049 0.017350 0.000000 0.000000 0.000000
# 2 -0.009049 0.022710 -0.017842 0.000000 0.000000 0.000000
# 3 0.017350 -0.017842 0.023970 0.000000 0.000000 0.000000
# 4 0.000000 0.000000 0.000000 0.002711 0.000000 0.000000
# 5 0.000000 0.000000 0.000000 0.000000 0.120968 0.000000
# 6 0.000000 0.000000 0.000000 0.000000 0.000000 -0.072708
#
#
# Mechanical properties :
#
#
# Convention : Reuss Voigt Hill
#
# Bulk Modulus (GPa) = -20.81120 40.25100 9.71990
# Shear Modulus (GPa) = 199.46624 78.78111 139.12368
#
# Velocity S-wave (km/s) = 10.35080 6.50505 8.64450
# Velocity P-wave (km/s) = 11.47492 8.83407 10.23999
#
# Compressibility (1/GPa) = -0.04805104
#
# Stress axis : x y z
#
# Youngs Moduli (GPa) = -13.21886 44.03288 41.71830
#
# Poissons Ratio (x) = 0.39844 -0.72381
# Poissons Ratio (y) = -0.11961 0.74435
# Poissons Ratio (z) = 0.22935 0.78565
#
# Static dielectric constant tensor:
#      x y z
#    x 1.636570 0.000000 0.000000 
#    y 0.000000 1.647190 0.000000 
#    z 0.000000 0.000000 1.647900 
# 
# From -- ./inp_files/26826.got.cif
#   From: 2010.05.17/outbox.cif.g08.bks.cpg/sg47_14_cif.got.tgz:26826.got - 2010.06.03 20:15:42.
