data_PCOD9383730
_publ_section_title
;
Structure prediction by ZEFSAII (Michael W. Deem and Ramdas Pophale) SiO2 
 PCOD9383730
Probable space group: P M M M
;
_chemical_formula_sum "Si O2"
_cell_formula_units_Z 48
_cell_length_a 10.273420
_cell_length_b 8.580012
_cell_length_c 29.776956
_cell_angle_alpha 90.000000
_cell_angle_beta 90.000000
_cell_angle_gamma 90.000000
_cell_volume 2624.721555
_symmetry_space_group_name_H-M "P M M M"
_symmetry_group_IT_number 47
_symmetry_cell_setting 'orthorhombic'
loop_
_space_group_symop_operation_xyz
x,y,z
-x,-y,z
x,-y,-z
-x,y,-z
-x,-y,-z
x,y,-z
-x,y,z
x,-y,z
loop_
_atom_site_type_symbol
_atom_site_label
_atom_site_fract_x
_atom_site_fract_y
_atom_site_fract_z
Si Si1 0.651993 0.313389 0.296923
Si Si2 0.149311 0.813528 0.223607
Si Si3 0.747447 0.188713 0.391495
Si Si4 0.500000 0.810220 0.449302
Si Si5 0.148861 0.685864 0.123942
Si Si6 0.000000 0.190270 0.552255
Si Si7 0.349955 0.811927 0.948412
O O1 0.500000 0.258810 0.295473
O O2 0.649522 0.500000 0.296819
O O3 0.740480 0.255586 0.255779
O O4 0.721881 0.254836 0.342257
O O5 0.173554 0.763387 0.172276
O O6 0.000000 0.762535 0.235097
O O7 0.152724 0.000000 0.227102
O O8 0.626254 0.237049 0.422079
O O9 0.875212 0.237985 0.418662
O O10 0.750040 0.000000 0.388021
O O11 0.500000 0.752945 0.500000
O O12 0.500000 0.000000 0.450847
O O13 0.156837 0.500000 0.129232
O O14 0.250339 0.741334 0.086836
O O15 0.000000 0.726060 0.110785
O O16 0.000000 0.242150 0.500000
O O17 0.000000 0.000000 0.550470
O O18 0.500000 0.767279 0.938833
O O19 0.343175 0.000000 0.946192
O O20 0.320799 0.766294 0.000000
#
# Coordination Sequence:
#
# PCOD9383730 Si02
#       7
#     8   8   8   4   8   4   8
#     4  11  24  40  57  80 113 149 185 225 275 334
#     4  10  22  40  63  87 110 141 185 234 283 335
#     4  10  19  33  54  80 110 141 179 226 271 321
#     4   9  16  28  51  79 105 139 181 225 272 315
#     4  10  21  37  57  84 118 152 188 231 283 342
#     4   9  18  32  53  83 113 139 175 225 274 321
#     4   9  19  36  57  82 114 154 200 245 286 330
#
# _framework density 18.287654
#
# number of rings (size 3 to 8) (size 9 to 14) (size 15 to 20)
#    0.000    2.167    0.833    2.500    1.167    6.667 
#    0.000    2.500    0.000    3.000    0.000    0.000 
#    0.000    0.000    0.000    0.000    0.000    0.000 
#
# Total GULP energy -267882.564635 kJ/mol
# GULP energy per Si atom -5580.886763 kJ/mol
# Density = 1.824603 g / cm^3
# Si number density = 18.287654 Si / 1000 Ang^3
#
#
#
# Elastic Constant Matrix: (Units=GPa)
#
#
# Indices 1 2 3 4 5 6 
#
# 1 172.0663 36.0200 111.0095 0.0000 0.0000 0.0000
# 2 36.0200 29.4898 32.4746 0.0000 0.0000 0.0000
# 3 111.0095 32.4746 139.3973 0.0000 0.0000 0.0000
# 4 0.0000 0.0000 0.0000 -159.9332 0.0000 0.0000
# 5 0.0000 0.0000 0.0000 0.0000 40.3768 0.0000
# 6 0.0000 0.0000 0.0000 0.0000 0.0000 51.6576
#
#
#
# Elastic Compliance Matrix: (Units=1/GPa)
#
#
# Indices 1 2 3 4 5 6 
#
# 1 0.012665 -0.005868 -0.008719 0.000000 0.000000 0.000000
# 2 -0.005868 0.048330 -0.006586 0.000000 0.000000 0.000000
# 3 -0.008719 -0.006586 0.015651 0.000000 0.000000 0.000000
# 4 0.000000 0.000000 0.000000 -0.006253 0.000000 0.000000
# 5 0.000000 0.000000 0.000000 0.000000 0.024767 0.000000
# 6 0.000000 0.000000 0.000000 0.000000 0.000000 0.019358
#
#
# Mechanical properties :
#
#
# Convention : Reuss Voigt Hill
#
# Bulk Modulus (GPa) = 29.15407 77.77353 53.46380
# Shear Modulus (GPa) = 29.70900 -2.81648 13.44626
#
# Velocity S-wave (km/s) = 4.03493 -1.24235 2.71452
# Velocity P-wave (km/s) = 6.13874 6.36885 6.25485
#
# Compressibility (1/GPa) = 0.03430053
#
# Stress axis : x y z
#
# Youngs Moduli (GPa) = 78.95643 20.69091 63.89248
#
# Poissons Ratio (x) = 0.12142 0.55707
# Poissons Ratio (y) = 0.46335 0.42079
# Poissons Ratio (z) = 0.68841 0.13627
#
# Static dielectric constant tensor:
#      x y z
#    x 1.624930 0.000000 0.000000 
#    y 0.000000 1.624310 0.000000 
#    z 0.000000 0.000000 1.597280 
# 
# From -- ./inp_files/2713.got.cif
#   From: 2010.05.17/outbox.cif.g08.bks.cpg/sg47_2_cif.got.tgz:2713.got - 2010.06.03 20:15:42.
