data_PCOD9383251
_publ_section_title
;
Structure prediction by ZEFSAII (Michael W. Deem and Ramdas Pophale) SiO2 
 PCOD9383251
Probable space group: P M M M
;
_chemical_formula_sum "Si O2"
_cell_formula_units_Z 64
_cell_length_a 28.745220
_cell_length_b 8.767626
_cell_length_c 14.417047
_cell_angle_alpha 90.000000
_cell_angle_beta 90.000000
_cell_angle_gamma 90.000000
_cell_volume 3633.489981
_symmetry_space_group_name_H-M "P M M M"
_symmetry_group_IT_number 47
_symmetry_cell_setting 'orthorhombic'
loop_
_space_group_symop_operation_xyz
x,y,z
-x,-y,z
x,-y,-z
-x,y,-z
-x,-y,-z
x,y,-z
-x,y,z
x,-y,z
loop_
_atom_site_type_symbol
_atom_site_label
_atom_site_fract_x
_atom_site_fract_y
_atom_site_fract_z
Si Si1 0.947105 0.183460 0.608795
Si Si2 0.778756 0.817112 0.779059
Si Si3 0.633537 0.182912 0.271832
Si Si4 0.306895 0.316843 0.108222
Si Si5 0.054059 0.828031 0.110606
Si Si6 0.121302 0.676400 0.242132
Si Si7 0.720913 0.184901 0.396302
Si Si8 0.445220 0.683420 0.394731
O O1 0.941383 0.219886 0.500000
O O2 0.906673 0.255364 0.670336
O O3 0.000000 0.230873 0.635971
O O4 0.945223 0.000000 0.617988
O O5 0.742092 0.746292 0.851663
O O6 0.831334 0.761855 0.784494
O O7 0.760272 0.770769 0.676866
O O8 0.776044 0.000000 0.787217
O O9 0.652683 0.251635 0.175471
O O10 0.672271 0.227575 0.348826
O O11 0.585471 0.242305 0.314299
O O12 0.633071 0.000000 0.263742
O O13 0.306753 0.500000 0.114937
O O14 0.312661 0.274500 0.000000
O O15 0.085737 0.704296 0.158204
O O16 0.000000 0.808851 0.134921
O O17 0.067942 0.000000 0.141328
O O18 0.057726 0.823149 0.000000
O O19 0.131356 0.500000 0.257267
O O20 0.726285 0.244751 0.500000
O O21 0.721519 0.000000 0.400719
O O22 0.431205 0.732136 0.500000
O O23 0.500000 0.718264 0.384520
O O24 0.440147 0.500000 0.390666
#
# Coordination Sequence:
#
# PCOD9383251 Si02
#       8
#     8   8   8   8   8   8   8   8
#     4   9  19  37  59  79 100 133 178 220 255 299
#     4  10  21  36  54  76 102 135 174 213 254 304
#     4  10  19  31  52  81 110 142 181 223 267 318
#     4  10  21  38  59  80 104 136 175 222 275 327
#     4   9  19  37  59  79  98 124 161 203 247 300
#     4  12  24  35  51  77 109 140 167 203 256 313
#     4   8  15  29  49  73  99 127 163 207 251 295
#     4   9  18  32  50  76 114 157 194 228 270 318
#
# _framework density 17.613918999999999
#
# number of rings (size 3 to 8) (size 9 to 14) (size 15 to 20)
#    0.000    2.375    0.000    4.875    0.000    5.500 
#    0.000    3.125    0.000    7.500    0.000    2.625 
#    0.000    0.000    0.000    0.000    0.000    0.000 
#
# Total GULP energy -356968.170255 kJ/mol
# GULP energy per Si atom -5577.627660 kJ/mol
# Density = 1.757383 g / cm^3
# Si number density = 17.613919 Si / 1000 Ang^3
#
#
#
# Elastic Constant Matrix: (Units=GPa)
#
#
# Indices 1 2 3 4 5 6 
#
# 1 89.5410 38.3096 56.6969 0.0000 0.0000 0.0000
# 2 38.3096 54.8292 40.5771 0.0000 0.0000 0.0000
# 3 56.6969 40.5771 130.1972 0.0000 0.0000 0.0000
# 4 0.0000 0.0000 0.0000 57.7200 0.0000 0.0000
# 5 0.0000 0.0000 0.0000 0.0000 23.6160 0.0000
# 6 0.0000 0.0000 0.0000 0.0000 0.0000 26.0613
#
#
#
# Elastic Compliance Matrix: (Units=1/GPa)
#
#
# Indices 1 2 3 4 5 6 
#
# 1 0.018264 -0.008936 -0.005168 0.000000 0.000000 0.000000
# 2 -0.008936 0.028079 -0.004859 0.000000 0.000000 0.000000
# 3 -0.005168 -0.004859 0.011446 0.000000 0.000000 0.000000
# 4 0.000000 0.000000 0.000000 0.017325 0.000000 0.000000
# 5 0.000000 0.000000 0.000000 0.000000 0.042344 0.000000
# 6 0.000000 0.000000 0.000000 0.000000 0.000000 0.038371
#
#
# Mechanical properties :
#
#
# Convention : Reuss Voigt Hill
#
# Bulk Modulus (GPa) = 50.35190 60.63716 55.49453
# Shear Modulus (GPa) = 24.95299 30.74506 27.84902
#
# Velocity S-wave (km/s) = 3.76794 4.18245 3.98059
# Velocity P-wave (km/s) = 6.89771 7.60423 7.25957
#
# Compressibility (1/GPa) = 0.01986022
#
# Stress axis : x y z
#
# Youngs Moduli (GPa) = 54.75269 35.61432 87.36837
#
# Poissons Ratio (x) = 0.31826 0.45155
# Poissons Ratio (y) = 0.48929 0.42456
# Poissons Ratio (z) = 0.28298 0.17307
#
# Static dielectric constant tensor:
#      x y z
#    x 1.588450 0.000000 0.000000 
#    y 0.000000 1.603360 0.000000 
#    z 0.000000 0.000000 1.608190 
# 
# From -- ./inp_files/25853.got.cif
#   From: 2010.05.17/outbox.cif.g08.bks.cpg/sg47_13_cif.got.tgz:25853.got - 2010.06.03 20:15:42.
