data_PCOD9383024
_publ_section_title
;
Structure prediction by ZEFSAII (Michael W. Deem and Ramdas Pophale) SiO2 
 PCOD9383024
Probable space group: P M M M
;
_chemical_formula_sum "Si O2"
_cell_formula_units_Z 44
_cell_length_a 7.528767
_cell_length_b 21.989307
_cell_length_c 14.162916
_cell_angle_alpha 90.000000
_cell_angle_beta 90.000000
_cell_angle_gamma 90.000000
_cell_volume 2344.704294
_symmetry_space_group_name_H-M "P M M M"
_symmetry_group_IT_number 47
_symmetry_cell_setting 'orthorhombic'
loop_
_space_group_symop_operation_xyz
x,y,z
-x,-y,z
x,-y,-z
-x,y,-z
-x,-y,-z
x,y,-z
-x,y,z
x,-y,z
loop_
_atom_site_type_symbol
_atom_site_label
_atom_site_fract_x
_atom_site_fract_y
_atom_site_fract_z
Si Si1 0.792943 0.748049 0.395586
Si Si2 0.216465 0.567322 0.890272
Si Si3 0.782156 0.690791 0.205499
Si Si4 0.214163 0.814882 0.105700
Si Si5 0.709138 0.874157 0.699201
Si Si6 0.717247 0.000000 0.390042
O O1 0.713976 0.742816 0.500000
O O2 0.718376 0.707549 0.310470
O O3 0.786412 0.817325 0.358477
O O4 0.000000 0.731516 0.402418
O O5 0.273286 0.500000 0.857969
O O6 0.276942 0.625543 0.831746
O O7 0.000000 0.567705 0.888141
O O8 0.267387 0.574224 0.000000
O O9 0.728881 0.747193 0.138489
O O10 0.000000 0.690963 0.205661
O O11 0.264518 0.860541 0.189894
O O12 0.000000 0.814171 0.103414
O O13 0.277812 0.829040 0.000000
O O14 0.500000 0.872650 0.680150
O O15 0.777414 0.938804 0.662690
O O16 0.500000 0.000000 0.387852
O O17 0.769520 0.000000 0.500000
#
# Coordination Sequence:
#
# PCOD9383024 Si02
#       6
#     8   8   8   8   8   4
#     4   9  17  29  44  62  85 112 142 176 215 258
#     4   8  12  17  28  50  79 108 138 172 208 247
#     4   8  13  22  37  56  79 110 144 173 205 248
#     4   9  17  30  47  65  88 118 147 174 208 252
#     4  10  19  31  48  68  88 110 139 176 215 254
#     4   9  18  32  48  65  86 112 139 169 212 263
#
# _framework density 18.765692000000001
#
# number of rings (size 3 to 8) (size 9 to 14) (size 15 to 20)
#    0.000    3.182    0.000    3.273    0.000    3.636 
#    0.000    2.273    0.000    6.545    0.000    3.818 
#    0.000   11.636    0.000   46.545    0.000   43.636 
#
# Total GULP energy -245270.089102 kJ/mol
# GULP energy per Si atom -5574.320207 kJ/mol
# Density = 1.872298 g / cm^3
# Si number density = 18.765692 Si / 1000 Ang^3
#
#
#
# Elastic Constant Matrix: (Units=GPa)
#
#
# Indices 1 2 3 4 5 6 
#
# 1 45.8906 -3.1898 -3.0958 0.0000 0.0000 0.0000
# 2 -3.1898 166.5081 91.9863 0.0000 0.0000 0.0000
# 3 -3.0958 91.9863 147.7543 0.0000 0.0000 0.0000
# 4 0.0000 0.0000 0.0000 16.8519 0.0000 0.0000
# 5 0.0000 0.0000 0.0000 0.0000 5.3649 0.0000
# 6 0.0000 0.0000 0.0000 0.0000 0.0000 22.2057
#
#
#
# Elastic Compliance Matrix: (Units=1/GPa)
#
#
# Indices 1 2 3 4 5 6 
#
# 1 0.021829 0.000252 0.000300 0.000000 0.000000 0.000000
# 2 0.000252 0.009157 -0.005696 0.000000 0.000000 0.000000
# 3 0.000300 -0.005696 0.010320 0.000000 0.000000 0.000000
# 4 0.000000 0.000000 0.000000 0.059341 0.000000 0.000000
# 5 0.000000 0.000000 0.000000 0.000000 0.186398 0.000000
# 6 0.000000 0.000000 0.000000 0.000000 0.000000 0.045034
#
#
# Mechanical properties :
#
#
# Convention : Reuss Voigt Hill
#
# Bulk Modulus (GPa) = 32.23730 59.06159 45.64945
# Shear Modulus (GPa) = 14.17622 27.18131 20.67876
#
# Velocity S-wave (km/s) = 2.75150 3.80999 3.32316
# Velocity P-wave (km/s) = 5.22594 7.13416 6.25326
#
# Compressibility (1/GPa) = 0.03101996
#
# Stress axis : x y z
#
# Youngs Moduli (GPa) = 45.81118 109.20608 96.89829
#
# Poissons Ratio (x) = -0.02755 -0.02910
# Poissons Ratio (y) = -0.01156 0.55189
# Poissons Ratio (z) = -0.01376 0.62199
#
# Static dielectric constant tensor:
#      x y z
#    x 1.732610 0.000000 0.000000 
#    y 0.000000 1.629920 0.000000 
#    z 0.000000 0.000000 1.654880 
# 
# From -- ./inp_files/21300.got.cif
#   From: 2010.05.17/outbox.cif.g08.bks.cpg/sg47_11_cif.got.tgz:21300.got - 2010.06.03 20:15:42.
