data_PCOD9383410
_publ_section_title
;
Structure prediction by ZEFSAII (Michael W. Deem and Ramdas Pophale) SiO2 
 PCOD9383410
Probable space group: P M M M
;
_chemical_formula_sum "Si O2"
_cell_formula_units_Z 36
_cell_length_a 7.453663
_cell_length_b 15.133341
_cell_length_c 14.154463
_cell_angle_alpha 90.000000
_cell_angle_beta 90.000000
_cell_angle_gamma 90.000000
_cell_volume 1596.606779
_symmetry_space_group_name_H-M "P M M M"
_symmetry_group_IT_number 47
_symmetry_cell_setting 'orthorhombic'
loop_
_space_group_symop_operation_xyz
x,y,z
-x,-y,z
x,-y,-z
-x,y,-z
-x,-y,-z
x,y,-z
-x,y,z
x,-y,z
loop_
_atom_site_type_symbol
_atom_site_label
_atom_site_fract_x
_atom_site_fract_y
_atom_site_fract_z
Si Si1 0.714297 0.598875 0.214738
Si Si2 0.213703 0.339776 0.000000
Si Si3 0.218072 0.139346 0.000000
Si Si4 0.782881 0.092847 0.204475
Si Si5 0.280434 0.105052 0.500000
Si Si6 0.299453 0.240426 0.337322
O O1 0.500000 0.599993 0.228262
O O2 0.782130 0.500000 0.232825
O O3 0.784837 0.670970 0.291342
O O4 0.739357 0.619040 0.102476
O O5 0.283190 0.239765 0.000000
O O6 0.000000 0.337657 0.000000
O O7 0.268073 0.092480 0.904426
O O8 0.000000 0.142027 0.000000
O O9 0.693563 0.177754 0.246935
O O10 0.000000 0.101245 0.211515
O O11 0.730679 0.000000 0.251067
O O12 0.500000 0.100891 0.500000
O O13 0.222230 0.168893 0.412509
O O14 0.222576 0.000000 0.500000
O O15 0.500000 0.262516 0.372734
#
# Coordination Sequence:
#
# PCOD9383410 Si02
#       6
#     8   4   4   8   4   8
#     4  10  21  36  53  76 108 142 175 217 267 309
#     4  11  20  33  55  79 105 142 185 220 251 302
#     4   9  17  30  47  70 102 135 168 204 247 299
#     4  10  19  32  51  74 103 138 171 208 257 309
#     4   9  18  34  56  80 104 131 167 215 268 317
#     4  10  20  35  55  76 101 134 174 216 261 313
#
# _framework density 22.547820000000002
#
# number of rings (size 3 to 8) (size 9 to 14) (size 15 to 20)
#    0.000    2.111    2.222    1.667    0.000    4.444 
#    0.000    1.667    0.000    6.667    0.000    0.000 
#    0.000    3.556    0.000    0.000    0.000    0.000 
#
# Total GULP energy -200476.369816 kJ/mol
# GULP energy per Si atom -5568.788050 kJ/mol
# Density = 2.249650 g / cm^3
# Si number density = 22.547820 Si / 1000 Ang^3
#
#
#
# Elastic Constant Matrix: (Units=GPa)
#
#
# Indices 1 2 3 4 5 6 
#
# 1 71.0461 9.1555 -2.6557 0.0000 0.0000 0.0000
# 2 9.1555 219.1892 72.9507 0.0000 0.0000 0.0000
# 3 -2.6557 72.9507 118.0836 0.0000 0.0000 0.0000
# 4 0.0000 0.0000 0.0000 18.0752 0.0000 0.0000
# 5 0.0000 0.0000 0.0000 0.0000 7.8586 0.0000
# 6 0.0000 0.0000 0.0000 0.0000 0.0000 1.6624
#
#
#
# Elastic Compliance Matrix: (Units=1/GPa)
#
#
# Indices 1 2 3 4 5 6 
#
# 1 0.014221 -0.000882 0.000865 0.000000 0.000000 0.000000
# 2 -0.000882 0.005798 -0.003602 0.000000 0.000000 0.000000
# 3 0.000865 -0.003602 0.010713 0.000000 0.000000 0.000000
# 4 0.000000 0.000000 0.000000 0.055324 0.000000 0.000000
# 5 0.000000 0.000000 0.000000 0.000000 0.127249 0.000000
# 6 0.000000 0.000000 0.000000 0.000000 0.000000 0.601526
#
#
# Mechanical properties :
#
#
# Convention : Reuss Voigt Hill
#
# Bulk Modulus (GPa) = 42.56311 63.02445 52.79378
# Shear Modulus (GPa) = 6.02482 27.44382 16.73432
#
# Velocity S-wave (km/s) = 1.63640 3.49254 2.72724
# Velocity P-wave (km/s) = 4.74217 6.65401 5.77772
#
# Compressibility (1/GPa) = 0.02349453
#
# Stress axis : x y z
#
# Youngs Moduli (GPa) = 70.31701 172.47911 93.34386
#
# Poissons Ratio (x) = 0.15209 -0.08070
# Poissons Ratio (y) = 0.06200 0.33619
# Poissons Ratio (z) = -0.06080 0.62121
#
# Static dielectric constant tensor:
#      x y z
#    x 1.908940 0.000000 0.000000 
#    y 0.000000 1.835260 0.000000 
#    z 0.000000 0.000000 1.897410 
# 
# From -- ./inp_files/20602.got.cif
#   From: 2010.05.17/outbox.cif.g08.bks.cpg/sg47_11_cif.got.tgz:20602.got - 2010.06.03 20:15:42.
