data_PCOD9383250
_publ_section_title
;
Structure prediction by ZEFSAII (Michael W. Deem and Ramdas Pophale) SiO2 
 PCOD9383250
Probable space group: P M M M
;
_chemical_formula_sum "Si O2"
_cell_formula_units_Z 40
_cell_length_a 22.709126
_cell_length_b 12.182178
_cell_length_c 8.005636
_cell_angle_alpha 90.000000
_cell_angle_beta 90.000000
_cell_angle_gamma 90.000000
_cell_volume 2214.732102
_symmetry_space_group_name_H-M "P M M M"
_symmetry_group_IT_number 47
_symmetry_cell_setting 'orthorhombic'
loop_
_space_group_symop_operation_xyz
x,y,z
-x,-y,z
x,-y,-z
-x,y,-z
-x,-y,-z
x,y,-z
-x,y,z
x,-y,z
loop_
_atom_site_type_symbol
_atom_site_label
_atom_site_fract_x
_atom_site_fract_y
_atom_site_fract_z
Si Si1 0.430262 0.724353 0.500000
Si Si2 0.230929 0.632803 0.196512
Si Si3 0.887309 0.763121 0.200529
Si Si4 0.310467 0.625878 0.500000
Si Si5 0.067968 0.000000 0.698761
Si Si6 0.428750 0.124630 0.184047
Si Si7 0.000000 0.373669 0.795154
O O1 0.500000 0.694982 0.500000
O O2 0.380752 0.632728 0.500000
O O3 0.416463 0.796903 0.662943
O O4 0.220110 0.500000 0.206473
O O5 0.173095 0.702066 0.246736
O O6 0.281511 0.667954 0.327621
O O7 0.244699 0.654488 0.000000
O O8 0.942414 0.691343 0.262608
O O9 0.898155 0.889047 0.250376
O O10 0.888875 0.759995 0.000000
O O11 0.293146 0.500000 0.500000
O O12 0.063789 0.000000 0.500000
O O13 0.000000 0.000000 0.766287
O O14 0.500000 0.119391 0.178057
O O15 0.407826 0.000000 0.212531
O O16 0.408573 0.161457 0.000000
O O17 0.000000 0.500000 0.742734
O O18 0.000000 0.373215 0.000000
#
# Coordination Sequence:
#
# PCOD9383250 Si02
#       7
#     4   8   8   4   4   8   4
#     4  10  19  31  52  81 110 140 175 216 267 328
#     4   9  19  37  60  83 105 136 183 235 282 327
#     4  10  19  33  56  79 103 139 182 225 270 324
#     4  10  22  38  57  79 105 142 180 221 272 326
#     4  11  23  35  49  75 115 155 185 218 267 332
#     4   8  14  26  47  76 107 137 169 206 251 306
#     4   9  16  27  49  82 110 129 164 225 282 316
#
# _framework density 18.060874999999999
#
# number of rings (size 3 to 8) (size 9 to 14) (size 15 to 20)
#    0.000    2.600    1.000    1.800    1.400    5.000 
#    0.000    0.000    4.400    0.600    0.000    5.600 
#    0.000    0.000    0.000    0.000    0.000    0.000 
#
# Total GULP energy -222688.975129 kJ/mol
# GULP energy per Si atom -5567.224378 kJ/mol
# Density = 1.801977 g / cm^3
# Si number density = 18.060875 Si / 1000 Ang^3
#
#
#
# Elastic Constant Matrix: (Units=GPa)
#
#
# Indices 1 2 3 4 5 6 
#
# 1 92.6400 32.8155 43.1597 0.0000 0.0000 0.0000
# 2 32.8155 74.5700 20.1844 0.0000 0.0000 0.0000
# 3 43.1597 20.1844 67.1916 0.0000 0.0000 0.0000
# 4 0.0000 0.0000 0.0000 10.2985 0.0000 0.0000
# 5 0.0000 0.0000 0.0000 0.0000 17.5709 0.0000
# 6 0.0000 0.0000 0.0000 0.0000 0.0000 1.2610
#
#
#
# Elastic Compliance Matrix: (Units=1/GPa)
#
#
# Indices 1 2 3 4 5 6 
#
# 1 0.016902 -0.004897 -0.009385 0.000000 0.000000 0.000000
# 2 -0.004897 0.016016 -0.001665 0.000000 0.000000 0.000000
# 3 -0.009385 -0.001665 0.021412 0.000000 0.000000 0.000000
# 4 0.000000 0.000000 0.000000 0.097102 0.000000 0.000000
# 5 0.000000 0.000000 0.000000 0.000000 0.056912 0.000000
# 6 0.000000 0.000000 0.000000 0.000000 0.000000 0.792999
#
#
# Mechanical properties :
#
#
# Convention : Reuss Voigt Hill
#
# Bulk Modulus (GPa) = 44.57714 47.41342 45.99528
# Shear Modulus (GPa) = 4.80438 15.04223 9.92330
#
# Velocity S-wave (km/s) = 1.63275 2.88907 2.34655
# Velocity P-wave (km/s) = 5.31881 6.11865 5.73270
#
# Compressibility (1/GPa) = 0.02243302
#
# Stress axis : x y z
#
# Youngs Moduli (GPa) = 59.16514 62.43670 46.70331
#
# Poissons Ratio (x) = 0.30578 0.43833
# Poissons Ratio (y) = 0.28976 0.07778
# Poissons Ratio (z) = 0.55529 0.10399
#
# Static dielectric constant tensor:
#      x y z
#    x 1.607240 0.000000 0.000000 
#    y 0.000000 1.616550 0.000000 
#    z 0.000000 0.000000 1.661060 
# 
# From -- ./inp_files/10775.got.cif
#   From: 2010.05.17/outbox.cif.g08.bks.cpg/sg47_6_cif.got.tgz:10775.got - 2010.06.03 20:15:42.
