data_PCOD9383390
_publ_section_title
;
Structure prediction by ZEFSAII (Michael W. Deem and Ramdas Pophale) SiO2 
 PCOD9383390
Probable space group: P M M M
;
_chemical_formula_sum "Si O2"
_cell_formula_units_Z 44
_cell_length_a 30.866061
_cell_length_b 8.060808
_cell_length_c 9.880656
_cell_angle_alpha 90.000000
_cell_angle_beta 90.000000
_cell_angle_gamma 90.000000
_cell_volume 2458.360484
_symmetry_space_group_name_H-M "P M M M"
_symmetry_group_IT_number 47
_symmetry_cell_setting 'orthorhombic'
loop_
_space_group_symop_operation_xyz
x,y,z
-x,-y,z
x,-y,-z
-x,y,-z
-x,-y,-z
x,y,-z
-x,y,z
x,-y,z
loop_
_atom_site_type_symbol
_atom_site_label
_atom_site_fract_x
_atom_site_fract_y
_atom_site_fract_z
Si Si1 0.548544 0.202523 0.156291
Si Si2 0.199154 0.804148 0.155865
Si Si3 0.894451 0.683468 0.835258
Si Si4 0.277309 0.301938 0.344036
Si Si5 0.626692 0.799382 0.344512
Si Si6 0.949964 0.000000 0.834688
O O1 0.500000 0.254078 0.198598
O O2 0.587342 0.260418 0.251475
O O3 0.548895 0.000000 0.158928
O O4 0.554988 0.251693 0.000000
O O5 0.155515 0.713599 0.203965
O O6 0.240164 0.770379 0.249383
O O7 0.189411 0.000000 0.154881
O O8 0.208085 0.753481 0.000000
O O9 0.908883 0.500000 0.792839
O O10 0.924578 0.834848 0.789929
O O11 0.894681 0.687687 0.000000
O O12 0.272965 0.242617 0.500000
O O13 0.273314 0.500000 0.343692
O O14 0.325730 0.255362 0.297576
O O15 0.621366 0.743198 0.500000
O O16 0.625983 0.000000 0.344109
O O17 0.000000 0.000000 0.792930
O O18 0.949304 0.000000 0.000000
#
# Coordination Sequence:
#
# PCOD9383390 Si02
#       6
#     8   8   8   8   8   4
#     4   8  14  25  42  65  91 116 145 187 237 285
#     4  10  19  32  51  73  97 127 165 207 251 302
#     4   9  16  27  43  64  94 130 167 210 257 303
#     4  10  21  35  49  68  97 130 163 202 247 296
#     4   9  17  29  45  65  89 117 150 190 237 287
#     4   9  16  26  40  62  95 133 173 213 254 305
#
# _framework density 17.898108000000001
#
# number of rings (size 3 to 8) (size 9 to 14) (size 15 to 20)
#    0.000    2.818    0.909    1.636    0.000    3.636 
#    0.000    5.455    0.000    0.545    0.000    3.818 
#    0.000    1.455    0.000    3.818    0.000    3.636 
#
# Total GULP energy -245275.829899 kJ/mol
# GULP energy per Si atom -5574.450680 kJ/mol
# Density = 1.785737 g / cm^3
# Si number density = 17.898108 Si / 1000 Ang^3
#
#
#
# Elastic Constant Matrix: (Units=GPa)
#
#
# Indices 1 2 3 4 5 6 
#
# 1 152.7945 48.8490 53.1843 0.0000 0.0000 0.0000
# 2 48.8490 68.5496 17.7612 0.0000 0.0000 0.0000
# 3 53.1843 17.7612 33.4317 0.0000 0.0000 0.0000
# 4 0.0000 0.0000 0.0000 10.8727 0.0000 0.0000
# 5 0.0000 0.0000 0.0000 0.0000 -16.6594 0.0000
# 6 0.0000 0.0000 0.0000 0.0000 0.0000 -4.6595
#
#
#
# Elastic Compliance Matrix: (Units=1/GPa)
#
#
# Indices 1 2 3 4 5 6 
#
# 1 0.016390 -0.005710 -0.023040 0.000000 0.000000 0.000000
# 2 -0.005710 0.018906 -0.000960 0.000000 0.000000 0.000000
# 3 -0.023040 -0.000960 0.067075 0.000000 0.000000 0.000000
# 4 0.000000 0.000000 0.000000 0.091973 0.000000 0.000000
# 5 0.000000 0.000000 0.000000 0.000000 -0.060026 0.000000
# 6 0.000000 0.000000 0.000000 0.000000 0.000000 -0.214614
#
#
# Mechanical properties :
#
#
# Convention : Reuss Voigt Hill
#
# Bulk Modulus (GPa) = 23.28306 54.92943 39.10624
# Shear Modulus (GPa) = -762.46694 6.90950 -377.77872
#
# Velocity S-wave (km/s) = -20.66226 1.96694 -14.54407
# Velocity P-wave (km/s) = 23.58393 5.99293 16.12896
#
# Compressibility (1/GPa) = 0.04294968
#
# Stress axis : x y z
#
# Youngs Moduli (GPa) = 61.01261 52.89385 14.90861
#
# Poissons Ratio (x) = 0.30202 0.34350
# Poissons Ratio (y) = 0.34838 0.01432
# Poissons Ratio (z) = 1.40575 0.05080
#
# Static dielectric constant tensor:
#      x y z
#    x 1.592900 0.000000 0.000000 
#    y 0.000000 1.643080 0.000000 
#    z 0.000000 0.000000 1.594180 
# 
# From -- ./inp_files/2037.got.cif
#   From: 2010.05.17/outbox.cif.g08.bks.cpg/sg47_2_cif.got.tgz:2037.got - 2010.06.03 20:15:42.
