data_PCOD9383599
_publ_section_title
;
Structure prediction by ZEFSAII (Michael W. Deem and Ramdas Pophale) SiO2 
 PCOD9383599
Probable space group: P M M M
;
_chemical_formula_sum "Si O2"
_cell_formula_units_Z 56
_cell_length_a 21.246547
_cell_length_b 15.710851
_cell_length_c 8.897333
_cell_angle_alpha 90.000000
_cell_angle_beta 90.000000
_cell_angle_gamma 90.000000
_cell_volume 2969.941626
_symmetry_space_group_name_H-M "P M M M"
_symmetry_group_IT_number 47
_symmetry_cell_setting 'orthorhombic'
loop_
_space_group_symop_operation_xyz
x,y,z
-x,-y,z
x,-y,-z
-x,y,-z
-x,-y,-z
x,y,-z
-x,y,z
x,-y,z
loop_
_atom_site_type_symbol
_atom_site_label
_atom_site_fract_x
_atom_site_fract_y
_atom_site_fract_z
Si Si1 0.191180 0.403240 0.176875
Si Si2 0.570010 0.324116 0.169076
Si Si3 0.817243 0.778463 0.318163
Si Si4 0.928981 0.902527 0.317054
Si Si5 0.705661 0.095266 0.319318
Si Si6 0.569668 0.879388 0.173253
Si Si7 0.319609 0.402471 0.665151
O O1 0.172192 0.500000 0.229391
O O2 0.169363 0.316586 0.257503
O O3 0.265508 0.397451 0.211735
O O4 0.178271 0.398824 0.000000
O O5 0.500000 0.356983 0.201713
O O6 0.567522 0.222634 0.168013
O O7 0.620909 0.349012 0.289784
O O8 0.587671 0.353014 0.000000
O O9 0.816043 0.775420 0.500000
O O10 0.874377 0.839312 0.268362
O O11 0.752050 0.827144 0.269973
O O12 0.928227 0.902440 0.500000
O O13 0.000000 0.878392 0.270773
O O14 0.917322 0.000000 0.270019
O O15 0.703205 0.100186 0.500000
O O16 0.634212 0.099023 0.258087
O O17 0.731104 0.000000 0.280703
O O18 0.500000 0.905998 0.232168
O O19 0.574426 0.907852 0.000000
O O20 0.294053 0.378396 0.500000
O O21 0.339791 0.500000 0.659074
#
# Coordination Sequence:
#
# PCOD9383599 Si02
#       7
#     8   8   8   8   8   8   8
#     4  10  21  36  53  73  99 133 172 213 259 312
#     4   9  18  32  48  65  87 118 157 201 251 310
#     4  10  19  32  54  82 110 139 173 216 260 301
#     4   8  14  27  51  84 119 152 183 213 250 302
#     4  10  21  34  48  72 105 135 164 204 257 312
#     4   9  19  35  51  66  87 120 165 213 255 297
#     4  10  20  32  46  66  92 120 154 202 259 314
#
# _framework density 18.855589999999999
#
# number of rings (size 3 to 8) (size 9 to 14) (size 15 to 20)
#    0.000    2.571    0.000    3.429    0.000    8.286 
#    0.000    4.286    0.000    2.143    0.000    4.000 
#    0.000    0.000    0.000    0.000    0.000    0.000 
#
# Total GULP energy -311810.095389 kJ/mol
# GULP energy per Si atom -5568.037418 kJ/mol
# Density = 1.881267 g / cm^3
# Si number density = 18.855590 Si / 1000 Ang^3
#
#
#
# Elastic Constant Matrix: (Units=GPa)
#
#
# Indices 1 2 3 4 5 6 
#
# 1 91.5861 66.1566 15.5410 0.0000 0.0000 0.0000
# 2 66.1566 101.6591 23.9943 0.0000 0.0000 0.0000
# 3 15.5410 23.9943 16.9107 0.0000 0.0000 0.0000
# 4 0.0000 0.0000 0.0000 70.3050 0.0000 0.0000
# 5 0.0000 0.0000 0.0000 0.0000 1.0383 0.0000
# 6 0.0000 0.0000 0.0000 0.0000 0.0000 8.6388
#
#
#
# Elastic Compliance Matrix: (Units=1/GPa)
#
#
# Indices 1 2 3 4 5 6 
#
# 1 0.020605 -0.013441 0.000135 0.000000 0.000000 0.000000
# 2 -0.013441 0.023557 -0.021073 0.000000 0.000000 0.000000
# 3 0.000135 -0.021073 0.088910 0.000000 0.000000 0.000000
# 4 0.000000 0.000000 0.000000 0.014224 0.000000 0.000000
# 5 0.000000 0.000000 0.000000 0.000000 0.963112 0.000000
# 6 0.000000 0.000000 0.000000 0.000000 0.000000 0.115756
#
#
# Mechanical properties :
#
#
# Convention : Reuss Voigt Hill
#
# Bulk Modulus (GPa) = 15.54851 46.83775 31.19313
# Shear Modulus (GPa) = 3.79835 22.96070 13.37953
#
# Velocity S-wave (km/s) = 1.42085 3.49336 2.66668
# Velocity P-wave (km/s) = 3.30995 6.41604 5.10497
#
# Compressibility (1/GPa) = 0.06431483
#
# Stress axis : x y z
#
# Youngs Moduli (GPa) = 48.53298 42.44949 11.24728
#
# Poissons Ratio (x) = 0.57055 -0.00152
# Poissons Ratio (y) = 0.65232 0.23702
# Poissons Ratio (z) = -0.00656 0.89455
#
# Static dielectric constant tensor:
#      x y z
#    x 1.655650 0.000000 0.000000 
#    y 0.000000 1.704130 0.000000 
#    z 0.000000 0.000000 1.662710 
# 
# From -- ./inp_files/11273.got.cif
#   From: 2010.05.17/outbox.cif.g08.bks.cpg/sg47_6_cif.got.tgz:11273.got - 2010.06.03 20:15:42.
