data_PCOD9383579
_publ_section_title
;
Structure prediction by ZEFSAII (Michael W. Deem and Ramdas Pophale) SiO2 
 PCOD9383579
Probable space group: P M M M
;
_chemical_formula_sum "Si O2"
_cell_formula_units_Z 52
_cell_length_a 21.107344
_cell_length_b 15.154799
_cell_length_c 9.040031
_cell_angle_alpha 90.000000
_cell_angle_beta 90.000000
_cell_angle_gamma 90.000000
_cell_volume 2891.703020
_symmetry_space_group_name_H-M "P M M M"
_symmetry_group_IT_number 47
_symmetry_cell_setting 'orthorhombic'
loop_
_space_group_symop_operation_xyz
x,y,z
-x,-y,z
x,-y,-z
-x,y,-z
-x,-y,-z
x,y,-z
-x,y,z
x,-y,z
loop_
_atom_site_type_symbol
_atom_site_label
_atom_site_fract_x
_atom_site_fract_y
_atom_site_fract_z
Si Si1 0.427434 0.318318 0.823786
Si Si2 0.306826 0.730940 0.672552
Si Si3 0.776959 0.903511 0.666685
Si Si4 0.906176 0.901159 0.174597
Si Si5 0.930556 0.284991 0.322203
Si Si6 0.576216 0.500000 0.665310
Si Si7 0.806539 0.397232 0.319679
O O1 0.500000 0.297591 0.777165
O O2 0.371547 0.258859 0.761878
O O3 0.408733 0.412895 0.755465
O O4 0.426840 0.322103 0.000000
O O5 0.321816 0.712427 0.500000
O O6 0.269219 0.822233 0.680848
O O7 0.257247 0.655380 0.725336
O O8 0.806108 0.896914 0.500000
O O9 0.831662 0.899535 0.787349
O O10 0.745995 0.000000 0.675428
O O11 0.929960 0.813511 0.255551
O O12 0.927777 0.000000 0.222825
O O13 0.918242 0.894262 0.000000
O O14 0.925859 0.278012 0.500000
O O15 0.869710 0.342835 0.272801
O O16 0.000000 0.324940 0.287211
O O17 0.500000 0.500000 0.652269
O O18 0.603830 0.500000 0.500000
O O19 0.806734 0.396128 0.500000
O O20 0.807248 0.500000 0.273473
#
# Coordination Sequence:
#
# PCOD9383579 Si02
#       7
#     8   8   8   8   8   4   8
#     4  10  21  35  50  73 108 145 178 216 264 316
#     4  10  19  32  54  80 105 137 176 218 265 315
#     4   9  17  32  55  80 106 135 171 218 268 317
#     4  10  20  33  51  76 106 138 171 213 268 325
#     4  10  20  35  55  77 103 139 181 220 262 313
#     4   9  17  31  51  73  99 135 178 217 256 307
#     4   9  18  33  52  78 109 136 171 220 265 304
#
# _framework density 17.982482000000001
#
# number of rings (size 3 to 8) (size 9 to 14) (size 15 to 20)
#    0.000    2.385    1.538    1.154    1.077    4.308 
#    0.000    3.077    0.000    1.846    0.000    4.308 
#    0.000    0.000    0.000    0.000    0.000    0.000 
#
# Total GULP energy -289686.741416 kJ/mol
# GULP energy per Si atom -5570.898873 kJ/mol
# Density = 1.794155 g / cm^3
# Si number density = 17.982482 Si / 1000 Ang^3
#
#
#
# Elastic Constant Matrix: (Units=GPa)
#
#
# Indices 1 2 3 4 5 6 
#
# 1 110.9000 43.3902 33.2608 0.0000 0.0000 0.0000
# 2 43.3902 91.4611 16.8523 0.0000 0.0000 0.0000
# 3 33.2608 16.8523 30.6461 0.0000 0.0000 0.0000
# 4 0.0000 0.0000 0.0000 15.5117 0.0000 0.0000
# 5 0.0000 0.0000 0.0000 0.0000 1.2763 0.0000
# 6 0.0000 0.0000 0.0000 0.0000 0.0000 4.9517
#
#
#
# Elastic Compliance Matrix: (Units=1/GPa)
#
#
# Indices 1 2 3 4 5 6 
#
# 1 0.014895 -0.004549 -0.013665 0.000000 0.000000 0.000000
# 2 -0.004549 0.013555 -0.002517 0.000000 0.000000 0.000000
# 3 -0.013665 -0.002517 0.048845 0.000000 0.000000 0.000000
# 4 0.000000 0.000000 0.000000 0.064467 0.000000 0.000000
# 5 0.000000 0.000000 0.000000 0.000000 0.783516 0.000000
# 6 0.000000 0.000000 0.000000 0.000000 0.000000 0.201950
#
#
# Mechanical properties :
#
#
# Convention : Reuss Voigt Hill
#
# Bulk Modulus (GPa) = 27.90604 46.66819 37.28711
# Shear Modulus (GPa) = 4.23501 13.64822 8.94161
#
# Velocity S-wave (km/s) = 1.53629 2.75793 2.23231
# Velocity P-wave (km/s) = 4.32424 6.01249 5.23684
#
# Compressibility (1/GPa) = 0.03583454
#
# Stress axis : x y z
#
# Youngs Moduli (GPa) = 67.13648 73.77153 20.47279
#
# Poissons Ratio (x) = 0.33556 0.27975
# Poissons Ratio (y) = 0.30538 0.05154
# Poissons Ratio (z) = 0.91739 0.18571
#
# Static dielectric constant tensor:
#      x y z
#    x 1.643690 0.000000 0.000000 
#    y 0.000000 1.631230 0.000000 
#    z 0.000000 0.000000 1.613890 
# 
# From -- ./inp_files/11015.got.cif
#   From: 2010.05.17/outbox.cif.g08.bks.cpg/sg47_6_cif.got.tgz:11015.got - 2010.06.03 20:15:42.
