data_PCOD9383685
_publ_section_title
;
Structure prediction by ZEFSAII (Michael W. Deem and Ramdas Pophale) SiO2 
 PCOD9383685
Probable space group: P M M M
;
_chemical_formula_sum "Si O2"
_cell_formula_units_Z 56
_cell_length_a 9.018910
_cell_length_b 13.966209
_cell_length_c 22.543436
_cell_angle_alpha 90.000000
_cell_angle_beta 90.000000
_cell_angle_gamma 90.000000
_cell_volume 2839.570793
_symmetry_space_group_name_H-M "P M M M"
_symmetry_group_IT_number 47
_symmetry_cell_setting 'orthorhombic'
loop_
_space_group_symop_operation_xyz
x,y,z
-x,-y,z
x,-y,-z
-x,y,-z
-x,-y,-z
x,y,-z
-x,y,z
x,-y,z
loop_
_atom_site_type_symbol
_atom_site_label
_atom_site_fract_x
_atom_site_fract_y
_atom_site_fract_z
Si Si1 0.678478 0.107558 0.648903
Si Si2 0.321110 0.697412 0.935550
Si Si3 0.673994 0.345472 0.191976
Si Si4 0.832014 0.500000 0.267179
Si Si5 0.675985 0.706903 0.568469
Si Si6 0.827403 0.155237 0.228492
Si Si7 0.827493 0.103275 0.906203
Si Si8 0.828621 0.500000 0.408208
O O1 0.500000 0.114602 0.658642
O O2 0.721571 0.202843 0.610594
O O3 0.765817 0.109901 0.711322
O O4 0.704330 0.000000 0.622304
O O5 0.500000 0.697901 0.934084
O O6 0.270936 0.643133 0.875947
O O7 0.263711 0.805913 0.928263
O O8 0.273804 0.659806 0.000000
O O9 0.500000 0.362860 0.192464
O O10 0.751343 0.410920 0.239242
O O11 0.715845 0.240650 0.213383
O O12 0.826594 0.500000 0.337220
O O13 0.000000 0.500000 0.247124
O O14 0.696771 0.736906 0.500000
O O15 0.500000 0.691892 0.578861
O O16 0.752957 0.602067 0.575007
O O17 0.825356 0.100760 0.165705
O O18 0.000000 0.185000 0.237536
O O19 0.000000 0.115911 0.923274
O O20 0.774488 0.000000 0.927974
O O21 0.000000 0.500000 0.428548
#
# Coordination Sequence:
#
# PCOD9383685 Si02
#       8
#     8   8   8   4   8   8   8   4
#     4  10  21  36  56  84 116 151 193 238 282 334
#     4   9  19  35  52  71  98 133 173 216 262 313
#     4  10  20  35  56  80 106 139 178 221 271 326
#     4  11  23  38  57  84 114 139 168 213 270 329
#     4  10  22  40  61  85 115 152 191 231 278 332
#     4  10  19  33  53  77 108 144 181 224 275 329
#     4   9  18  31  47  70 100 134 172 215 264 316
#     4  11  24  40  61  89 117 146 182 229 284 337
#
# _framework density 19.72129
#
# number of rings (size 3 to 8) (size 9 to 14) (size 15 to 20)
#    0.000    2.143    0.000    2.786    0.000    8.286 
#    0.000    3.214    0.000    2.143    0.000    2.000 
#    0.000    0.000    0.000    0.000    0.000    0.000 
#
# Total GULP energy -311998.615399 kJ/mol
# GULP energy per Si atom -5571.403846 kJ/mol
# Density = 1.967640 g / cm^3
# Si number density = 19.721290 Si / 1000 Ang^3
#
#
#
# Elastic Constant Matrix: (Units=GPa)
#
#
# Indices 1 2 3 4 5 6 
#
# 1 36.1922 9.3078 31.9712 0.0000 0.0000 0.0000
# 2 9.3078 52.0204 33.8456 0.0000 0.0000 0.0000
# 3 31.9712 33.8456 101.1895 0.0000 0.0000 0.0000
# 4 0.0000 0.0000 0.0000 -14.6883 0.0000 0.0000
# 5 0.0000 0.0000 0.0000 0.0000 9.0044 0.0000
# 6 0.0000 0.0000 0.0000 0.0000 0.0000 2.7914
#
#
#
# Elastic Compliance Matrix: (Units=1/GPa)
#
#
# Indices 1 2 3 4 5 6 
#
# 1 0.038397 0.001307 -0.012569 0.000000 0.000000 0.000000
# 2 0.001307 0.024615 -0.008646 0.000000 0.000000 0.000000
# 3 -0.012569 -0.008646 0.016746 0.000000 0.000000 0.000000
# 4 0.000000 0.000000 0.000000 -0.068081 0.000000 0.000000
# 5 0.000000 0.000000 0.000000 0.000000 0.111057 0.000000
# 6 0.000000 0.000000 0.000000 0.000000 0.000000 0.358238
#
#
# Mechanical properties :
#
#
# Convention : Reuss Voigt Hill
#
# Bulk Modulus (GPa) = 25.03630 37.73903 31.38766
# Shear Modulus (GPa) = 9.36153 7.04001 8.20077
#
# Velocity S-wave (km/s) = 2.18111 1.89143 2.04141
# Velocity P-wave (km/s) = 4.36642 4.89364 4.63753
#
# Compressibility (1/GPa) = 0.03994201
#
# Stress axis : x y z
#
# Youngs Moduli (GPa) = 26.04358 40.62617 59.71712
#
# Poissons Ratio (x) = -0.05312 0.75059
# Poissons Ratio (y) = -0.03405 0.51632
# Poissons Ratio (z) = 0.32734 0.35126
#
# Static dielectric constant tensor:
#      x y z
#    x 1.665920 0.000000 0.000000 
#    y 0.000000 1.246250 0.000000 
#    z 0.000000 0.000000 1.713250 
# 
# From -- ./inp_files/29819.got.cif
#   From: 2010.05.17/outbox.cif.g08.bks.cpg/sg47_15_cif.got.tgz:29819.got - 2010.06.03 20:15:42.
