data_PCOD9383555
_publ_section_title
;
Structure prediction by ZEFSAII (Michael W. Deem and Ramdas Pophale) SiO2 
 PCOD9383555
Probable space group: P M M M
;
_chemical_formula_sum "Si O2"
_cell_formula_units_Z 48
_cell_length_a 35.268900
_cell_length_b 7.944745
_cell_length_c 9.208998
_cell_angle_alpha 90.000000
_cell_angle_beta 90.000000
_cell_angle_gamma 90.000000
_cell_volume 2580.383497
_symmetry_space_group_name_H-M "P M M M"
_symmetry_group_IT_number 47
_symmetry_cell_setting 'orthorhombic'
loop_
_space_group_symop_operation_xyz
x,y,z
-x,-y,z
x,-y,-z
-x,y,-z
-x,-y,-z
x,y,-z
-x,y,z
x,-y,z
loop_
_atom_site_type_symbol
_atom_site_label
_atom_site_fract_x
_atom_site_fract_y
_atom_site_fract_z
Si Si1 0.424540 0.202209 0.835412
Si Si2 0.347276 0.802715 0.325860
Si Si3 0.000000 0.201212 0.332267
Si Si4 0.157018 0.812650 0.825924
Si Si5 0.209591 0.500000 0.824448
Si Si6 0.918032 0.299924 0.330849
Si Si7 0.500000 0.700369 0.336252
Si Si8 0.709190 0.500000 0.674491
O O1 0.386179 0.251085 0.752249
O O2 0.462242 0.248842 0.748920
O O3 0.423639 0.000000 0.842537
O O4 0.425497 0.268625 0.000000
O O5 0.352818 0.795605 0.500000
O O6 0.314778 0.668266 0.288026
O O7 0.338900 0.000000 0.289202
O O8 0.959950 0.261051 0.269560
O O9 0.000000 0.264820 0.500000
O O10 0.000000 0.000000 0.333540
O O11 0.185535 0.664900 0.780607
O O12 0.116113 0.785020 0.754354
O O13 0.171154 0.000000 0.790002
O O14 0.152858 0.800889 0.000000
O O15 0.250645 0.500000 0.753207
O O16 0.212953 0.500000 0.000000
O O17 0.917327 0.244001 0.500000
O O18 0.912289 0.500000 0.327145
O O19 0.500000 0.500000 0.345684
O O20 0.500000 0.771155 0.500000
O O21 0.714407 0.500000 0.500000
#
# Coordination Sequence:
#
# PCOD9383555 Si02
#       8
#     8   8   4   8   4   8   4   4
#     4  10  21  37  57  82 112 146 187 235 281 327
#     4   9  19  37  59  83 114 150 184 224 276 331
#     4   9  17  29  46  73 110 147 184 227 275 324
#     4  10  21  38  59  81 109 147 187 228 276 331
#     4  10  22  40  58  81 112 143 177 222 280 338
#     4  10  19  32  53  80 110 145 186 230 276 327
#     4  11  24  37  52  78 112 151 194 235 278 330
#     4  10  22  38  60  87 114 143 182 228 274 332
#
# _framework density 18.601887000000001
#
# number of rings (size 3 to 8) (size 9 to 14) (size 15 to 20)
#    0.000    2.167    0.833    1.750    1.167    6.667 
#    0.000    0.417    0.000    2.500    0.000    0.000 
#    0.000    0.000    0.000    0.000    0.000    0.000 
#
# Total GULP energy -267870.687058 kJ/mol
# GULP energy per Si atom -5580.639314 kJ/mol
# Density = 1.855955 g / cm^3
# Si number density = 18.601887 Si / 1000 Ang^3
#
#
#
# Elastic Constant Matrix: (Units=GPa)
#
#
# Indices 1 2 3 4 5 6 
#
# 1 179.5809 77.4455 58.5033 0.0000 0.0000 0.0000
# 2 77.4455 102.3891 38.0085 0.0000 0.0000 0.0000
# 3 58.5033 38.0085 43.7150 0.0000 0.0000 0.0000
# 4 0.0000 0.0000 0.0000 15.2552 0.0000 0.0000
# 5 0.0000 0.0000 0.0000 0.0000 123.4531 0.0000
# 6 0.0000 0.0000 0.0000 0.0000 0.0000 15.2552
#
#
#
# Elastic Compliance Matrix: (Units=1/GPa)
#
#
# Indices 1 2 3 4 5 6 
#
# 1 0.010977 -0.004208 -0.011032 0.000000 0.000000 0.000000
# 2 -0.004208 0.016034 -0.008310 0.000000 0.000000 0.000000
# 3 -0.011032 -0.008310 0.044865 0.000000 0.000000 0.000000
# 4 0.000000 0.000000 0.000000 0.065551 0.000000 0.000000
# 5 0.000000 0.000000 0.000000 0.000000 0.008100 0.000000
# 6 0.000000 0.000000 0.000000 0.000000 0.000000 0.065551
#
#
# Mechanical properties :
#
#
# Convention : Reuss Voigt Hill
#
# Bulk Modulus (GPa) = 40.36081 74.84439 57.60260
# Shear Modulus (GPa) = 18.76611 40.90788 29.83699
#
# Velocity S-wave (km/s) = 3.17965 4.69457 4.00931
# Velocity P-wave (km/s) = 5.93502 8.34910 7.24334
#
# Compressibility (1/GPa) = 0.02477651
#
# Stress axis : x y z
#
# Youngs Moduli (GPa) = 91.09874 62.36732 22.28906
#
# Poissons Ratio (x) = 0.26241 0.24590
# Poissons Ratio (y) = 0.38330 0.18522
# Poissons Ratio (z) = 1.00502 0.51828
#
# Static dielectric constant tensor:
#      x y z
#    x 1.609830 0.000000 0.000000 
#    y 0.000000 1.659450 0.000000 
#    z 0.000000 0.000000 1.642160 
# 
# From -- ./inp_files/14015.got.cif
#   From: 2010.05.17/outbox.cif.g08.bks.cpg/sg47_8_cif.got.tgz:14015.got - 2010.06.03 20:15:42.
