data_PCOD9383643
_publ_section_title
;
Structure prediction by ZEFSAII (Michael W. Deem and Ramdas Pophale) SiO2 
 PCOD9383643
Probable space group: P M M M
;
_chemical_formula_sum "Si O2"
_cell_formula_units_Z 56
_cell_length_a 23.489485
_cell_length_b 15.271258
_cell_length_c 7.489300
_cell_angle_alpha 90.000000
_cell_angle_beta 90.000000
_cell_angle_gamma 90.000000
_cell_volume 2686.516653
_symmetry_space_group_name_H-M "P M M M"
_symmetry_group_IT_number 47
_symmetry_cell_setting 'orthorhombic'
loop_
_space_group_symop_operation_xyz
x,y,z
-x,-y,z
x,-y,-z
-x,y,-z
-x,-y,-z
x,y,-z
-x,y,z
x,-y,z
loop_
_atom_site_type_symbol
_atom_site_label
_atom_site_fract_x
_atom_site_fract_y
_atom_site_fract_z
Si Si1 0.000000 0.099726 0.281732
Si Si2 0.245127 0.404675 0.784444
Si Si3 0.777542 0.900068 0.786807
Si Si4 0.568491 0.000000 0.700414
Si Si5 0.684490 0.764334 0.780537
Si Si6 0.563923 0.193937 0.205288
Si Si7 0.112998 0.595620 0.294419
Si Si8 0.891811 0.789626 0.715234
O O1 0.056715 0.149342 0.223963
O O2 0.000000 0.099796 0.500000
O O3 0.000000 0.000000 0.222366
O O4 0.270241 0.500000 0.740850
O O5 0.281711 0.322377 0.726546
O O6 0.181731 0.401978 0.707752
O O7 0.239145 0.399662 0.000000
O O8 0.721387 0.848492 0.721990
O O9 0.832029 0.837163 0.755955
O O10 0.784431 0.000000 0.717934
O O11 0.771906 0.906804 0.000000
O O12 0.581283 0.091232 0.793004
O O13 0.500000 0.000000 0.689702
O O14 0.591901 0.000000 0.500000
O O15 0.619567 0.761474 0.714788
O O16 0.682857 0.766320 0.000000
O O17 0.500000 0.202624 0.284070
O O18 0.559374 0.222143 0.000000
O O19 0.092886 0.594905 0.500000
O O20 0.096564 0.500000 0.216112
O O21 0.098763 0.690635 0.214787
O O22 0.893770 0.783164 0.500000
#
# Coordination Sequence:
#
# PCOD9383643 Si02
#       8
#     4   8   8   4   8   8   8   8
#     4   9  18  32  50  70  92 125 165 197 228 269
#     4   9  16  28  48  70  90 118 155 190 230 285
#     4  10  20  32  47  68  96 127 155 191 239 280
#     4   9  17  29  43  61  87 117 151 194 235 266
#     4   9  17  29  46  68  93 118 151 193 233 275
#     4   9  17  29  46  64  85 121 163 193 223 276
#     4   9  17  29  46  70  98 122 147 189 240 280
#     4  10  19  33  52  71  94 125 160 195 230 276
#
# _framework density 20.844837999999999
#
# number of rings (size 3 to 8) (size 9 to 14) (size 15 to 20)
#    0.000    2.714    1.429    0.643    1.000    1.714 
#    0.000    2.143    0.000    3.857    0.000    3.000 
#    0.000    3.429    0.000    7.143    0.000    7.429 
#
# Total GULP energy -312128.395582 kJ/mol
# GULP energy per Si atom -5573.721350 kJ/mol
# Density = 2.079739 g / cm^3
# Si number density = 20.844838 Si / 1000 Ang^3
#
#
#
# Elastic Constant Matrix: (Units=GPa)
#
#
# Indices 1 2 3 4 5 6 
#
# 1 91.2718 45.3793 -0.8978 0.0000 0.0000 0.0000
# 2 45.3793 169.0303 6.6738 0.0000 0.0000 0.0000
# 3 -0.8978 6.6738 60.5095 0.0000 0.0000 0.0000
# 4 0.0000 0.0000 0.0000 2.4805 0.0000 0.0000
# 5 0.0000 0.0000 0.0000 0.0000 7.4864 0.0000
# 6 0.0000 0.0000 0.0000 0.0000 0.0000 21.9312
#
#
#
# Elastic Compliance Matrix: (Units=1/GPa)
#
#
# Indices 1 2 3 4 5 6 
#
# 1 0.012663 -0.003422 0.000565 0.000000 0.000000 0.000000
# 2 -0.003422 0.006867 -0.000808 0.000000 0.000000 0.000000
# 3 0.000565 -0.000808 0.016624 0.000000 0.000000 0.000000
# 4 0.000000 0.000000 0.000000 0.403151 0.000000 0.000000
# 5 0.000000 0.000000 0.000000 0.000000 0.133576 0.000000
# 6 0.000000 0.000000 0.000000 0.000000 0.000000 0.045597
#
#
# Mechanical properties :
#
#
# Convention : Reuss Voigt Hill
#
# Bulk Modulus (GPa) = 34.69314 47.01359 40.85337
# Shear Modulus (GPa) = 7.86887 24.35670 16.11279
#
# Velocity S-wave (km/s) = 1.94504 3.42201 2.78328
# Velocity P-wave (km/s) = 4.66089 6.18195 5.47451
#
# Compressibility (1/GPa) = 0.02882415
#
# Stress axis : x y z
#
# Youngs Moduli (GPa) = 78.96883 145.63029 60.15458
#
# Poissons Ratio (x) = 0.49835 -0.03401
# Poissons Ratio (y) = 0.27023 0.04861
# Poissons Ratio (z) = -0.04464 0.11769
#
# Static dielectric constant tensor:
#      x y z
#    x 1.732930 0.000000 0.000000 
#    y 0.000000 1.769590 0.000000 
#    z 0.000000 0.000000 1.852480 
# 
# From -- ./inp_files/11346.got.cif
#   From: 2010.05.17/outbox.cif.g08.bks.cpg/sg47_6_cif.got.tgz:11346.got - 2010.06.03 20:15:42.
