data_PCOD9383568
_publ_section_title
;
Structure prediction by ZEFSAII (Michael W. Deem and Ramdas Pophale) SiO2 
 PCOD9383568
Probable space group: P M M M
;
_chemical_formula_sum "Si O2"
_cell_formula_units_Z 52
_cell_length_a 14.405444
_cell_length_b 8.035786
_cell_length_c 22.713122
_cell_angle_alpha 90.000000
_cell_angle_beta 90.000000
_cell_angle_gamma 90.000000
_cell_volume 2629.249771
_symmetry_space_group_name_H-M "P M M M"
_symmetry_group_IT_number 47
_symmetry_cell_setting 'orthorhombic'
loop_
_space_group_symop_operation_xyz
x,y,z
-x,-y,z
x,-y,-z
-x,y,-z
-x,-y,-z
x,y,-z
-x,y,z
x,-y,z
loop_
_atom_site_type_symbol
_atom_site_label
_atom_site_fract_x
_atom_site_fract_y
_atom_site_fract_z
Si Si1 0.219996 0.303103 0.063985
Si Si2 0.395136 0.803435 0.871184
Si Si3 0.894189 0.202865 0.691640
Si Si4 0.289403 0.808573 0.630625
Si Si5 0.392123 0.500000 0.429484
Si Si6 0.610236 0.306724 0.742437
Si Si7 0.111624 0.192712 0.821756
O O1 0.228783 0.500000 0.061002
O O2 0.321289 0.232106 0.078640
O O3 0.155288 0.266185 0.119690
O O4 0.186297 0.241191 0.000000
O O5 0.500000 0.744206 0.884006
O O6 0.361954 0.722419 0.809968
O O7 0.398750 0.000000 0.860773
O O8 0.817262 0.242761 0.643225
O O9 0.865396 0.264963 0.757049
O O10 0.000000 0.256554 0.679502
O O11 0.895790 0.000000 0.695426
O O12 0.341938 0.667616 0.593459
O O13 0.336538 0.802898 0.695236
O O14 0.294183 0.000000 0.608401
O O15 0.500000 0.500000 0.409107
O O16 0.391158 0.500000 0.500000
O O17 0.500000 0.271233 0.739638
O O18 0.624877 0.500000 0.727051
O O19 0.000000 0.199248 0.825212
O O20 0.141421 0.000000 0.821195
#
# Coordination Sequence:
#
# PCOD9383568 Si02
#       7
#     8   8   8   8   4   8   8
#     4  11  24  38  51  69  99 143 190 236 288 348
#     4  10  21  36  54  77 104 136 179 235 296 354
#     4   8  16  33  58  90 124 152 184 237 303 362
#     4  11  21  36  64  93 120 162 209 250 294 350
#     4  11  26  46  63  87 129 171 207 252 296 336
#     4  10  19  32  53  83 118 149 180 230 297 360
#     4   9  18  35  59  84 110 140 176 224 284 346
#
# _framework density 19.777505000000001
#
# number of rings (size 3 to 8) (size 9 to 14) (size 15 to 20)
#    0.000    2.077    0.769    3.692    0.000    6.462 
#    1.385    4.231    0.000    0.923    0.000    2.154 
#    0.000    0.000    0.000    0.000    0.000    0.000 
#
# Total GULP energy -290259.404012 kJ/mol
# GULP energy per Si atom -5581.911616 kJ/mol
# Density = 1.973249 g / cm^3
# Si number density = 19.777505 Si / 1000 Ang^3
#
#
#
# Elastic Constant Matrix: (Units=GPa)
#
#
# Indices 1 2 3 4 5 6 
#
# 1 73.1422 35.5154 41.6835 0.0000 0.0000 0.0000
# 2 35.5154 66.6081 32.3141 0.0000 0.0000 0.0000
# 3 41.6835 32.3141 68.4008 0.0000 0.0000 0.0000
# 4 0.0000 0.0000 0.0000 6.0350 0.0000 0.0000
# 5 0.0000 0.0000 0.0000 0.0000 -7.3195 0.0000
# 6 0.0000 0.0000 0.0000 0.0000 0.0000 11.2494
#
#
#
# Elastic Compliance Matrix: (Units=1/GPa)
#
#
# Indices 1 2 3 4 5 6 
#
# 1 0.023330 -0.007190 -0.010820 0.000000 0.000000 0.000000
# 2 -0.007190 0.021693 -0.005867 0.000000 0.000000 0.000000
# 3 -0.010820 -0.005867 0.023985 0.000000 0.000000 0.000000
# 4 0.000000 0.000000 0.000000 0.165700 0.000000 0.000000
# 5 0.000000 0.000000 0.000000 0.000000 -0.136622 0.000000
# 6 0.000000 0.000000 0.000000 0.000000 0.000000 0.088894
#
#
# Mechanical properties :
#
#
# Convention : Reuss Voigt Hill
#
# Bulk Modulus (GPa) = 47.05048 47.46412 47.25730
# Shear Modulus (GPa) = 20.67662 8.56886 14.62274
#
# Velocity S-wave (km/s) = 3.23687 2.08376 2.72207
# Velocity P-wave (km/s) = 6.14909 5.46265 5.81600
#
# Compressibility (1/GPa) = 0.02125377
#
# Stress axis : x y z
#
# Youngs Moduli (GPa) = 42.86365 46.09779 41.69226
#
# Poissons Ratio (x) = 0.33144 0.45113
# Poissons Ratio (y) = 0.30819 0.24459
# Poissons Ratio (z) = 0.46381 0.27044
#
# Static dielectric constant tensor:
#      x y z
#    x 1.725460 0.000000 0.000000 
#    y 0.000000 1.694730 0.000000 
#    z 0.000000 0.000000 1.695590 
# 
# From -- ./inp_files/30886.got.cif
#   From: 2010.05.17/outbox.cif.g08.bks.cpg/sg47_16_cif.got.tgz:30886.got - 2010.06.03 20:15:42.
