data_PCOD9383560
_publ_section_title
;
Structure prediction by ZEFSAII (Michael W. Deem and Ramdas Pophale) SiO2 
 PCOD9383560
Probable space group: P M M M
;
_chemical_formula_sum "Si O2"
_cell_formula_units_Z 56
_cell_length_a 20.251052
_cell_length_b 7.845364
_cell_length_c 16.586281
_cell_angle_alpha 90.000000
_cell_angle_beta 90.000000
_cell_angle_gamma 90.000000
_cell_volume 2635.176482
_symmetry_space_group_name_H-M "P M M M"
_symmetry_group_IT_number 47
_symmetry_cell_setting 'orthorhombic'
loop_
_space_group_symop_operation_xyz
x,y,z
-x,-y,z
x,-y,-z
-x,y,-z
-x,-y,-z
x,y,-z
-x,y,z
x,-y,z
loop_
_atom_site_type_symbol
_atom_site_label
_atom_site_fract_x
_atom_site_fract_y
_atom_site_fract_z
Si Si1 0.571403 0.206999 0.095058
Si Si2 0.428170 0.294885 0.406659
Si Si3 0.848207 0.794675 0.912077
Si Si4 0.925535 0.702715 0.749037
Si Si5 0.288098 0.208875 0.842295
Si Si6 0.287228 0.203892 0.661479
Si Si7 0.845679 0.205331 0.412158
O O1 0.500000 0.267375 0.126980
O O2 0.638859 0.269194 0.134434
O O3 0.571388 0.000000 0.101910
O O4 0.573942 0.245884 0.000000
O O5 0.423188 0.238650 0.500000
O O6 0.500000 0.235180 0.374967
O O7 0.429473 0.500000 0.406599
O O8 0.362205 0.241994 0.361725
O O9 0.888987 0.749772 0.832222
O O10 0.772311 0.737853 0.898580
O O11 0.847603 0.000000 0.914639
O O12 0.872524 0.733469 0.000000
O O13 0.929276 0.500000 0.747902
O O14 0.887255 0.753242 0.667547
O O15 0.000000 0.774173 0.748519
O O16 0.272866 0.265084 0.751635
O O17 0.289621 0.000000 0.844239
O O18 0.229641 0.267391 0.602744
O O19 0.281441 0.000000 0.662586
O O20 0.869791 0.267497 0.500000
O O21 0.844530 0.000000 0.416039
#
# Coordination Sequence:
#
# PCOD9383560 Si02
#       7
#     8   8   8   8   8   8   8
#     4   8  13  21  35  60  97 139 179 218 264 319
#     4   9  19  35  51  69 100 144 192 239 285 337
#     4  10  20  37  63  90 117 154 198 242 290 344
#     4  11  25  43  62  87 121 156 190 235 288 345
#     4   9  16  28  47  74 108 142 181 230 280 331
#     4  10  19  32  53  81 112 142 179 235 293 341
#     4  10  21  39  63  90 120 153 191 238 293 350
#
# _framework density 21.250948000000001
#
# number of rings (size 3 to 8) (size 9 to 14) (size 15 to 20)
#    0.000    2.429    1.429    2.143    0.000    6.286 
#    0.000    5.000    0.000    0.000    0.000    0.000 
#    0.000    0.000    0.000    7.571    0.000    6.571 
#
# Total GULP energy -312357.181694 kJ/mol
# GULP energy per Si atom -5577.806816 kJ/mol
# Density = 2.120258 g / cm^3
# Si number density = 21.250948 Si / 1000 Ang^3
#
#
#
# Elastic Constant Matrix: (Units=GPa)
#
#
# Indices 1 2 3 4 5 6 
#
# 1 147.3685 7.5511 82.6237 0.0000 0.0000 0.0000
# 2 7.5511 24.6288 15.9975 0.0000 0.0000 0.0000
# 3 82.6237 15.9975 159.7431 0.0000 0.0000 0.0000
# 4 0.0000 0.0000 0.0000 7.7388 0.0000 0.0000
# 5 0.0000 0.0000 0.0000 0.0000 16.8003 0.0000
# 6 0.0000 0.0000 0.0000 0.0000 0.0000 26.2216
#
#
#
# Elastic Compliance Matrix: (Units=1/GPa)
#
#
# Indices 1 2 3 4 5 6 
#
# 1 0.009559 0.000300 -0.004974 0.000000 0.000000 0.000000
# 2 0.000300 0.043437 -0.004505 0.000000 0.000000 0.000000
# 3 -0.004974 -0.004505 0.009284 0.000000 0.000000 0.000000
# 4 0.000000 0.000000 0.000000 0.129219 0.000000 0.000000
# 5 0.000000 0.000000 0.000000 0.000000 0.059523 0.000000
# 6 0.000000 0.000000 0.000000 0.000000 0.000000 0.038136
#
#
# Mechanical properties :
#
#
# Convention : Reuss Voigt Hill
#
# Bulk Modulus (GPa) = 22.76778 60.45388 41.61083
# Shear Modulus (GPa) = 15.52032 25.19002 20.35517
#
# Velocity S-wave (km/s) = 2.70540 3.44664 3.09827
# Velocity P-wave (km/s) = 4.52725 6.65947 5.69405
#
# Compressibility (1/GPa) = 0.04392171
#
# Stress axis : x y z
#
# Youngs Moduli (GPa) = 104.61043 23.02172 107.71066
#
# Poissons Ratio (x) = -0.00691 0.53580
# Poissons Ratio (y) = -0.03141 0.48527
# Poissons Ratio (z) = 0.52037 0.10372
#
# Static dielectric constant tensor:
#      x y z
#    x 1.785910 0.000000 0.000000 
#    y 0.000000 1.777240 0.000000 
#    z 0.000000 0.000000 1.781560 
# 
# From -- ./inp_files/25138.got.cif
#   From: 2010.05.17/outbox.cif.g08.bks.cpg/sg47_13_cif.got.tgz:25138.got - 2010.06.03 20:15:42.
