data_PCOD9383540
_publ_section_title
;
Structure prediction by ZEFSAII (Michael W. Deem and Ramdas Pophale) SiO2 
 PCOD9383540
Probable space group: P M M M
;
_chemical_formula_sum "Si O2"
_cell_formula_units_Z 52
_cell_length_a 14.640710
_cell_length_b 23.974335
_cell_length_c 8.951458
_cell_angle_alpha 90.000000
_cell_angle_beta 90.000000
_cell_angle_gamma 90.000000
_cell_volume 3141.973271
_symmetry_space_group_name_H-M "P M M M"
_symmetry_group_IT_number 47
_symmetry_cell_setting 'orthorhombic'
loop_
_space_group_symop_operation_xyz
x,y,z
-x,-y,z
x,-y,-z
-x,y,-z
-x,-y,-z
x,y,-z
-x,y,z
x,-y,z
loop_
_atom_site_type_symbol
_atom_site_label
_atom_site_fract_x
_atom_site_fract_y
_atom_site_fract_z
Si Si1 0.792831 0.728108 0.179749
Si Si2 0.602475 0.777524 0.177654
Si Si3 0.893018 0.384393 0.179709
Si Si4 0.213788 0.062355 0.178061
Si Si5 0.396053 0.899063 0.678198
Si Si6 0.892120 0.165508 0.321929
Si Si7 0.889068 0.500000 0.672436
O O1 0.685685 0.736586 0.213553
O O2 0.834791 0.669142 0.228182
O O3 0.846168 0.779616 0.252489
O O4 0.803928 0.731668 0.000000
O O5 0.500000 0.755683 0.205141
O O6 0.613139 0.834791 0.268917
O O7 0.608942 0.790952 0.000000
O O8 0.860396 0.442741 0.248568
O O9 0.000000 0.375832 0.220111
O O10 0.888757 0.388569 0.000000
O O11 0.316867 0.067925 0.238667
O O12 0.155132 0.110876 0.253584
O O13 0.179259 0.000000 0.211713
O O14 0.213612 0.070289 0.000000
O O15 0.383974 0.902877 0.500000
O O16 0.500000 0.916752 0.714288
O O17 0.878782 0.165645 0.500000
O O18 0.000000 0.165458 0.289905
O O19 0.862020 0.500000 0.500000
O O20 0.000000 0.500000 0.680115
#
# Coordination Sequence:
#
# PCOD9383540 Si02
#       7
#     8   8   8   8   8   8   4
#     4  10  19  32  53  79 105 136 171 207 250 301
#     4   9  17  30  50  76 105 135 166 202 247 300
#     4   9  17  29  46  70 101 137 174 209 246 293
#     4  11  24  40  57  76  98 129 170 212 255 307
#     4  10  20  34  54  79 105 132 162 201 253 310
#     4  11  24  39  55  76 102 132 166 209 260 308
#     4   9  17  29  45  67  98 135 172 210 253 297
#
# _framework density 16.550108000000002
#
# number of rings (size 3 to 8) (size 9 to 14) (size 15 to 20)
#    0.000    2.077    1.538    2.077    0.000    6.154 
#    0.000    4.615    0.000    0.000    0.000    0.538 
#    0.000    4.308    0.000    0.000    0.000    0.000 
#
# Total GULP energy -290173.726006 kJ/mol
# GULP energy per Si atom -5580.263962 kJ/mol
# Density = 1.651244 g / cm^3
# Si number density = 16.550108 Si / 1000 Ang^3
#
#
#
# Elastic Constant Matrix: (Units=GPa)
#
#
# Indices 1 2 3 4 5 6 
#
# 1 94.0089 73.0403 40.6898 0.0000 0.0000 0.0000
# 2 73.0403 143.4695 44.4807 0.0000 0.0000 0.0000
# 3 40.6898 44.4807 31.7441 0.0000 0.0000 0.0000
# 4 0.0000 0.0000 0.0000 -42.6024 0.0000 0.0000
# 5 0.0000 0.0000 0.0000 0.0000 22.0385 0.0000
# 6 0.0000 0.0000 0.0000 0.0000 0.0000 24.2315
#
#
#
# Elastic Compliance Matrix: (Units=1/GPa)
#
#
# Indices 1 2 3 4 5 6 
#
# 1 0.025848 -0.005105 -0.025979 0.000000 0.000000 0.000000
# 2 -0.005105 0.013332 -0.012138 0.000000 0.000000 0.000000
# 3 -0.025979 -0.012138 0.081811 0.000000 0.000000 0.000000
# 4 0.000000 0.000000 0.000000 -0.023473 0.000000 0.000000
# 5 0.000000 0.000000 0.000000 0.000000 0.045375 0.000000
# 6 0.000000 0.000000 0.000000 0.000000 0.000000 0.041269
#
#
# Mechanical properties :
#
#
# Convention : Reuss Voigt Hill
#
# Bulk Modulus (GPa) = 28.94646 65.07158 47.00902
# Shear Modulus (GPa) = 17.72284 8.13429 12.92857
#
# Velocity S-wave (km/s) = 3.27595 2.21937 2.79799
# Velocity P-wave (km/s) = 5.64245 6.78017 6.23731
#
# Compressibility (1/GPa) = 0.03454654
#
# Stress axis : x y z
#
# Youngs Moduli (GPa) = 38.68775 75.00630 12.22333
#
# Poissons Ratio (x) = 0.38288 0.31755
# Poissons Ratio (y) = 0.19749 0.14837
# Poissons Ratio (z) = 1.00508 0.91044
#
# Static dielectric constant tensor:
#      x y z
#    x 1.564030 0.000000 0.000000 
#    y 0.000000 1.537130 0.000000 
#    z 0.000000 0.000000 1.551700 
# 
# From -- ./inp_files/6963.got.cif
#   From: 2010.05.17/outbox.cif.g08.bks.cpg/sg47_4_cif.got.tgz:6963.got - 2010.06.03 20:15:42.
