data_PCOD9383949
_publ_section_title
;
Structure prediction by ZEFSAII (Michael W. Deem and Ramdas Pophale) SiO2 
 PCOD9383949
Probable space group: P M M M
;
_chemical_formula_sum "Si O2"
_cell_formula_units_Z 64
_cell_length_a 24.391889
_cell_length_b 8.867547
_cell_length_c 15.789044
_cell_angle_alpha 90.000000
_cell_angle_beta 90.000000
_cell_angle_gamma 90.000000
_cell_volume 3415.110568
_symmetry_space_group_name_H-M "P M M M"
_symmetry_group_IT_number 47
_symmetry_cell_setting 'orthorhombic'
loop_
_space_group_symop_operation_xyz
x,y,z
-x,-y,z
x,-y,-z
-x,y,-z
-x,-y,-z
x,y,-z
-x,y,z
x,-y,z
loop_
_atom_site_type_symbol
_atom_site_label
_atom_site_fract_x
_atom_site_fract_y
_atom_site_fract_z
Si Si1 0.367776 0.680315 0.595714
Si Si2 0.744187 0.178211 0.148936
Si Si3 0.630821 0.320038 0.095883
Si Si4 0.137382 0.319761 0.596674
Si Si5 0.936102 0.182424 0.743835
Si Si6 0.564396 0.180045 0.250724
Si Si7 0.865926 0.816362 0.094245
Si Si8 0.253099 0.177860 0.352600
O O1 0.385895 0.717072 0.500000
O O2 0.366748 0.500000 0.605046
O O3 0.406316 0.750494 0.667234
O O4 0.306695 0.743907 0.609588
O O5 0.693242 0.267978 0.111519
O O6 0.803203 0.227616 0.113782
O O7 0.744902 0.194083 0.250625
O O8 0.737218 0.000000 0.129552
O O9 0.627240 0.500000 0.104686
O O10 0.593726 0.243213 0.167102
O O11 0.614628 0.278509 0.000000
O O12 0.121272 0.284554 0.500000
O O13 0.139774 0.500000 0.606140
O O14 0.095601 0.251093 0.664285
O O15 0.197406 0.251593 0.614200
O O16 0.905548 0.232233 0.829991
O O17 0.000000 0.223069 0.744726
O O18 0.932018 0.000000 0.739382
O O19 0.500000 0.216050 0.250109
O O20 0.571312 0.000000 0.252889
O O21 0.866559 0.000000 0.094902
O O22 0.882049 0.766760 0.000000
O O23 0.253477 0.000000 0.372180
#
# Coordination Sequence:
#
# PCOD9383949 Si02
#       8
#     8   8   8   8   8   8   8   8
#     4  11  24  41  63  92 125 160 198 242 297 361
#     4  10  19  34  59  88 120 157 194 238 294 354
#     4  11  24  40  61  91 125 160 198 244 301 362
#     4  11  24  40  59  84 116 155 197 243 297 356
#     4  10  21  38  59  84 115 151 196 248 297 349
#     4  11  25  44  65  89 118 157 206 256 302 350
#     4   9  17  32  56  86 118 150 186 232 287 345
#     4  11  21  36  62  93 123 155 194 241 294 353
#
# _framework density 18.740243
#
# number of rings (size 3 to 8) (size 9 to 14) (size 15 to 20)
#    0.000    1.500    2.500    2.625    0.000    7.750 
#    0.000    5.000    0.000    0.375    0.000    0.875 
#    0.000    0.000    0.000    0.000    0.000    0.000 
#
# Total GULP energy -357749.774667 kJ/mol
# GULP energy per Si atom -5589.840229 kJ/mol
# Density = 1.869759 g / cm^3
# Si number density = 18.740243 Si / 1000 Ang^3
#
#
#
# Elastic Constant Matrix: (Units=GPa)
#
#
# Indices 1 2 3 4 5 6 
#
# 1 158.0304 59.6859 109.8116 0.0000 0.0000 0.0000
# 2 59.6859 43.6597 64.3847 0.0000 0.0000 0.0000
# 3 109.8116 64.3847 183.4925 0.0000 0.0000 0.0000
# 4 0.0000 0.0000 0.0000 92.7438 0.0000 0.0000
# 5 0.0000 0.0000 0.0000 0.0000 -3.6255 0.0000
# 6 0.0000 0.0000 0.0000 0.0000 0.0000 -12.1519
#
#
#
# Elastic Compliance Matrix: (Units=1/GPa)
#
#
# Indices 1 2 3 4 5 6 
#
# 1 0.014070 -0.014128 -0.003463 0.000000 0.000000 0.000000
# 2 -0.014128 0.061651 -0.013178 0.000000 0.000000 0.000000
# 3 -0.003463 -0.013178 0.012146 0.000000 0.000000 0.000000
# 4 0.000000 0.000000 0.000000 0.010782 0.000000 0.000000
# 5 0.000000 0.000000 0.000000 0.000000 -0.275825 0.000000
# 6 0.000000 0.000000 0.000000 0.000000 0.000000 -0.082292
#
#
# Mechanical properties :
#
#
# Convention : Reuss Voigt Hill
#
# Bulk Modulus (GPa) = 37.97897 94.77191 66.37544
# Shear Modulus (GPa) = -26.43369 25.47998 -0.47685
#
# Velocity S-wave (km/s) = -3.75978 3.69133 -0.50498
# Velocity P-wave (km/s) = 1.20917 8.29753 5.92921
#
# Compressibility (1/GPa) = 0.02633036
#
# Stress axis : x y z
#
# Youngs Moduli (GPa) = 71.07168 16.22022 82.33114
#
# Poissons Ratio (x) = 0.22916 0.28512
# Poissons Ratio (y) = 1.00411 1.08492
# Poissons Ratio (z) = 0.24612 0.21374
#
# Static dielectric constant tensor:
#      x y z
#    x 1.611940 0.000000 0.000000 
#    y 0.000000 1.627640 0.000000 
#    z 0.000000 0.000000 1.649580 
# 
# From -- ./inp_files/12671.got.cif
#   From: 2010.05.17/outbox.cif.g08.bks.cpg/sg47_7_cif.got.tgz:12671.got - 2010.06.03 20:15:42.
