data_PCOD9383879
_publ_section_title
;
Structure prediction by ZEFSAII (Michael W. Deem and Ramdas Pophale) SiO2 
 PCOD9383879
Probable space group: P M M M
;
_chemical_formula_sum "Si O2"
_cell_formula_units_Z 52
_cell_length_a 8.170838
_cell_length_b 12.501362
_cell_length_c 28.229929
_cell_angle_alpha 90.000000
_cell_angle_beta 90.000000
_cell_angle_gamma 90.000000
_cell_volume 2883.591370
_symmetry_space_group_name_H-M "P M M M"
_symmetry_group_IT_number 47
_symmetry_cell_setting 'orthorhombic'
loop_
_space_group_symop_operation_xyz
x,y,z
-x,-y,z
x,-y,-z
-x,y,-z
-x,-y,-z
x,y,-z
-x,y,z
x,-y,z
loop_
_atom_site_type_symbol
_atom_site_label
_atom_site_fract_x
_atom_site_fract_y
_atom_site_fract_z
Si Si1 0.195731 0.302452 0.620062
Si Si2 0.196165 0.376841 0.824090
Si Si3 0.694786 0.377796 0.279500
Si Si4 0.199939 0.000000 0.944487
Si Si5 0.696360 0.500000 0.554825
Si Si6 0.303372 0.375757 0.000000
Si Si7 0.800334 0.877554 0.447910
Si Si8 0.197537 0.233566 0.910757
O O1 0.259325 0.316367 0.673051
O O2 0.245829 0.398486 0.585184
O O3 0.257682 0.195895 0.594393
O O4 0.000000 0.300558 0.622408
O O5 0.258423 0.500000 0.830224
O O6 0.235725 0.340551 0.770765
O O7 0.258142 0.293768 0.863443
O O8 0.000000 0.382065 0.828983
O O9 0.500000 0.380036 0.275350
O O10 0.755401 0.500000 0.286191
O O11 0.254946 0.111684 0.920509
O O12 0.000000 0.000000 0.943566
O O13 0.247791 0.000000 0.000000
O O14 0.500000 0.500000 0.553866
O O15 0.755326 0.500000 0.500000
O O16 0.242744 0.310282 0.045558
O O17 0.247097 0.500000 0.000000
O O18 0.500000 0.376384 0.000000
O O19 0.750476 0.836516 0.500000
O O20 0.000000 0.876756 0.447414
O O21 0.748357 0.000000 0.443633
O O22 0.000000 0.227799 0.908270
#
# Coordination Sequence:
#
# PCOD9383879 Si02
#       8
#     8   8   8   4   4   4   8   8
#     4  11  20  31  53  79 103 133 173 218 257 303
#     4   9  18  32  52  77 101 127 170 221 263 305
#     4  10  20  34  52  73 102 139 172 207 260 319
#     4   9  16  30  54  82 108 138 176 214 255 306
#     4  11  23  35  47  71 111 149 175 206 257 316
#     4  11  23  34  47  74 112 145 174 213 260 313
#     4   8  15  29  49  74 102 129 161 207 260 305
#     4  10  19  34  56  79 105 139 177 218 260 306
#
# _framework density 18.033068
#
# number of rings (size 3 to 8) (size 9 to 14) (size 15 to 20)
#    0.000    2.231    1.538    2.769    0.000    3.692 
#    0.000    2.308    1.692    1.846    0.000    5.385 
#    0.000    0.000    0.000    0.000    0.000    0.000 
#
# Total GULP energy -290023.786199 kJ/mol
# GULP energy per Si atom -5577.380504 kJ/mol
# Density = 1.799202 g / cm^3
# Si number density = 18.033068 Si / 1000 Ang^3
#
#
#
# Elastic Constant Matrix: (Units=GPa)
#
#
# Indices 1 2 3 4 5 6 
#
# 1 9.9597 4.6922 5.7298 0.0000 0.0000 0.0000
# 2 4.6922 122.1756 93.2024 0.0000 0.0000 0.0000
# 3 5.7298 93.2024 183.1636 0.0000 0.0000 0.0000
# 4 0.0000 0.0000 0.0000 11.0321 0.0000 0.0000
# 5 0.0000 0.0000 0.0000 0.0000 0.1623 0.0000
# 6 0.0000 0.0000 0.0000 0.0000 0.0000 -2.3927
#
#
#
# Elastic Compliance Matrix: (Units=1/GPa)
#
#
# Indices 1 2 3 4 5 6 
#
# 1 0.102688 -0.002441 -0.001970 0.000000 0.000000 0.000000
# 2 -0.002441 0.013436 -0.006761 0.000000 0.000000 0.000000
# 3 -0.001970 -0.006761 0.008961 0.000000 0.000000 0.000000
# 4 0.000000 0.000000 0.000000 0.090644 0.000000 0.000000
# 5 0.000000 0.000000 0.000000 0.000000 6.161758 0.000000
# 6 0.000000 0.000000 0.000000 0.000000 0.000000 -0.417937
#
#
# Mechanical properties :
#
#
# Convention : Reuss Voigt Hill
#
# Bulk Modulus (GPa) = 9.73311 58.06085 33.89698
# Shear Modulus (GPa) = 0.83110 15.87197 8.35154
#
# Velocity S-wave (km/s) = 0.67961 2.96997 2.15436
# Velocity P-wave (km/s) = 2.45457 6.63534 5.00263
#
# Compressibility (1/GPa) = 0.10274209
#
# Stress axis : x y z
#
# Youngs Moduli (GPa) = 9.73825 74.42703 111.59072
#
# Poissons Ratio (x) = 0.18164 0.21989
# Poissons Ratio (y) = 0.02377 0.75441
# Poissons Ratio (z) = 0.01919 0.50317
#
# Static dielectric constant tensor:
#      x y z
#    x 1.628350 0.000000 0.000000 
#    y 0.000000 1.625520 0.000000 
#    z 0.000000 0.000000 1.611550 
# 
# From -- ./inp_files/33359.got.cif
#   From: 2010.05.17/outbox.cif.g08.bks.cpg/sg47_17_cif.got.tgz:33359.got - 2010.06.03 20:15:42.
