data_PCOD9383048
_publ_section_title
;
Structure prediction by ZEFSAII (Michael W. Deem and Ramdas Pophale) SiO2 
 PCOD9383048
Probable space group: P M M M
;
_chemical_formula_sum "Si O2"
_cell_formula_units_Z 48
_cell_length_a 12.339778
_cell_length_b 15.083639
_cell_length_c 14.773457
_cell_angle_alpha 90.000000
_cell_angle_beta 90.000000
_cell_angle_gamma 90.000000
_cell_volume 2749.765183
_symmetry_space_group_name_H-M "P M M M"
_symmetry_group_IT_number 47
_symmetry_cell_setting 'orthorhombic'
loop_
_space_group_symop_operation_xyz
x,y,z
-x,-y,z
x,-y,-z
-x,y,-z
-x,-y,-z
x,y,-z
-x,y,z
x,-y,z
loop_
_atom_site_type_symbol
_atom_site_label
_atom_site_fract_x
_atom_site_fract_y
_atom_site_fract_z
Si Si1 0.757835 0.273569 0.107296
Si Si2 0.000000 0.894476 0.722381
Si Si3 0.374492 0.100174 0.110198
Si Si4 0.000000 0.777701 0.105314
Si Si5 0.627594 0.741027 0.604660
Si Si6 0.370946 0.396178 0.760892
Si Si7 0.209702 0.896906 0.392279
O O1 0.705705 0.178996 0.138105
O O2 0.697278 0.350940 0.159842
O O3 0.887238 0.273575 0.120594
O O4 0.737486 0.280656 0.000000
O O5 0.893600 0.868408 0.666179
O O6 0.000000 0.856014 0.822464
O O7 0.000000 0.000000 0.726078
O O8 0.500000 0.117980 0.136901
O O9 0.344953 0.000000 0.140280
O O10 0.373017 0.098573 0.000000
O O11 0.000000 0.807355 0.000000
O O12 0.650147 0.717907 0.500000
O O13 0.500000 0.759033 0.613077
O O14 0.654297 0.660463 0.671085
O O15 0.693452 0.829598 0.626960
O O16 0.500000 0.386756 0.778896
O O17 0.347714 0.500000 0.750362
O O18 0.184734 0.892133 0.500000
O O19 0.235714 0.000000 0.372676
#
# Coordination Sequence:
#
# PCOD9383048 Si02
#       7
#     8   4   8   4   8   8   8
#     4  10  20  35  53  73 101 134 169 212 258 305
#     4  10  19  31  48  70 101 139 176 215 252 286
#     4   8  14  26  46  71  97 127 162 199 243 293
#     4  10  22  36  50  70  97 135 179 216 255 305
#     4   9  18  33  53  77 106 138 167 198 243 299
#     4  10  21  36  55  79 103 128 164 210 257 306
#     4   9  17  30  51  79 107 135 169 207 248 296
#
# _framework density 17.456036000000001
#
# number of rings (size 3 to 8) (size 9 to 14) (size 15 to 20)
#    0.000    2.667    0.000    2.250    0.000    3.833 
#    0.000    7.083    0.000    2.500    0.000    0.000 
#    0.000    6.667    0.000    0.000    0.000    0.000 
#
# Total GULP energy -267741.683848 kJ/mol
# GULP energy per Si atom -5577.951747 kJ/mol
# Density = 1.741631 g / cm^3
# Si number density = 17.456036 Si / 1000 Ang^3
#
#
#
# Elastic Constant Matrix: (Units=GPa)
#
#
# Indices 1 2 3 4 5 6 
#
# 1 81.0380 74.0254 51.4861 0.0000 0.0000 0.0000
# 2 74.0254 105.0725 46.6157 0.0000 0.0000 0.0000
# 3 51.4861 46.6157 63.8024 0.0000 0.0000 0.0000
# 4 0.0000 0.0000 0.0000 26.8162 0.0000 0.0000
# 5 0.0000 0.0000 0.0000 0.0000 19.0345 0.0000
# 6 0.0000 0.0000 0.0000 0.0000 0.0000 12.9012
#
#
#
# Elastic Compliance Matrix: (Units=1/GPa)
#
#
# Indices 1 2 3 4 5 6 
#
# 1 0.048021 -0.024620 -0.020763 0.000000 0.000000 0.000000
# 2 -0.024620 0.026704 0.000357 0.000000 0.000000 0.000000
# 3 -0.020763 0.000357 0.032168 0.000000 0.000000 0.000000
# 4 0.000000 0.000000 0.000000 0.037291 0.000000 0.000000
# 5 0.000000 0.000000 0.000000 0.000000 0.052536 0.000000
# 6 0.000000 0.000000 0.000000 0.000000 0.000000 0.077512
#
#
# Mechanical properties :
#
#
# Convention : Reuss Voigt Hill
#
# Bulk Modulus (GPa) = 59.38206 66.01858 62.70032
# Shear Modulus (GPa) = 13.51726 16.93609 15.22667
#
# Velocity S-wave (km/s) = 2.78575 3.11821 2.95665
# Velocity P-wave (km/s) = 6.66627 7.13206 6.90309
#
# Compressibility (1/GPa) = 0.01684010
#
# Stress axis : x y z
#
# Youngs Moduli (GPa) = 20.82441 37.44740 31.08693
#
# Poissons Ratio (x) = 0.92195 0.64546
# Poissons Ratio (y) = 0.51269 -0.01108
# Poissons Ratio (z) = 0.43238 -0.01335
#
# Static dielectric constant tensor:
#      x y z
#    x 1.593250 0.000000 0.000000 
#    y 0.000000 1.562240 0.000000 
#    z 0.000000 0.000000 1.623010 
# 
# From -- ./inp_files/17594.got.cif
#   From: 2010.05.17/outbox.cif.g08.bks.cpg/sg47_9_cif.got.tgz:17594.got - 2010.06.03 20:15:42.
