data_PCOD9383237
_publ_section_title
;
Structure prediction by ZEFSAII (Michael W. Deem and Ramdas Pophale) SiO2 
 PCOD9383237
Probable space group: P M M M
;
_chemical_formula_sum "Si O2"
_cell_formula_units_Z 56
_cell_length_a 14.207798
_cell_length_b 7.567407
_cell_length_c 25.424918
_cell_angle_alpha 90.000000
_cell_angle_beta 90.000000
_cell_angle_gamma 90.000000
_cell_volume 2733.590315
_symmetry_space_group_name_H-M "P M M M"
_symmetry_group_IT_number 47
_symmetry_cell_setting 'orthorhombic'
loop_
_space_group_symop_operation_xyz
x,y,z
-x,-y,z
x,-y,-z
-x,y,-z
-x,-y,-z
x,y,-z
-x,y,z
x,-y,z
loop_
_atom_site_type_symbol
_atom_site_label
_atom_site_fract_x
_atom_site_fract_y
_atom_site_fract_z
Si Si1 0.111284 0.714607 0.056977
Si Si2 0.895017 0.000000 0.437732
Si Si3 0.109324 0.284380 0.729273
Si Si4 0.385927 0.702159 0.000000
Si Si5 0.201922 0.706458 0.836862
Si Si6 0.393021 0.285534 0.559277
Si Si7 0.215547 0.712538 0.623027
Si Si8 0.393326 0.206126 0.881743
O O1 0.121229 0.500000 0.056634
O O2 0.159729 0.784560 0.109372
O O3 0.000000 0.751699 0.059440
O O4 0.147541 0.777246 0.000000
O O5 0.845891 0.176734 0.417561
O O6 0.895922 0.000000 0.500000
O O7 0.000000 0.000000 0.416177
O O8 0.107705 0.500000 0.729866
O O9 0.156363 0.221071 0.783692
O O10 0.175973 0.236249 0.680256
O O11 0.000000 0.227816 0.723959
O O12 0.360550 0.775627 0.057242
O O13 0.354463 0.500000 0.000000
O O14 0.500000 0.712217 0.000000
O O15 0.175575 0.500000 0.836900
O O16 0.314282 0.716665 0.843618
O O17 0.362679 0.228972 0.500000
O O18 0.500000 0.224835 0.567387
O O19 0.394872 0.500000 0.558004
O O20 0.321613 0.238306 0.605730
O O21 0.205507 0.500000 0.617622
O O22 0.500000 0.280595 0.877749
O O23 0.398681 0.000000 0.870170
#
# Coordination Sequence:
#
# PCOD9383237 Si02
#       8
#     8   4   8   4   8   8   8   8
#     4   8  14  25  43  70 102 131 161 206 268 330
#     4  11  24  38  55  87 123 153 195 249 299 350
#     4   9  18  34  56  81 109 143 185 232 281 337
#     4   9  17  31  53  77  98 127 172 221 267 328
#     4  10  19  31  52  79 103 131 178 232 276 323
#     4   8  14  27  51  83 116 150 189 232 279 335
#     4  10  20  37  60  84 116 159 201 241 294 354
#     4  10  21  36  51  71 105 144 177 216 276 342
#
# _framework density 20.485879000000001
#
# number of rings (size 3 to 8) (size 9 to 14) (size 15 to 20)
#    0.000    2.714    0.000    2.786    1.000    5.143 
#    1.286    1.786    0.000    5.143    0.000    1.000 
#    0.000    0.000    0.000    0.000    0.000    0.000 
#
# Total GULP energy -312275.604050 kJ/mol
# GULP energy per Si atom -5576.350072 kJ/mol
# Density = 2.043925 g / cm^3
# Si number density = 20.485879 Si / 1000 Ang^3
#
#
#
# Elastic Constant Matrix: (Units=GPa)
#
#
# Indices 1 2 3 4 5 6 
#
# 1 131.7216 0.9058 98.9334 0.0000 0.0000 0.0000
# 2 0.9058 45.8213 14.7320 0.0000 0.0000 0.0000
# 3 98.9334 14.7320 157.1546 0.0000 0.0000 0.0000
# 4 0.0000 0.0000 0.0000 -15.8523 0.0000 0.0000
# 5 0.0000 0.0000 0.0000 0.0000 17.6280 0.0000
# 6 0.0000 0.0000 0.0000 0.0000 0.0000 -25.5888
#
#
#
# Elastic Compliance Matrix: (Units=1/GPa)
#
#
# Indices 1 2 3 4 5 6 
#
# 1 0.014735 0.002775 -0.009536 0.000000 0.000000 0.000000
# 2 0.002775 0.023025 -0.003905 0.000000 0.000000 0.000000
# 3 -0.009536 -0.003905 0.012733 0.000000 0.000000 0.000000
# 4 0.000000 0.000000 0.000000 -0.063082 0.000000 0.000000
# 5 0.000000 0.000000 0.000000 0.000000 0.056728 0.000000
# 6 0.000000 0.000000 0.000000 0.000000 0.000000 -0.039080
#
#
# Mechanical properties :
#
#
# Convention : Reuss Voigt Hill
#
# Bulk Modulus (GPa) = 34.29483 62.64888 48.47185
# Shear Modulus (GPa) = 138.45914 9.91248 74.18581
#
# Velocity S-wave (km/s) = 8.23009 2.20209 6.02426
# Velocity P-wave (km/s) = 10.34841 6.09208 8.49126
#
# Compressibility (1/GPa) = 0.02915892
#
# Stress axis : x y z
#
# Youngs Moduli (GPa) = 67.86438 43.43186 78.53813
#
# Poissons Ratio (x) = -0.12051 0.74897
# Poissons Ratio (y) = -0.18831 0.30670
# Poissons Ratio (z) = 0.64718 0.16961
#
# Static dielectric constant tensor:
#      x y z
#    x 1.760830 0.000000 0.000000 
#    y 0.000000 1.747650 0.000000 
#    z 0.000000 0.000000 1.723690 
# 
# From -- ./inp_files/30986.got.cif
#   From: 2010.05.17/outbox.cif.g08.bks.cpg/sg47_16_cif.got.tgz:30986.got - 2010.06.03 20:15:42.
