data_PCOD9383942
_publ_section_title
;
Structure prediction by ZEFSAII (Michael W. Deem and Ramdas Pophale) SiO2 
 PCOD9383942
Probable space group: P M M M
;
_chemical_formula_sum "Si O2"
_cell_formula_units_Z 48
_cell_length_a 19.498653
_cell_length_b 14.400411
_cell_length_c 7.601427
_cell_angle_alpha 90.000000
_cell_angle_beta 90.000000
_cell_angle_gamma 90.000000
_cell_volume 2134.394176
_symmetry_space_group_name_H-M "P M M M"
_symmetry_group_IT_number 47
_symmetry_cell_setting 'orthorhombic'
loop_
_space_group_symop_operation_xyz
x,y,z
-x,-y,z
x,-y,-z
-x,y,-z
-x,-y,-z
x,y,-z
-x,y,z
x,-y,z
loop_
_atom_site_type_symbol
_atom_site_label
_atom_site_fract_x
_atom_site_fract_y
_atom_site_fract_z
Si Si1 0.112283 0.000000 0.701599
Si Si2 0.644796 0.820432 0.294758
Si Si3 0.301420 0.369097 0.799854
Si Si4 0.500000 0.107837 0.715340
Si Si5 0.919360 0.207352 0.291407
Si Si6 0.731308 0.000000 0.789243
Si Si7 0.148190 0.602565 0.703013
Si Si8 0.421495 0.500000 0.214287
O O1 0.092397 0.898253 0.779122
O O2 0.085252 0.000000 0.500000
O O3 0.194101 0.000000 0.706102
O O4 0.639565 0.796013 0.500000
O O5 0.685127 0.739241 0.202587
O O6 0.568624 0.840795 0.226203
O O7 0.688385 0.912407 0.272778
O O8 0.230971 0.392495 0.704555
O O9 0.372301 0.414633 0.732757
O O10 0.291645 0.400016 0.000000
O O11 0.500000 0.106545 0.500000
O O12 0.500000 0.000000 0.770709
O O13 0.900445 0.200900 0.500000
O O14 0.879569 0.299039 0.220526
O O15 0.000000 0.226743 0.276397
O O16 0.737706 0.000000 0.000000
O O17 0.124390 0.601725 0.500000
O O18 0.129192 0.500000 0.778433
O O19 0.500000 0.500000 0.279060
O O20 0.426223 0.500000 0.000000
#
# Coordination Sequence:
#
# PCOD9383942 Si02
#       8
#     4   8   8   4   8   4   8   4
#     4  10  19  34  59  85 114 153 191 235 289 344
#     4  11  22  38  59  82 113 150 190 240 295 351
#     4  11  22  38  60  85 114 152 196 245 296 351
#     4   9  18  36  58  79 108 149 191 235 293 353
#     4   9  18  33  56  87 117 148 192 242 291 344
#     4  12  24  38  56  85 117 151 194 237 278 338
#     4  10  20  35  57  84 116 154 196 245 298 355
#     4   9  20  38  57  79 112 151 192 242 299 349
#
# _framework density 22.488817000000001
#
# number of rings (size 3 to 8) (size 9 to 14) (size 15 to 20)
#    0.000    1.833    1.667    3.000    1.167    2.667 
#    0.000    3.333    0.000    4.500    0.000    1.167 
#    0.000    0.000    0.000    0.000    0.000    0.000 
#
# Total GULP energy -267877.632976 kJ/mol
# GULP energy per Si atom -5580.784020 kJ/mol
# Density = 2.243763 g / cm^3
# Si number density = 22.488817 Si / 1000 Ang^3
#
#
#
# Elastic Constant Matrix: (Units=GPa)
#
#
# Indices 1 2 3 4 5 6 
#
# 1 93.6935 51.7657 -3.4464 0.0000 0.0000 0.0000
# 2 51.7657 213.4626 2.5080 0.0000 0.0000 0.0000
# 3 -3.4464 2.5080 60.8210 0.0000 0.0000 0.0000
# 4 0.0000 0.0000 0.0000 7.8075 0.0000 0.0000
# 5 0.0000 0.0000 0.0000 0.0000 54.2740 0.0000
# 6 0.0000 0.0000 0.0000 0.0000 0.0000 53.7299
#
#
#
# Elastic Compliance Matrix: (Units=1/GPa)
#
#
# Indices 1 2 3 4 5 6 
#
# 1 0.012366 -0.003008 0.000825 0.000000 0.000000 0.000000
# 2 -0.003008 0.005419 -0.000394 0.000000 0.000000 0.000000
# 3 0.000825 -0.000394 0.016505 0.000000 0.000000 0.000000
# 4 0.000000 0.000000 0.000000 0.128082 0.000000 0.000000
# 5 0.000000 0.000000 0.000000 0.000000 0.018425 0.000000
# 6 0.000000 0.000000 0.000000 0.000000 0.000000 0.018612
#
#
# Mechanical properties :
#
#
# Convention : Reuss Voigt Hill
#
# Bulk Modulus (GPa) = 34.32422 52.18129 43.25276
# Shear Modulus (GPa) = 23.33460 44.30561 33.82011
#
# Velocity S-wave (km/s) = 3.22469 4.44342 3.88217
# Velocity P-wave (km/s) = 5.40007 7.04122 6.27454
#
# Compressibility (1/GPa) = 0.02913394
#
# Stress axis : x y z
#
# Youngs Moduli (GPa) = 80.86962 184.54127 60.58889
#
# Poissons Ratio (x) = 0.55517 -0.04997
# Poissons Ratio (y) = 0.24329 0.02387
# Poissons Ratio (z) = -0.06670 0.07269
#
# Static dielectric constant tensor:
#      x y z
#    x 1.770910 0.000000 0.000000 
#    y 0.000000 1.848990 0.000000 
#    z 0.000000 0.000000 1.868480 
# 
# From -- ./inp_files/9295.got.cif
#   From: 2010.05.17/outbox.cif.g08.bks.cpg/sg47_5_cif.got.tgz:9295.got - 2010.06.03 20:15:42.
