data_PCOD9383847
_publ_section_title
;
Structure prediction by ZEFSAII (Michael W. Deem and Ramdas Pophale) SiO2 
 PCOD9383847
Probable space group: P M M M
;
_chemical_formula_sum "Si O2"
_cell_formula_units_Z 60
_cell_length_a 11.659794
_cell_length_b 21.243519
_cell_length_c 12.819703
_cell_angle_alpha 90.000000
_cell_angle_beta 90.000000
_cell_angle_gamma 90.000000
_cell_volume 3175.377044
_symmetry_space_group_name_H-M "P M M M"
_symmetry_group_IT_number 47
_symmetry_cell_setting 'orthorhombic'
loop_
_space_group_symop_operation_xyz
x,y,z
-x,-y,z
x,-y,-z
-x,y,-z
-x,-y,-z
x,y,-z
-x,y,z
x,-y,z
loop_
_atom_site_type_symbol
_atom_site_label
_atom_site_fract_x
_atom_site_fract_y
_atom_site_fract_z
Si Si1 0.373759 0.860798 0.383380
Si Si2 0.869228 0.925479 0.329668
Si Si3 0.778375 0.573353 0.700451
Si Si4 0.298819 0.238670 0.224405
Si Si5 0.375164 0.575614 0.500000
Si Si6 0.130185 0.854884 0.116861
Si Si7 0.369062 0.367936 0.123037
Si Si8 0.125077 0.693096 0.622982
O O1 0.371658 0.832171 0.500000
O O2 0.500000 0.894661 0.376489
O O3 0.250475 0.896890 0.374166
O O4 0.372979 0.810390 0.290332
O O5 0.862976 0.906891 0.207386
O O6 0.000000 0.904142 0.364455
O O7 0.866256 0.000000 0.346181
O O8 0.809536 0.500000 0.694230
O O9 0.689335 0.589428 0.607008
O O10 0.717350 0.590143 0.808881
O O11 0.875483 0.623541 0.673511
O O12 0.220530 0.199123 0.144909
O O13 0.358234 0.296668 0.166343
O O14 0.216250 0.268167 0.312314
O O15 0.384599 0.500000 0.500000
O O16 0.500000 0.605411 0.500000
O O17 0.000000 0.829194 0.121040
O O18 0.149617 0.879259 0.000000
O O19 0.500000 0.389718 0.139038
O O20 0.343833 0.369480 0.000000
O O21 0.150299 0.689267 0.500000
O O22 0.000000 0.722788 0.634435
#
# Coordination Sequence:
#
# PCOD9383847 Si02
#       8
#     8   8   8   8   4   8   8   8
#     4  10  21  36  55  80 110 144 183 225 271 322
#     4   9  19  35  54  79 111 146 185 226 269 320
#     4  10  20  34  51  72 100 131 168 211 260 316
#     4  10  19  34  53  75 104 138 174 214 266 321
#     4   9  16  28  47  69  93 123 160 202 248 301
#     4   9  17  30  51  78 105 136 177 224 269 312
#     4  10  21  35  52  75 101 132 171 215 264 319
#     4  10  20  33  51  76 105 135 170 213 262 317
#
# _framework density 18.895394
#
# number of rings (size 3 to 8) (size 9 to 14) (size 15 to 20)
#    0.000    2.333    0.667    2.000    0.000    2.933 
#    0.000    4.000    0.000    7.200    0.000    7.467 
#    0.000    0.000    0.000    0.000    0.000    0.000 
#
# Total GULP energy -334067.405738 kJ/mol
# GULP energy per Si atom -5567.790096 kJ/mol
# Density = 1.885239 g / cm^3
# Si number density = 18.895394 Si / 1000 Ang^3
#
#
#
# Elastic Constant Matrix: (Units=GPa)
#
#
# Indices 1 2 3 4 5 6 
#
# 1 108.5634 12.5600 34.2720 0.0000 0.0000 0.0000
# 2 12.5600 29.6721 -3.3487 0.0000 0.0000 0.0000
# 3 34.2720 -3.3487 99.8868 0.0000 0.0000 0.0000
# 4 0.0000 0.0000 0.0000 6.5293 0.0000 0.0000
# 5 0.0000 0.0000 0.0000 0.0000 12.1171 0.0000
# 6 0.0000 0.0000 0.0000 0.0000 0.0000 5.2441
#
#
#
# Elastic Compliance Matrix: (Units=1/GPa)
#
#
# Indices 1 2 3 4 5 6 
#
# 1 0.011056 -0.005128 -0.003965 0.000000 0.000000 0.000000
# 2 -0.005128 0.036208 0.002973 0.000000 0.000000 0.000000
# 3 -0.003965 0.002973 0.011472 0.000000 0.000000 0.000000
# 4 0.000000 0.000000 0.000000 0.153155 0.000000 0.000000
# 5 0.000000 0.000000 0.000000 0.000000 0.082528 0.000000
# 6 0.000000 0.000000 0.000000 0.000000 0.000000 0.190690
#
#
# Mechanical properties :
#
#
# Convention : Reuss Voigt Hill
#
# Bulk Modulus (GPa) = 21.50724 36.12100 28.81412
# Shear Modulus (GPa) = 9.74949 17.75404 13.75177
#
# Velocity S-wave (km/s) = 2.27397 3.06861 2.70067
# Velocity P-wave (km/s) = 4.27803 5.63143 5.00072
#
# Compressibility (1/GPa) = 0.04649597
#
# Stress axis : x y z
#
# Youngs Moduli (GPa) = 90.44661 27.61841 87.17206
#
# Poissons Ratio (x) = 0.14161 0.34567
# Poissons Ratio (y) = 0.46377 -0.25918
# Poissons Ratio (z) = 0.35866 -0.08211
#
# Static dielectric constant tensor:
#      x y z
#    x 1.696020 0.000000 0.000000 
#    y 0.000000 1.652900 0.000000 
#    z 0.000000 0.000000 1.631260 
# 
# From -- ./inp_files/16616.got.cif
#   From: 2010.05.17/outbox.cif.g08.bks.cpg/sg47_9_cif.got.tgz:16616.got - 2010.06.03 20:15:42.
