data_PCOD9383006
_publ_section_title
;
Structure prediction by ZEFSAII (Michael W. Deem and Ramdas Pophale) SiO2 
 PCOD9383006
Probable space group: P M M M
;
_chemical_formula_sum "Si O2"
_cell_formula_units_Z 44
_cell_length_a 10.111452
_cell_length_b 19.765071
_cell_length_c 13.953726
_cell_angle_alpha 90.000000
_cell_angle_beta 90.000000
_cell_angle_gamma 90.000000
_cell_volume 2788.701910
_symmetry_space_group_name_H-M "P M M M"
_symmetry_group_IT_number 47
_symmetry_cell_setting 'orthorhombic'
loop_
_space_group_symop_operation_xyz
x,y,z
-x,-y,z
x,-y,-z
-x,y,-z
-x,-y,-z
x,y,-z
-x,y,z
x,-y,z
loop_
_atom_site_type_symbol
_atom_site_label
_atom_site_fract_x
_atom_site_fract_y
_atom_site_fract_z
Si Si1 0.500000 0.423840 0.116037
Si Si2 0.151532 0.000000 0.615993
Si Si3 0.251983 0.666900 0.884171
Si Si4 0.348448 0.878872 0.611886
Si Si5 0.151659 0.078341 0.115806
Si Si6 0.343720 0.192126 0.801952
Si Si7 0.000000 0.421662 0.116444
O O1 0.500000 0.500000 0.153256
O O2 0.373627 0.380794 0.142782
O O3 0.500000 0.428031 0.000000
O O4 0.239004 0.934404 0.639899
O O5 0.144444 0.000000 0.500000
O O6 0.000000 0.000000 0.651555
O O7 0.274509 0.739518 0.837155
O O8 0.124971 0.623495 0.855825
O O9 0.249779 0.676162 0.000000
O O10 0.330040 0.861080 0.500000
O O11 0.500000 0.906028 0.620851
O O12 0.338095 0.818248 0.687322
O O13 0.262123 0.129335 0.154051
O O14 0.000000 0.096605 0.144554
O O15 0.175103 0.000000 0.144634
O O16 0.154753 0.080334 0.000000
O O17 0.500000 0.191853 0.829971
O O18 0.000000 0.500000 0.149853
O O19 0.000000 0.425528 0.000000
#
# Coordination Sequence:
#
# PCOD9383006 Si02
#       7
#     4   4   8   8   8   8   4
#     4   9  16  28  48  70  98 132 157 188 238 286
#     4   9  17  31  51  73  92 113 150 205 259 302
#     4  10  19  31  47  72 103 131 163 199 236 283
#     4   9  19  35  52  69  95 129 163 203 254 309
#     4   9  20  37  52  67  92 130 172 207 243 288
#     4  11  22  33  49  73 100 129 167 209 249 296
#     4   9  18  32  50  72 100 134 167 194 228 286
#
# _framework density 15.777950000000001
#
# number of rings (size 3 to 8) (size 9 to 14) (size 15 to 20)
#    0.000    2.455    0.909    1.909    2.545    5.455 
#    0.000    0.909    0.000    0.000    0.000    0.000 
#    0.000    4.364    0.000    0.000    0.000    0.000 
#
# Total GULP energy -245187.315761 kJ/mol
# GULP energy per Si atom -5572.438995 kJ/mol
# Density = 1.574204 g / cm^3
# Si number density = 15.777950 Si / 1000 Ang^3
#
#
#
# Elastic Constant Matrix: (Units=GPa)
#
#
# Indices 1 2 3 4 5 6 
#
# 1 143.9852 82.2434 32.8722 0.0000 0.0000 0.0000
# 2 82.2434 135.2814 39.3189 0.0000 0.0000 0.0000
# 3 32.8722 39.3189 48.1641 0.0000 0.0000 0.0000
# 4 0.0000 0.0000 0.0000 13.0509 0.0000 0.0000
# 5 0.0000 0.0000 0.0000 0.0000 16.4177 0.0000
# 6 0.0000 0.0000 0.0000 0.0000 0.0000 56.6244
#
#
#
# Elastic Compliance Matrix: (Units=1/GPa)
#
#
# Indices 1 2 3 4 5 6 
#
# 1 0.010894 -0.005850 -0.002659 0.000000 0.000000 0.000000
# 2 -0.005850 0.012833 -0.006484 0.000000 0.000000 0.000000
# 3 -0.002659 -0.006484 0.027870 0.000000 0.000000 0.000000
# 4 0.000000 0.000000 0.000000 0.076623 0.000000 0.000000
# 5 0.000000 0.000000 0.000000 0.000000 0.060910 0.000000
# 6 0.000000 0.000000 0.000000 0.000000 0.000000 0.017660
#
#
# Mechanical properties :
#
#
# Convention : Reuss Voigt Hill
#
# Bulk Modulus (GPa) = 46.27246 70.69997 58.48622
# Shear Modulus (GPa) = 20.49355 28.75168 24.62261
#
# Velocity S-wave (km/s) = 3.60790 4.27344 3.95469
# Velocity P-wave (km/s) = 6.83717 8.32204 7.61588
#
# Compressibility (1/GPa) = 0.02161112
#
# Stress axis : x y z
#
# Youngs Moduli (GPa) = 91.79638 77.92557 35.88037
#
# Poissons Ratio (x) = 0.45585 0.09542
# Poissons Ratio (y) = 0.53699 0.23263
# Poissons Ratio (z) = 0.24413 0.50524
#
# Static dielectric constant tensor:
#      x y z
#    x 1.544050 0.000000 0.000000 
#    y 0.000000 1.506970 0.000000 
#    z 0.000000 0.000000 1.536430 
# 
# From -- ./inp_files/20988.got.cif
#   From: 2010.05.17/outbox.cif.g08.bks.cpg/sg47_11_cif.got.tgz:20988.got - 2010.06.03 20:15:42.
