data_PCOD9383697
_publ_section_title
;
Structure prediction by ZEFSAII (Michael W. Deem and Ramdas Pophale) SiO2 
 PCOD9383697
Probable space group: P M M M
;
_chemical_formula_sum "Si O2"
_cell_formula_units_Z 52
_cell_length_a 8.644609
_cell_length_b 28.867314
_cell_length_c 12.094361
_cell_angle_alpha 90.000000
_cell_angle_beta 90.000000
_cell_angle_gamma 90.000000
_cell_volume 3018.107180
_symmetry_space_group_name_H-M "P M M M"
_symmetry_group_IT_number 47
_symmetry_cell_setting 'orthorhombic'
loop_
_space_group_symop_operation_xyz
x,y,z
-x,-y,z
x,-y,-z
-x,y,-z
-x,-y,-z
x,y,-z
-x,y,z
x,-y,z
loop_
_atom_site_type_symbol
_atom_site_label
_atom_site_fract_x
_atom_site_fract_y
_atom_site_fract_z
Si Si1 0.314559 0.135618 0.770488
Si Si2 0.313610 0.401685 0.371920
Si Si3 0.186508 0.053845 0.373701
Si Si4 0.178211 0.500000 0.365959
Si Si5 0.185393 0.171421 0.000000
Si Si6 0.311645 0.223781 0.373913
Si Si7 0.687471 0.687013 0.768491
Si Si8 0.185405 0.720198 0.000000
O O1 0.500000 0.136129 0.776792
O O2 0.258958 0.088300 0.714571
O O3 0.263128 0.177837 0.690855
O O4 0.246879 0.146210 0.890735
O O5 0.262103 0.394416 0.500000
O O6 0.500000 0.401603 0.373758
O O7 0.257617 0.452003 0.332347
O O8 0.262570 0.360098 0.292482
O O9 0.233389 0.066210 0.500000
O O10 0.000000 0.056977 0.368590
O O11 0.228218 0.000000 0.355405
O O12 0.185684 0.500000 0.500000
O O13 0.000000 0.500000 0.332279
O O14 0.236885 0.225581 0.000000
O O15 0.000000 0.170976 0.000000
O O16 0.257007 0.224297 0.500000
O O17 0.500000 0.223854 0.376276
O O18 0.264421 0.269365 0.307050
O O19 0.500000 0.686863 0.774158
O O20 0.752758 0.695411 0.890141
O O21 0.000000 0.719782 0.000000
#
# Coordination Sequence:
#
# PCOD9383697 Si02
#       8
#     8   8   8   4   4   8   8   4
#     4  11  21  34  56  83 110 139 178 228 273 312
#     4   9  17  30  51  79 107 136 173 217 261 309
#     4   9  19  37  59  82 112 149 182 213 259 322
#     4   9  17  29  47  72 105 144 177 209 257 315
#     4  11  23  39  56  74 104 146 189 224 263 321
#     4   9  17  29  48  77 109 136 164 205 261 318
#     4  10  19  33  54  76 103 138 177 216 259 312
#     4  11  23  37  53  73 103 141 183 223 260 307
#
# _framework density 17.229340000000001
#
# number of rings (size 3 to 8) (size 9 to 14) (size 15 to 20)
#    0.000    2.231    1.538    2.538    0.000    5.231 
#    0.000    1.154    0.000    5.077    0.000    3.231 
#    0.000    0.000    0.000    0.000    0.000    0.000 
#
# Total GULP energy -290154.971513 kJ/mol
# GULP energy per Si atom -5579.903298 kJ/mol
# Density = 1.719013 g / cm^3
# Si number density = 17.229340 Si / 1000 Ang^3
#
#
#
# Elastic Constant Matrix: (Units=GPa)
#
#
# Indices 1 2 3 4 5 6 
#
# 1 25.4331 35.6929 33.6825 0.0000 0.0000 0.0000
# 2 35.6929 144.4189 95.6958 0.0000 0.0000 0.0000
# 3 33.6825 95.6958 162.7293 0.0000 0.0000 0.0000
# 4 0.0000 0.0000 0.0000 10.0571 0.0000 0.0000
# 5 0.0000 0.0000 0.0000 0.0000 17.1953 0.0000
# 6 0.0000 0.0000 0.0000 0.0000 0.0000 20.7998
#
#
#
# Elastic Compliance Matrix: (Units=1/GPa)
#
#
# Indices 1 2 3 4 5 6 
#
# 1 0.064109 -0.011554 -0.006475 0.000000 0.000000 0.000000
# 2 -0.011554 0.013427 -0.005505 0.000000 0.000000 0.000000
# 3 -0.006475 -0.005505 0.010723 0.000000 0.000000 0.000000
# 4 0.000000 0.000000 0.000000 0.099433 0.000000 0.000000
# 5 0.000000 0.000000 0.000000 0.000000 0.058155 0.000000
# 6 0.000000 0.000000 0.000000 0.000000 0.000000 0.048077
#
#
# Mechanical properties :
#
#
# Convention : Reuss Voigt Hill
#
# Bulk Modulus (GPa) = 24.27680 73.63597 48.95639
# Shear Modulus (GPa) = 14.09552 20.77776 17.43664
#
# Velocity S-wave (km/s) = 2.86337 3.47645 3.18470
# Velocity P-wave (km/s) = 5.00528 7.67761 6.48069
#
# Compressibility (1/GPa) = 0.04119159
#
# Stress axis : x y z
#
# Youngs Moduli (GPa) = 15.59840 74.47442 93.26097
#
# Poissons Ratio (x) = 0.86047 0.60388
# Poissons Ratio (y) = 0.18022 0.51338
# Poissons Ratio (z) = 0.10100 0.40996
#
# Static dielectric constant tensor:
#      x y z
#    x 1.581770 0.000000 0.000000 
#    y 0.000000 1.574020 0.000000 
#    z 0.000000 0.000000 1.558970 
# 
# From -- ./inp_files/15504.got.cif
#   From: 2010.05.17/outbox.cif.g08.bks.cpg/sg47_8_cif.got.tgz:15504.got - 2010.06.03 20:15:42.
