data_PCOD9383859
_publ_section_title
;
Structure prediction by ZEFSAII (Michael W. Deem and Ramdas Pophale) SiO2 
 PCOD9383859
Probable space group: P M M M
;
_chemical_formula_sum "Si O2"
_cell_formula_units_Z 56
_cell_length_a 23.630495
_cell_length_b 15.689074
_cell_length_c 7.775871
_cell_angle_alpha 90.000000
_cell_angle_beta 90.000000
_cell_angle_gamma 90.000000
_cell_volume 2882.830961
_symmetry_space_group_name_H-M "P M M M"
_symmetry_group_IT_number 47
_symmetry_cell_setting 'orthorhombic'
loop_
_space_group_symop_operation_xyz
x,y,z
-x,-y,z
x,-y,-z
-x,y,-z
-x,-y,-z
x,y,-z
-x,y,z
x,-y,z
loop_
_atom_site_type_symbol
_atom_site_label
_atom_site_fract_x
_atom_site_fract_y
_atom_site_fract_z
Si Si1 0.863313 0.669534 0.201068
Si Si2 0.839755 0.866688 0.207254
Si Si3 0.066741 0.403783 0.500000
Si Si4 0.433924 0.404503 0.289979
Si Si5 0.653133 0.266704 0.304080
Si Si6 0.286889 0.093172 0.205916
Si Si7 0.741711 0.405177 0.794002
Si Si8 0.065937 0.000000 0.210480
O O1 0.847123 0.767020 0.238132
O O2 0.911328 0.641611 0.329784
O O3 0.807830 0.612498 0.232148
O O4 0.878697 0.662479 0.000000
O O5 0.777650 0.893891 0.272709
O O6 0.894558 0.920144 0.265768
O O7 0.838171 0.879060 0.000000
O O8 0.089155 0.500000 0.500000
O O9 0.000000 0.405600 0.500000
O O10 0.429945 0.405025 0.500000
O O11 0.500000 0.394971 0.246383
O O12 0.415450 0.500000 0.233069
O O13 0.396548 0.325532 0.223786
O O14 0.636361 0.252007 0.500000
O O15 0.673786 0.174930 0.239299
O O16 0.706324 0.330619 0.292329
O O17 0.307616 0.000000 0.266366
O O18 0.282262 0.089605 0.000000
O O19 0.726338 0.500000 0.734440
O O20 0.731807 0.399609 0.000000
O O21 0.000000 0.000000 0.268044
O O22 0.063493 0.000000 0.000000
#
# Coordination Sequence:
#
# PCOD9383859 Si02
#       8
#     8   8   4   8   8   8   8   4
#     4  10  21  38  60  83 109 142 182 229 285 343
#     4   9  16  30  53  77 104 138 175 218 270 330
#     4  11  26  44  60  79 105 143 190 237 282 337
#     4   8  15  30  51  76 110 150 188 226 273 331
#     4  11  21  31  51  83 113 142 182 231 281 332
#     4  10  19  34  55  75 104 146 184 222 273 333
#     4  10  20  33  51  78 112 146 178 220 274 334
#     4   9  16  26  46  79 107 127 167 223 272 327
#
# _framework density 19.425349000000001
#
# number of rings (size 3 to 8) (size 9 to 14) (size 15 to 20)
#    0.000    2.286    2.143    1.714    1.000    2.857 
#    0.000    2.143    0.000    2.571    0.000    9.000 
#    0.000    0.000    0.000    0.000    0.000    0.000 
#
# Total GULP energy -312301.922865 kJ/mol
# GULP energy per Si atom -5576.820051 kJ/mol
# Density = 1.938114 g / cm^3
# Si number density = 19.425349 Si / 1000 Ang^3
#
#
#
# Elastic Constant Matrix: (Units=GPa)
#
#
# Indices 1 2 3 4 5 6 
#
# 1 96.3813 71.1507 19.5948 0.0000 0.0000 0.0000
# 2 71.1507 169.3955 25.9835 0.0000 0.0000 0.0000
# 3 19.5948 25.9835 25.4266 0.0000 0.0000 0.0000
# 4 0.0000 0.0000 0.0000 12.6578 0.0000 0.0000
# 5 0.0000 0.0000 0.0000 0.0000 36.5271 0.0000
# 6 0.0000 0.0000 0.0000 0.0000 0.0000 29.3990
#
#
#
# Elastic Compliance Matrix: (Units=1/GPa)
#
#
# Indices 1 2 3 4 5 6 
#
# 1 0.015878 -0.005683 -0.006429 0.000000 0.000000 0.000000
# 2 -0.005683 0.009035 -0.004853 0.000000 0.000000 0.000000
# 3 -0.006429 -0.004853 0.049242 0.000000 0.000000 0.000000
# 4 0.000000 0.000000 0.000000 0.079003 0.000000 0.000000
# 5 0.000000 0.000000 0.000000 0.000000 0.027377 0.000000
# 6 0.000000 0.000000 0.000000 0.000000 0.000000 0.034015
#
#
# Mechanical properties :
#
#
# Convention : Reuss Voigt Hill
#
# Bulk Modulus (GPa) = 24.85982 58.29571 41.57777
# Shear Modulus (GPa) = 19.09219 27.34841 23.22030
#
# Velocity S-wave (km/s) = 3.13844 3.75623 3.46115
# Velocity P-wave (km/s) = 5.09495 6.99197 6.11744
#
# Compressibility (1/GPa) = 0.04022555
#
# Stress axis : x y z
#
# Youngs Moduli (GPa) = 62.98125 110.68341 20.30771
#
# Poissons Ratio (x) = 0.62901 0.13055
# Poissons Ratio (y) = 0.35792 0.09856
# Poissons Ratio (z) = 0.40488 0.53716
#
# Static dielectric constant tensor:
#      x y z
#    x 1.668820 0.000000 0.000000 
#    y 0.000000 1.694350 0.000000 
#    z 0.000000 0.000000 1.728530 
# 
# From -- ./inp_files/11361.got.cif
#   From: 2010.05.17/outbox.cif.g08.bks.cpg/sg47_6_cif.got.tgz:11361.got - 2010.06.03 20:15:42.
