data_PCOD9383375
_publ_section_title
;
Structure prediction by ZEFSAII (Michael W. Deem and Ramdas Pophale) SiO2 
 PCOD9383375
Probable space group: P M M M
;
_chemical_formula_sum "Si O2"
_cell_formula_units_Z 52
_cell_length_a 7.515332
_cell_length_b 19.663788
_cell_length_c 16.333378
_cell_angle_alpha 90.000000
_cell_angle_beta 90.000000
_cell_angle_gamma 90.000000
_cell_volume 2413.744889
_symmetry_space_group_name_H-M "P M M M"
_symmetry_group_IT_number 47
_symmetry_cell_setting 'orthorhombic'
loop_
_space_group_symop_operation_xyz
x,y,z
-x,-y,z
x,-y,-z
-x,y,-z
-x,-y,-z
x,y,-z
-x,y,z
x,-y,z
loop_
_atom_site_type_symbol
_atom_site_label
_atom_site_fract_x
_atom_site_fract_y
_atom_site_fract_z
Si Si1 0.705280 0.081719 0.587197
Si Si2 0.793811 0.425190 0.653510
Si Si3 0.709177 0.366422 0.826942
Si Si4 0.217740 0.280964 0.590602
Si Si5 0.716976 0.579006 0.000000
Si Si6 0.202075 0.923939 0.229833
Si Si7 0.215626 0.780721 0.238824
O O1 0.780188 0.106883 0.500000
O O2 0.500000 0.104116 0.594573
O O3 0.803784 0.090873 0.672363
O O4 0.700183 0.000000 0.580927
O O5 0.714899 0.500000 0.639169
O O6 0.789534 0.406814 0.749991
O O7 0.720241 0.358201 0.609078
O O8 0.000000 0.428558 0.628106
O O9 0.500000 0.382341 0.824257
O O10 0.734103 0.286457 0.810863
O O11 0.779312 0.387470 0.915572
O O12 0.275236 0.260396 0.500000
O O13 0.274835 0.235179 0.667499
O O14 0.000000 0.280778 0.592097
O O15 0.763940 0.500000 0.000000
O O16 0.500000 0.583955 0.000000
O O17 0.283947 0.852217 0.201983
O O18 0.000000 0.927925 0.198885
O O19 0.281795 0.000000 0.218435
O O20 0.000000 0.784260 0.239497
#
# Coordination Sequence:
#
# PCOD9383375 Si02
#       7
#     8   8   8   8   4   8   8
#     4   8  14  24  36  52  79 113 145 183 235 287
#     4   9  17  29  45  66  93 123 156 195 233 266
#     4  10  19  32  51  72  95 124 154 181 219 275
#     4   8  14  25  41  60  83 117 159 194 225 265
#     4   9  18  32  51  77 104 125 148 180 215 259
#     4   9  17  28  43  63  85 113 152 196 238 279
#     4   9  18  32  47  65  93 123 153 194 238 278
#
# _framework density 21.543288
#
# number of rings (size 3 to 8) (size 9 to 14) (size 15 to 20)
#    0.000    3.154    0.000    2.308    0.000    2.769 
#    0.000    6.154    0.000   10.154    0.000    4.846 
#    0.000    4.308    0.000    0.000    0.000    0.000 
#
# Total GULP energy -289766.260978 kJ/mol
# GULP energy per Si atom -5572.428096 kJ/mol
# Density = 2.149425 g / cm^3
# Si number density = 21.543288 Si / 1000 Ang^3
#
#
#
# Elastic Constant Matrix: (Units=GPa)
#
#
# Indices 1 2 3 4 5 6 
#
# 1 59.3773 -6.5528 -8.0272 0.0000 0.0000 0.0000
# 2 -6.5528 170.4836 25.9251 0.0000 0.0000 0.0000
# 3 -8.0272 25.9251 71.2592 0.0000 0.0000 0.0000
# 4 0.0000 0.0000 0.0000 0.6874 0.0000 0.0000
# 5 0.0000 0.0000 0.0000 0.0000 12.9689 0.0000
# 6 0.0000 0.0000 0.0000 0.0000 0.0000 8.5134
#
#
#
# Elastic Compliance Matrix: (Units=1/GPa)
#
#
# Indices 1 2 3 4 5 6 
#
# 1 0.017126 0.000386 0.001789 0.000000 0.000000 0.000000
# 2 0.000386 0.006218 -0.002219 0.000000 0.000000 0.000000
# 3 0.001789 -0.002219 0.015042 0.000000 0.000000 0.000000
# 4 0.000000 0.000000 0.000000 1.454832 0.000000 0.000000
# 5 0.000000 0.000000 0.000000 0.000000 0.077108 0.000000
# 6 0.000000 0.000000 0.000000 0.000000 0.000000 0.117461
#
#
# Mechanical properties :
#
#
# Convention : Reuss Voigt Hill
#
# Bulk Modulus (GPa) = 26.11080 35.97891 31.04486
# Shear Modulus (GPa) = 2.94007 23.75226 13.34617
#
# Velocity S-wave (km/s) = 1.16948 3.32405 2.49169
# Velocity P-wave (km/s) = 3.73765 5.60976 4.76652
#
# Compressibility (1/GPa) = 0.03829832
#
# Stress axis : x y z
#
# Youngs Moduli (GPa) = 58.39110 160.82606 66.48075
#
# Poissons Ratio (x) = -0.06212 -0.11891
# Poissons Ratio (y) = -0.02255 0.14750
# Poissons Ratio (z) = -0.10444 0.35682
#
# Static dielectric constant tensor:
#      x y z
#    x 1.811600 0.000000 0.000000 
#    y 0.000000 1.847090 0.000000 
#    z 0.000000 0.000000 1.772310 
# 
# From -- ./inp_files/21423.got.cif
#   From: 2010.05.17/outbox.cif.g08.bks.cpg/sg47_11_cif.got.tgz:21423.got - 2010.06.03 20:15:42.
