data_PCOD9383902
_publ_section_title
;
Structure prediction by ZEFSAII (Michael W. Deem and Ramdas Pophale) SiO2 
 PCOD9383902
Probable space group: P M M M
;
_chemical_formula_sum "Si O2"
_cell_formula_units_Z 48
_cell_length_a 15.669148
_cell_length_b 7.800740
_cell_length_c 19.577150
_cell_angle_alpha 90.000000
_cell_angle_beta 90.000000
_cell_angle_gamma 90.000000
_cell_volume 2392.933634
_symmetry_space_group_name_H-M "P M M M"
_symmetry_group_IT_number 47
_symmetry_cell_setting 'orthorhombic'
loop_
_space_group_symop_operation_xyz
x,y,z
-x,-y,z
x,-y,-z
-x,y,-z
-x,-y,-z
x,y,-z
-x,y,z
x,-y,z
loop_
_atom_site_type_symbol
_atom_site_label
_atom_site_fract_x
_atom_site_fract_y
_atom_site_fract_z
Si Si1 0.096290 0.793325 0.674510
Si Si2 0.251370 0.706187 0.422475
Si Si3 0.404872 0.296404 0.671312
Si Si4 0.500000 0.295234 0.077305
Si Si5 0.652796 0.203801 0.822803
Si Si6 0.000000 0.209872 0.921570
Si Si7 0.845154 0.790457 0.825562
O O1 0.164364 0.743913 0.617551
O O2 0.127707 0.735377 0.749386
O O3 0.000000 0.731723 0.661516
O O4 0.093846 0.000000 0.677033
O O5 0.251113 0.771462 0.500000
O O6 0.259236 0.500000 0.425329
O O7 0.330972 0.773956 0.377822
O O8 0.500000 0.224323 0.660744
O O9 0.409480 0.500000 0.658489
O O10 0.378172 0.274425 0.750037
O O11 0.500000 0.500000 0.074483
O O12 0.416411 0.242064 0.119448
O O13 0.500000 0.227020 0.000000
O O14 0.748358 0.266214 0.839425
O O15 0.657579 0.000000 0.814326
O O16 0.084149 0.265020 0.880126
O O17 0.000000 0.000000 0.921498
O O18 0.000000 0.265859 0.000000
O O19 0.846118 0.000000 0.826172
#
# Coordination Sequence:
#
# PCOD9383902 Si02
#       7
#     8   8   8   4   8   4   8
#     4  10  19  34  57  80 108 146 189 232 277 335
#     4  10  22  38  55  80 114 147 184 234 284 331
#     4  10  20  35  57  82 109 145 187 226 272 338
#     4  11  25  43  59  79 114 155 190 229 279 334
#     4  11  21  34  58  87 114 144 183 234 281 326
#     4   9  16  28  48  76 112 147 176 214 271 331
#     4   9  17  30  50  80 112 143 179 224 273 324
#
# _framework density 20.059059000000001
#
# number of rings (size 3 to 8) (size 9 to 14) (size 15 to 20)
#    0.000    2.000    3.333    0.750    0.000    2.667 
#    0.000    5.000    0.000    0.000    0.000    2.333 
#    0.000    4.667    0.000    0.000    0.000    0.000 
#
# Total GULP energy -268066.951328 kJ/mol
# GULP energy per Si atom -5584.728153 kJ/mol
# Density = 2.001340 g / cm^3
# Si number density = 20.059059 Si / 1000 Ang^3
#
#
#
# Elastic Constant Matrix: (Units=GPa)
#
#
# Indices 1 2 3 4 5 6 
#
# 1 240.3674 4.0164 122.0523 0.0000 0.0000 0.0000
# 2 4.0164 24.8595 -4.7503 0.0000 0.0000 0.0000
# 3 122.0523 -4.7503 187.0597 0.0000 0.0000 0.0000
# 4 0.0000 0.0000 0.0000 12.9122 0.0000 0.0000
# 5 0.0000 0.0000 0.0000 0.0000 33.3037 0.0000
# 6 0.0000 0.0000 0.0000 0.0000 0.0000 14.8544
#
#
#
# Elastic Compliance Matrix: (Units=1/GPa)
#
#
# Indices 1 2 3 4 5 6 
#
# 1 0.006302 -0.001813 -0.004158 0.000000 0.000000 0.000000
# 2 -0.001813 0.040944 0.002222 0.000000 0.000000 0.000000
# 3 -0.004158 0.002222 0.008115 0.000000 0.000000 0.000000
# 4 0.000000 0.000000 0.000000 0.077446 0.000000 0.000000
# 5 0.000000 0.000000 0.000000 0.000000 0.030027 0.000000
# 6 0.000000 0.000000 0.000000 0.000000 0.000000 0.067320
#
#
# Mechanical properties :
#
#
# Convention : Reuss Voigt Hill
#
# Bulk Modulus (GPa) = 20.89225 77.21371 49.05298
# Shear Modulus (GPa) = 19.71572 34.27860 26.99716
#
# Velocity S-wave (km/s) = 3.13850 4.13835 3.67261
# Velocity P-wave (km/s) = 4.85505 7.83654 6.51855
#
# Compressibility (1/GPa) = 0.04786464
#
# Stress axis : x y z
#
# Youngs Moduli (GPa) = 158.68414 24.42382 123.22527
#
# Poissons Ratio (x) = 0.04427 0.51235
# Poissons Ratio (y) = 0.28764 -0.27386
# Poissons Ratio (z) = 0.65978 -0.05428
#
# Static dielectric constant tensor:
#      x y z
#    x 1.704320 0.000000 0.000000 
#    y 0.000000 1.749950 0.000000 
#    z 0.000000 0.000000 1.668780 
# 
# From -- ./inp_files/28010.got.cif
#   From: 2010.05.17/outbox.cif.g08.bks.cpg/sg47_15_cif.got.tgz:28010.got - 2010.06.03 20:15:42.
