data_PCOD9383630
_publ_section_title
;
Structure prediction by ZEFSAII (Michael W. Deem and Ramdas Pophale) SiO2 
 PCOD9383630
Probable space group: P M M M
;
_chemical_formula_sum "Si O2"
_cell_formula_units_Z 52
_cell_length_a 11.677029
_cell_length_b 29.534059
_cell_length_c 9.830266
_cell_angle_alpha 90.000000
_cell_angle_beta 90.000000
_cell_angle_gamma 90.000000
_cell_volume 3390.164459
_symmetry_space_group_name_H-M "P M M M"
_symmetry_group_IT_number 47
_symmetry_cell_setting 'orthorhombic'
loop_
_space_group_symop_operation_xyz
x,y,z
-x,-y,z
x,-y,-z
-x,y,-z
-x,-y,-z
x,y,-z
-x,y,z
x,-y,z
loop_
_atom_site_type_symbol
_atom_site_label
_atom_site_fract_x
_atom_site_fract_y
_atom_site_fract_z
Si Si1 0.639730 0.365494 0.342124
Si Si2 0.265138 0.903505 0.254736
Si Si3 0.639187 0.448187 0.155491
Si Si4 0.862192 0.945523 0.000000
Si Si5 0.136148 0.051870 0.500000
Si Si6 0.638837 0.280162 0.158157
Si Si7 0.362180 0.191812 0.337633
Si Si8 0.500000 0.946018 0.342049
O O1 0.676342 0.361852 0.500000
O O2 0.500000 0.365010 0.344186
O O3 0.676202 0.411816 0.267310
O O4 0.676094 0.323865 0.245564
O O5 0.197587 0.920306 0.124518
O O6 0.185926 0.921858 0.373908
O O7 0.294137 0.850957 0.277839
O O8 0.387226 0.928220 0.268926
O O9 0.500000 0.447969 0.156589
O O10 0.675071 0.500000 0.182570
O O11 0.672763 0.436015 0.000000
O O12 0.000000 0.940466 0.000000
O O13 0.839354 0.000000 0.000000
O O14 0.000000 0.050867 0.500000
O O15 0.178908 0.000000 0.500000
O O16 0.500000 0.282097 0.152247
O O17 0.666523 0.235752 0.247219
O O18 0.678301 0.279300 0.000000
O O19 0.339525 0.197560 0.500000
O O20 0.500000 0.183814 0.325448
O O21 0.500000 0.929437 0.500000
O O22 0.500000 0.000000 0.344796
#
# Coordination Sequence:
#
# PCOD9383630 Si02
#       8
#     8   8   8   4   4   8   8   4
#     4   9  15  22  32  48  68  96 134 177 224 273
#     4  12  22  37  57  79 105 133 160 198 244 289
#     4   8  13  20  29  41  61  90 127 174 227 277
#     4  11  26  45  59  75 103 136 169 203 236 277
#     4  11  22  37  59  81  99 130 173 203 230 279
#     4   9  17  27  41  57  79 110 144 177 217 277
#     4  10  19  33  49  71  98 122 146 183 236 290
#     4  11  20  33  55  83 109 129 155 193 240 293
#
# _framework density 15.338488999999999
#
# number of rings (size 3 to 8) (size 9 to 14) (size 15 to 20)
#    0.000    2.077    2.308    3.231    1.077    5.538 
#    0.000    2.308    0.000    0.000    0.000    0.000 
#    0.000    0.000    0.000    0.000    0.000    0.000 
#
# Total GULP energy -289681.870219 kJ/mol
# GULP energy per Si atom -5570.805197 kJ/mol
# Density = 1.530358 g / cm^3
# Si number density = 15.338489 Si / 1000 Ang^3
#
#
#
# Elastic Constant Matrix: (Units=GPa)
#
#
# Indices 1 2 3 4 5 6 
#
# 1 40.1126 25.0025 34.8895 0.0000 0.0000 0.0000
# 2 25.0025 138.6902 93.7207 0.0000 0.0000 0.0000
# 3 34.8895 93.7207 172.0080 0.0000 0.0000 0.0000
# 4 0.0000 0.0000 0.0000 29.6453 0.0000 0.0000
# 5 0.0000 0.0000 0.0000 0.0000 16.6424 0.0000
# 6 0.0000 0.0000 0.0000 0.0000 0.0000 7.9532
#
#
#
# Elastic Compliance Matrix: (Units=1/GPa)
#
#
# Indices 1 2 3 4 5 6 
#
# 1 0.030650 -0.002096 -0.005075 0.000000 0.000000 0.000000
# 2 -0.002096 0.011556 -0.005871 0.000000 0.000000 0.000000
# 3 -0.005075 -0.005871 0.010042 0.000000 0.000000 0.000000
# 4 0.000000 0.000000 0.000000 0.033732 0.000000 0.000000
# 5 0.000000 0.000000 0.000000 0.000000 0.060088 0.000000
# 6 0.000000 0.000000 0.000000 0.000000 0.000000 0.125735
#
#
# Mechanical properties :
#
#
# Convention : Reuss Voigt Hill
#
# Bulk Modulus (GPa) = 38.22071 73.11511 55.66791
# Shear Modulus (GPa) = 16.30746 23.99473 20.15110
#
# Velocity S-wave (km/s) = 3.26417 3.95947 3.62852
# Velocity P-wave (km/s) = 6.25929 8.28701 7.34347
#
# Compressibility (1/GPa) = 0.02616383
#
# Stress axis : x y z
#
# Youngs Moduli (GPa) = 32.62596 86.53830 99.58209
#
# Poissons Ratio (x) = 0.18139 0.50537
# Poissons Ratio (y) = 0.06839 0.58465
# Poissons Ratio (z) = 0.16557 0.50807
#
# Static dielectric constant tensor:
#      x y z
#    x 1.463630 0.000000 0.000000 
#    y 0.000000 1.536240 0.000000 
#    z 0.000000 0.000000 1.507490 
# 
# From -- ./inp_files/4858.got.cif
#   From: 2010.05.17/outbox.cif.g08.bks.cpg/sg47_3_cif.got.tgz:4858.got - 2010.06.03 20:15:42.
