data_PCOD9383591
_publ_section_title
;
Structure prediction by ZEFSAII (Michael W. Deem and Ramdas Pophale) SiO2 
 PCOD9383591
Probable space group: P M M M
;
_chemical_formula_sum "Si O2"
_cell_formula_units_Z 40
_cell_length_a 15.073314
_cell_length_b 8.915167
_cell_length_c 16.443927
_cell_angle_alpha 90.000000
_cell_angle_beta 90.000000
_cell_angle_gamma 90.000000
_cell_volume 2209.753189
_symmetry_space_group_name_H-M "P M M M"
_symmetry_group_IT_number 47
_symmetry_cell_setting 'orthorhombic'
loop_
_space_group_symop_operation_xyz
x,y,z
-x,-y,z
x,-y,-z
-x,y,-z
-x,-y,-z
x,y,-z
-x,y,z
x,-y,z
loop_
_atom_site_type_symbol
_atom_site_label
_atom_site_fract_x
_atom_site_fract_y
_atom_site_fract_z
Si Si1 0.650093 0.177138 0.500000
Si Si2 0.753273 0.826653 0.220286
Si Si3 0.164209 0.668898 0.500000
Si Si4 0.903976 0.834182 0.355514
Si Si5 0.397682 0.677253 0.326348
Si Si6 0.899854 0.181742 0.095969
O O1 0.754018 0.216759 0.500000
O O2 0.615068 0.246799 0.415274
O O3 0.634146 0.000000 0.500000
O O4 0.824842 0.827794 0.292804
O O5 0.669219 0.741692 0.258372
O O6 0.813704 0.764158 0.146175
O O7 0.728059 0.000000 0.202457
O O8 0.198047 0.500000 0.500000
O O9 0.107624 0.705968 0.578867
O O10 0.000000 0.823191 0.314665
O O11 0.900626 0.000000 0.395081
O O12 0.500000 0.699565 0.302023
O O13 0.380802 0.500000 0.336189
O O14 0.000000 0.234255 0.119407
O O15 0.900593 0.000000 0.107252
O O16 0.889707 0.211216 0.000000
#
# Coordination Sequence:
#
# PCOD9383591 Si02
#       6
#     4   8   4   8   8   8
#     4  12  23  38  59  80 102 134 179 229 278 323
#     4  10  19  32  54  81 108 140 179 222 266 317
#     4  12  23  34  49  70 102 142 181 219 260 309
#     4  10  20  33  49  71 102 140 179 218 262 312
#     4  11  24  40  57  78 106 140 177 223 278 328
#     4   8  14  27  51  85 120 148 176 214 262 316
#
# _framework density 18.101569999999999
#
# number of rings (size 3 to 8) (size 9 to 14) (size 15 to 20)
#    0.000    1.800    2.000    4.200    0.000    6.800 
#    0.000    0.000    0.000    3.000    0.000    5.600 
#    0.000    0.000    0.000    0.000    0.000    0.000 
#
# Total GULP energy -222972.511040 kJ/mol
# GULP energy per Si atom -5574.312776 kJ/mol
# Density = 1.806037 g / cm^3
# Si number density = 18.101570 Si / 1000 Ang^3
#
#
#
# Elastic Constant Matrix: (Units=GPa)
#
#
# Indices 1 2 3 4 5 6 
#
# 1 135.7535 51.1874 50.2852 0.0000 0.0000 0.0000
# 2 51.1874 65.4104 33.1331 0.0000 0.0000 0.0000
# 3 50.2852 33.1331 86.4411 0.0000 0.0000 0.0000
# 4 0.0000 0.0000 0.0000 -1.1548 0.0000 0.0000
# 5 0.0000 0.0000 0.0000 0.0000 -16.2379 0.0000
# 6 0.0000 0.0000 0.0000 0.0000 0.0000 51.5792
#
#
#
# Elastic Compliance Matrix: (Units=1/GPa)
#
#
# Indices 1 2 3 4 5 6 
#
# 1 0.011471 -0.006945 -0.004011 0.000000 0.000000 0.000000
# 2 -0.006945 0.023176 -0.004844 0.000000 0.000000 0.000000
# 3 -0.004011 -0.004844 0.015758 0.000000 0.000000 0.000000
# 4 0.000000 0.000000 0.000000 -0.865952 0.000000 0.000000
# 5 0.000000 0.000000 0.000000 0.000000 -0.061584 0.000000
# 6 0.000000 0.000000 0.000000 0.000000 0.000000 0.019388
#
#
# Mechanical properties :
#
#
# Convention : Reuss Voigt Hill
#
# Bulk Modulus (GPa) = 53.17202 61.86848 57.52025
# Shear Modulus (GPa) = -6.09848 17.03724 5.46938
#
# Velocity S-wave (km/s) = -1.83748 3.07123 1.74013
# Velocity P-wave (km/s) = 4.99362 6.84320 5.99022
#
# Compressibility (1/GPa) = 0.01880689
#
# Stress axis : x y z
#
# Youngs Moduli (GPa) = 87.17987 43.14771 63.45855
#
# Poissons Ratio (x) = 0.29965 0.25452
# Poissons Ratio (y) = 0.60544 0.30737
# Poissons Ratio (z) = 0.34966 0.20899
#
# Static dielectric constant tensor:
#      x y z
#    x 1.636830 0.000000 0.000000 
#    y 0.000000 1.632110 0.000000 
#    z 0.000000 0.000000 1.637940 
# 
# From -- ./inp_files/20689.got.cif
#   From: 2010.05.17/outbox.cif.g08.bks.cpg/sg47_11_cif.got.tgz:20689.got - 2010.06.03 20:15:42.
