data_PCOD9383302
_publ_section_title
;
Structure prediction by ZEFSAII (Michael W. Deem and Ramdas Pophale) SiO2 
 PCOD9383302
Probable space group: P M M M
;
_chemical_formula_sum "Si O2"
_cell_formula_units_Z 52
_cell_length_a 19.284946
_cell_length_b 8.767209
_cell_length_c 19.016067
_cell_angle_alpha 90.000000
_cell_angle_beta 90.000000
_cell_angle_gamma 90.000000
_cell_volume 3215.144421
_symmetry_space_group_name_H-M "P M M M"
_symmetry_group_IT_number 47
_symmetry_cell_setting 'orthorhombic'
loop_
_space_group_symop_operation_xyz
x,y,z
-x,-y,z
x,-y,-z
-x,y,-z
-x,-y,-z
x,y,-z
-x,y,z
x,-y,z
loop_
_atom_site_type_symbol
_atom_site_label
_atom_site_fract_x
_atom_site_fract_y
_atom_site_fract_z
Si Si1 0.922076 0.684674 0.657110
Si Si2 0.079604 0.816338 0.081903
Si Si3 0.833439 0.317212 0.206535
Si Si4 0.581022 0.318035 0.350131
Si Si5 0.709424 0.818997 0.713193
Si Si6 0.787365 0.315805 0.421056
Si Si7 0.584104 0.826142 0.500000
O O1 0.925885 0.500000 0.659116
O O2 0.885660 0.731723 0.730224
O O3 0.867919 0.721188 0.595406
O O4 0.000000 0.744050 0.649547
O O5 0.133602 0.740368 0.134404
O O6 0.000000 0.771640 0.099641
O O7 0.083750 0.000000 0.088020
O O8 0.091394 0.777425 0.000000
O O9 0.829274 0.500000 0.207690
O O10 0.758502 0.249706 0.226321
O O11 0.500000 0.278293 0.339735
O O12 0.587735 0.500000 0.349229
O O13 0.631763 0.245099 0.292916
O O14 0.602308 0.258880 0.427894
O O15 0.744722 0.763920 0.640278
O O16 0.709044 0.000000 0.717452
O O17 0.767897 0.271801 0.500000
O O18 0.779066 0.500000 0.414139
O O19 0.500000 0.831295 0.500000
O O20 0.610053 0.000000 0.500000
#
# Coordination Sequence:
#
# PCOD9383302 Si02
#       7
#     8   8   8   8   8   8   4
#     4   8  14  25  42  64  86 110 146 193 241 282
#     4   9  18  32  50  75 108 141 168 197 239 289
#     4  10  19  32  49  70  97 127 164 203 240 285
#     4  10  20  34  51  70  93 121 154 196 246 297
#     4  11  22  34  49  67  91 124 161 200 245 295
#     4   9  18  31  45  62  86 116 152 197 247 294
#     4   9  17  29  45  67  93 119 150 189 236 291
#
# _framework density 16.173456999999999
#
# number of rings (size 3 to 8) (size 9 to 14) (size 15 to 20)
#    0.000    2.538    0.000    4.385    1.077    3.692 
#    0.000    2.308    0.000    4.154    0.000    4.308 
#    0.000    0.615    0.000    6.462    0.000    2.769 
#
# Total GULP energy -290023.025248 kJ/mol
# GULP energy per Si atom -5577.365870 kJ/mol
# Density = 1.613665 g / cm^3
# Si number density = 16.173457 Si / 1000 Ang^3
#
#
#
# Elastic Constant Matrix: (Units=GPa)
#
#
# Indices 1 2 3 4 5 6 
#
# 1 106.3106 41.9120 45.4693 0.0000 0.0000 0.0000
# 2 41.9120 58.6869 34.8379 0.0000 0.0000 0.0000
# 3 45.4693 34.8379 75.1983 0.0000 0.0000 0.0000
# 4 0.0000 0.0000 0.0000 20.7499 0.0000 0.0000
# 5 0.0000 0.0000 0.0000 0.0000 26.9294 0.0000
# 6 0.0000 0.0000 0.0000 0.0000 0.0000 19.0982
#
#
#
# Elastic Compliance Matrix: (Units=1/GPa)
#
#
# Indices 1 2 3 4 5 6 
#
# 1 0.014577 -0.007142 -0.005505 0.000000 0.000000 0.000000
# 2 -0.007142 0.027003 -0.008191 0.000000 0.000000 0.000000
# 3 -0.005505 -0.008191 0.020422 0.000000 0.000000 0.000000
# 4 0.000000 0.000000 0.000000 0.048193 0.000000 0.000000
# 5 0.000000 0.000000 0.000000 0.000000 0.037134 0.000000
# 6 0.000000 0.000000 0.000000 0.000000 0.000000 0.052361
#
#
# Mechanical properties :
#
#
# Convention : Reuss Voigt Hill
#
# Bulk Modulus (GPa) = 49.20267 53.84826 51.52546
# Shear Modulus (GPa) = 20.14983 21.22061 20.68522
#
# Velocity S-wave (km/s) = 3.53350 3.62617 3.58014
# Velocity P-wave (km/s) = 6.86552 7.13433 7.00122
#
# Compressibility (1/GPa) = 0.02032410
#
# Stress axis : x y z
#
# Youngs Moduli (GPa) = 68.60276 37.03322 48.96742
#
# Poissons Ratio (x) = 0.26450 0.26957
# Poissons Ratio (y) = 0.48997 0.40111
# Poissons Ratio (z) = 0.37766 0.30335
#
# Static dielectric constant tensor:
#      x y z
#    x 1.581560 0.000000 0.000000 
#    y 0.000000 1.545900 0.000000 
#    z 0.000000 0.000000 1.517790 
# 
# From -- ./inp_files/28497.got.cif
#   From: 2010.05.17/outbox.cif.g08.bks.cpg/sg47_15_cif.got.tgz:28497.got - 2010.06.03 20:15:42.
