data_PCOD9383982
_publ_section_title
;
Structure prediction by ZEFSAII (Michael W. Deem and Ramdas Pophale) SiO2 
 PCOD9383982
Probable space group: P M M M
;
_chemical_formula_sum "Si O2"
_cell_formula_units_Z 49
_cell_length_a 7.732280
_cell_length_b 18.609785
_cell_length_c 15.698965
_cell_angle_alpha 90.000000
_cell_angle_beta 90.000000
_cell_angle_gamma 90.000000
_cell_volume 2259.019341
_symmetry_space_group_name_H-M "P M M M"
_symmetry_group_IT_number 47
_symmetry_cell_setting 'orthorhombic'
loop_
_space_group_symop_operation_xyz
x,y,z
-x,-y,z
x,-y,-z
-x,y,-z
-x,-y,-z
x,y,-z
-x,y,z
x,-y,z
loop_
_atom_site_type_symbol
_atom_site_label
_atom_site_fract_x
_atom_site_fract_y
_atom_site_fract_z
Si Si1 0.291575 0.293904 0.402137
Si Si2 0.000000 0.500000 0.000000
Si Si3 0.207373 0.238039 0.906287
Si Si4 0.207322 0.356957 0.769404
Si Si5 0.291298 0.080440 0.154516
Si Si6 0.309456 0.500000 0.136971
Si Si7 0.193842 0.083859 0.500000
Si Si8 0.301085 0.147005 0.327780
O O1 0.230153 0.301887 0.500000
O O2 0.500000 0.286168 0.407925
O O3 0.251261 0.352121 0.330599
O O4 0.218904 0.222410 0.355405
O O5 0.848493 0.500000 0.072535
O O6 0.268283 0.287996 0.827413
O O7 0.246946 0.153226 0.896082
O O8 0.000000 0.244559 0.906506
O O9 0.270556 0.262539 0.000000
O O10 0.289059 0.428098 0.807814
O O11 0.000000 0.360184 0.777926
O O12 0.500000 0.075539 0.153670
O O13 0.227558 0.101048 0.249997
O O14 0.228615 0.000000 0.129448
O O15 0.500000 0.500000 0.097903
O O16 0.293104 0.104744 0.415404
O O17 0.000000 0.116503 0.500000
O O18 0.174967 0.000000 0.500000
O O19 0.500000 0.161192 0.303479
#
# Coordination Sequence:
#
# PCOD9383982 Si02
#       8
#     8   1   8   8   8   4   4   8
#     4  10  20  37  63  94 127 168 223 281 334 404
#     4  12  26  52  76 118 162 184 240 284 320 434
#     4  10  23  40  62  89 123 169 213 268 335 396
#     4  11  23  43  70  99 142 178 222 283 336 411
#     4  10  21  37  57  82 115 158 212 274 331 391
#     4  12  27  47  78 113 152 197 227 282 354 400
#     4  11  23  33  45  73 113 150 197 264 331 405
#     4  10  19  35  56  79 111 154 207 266 329 398
#
# _framework density 21.690828
#
# number of rings (size 3 to 8) (size 9 to 14) (size 15 to 20)
#    0.000    1.551    3.265    1.347    1.143    4.571 
#    0.000    2.041    0.000    2.449    0.000    0.000 
#    0.000    0.000    0.000    0.000    0.000    0.000 
#
# Total GULP energy -273046.815537 kJ/mol
# GULP energy per Si atom -5572.383991 kJ/mol
# Density = 2.164146 g / cm^3
# Si number density = 21.690828 Si / 1000 Ang^3
#
#
#
# Elastic Constant Matrix: (Units=GPa)
#
#
# Indices 1 2 3 4 5 6 
#
# 1 71.3343 15.4294 11.7719 0.0000 0.0000 0.0000
# 2 15.4294 111.7905 52.5397 0.0000 0.0000 0.0000
# 3 11.7719 52.5397 120.0488 0.0000 0.0000 0.0000
# 4 0.0000 0.0000 0.0000 105.6070 0.0000 0.0000
# 5 0.0000 0.0000 0.0000 0.0000 23.7893 0.0000
# 6 0.0000 0.0000 0.0000 0.0000 0.0000 9.5046
#
#
#
# Elastic Compliance Matrix: (Units=1/GPa)
#
#
# Indices 1 2 3 4 5 6 
#
# 1 0.014495 -0.001678 -0.000687 0.000000 0.000000 0.000000
# 2 -0.001678 0.011456 -0.004849 0.000000 0.000000 0.000000
# 3 -0.000687 -0.004849 0.010520 0.000000 0.000000 0.000000
# 4 0.000000 0.000000 0.000000 0.009469 0.000000 0.000000
# 5 0.000000 0.000000 0.000000 0.000000 0.042036 0.000000
# 6 0.000000 0.000000 0.000000 0.000000 0.000000 0.105212
#
#
# Mechanical properties :
#
#
# Convention : Reuss Voigt Hill
#
# Bulk Modulus (GPa) = 45.36726 51.40617 48.38671
# Shear Modulus (GPa) = 23.25990 42.67570 32.96780
#
# Velocity S-wave (km/s) = 3.27821 4.44041 3.90281
# Velocity P-wave (km/s) = 5.94051 7.07394 6.53186
#
# Compressibility (1/GPa) = 0.02204233
#
# Stress axis : x y z
#
# Youngs Moduli (GPa) = 68.99040 87.29129 95.06078
#
# Poissons Ratio (x) = 0.14644 0.06532
# Poissons Ratio (y) = 0.11574 0.46097
# Poissons Ratio (z) = 0.04741 0.42329
#
# Static dielectric constant tensor:
#      x y z
#    x 1.823860 0.000000 0.000000 
#    y 0.000000 1.821340 0.000000 
#    z 0.000000 0.000000 1.780970 
# 
# From -- ./inp_files/21200.got.cif
#   From: 2010.05.17/outbox.cif.g08.bks.cpg/sg47_11_cif.got.tgz:21200.got - 2010.06.03 20:15:42.
