data_PCOD9383761
_publ_section_title
;
Structure prediction by ZEFSAII (Michael W. Deem and Ramdas Pophale) SiO2 
 PCOD9383761
Probable space group: P M M M
;
_chemical_formula_sum "Si O2"
_cell_formula_units_Z 33
_cell_length_a 8.181853
_cell_length_b 8.903406
_cell_length_c 24.641207
_cell_angle_alpha 90.000000
_cell_angle_beta 90.000000
_cell_angle_gamma 90.000000
_cell_volume 1795.022214
_symmetry_space_group_name_H-M "P M M M"
_symmetry_group_IT_number 47
_symmetry_cell_setting 'orthorhombic'
loop_
_space_group_symop_operation_xyz
x,y,z
-x,-y,z
x,-y,-z
-x,y,-z
-x,-y,-z
x,y,-z
-x,y,z
x,-y,z
loop_
_atom_site_type_symbol
_atom_site_label
_atom_site_fract_x
_atom_site_fract_y
_atom_site_fract_z
Si Si1 0.801969 0.825832 0.612239
Si Si2 0.500000 0.832078 0.887909
Si Si3 0.820683 0.181445 0.169322
Si Si4 0.500000 0.000000 0.000000
Si Si5 0.306410 0.675744 0.276895
Si Si6 0.199537 0.326892 0.500000
O O1 0.734587 0.736586 0.663598
O O2 0.748000 0.755284 0.555032
O O3 0.000000 0.818318 0.613990
O O4 0.754112 0.000000 0.615459
O O5 0.668441 0.761668 0.866837
O O6 0.500000 0.000000 0.861180
O O7 0.500000 0.870894 0.951388
O O8 0.787395 0.232107 0.230744
O O9 0.000000 0.235770 0.151657
O O10 0.825176 0.000000 0.166171
O O11 0.500000 0.692265 0.266993
O O12 0.263838 0.500000 0.273174
O O13 0.251276 0.500000 0.500000
O O14 0.000000 0.324404 0.500000
#
# Coordination Sequence:
#
# PCOD9383761 Si02
#       6
#     8   4   8   1   8   4
#     4  10  20  34  53  77 103 136 180 230 287 349
#     4   8  16  32  51  81 119 150 182 226 267 320
#     4  10  19  33  55  81 111 149 187 229 280 332
#     4   8  16  32  58  84 126 166 180 230 288 312
#     4  11  23  36  51  75 107 144 185 232 288 346
#     4   9  17  31  52  75 102 137 178 230 286 344
#
# _framework density 18.384173000000001
#
# number of rings (size 3 to 8) (size 9 to 14) (size 15 to 20)
#    0.364    1.818    1.212    2.545    0.000    7.758 
#    0.000    1.818    0.000    3.636    0.000    1.697 
#    0.000    1.939    0.000    0.000    0.000    0.000 
#
# Total GULP energy -183725.672221 kJ/mol
# GULP energy per Si atom -5567.444613 kJ/mol
# Density = 1.834233 g / cm^3
# Si number density = 18.384173 Si / 1000 Ang^3
#
#
#
# Elastic Constant Matrix: (Units=GPa)
#
#
# Indices 1 2 3 4 5 6 
#
# 1 94.0944 21.3793 50.9176 0.0000 0.0000 0.0000
# 2 21.3793 27.7147 -0.0443 0.0000 0.0000 0.0000
# 3 50.9176 -0.0443 113.7218 0.0000 0.0000 0.0000
# 4 0.0000 0.0000 0.0000 -11.3773 0.0000 0.0000
# 5 0.0000 0.0000 0.0000 0.0000 1.5296 0.0000
# 6 0.0000 0.0000 0.0000 0.0000 0.0000 15.1624
#
#
#
# Elastic Compliance Matrix: (Units=1/GPa)
#
#
# Indices 1 2 3 4 5 6 
#
# 1 0.018257 -0.014097 -0.008180 0.000000 0.000000 0.000000
# 2 -0.014097 0.046966 0.006330 0.000000 0.000000 0.000000
# 3 -0.008180 0.006330 0.012458 0.000000 0.000000 0.000000
# 4 0.000000 0.000000 0.000000 -0.087895 0.000000 0.000000
# 5 0.000000 0.000000 0.000000 0.000000 0.653778 0.000000
# 6 0.000000 0.000000 0.000000 0.000000 0.000000 0.065953
#
#
# Mechanical properties :
#
#
# Convention : Reuss Voigt Hill
#
# Bulk Modulus (GPa) = 21.83957 42.22625 32.03291
# Shear Modulus (GPa) = 6.60787 11.94815 9.27801
#
# Velocity S-wave (km/s) = 1.89793 2.55211 2.24893
# Velocity P-wave (km/s) = 4.08756 5.63054 4.91992
#
# Compressibility (1/GPa) = 0.04578845
#
# Stress axis : x y z
#
# Youngs Moduli (GPa) = 54.77381 21.29185 80.26800
#
# Poissons Ratio (x) = 0.30014 0.65658
# Poissons Ratio (y) = 0.77212 -0.50809
# Poissons Ratio (z) = 0.44804 -0.13478
#
# Static dielectric constant tensor:
#      x y z
#    x 1.699500 0.000000 0.000000 
#    y 0.000000 1.618250 0.000000 
#    z 0.000000 0.000000 1.584090 
# 
# From -- ./inp_files/31638.got.cif
#   From: 2010.05.17/outbox.cif.g08.bks.cpg/sg47_16_cif.got.tgz:31638.got - 2010.06.03 20:15:42.
