data_PCOD9383650
_publ_section_title
;
Structure prediction by ZEFSAII (Michael W. Deem and Ramdas Pophale) SiO2 
 PCOD9383650
Probable space group: P M M M
;
_chemical_formula_sum "Si O2"
_cell_formula_units_Z 52
_cell_length_a 19.383338
_cell_length_b 10.480940
_cell_length_c 14.744829
_cell_angle_alpha 90.000000
_cell_angle_beta 90.000000
_cell_angle_gamma 90.000000
_cell_volume 2995.494620
_symmetry_space_group_name_H-M "P M M M"
_symmetry_group_IT_number 47
_symmetry_cell_setting 'orthorhombic'
loop_
_space_group_symop_operation_xyz
x,y,z
-x,-y,z
x,-y,-z
-x,y,-z
-x,-y,-z
x,y,-z
-x,y,z
x,-y,z
loop_
_atom_site_type_symbol
_atom_site_label
_atom_site_fract_x
_atom_site_fract_y
_atom_site_fract_z
Si Si1 0.421499 0.655213 0.245255
Si Si2 0.305332 0.352137 0.107644
Si Si3 0.683959 0.345355 0.397368
Si Si4 0.841952 0.649397 0.609669
Si Si5 0.077372 0.500000 0.890827
Si Si6 0.081141 0.141819 0.727210
Si Si7 0.841535 0.240664 0.891908
O O1 0.500000 0.701777 0.243308
O O2 0.424742 0.500000 0.248602
O O3 0.374480 0.687406 0.158838
O O4 0.376160 0.698713 0.330973
O O5 0.289428 0.500000 0.134566
O O6 0.239059 0.265314 0.126829
O O7 0.315470 0.351991 0.000000
O O8 0.674542 0.299294 0.500000
O O9 0.680934 0.500000 0.399540
O O10 0.762154 0.317360 0.367033
O O11 0.848481 0.658890 0.500000
O O12 0.854226 0.500000 0.633481
O O13 0.890362 0.747536 0.661980
O O14 0.119960 0.626027 0.869879
O O15 0.000000 0.500000 0.852260
O O16 0.071563 0.500000 0.000000
O O17 0.122806 0.146610 0.821822
O O18 0.000000 0.161508 0.745114
O O19 0.089821 0.000000 0.686651
O O20 0.850028 0.213516 0.000000
#
# Coordination Sequence:
#
# PCOD9383650 Si02
#       7
#     8   8   8   8   4   8   8
#     4   9  16  23  34  58  95 137 170 194 233 297
#     4   9  16  27  43  64  91 125 168 214 257 295
#     4   8  14  26  45  68  93 121 157 203 250 293
#     4   9  19  37  60  81  99 128 174 221 260 301
#     4   9  16  26  44  72  96 116 156 213 262 298
#     4  11  25  39  51  74 107 141 171 204 259 320
#     4  10  19  33  52  72  97 132 173 216 259 305
#
# _framework density 17.359403
#
# number of rings (size 3 to 8) (size 9 to 14) (size 15 to 20)
#    0.000    2.692    0.769    2.308    1.077    4.000 
#    0.000    5.385    0.000    0.000    0.000    0.000 
#    0.000    9.846    0.000   27.077    0.000   11.077 
#
# Total GULP energy -289757.699011 kJ/mol
# GULP energy per Si atom -5572.263443 kJ/mol
# Density = 1.731989 g / cm^3
# Si number density = 17.359403 Si / 1000 Ang^3
#
#
#
# Elastic Constant Matrix: (Units=GPa)
#
#
# Indices 1 2 3 4 5 6 
#
# 1 136.4140 45.0638 62.7524 0.0000 0.0000 0.0000
# 2 45.0638 53.2567 30.3648 0.0000 0.0000 0.0000
# 3 62.7524 30.3648 62.6559 0.0000 0.0000 0.0000
# 4 0.0000 0.0000 0.0000 10.5019 0.0000 0.0000
# 5 0.0000 0.0000 0.0000 0.0000 17.8010 0.0000
# 6 0.0000 0.0000 0.0000 0.0000 0.0000 0.5066
#
#
#
# Elastic Compliance Matrix: (Units=1/GPa)
#
#
# Indices 1 2 3 4 5 6 
#
# 1 0.014707 -0.005591 -0.012020 0.000000 0.000000 0.000000
# 2 -0.005591 0.028072 -0.008005 0.000000 0.000000 0.000000
# 3 -0.012020 -0.008005 0.031878 0.000000 0.000000 0.000000
# 4 0.000000 0.000000 0.000000 0.095221 0.000000 0.000000
# 5 0.000000 0.000000 0.000000 0.000000 0.056177 0.000000
# 6 0.000000 0.000000 0.000000 0.000000 0.000000 1.974004
#
#
# Mechanical properties :
#
#
# Convention : Reuss Voigt Hill
#
# Bulk Modulus (GPa) = 42.68899 58.74318 50.71608
# Shear Modulus (GPa) = 2.21327 13.37160 7.79244
#
# Velocity S-wave (km/s) = 1.13037 2.77840 2.12100
# Velocity P-wave (km/s) = 5.13306 6.64873 5.93944
#
# Compressibility (1/GPa) = 0.02342524
#
# Stress axis : x y z
#
# Youngs Moduli (GPa) = 67.99459 35.62272 31.36964
#
# Poissons Ratio (x) = 0.19918 0.37706
# Poissons Ratio (y) = 0.38017 0.25110
# Poissons Ratio (z) = 0.81730 0.28515
#
# Static dielectric constant tensor:
#      x y z
#    x 1.584890 0.000000 0.000000 
#    y 0.000000 1.581110 0.000000 
#    z 0.000000 0.000000 1.621690 
# 
# From -- ./inp_files/24612.got.cif
#   From: 2010.05.17/outbox.cif.g08.bks.cpg/sg47_13_cif.got.tgz:24612.got - 2010.06.03 20:15:42.
