data_PCOD9383819
_publ_section_title
;
Structure prediction by ZEFSAII (Michael W. Deem and Ramdas Pophale) SiO2 
 PCOD9383819
Probable space group: P M M M
;
_chemical_formula_sum "Si O2"
_cell_formula_units_Z 56
_cell_length_a 8.199913
_cell_length_b 15.804891
_cell_length_c 21.769844
_cell_angle_alpha 90.000000
_cell_angle_beta 90.000000
_cell_angle_gamma 90.000000
_cell_volume 2821.344160
_symmetry_space_group_name_H-M "P M M M"
_symmetry_group_IT_number 47
_symmetry_cell_setting 'orthorhombic'
loop_
_space_group_symop_operation_xyz
x,y,z
-x,-y,z
x,-y,-z
-x,y,-z
-x,-y,-z
x,y,-z
-x,y,z
x,-y,z
loop_
_atom_site_type_symbol
_atom_site_label
_atom_site_fract_x
_atom_site_fract_y
_atom_site_fract_z
Si Si1 0.695007 0.831446 0.633940
Si Si2 0.315043 0.398909 0.500000
Si Si3 0.697601 0.737280 0.830084
Si Si4 0.817239 0.353480 0.630393
Si Si5 0.688578 0.588659 0.252382
Si Si6 0.301806 0.596461 0.071169
Si Si7 0.301986 0.096196 0.500000
Si Si8 0.805175 0.095535 0.762462
O O1 0.500000 0.815631 0.632251
O O2 0.789642 0.744568 0.643123
O O3 0.744755 0.864855 0.566121
O O4 0.730780 0.886845 0.694501
O O5 0.320800 0.500000 0.500000
O O6 0.500000 0.364825 0.500000
O O7 0.223952 0.369169 0.439739
O O8 0.500000 0.743879 0.831312
O O9 0.755846 0.674218 0.775841
O O10 0.747581 0.678900 0.888835
O O11 0.757476 0.830600 0.810973
O O12 0.698194 0.403844 0.674846
O O13 0.000000 0.380327 0.644885
O O14 0.500000 0.586562 0.232758
O O15 0.765835 0.500000 0.233132
O O16 0.500000 0.595341 0.073760
O O17 0.251047 0.500000 0.090481
O O18 0.253685 0.606428 0.000000
O O19 0.500000 0.097232 0.500000
O O20 0.244893 0.000000 0.500000
O O21 0.000000 0.098038 0.755869
O O22 0.757386 0.000000 0.781828
#
# Coordination Sequence:
#
# PCOD9383819 Si02
#       8
#     8   4   8   8   8   8   4   8
#     4  11  21  37  60  82 106 140 183 232 289 353
#     4  11  24  41  58  74  98 139 190 238 285 340
#     4  10  19  33  57  86 115 152 194 233 277 335
#     4  12  24  37  54  77 107 141 181 230 285 342
#     4  10  20  34  53  79 111 146 185 228 275 331
#     4   8  14  27  52  90 131 162 189 228 279 333
#     4   9  19  34  54  80 102 123 162 220 283 345
#     4  11  24  40  57  80 113 151 192 244 302 351
#
# _framework density 19.848693999999998
#
# number of rings (size 3 to 8) (size 9 to 14) (size 15 to 20)
#    0.000    1.714    1.429    4.500    0.000    6.571 
#    0.000    1.071    0.000    4.714    0.000    4.000 
#    0.000    0.000    0.000    0.000    0.000    0.000 
#
# Total GULP energy -312215.483238 kJ/mol
# GULP energy per Si atom -5575.276486 kJ/mol
# Density = 1.980352 g / cm^3
# Si number density = 19.848694 Si / 1000 Ang^3
#
#
#
# Elastic Constant Matrix: (Units=GPa)
#
#
# Indices 1 2 3 4 5 6 
#
# 1 35.0766 11.3190 3.7565 0.0000 0.0000 0.0000
# 2 11.3190 148.6153 57.1561 0.0000 0.0000 0.0000
# 3 3.7565 57.1561 123.9514 0.0000 0.0000 0.0000
# 4 0.0000 0.0000 0.0000 25.6650 0.0000 0.0000
# 5 0.0000 0.0000 0.0000 0.0000 0.6903 0.0000
# 6 0.0000 0.0000 0.0000 0.0000 0.0000 46.6271
#
#
#
# Elastic Compliance Matrix: (Units=1/GPa)
#
#
# Indices 1 2 3 4 5 6 
#
# 1 0.029230 -0.002292 0.000171 0.000000 0.000000 0.000000
# 2 -0.002292 0.008359 -0.003785 0.000000 0.000000 0.000000
# 3 0.000171 -0.003785 0.009808 0.000000 0.000000 0.000000
# 4 0.000000 0.000000 0.000000 0.038964 0.000000 0.000000
# 5 0.000000 0.000000 0.000000 0.000000 1.448583 0.000000
# 6 0.000000 0.000000 0.000000 0.000000 0.000000 0.021447
#
#
# Mechanical properties :
#
#
# Convention : Reuss Voigt Hill
#
# Bulk Modulus (GPa) = 28.10159 50.23404 39.16782
# Shear Modulus (GPa) = 3.16443 30.29059 16.72751
#
# Velocity S-wave (km/s) = 1.26402 3.91074 2.90617
# Velocity P-wave (km/s) = 4.03967 6.76426 5.57110
#
# Compressibility (1/GPa) = 0.03558517
#
# Stress axis : x y z
#
# Youngs Moduli (GPa) = 34.21098 119.63103 101.95932
#
# Poissons Ratio (x) = 0.27420 -0.01744
# Poissons Ratio (y) = 0.07841 0.38592
# Poissons Ratio (z) = -0.00585 0.45281
#
# Static dielectric constant tensor:
#      x y z
#    x 1.707080 0.000000 0.000000 
#    y 0.000000 1.730610 0.000000 
#    z 0.000000 0.000000 1.736810 
# 
# From -- ./inp_files/29756.got.cif
#   From: 2010.05.17/outbox.cif.g08.bks.cpg/sg47_15_cif.got.tgz:29756.got - 2010.06.03 20:15:42.
