data_PCOD9383358
_publ_section_title
;
Structure prediction by ZEFSAII (Michael W. Deem and Ramdas Pophale) SiO2 
 PCOD9383358
Probable space group: P M M M
;
_chemical_formula_sum "Si O2"
_cell_formula_units_Z 44
_cell_length_a 12.197105
_cell_length_b 15.163959
_cell_length_c 13.622474
_cell_angle_alpha 90.000000
_cell_angle_beta 90.000000
_cell_angle_gamma 90.000000
_cell_volume 2519.563752
_symmetry_space_group_name_H-M "P M M M"
_symmetry_group_IT_number 47
_symmetry_cell_setting 'orthorhombic'
loop_
_space_group_symop_operation_xyz
x,y,z
-x,-y,z
x,-y,-z
-x,y,-z
-x,-y,-z
x,y,-z
-x,y,z
x,-y,z
loop_
_atom_site_type_symbol
_atom_site_label
_atom_site_fract_x
_atom_site_fract_y
_atom_site_fract_z
Si Si1 0.784802 0.280397 0.115006
Si Si2 0.381012 0.000000 0.382223
Si Si3 0.874261 0.897057 0.803624
Si Si4 0.368238 0.500000 0.610567
Si Si5 0.000000 0.396247 0.119005
Si Si6 0.631867 0.683979 0.290382
Si Si7 0.771205 0.836199 0.614907
O O1 0.810614 0.176920 0.134384
O O2 0.890778 0.340104 0.146826
O O3 0.680759 0.304390 0.181749
O O4 0.767000 0.295735 0.000000
O O5 0.314510 0.913322 0.359779
O O6 0.500000 0.000000 0.335913
O O7 0.391224 0.000000 0.500000
O O8 0.866147 0.859102 0.692085
O O9 0.000000 0.895982 0.836066
O O10 0.837468 0.000000 0.808071
O O11 0.500000 0.500000 0.601438
O O12 0.322380 0.500000 0.500000
O O13 0.341766 0.587042 0.670403
O O14 0.000000 0.500000 0.151408
O O15 0.000000 0.398079 0.000000
O O16 0.500000 0.699658 0.296523
O O17 0.703831 0.748994 0.358256
O O18 0.801104 0.839379 0.500000
#
# Coordination Sequence:
#
# PCOD9383358 Si02
#       7
#     8   4   8   4   4   8   8
#     4  10  21  37  57  81 108 139 181 227 271 321
#     4   9  16  26  43  67  94 125 165 211 253 297
#     4  10  20  34  53  78 107 138 175 222 274 326
#     4   9  18  34  55  80 111 144 179 216 257 310
#     4   9  18  34  57  81 103 134 176 222 271 314
#     4  10  21  35  54  81 110 143 181 221 268 321
#     4  10  19  32  50  75 105 140 179 216 261 316
#
# _framework density 17.463339999999999
#
# number of rings (size 3 to 8) (size 9 to 14) (size 15 to 20)
#    0.000    2.273    1.818    1.091    1.273    2.909 
#    0.000    1.818    0.000    1.636    0.000    3.182 
#    0.000    0.000    0.000    0.000    0.000    0.000 
#
# Total GULP energy -244950.866338 kJ/mol
# GULP energy per Si atom -5567.065144 kJ/mol
# Density = 1.742359 g / cm^3
# Si number density = 17.463340 Si / 1000 Ang^3
#
#
#
# Elastic Constant Matrix: (Units=GPa)
#
#
# Indices 1 2 3 4 5 6 
#
# 1 35.5656 18.5723 2.2965 0.0000 0.0000 0.0000
# 2 18.5723 140.2369 16.3278 0.0000 0.0000 0.0000
# 3 2.2965 16.3278 62.6594 0.0000 0.0000 0.0000
# 4 0.0000 0.0000 0.0000 21.0895 0.0000 0.0000
# 5 0.0000 0.0000 0.0000 0.0000 4.3488 0.0000
# 6 0.0000 0.0000 0.0000 0.0000 0.0000 33.2969
#
#
#
# Elastic Compliance Matrix: (Units=1/GPa)
#
#
# Indices 1 2 3 4 5 6 
#
# 1 0.030206 -0.003993 -0.000067 0.000000 0.000000 0.000000
# 2 -0.003993 0.007882 -0.001907 0.000000 0.000000 0.000000
# 3 -0.000067 -0.001907 0.016459 0.000000 0.000000 0.000000
# 4 0.000000 0.000000 0.000000 0.047417 0.000000 0.000000
# 5 0.000000 0.000000 0.000000 0.000000 0.229949 0.000000
# 6 0.000000 0.000000 0.000000 0.000000 0.000000 0.030033
#
#
# Mechanical properties :
#
#
# Convention : Reuss Voigt Hill
#
# Bulk Modulus (GPa) = 23.46689 34.76168 29.11428
# Shear Modulus (GPa) = 12.88383 25.16472 19.02428
#
# Velocity S-wave (km/s) = 2.71913 3.80017 3.30416
# Velocity P-wave (km/s) = 4.82962 6.26129 5.59147
#
# Compressibility (1/GPa) = 0.04261324
#
# Stress axis : x y z
#
# Youngs Moduli (GPa) = 33.10564 126.87706 60.75783
#
# Poissons Ratio (x) = 0.50657 0.00405
# Poissons Ratio (y) = 0.13218 0.11589
# Poissons Ratio (z) = 0.00221 0.24201
#
# Static dielectric constant tensor:
#      x y z
#    x 1.607950 0.000000 0.000000 
#    y 0.000000 1.619380 0.000000 
#    z 0.000000 0.000000 1.599510 
# 
# From -- ./inp_files/22659.got.cif
#   From: 2010.05.17/outbox.cif.g08.bks.cpg/sg47_12_cif.got.tgz:22659.got - 2010.06.03 20:15:42.
