data_PCOD9383505
_publ_section_title
;
Structure prediction by ZEFSAII (Michael W. Deem and Ramdas Pophale) SiO2 
 PCOD9383505
Probable space group: P M M M
;
_chemical_formula_sum "Si O2"
_cell_formula_units_Z 64
_cell_length_a 8.579792
_cell_length_b 20.121043
_cell_length_c 21.366805
_cell_angle_alpha 90.000000
_cell_angle_beta 90.000000
_cell_angle_gamma 90.000000
_cell_volume 3688.644787
_symmetry_space_group_name_H-M "P M M M"
_symmetry_group_IT_number 47
_symmetry_cell_setting 'orthorhombic'
loop_
_space_group_symop_operation_xyz
x,y,z
-x,-y,z
x,-y,-z
-x,y,-z
-x,-y,-z
x,y,-z
-x,y,z
x,-y,z
loop_
_atom_site_type_symbol
_atom_site_label
_atom_site_fract_x
_atom_site_fract_y
_atom_site_fract_z
Si Si1 0.688632 0.794109 0.190948
Si Si2 0.314118 0.924974 0.613547
Si Si3 0.688302 0.573702 0.124036
Si Si4 0.185734 0.211663 0.430646
Si Si5 0.690259 0.287508 0.069317
Si Si6 0.813659 0.574726 0.735101
Si Si7 0.185116 0.924678 0.753530
Si Si8 0.686132 0.291536 0.687260
O O1 0.500000 0.797056 0.191301
O O2 0.739794 0.758933 0.126797
O O3 0.755642 0.867339 0.201041
O O4 0.737282 0.749778 0.250961
O O5 0.500000 0.919222 0.606196
O O6 0.232277 0.865335 0.577745
O O7 0.270778 0.917051 0.686782
O O8 0.267134 0.000000 0.594922
O O9 0.500000 0.573868 0.123830
O O10 0.740276 0.500000 0.103291
O O11 0.739748 0.636713 0.083729
O O12 0.743356 0.583469 0.195356
O O13 0.235383 0.233966 0.500000
O O14 0.261032 0.253103 0.374562
O O15 0.000000 0.217644 0.425868
O O16 0.500000 0.287128 0.069857
O O17 0.741142 0.266949 0.000000
O O18 0.770120 0.500000 0.713981
O O19 0.753230 0.634488 0.692727
O O20 0.000000 0.578002 0.739421
O O21 0.000000 0.917652 0.742962
O O22 0.215081 0.000000 0.775864
O O23 0.500000 0.294743 0.688988
#
# Coordination Sequence:
#
# PCOD9383505 Si02
#       8
#     8   8   8   8   8   8   8   8
#     4  10  19  32  52  79 105 135 175 218 266 314
#     4  10  20  34  53  78 109 144 180 217 258 307
#     4   9  16  28  47  72 104 140 178 217 257 305
#     4  11  24  39  55  78 109 144 180 218 262 314
#     4   9  17  30  48  73 106 139 174 218 264 311
#     4  10  20  33  52  79 109 141 177 218 265 313
#     4  10  20  33  52  78 105 135 173 218 268 317
#     4  11  21  35  57  82 107 138 177 222 267 311
#
# _framework density 17.350546000000001
#
# number of rings (size 3 to 8) (size 9 to 14) (size 15 to 20)
#    0.000    2.000    2.500    1.875    0.000    4.250 
#    0.000    2.500    0.000    2.250    0.000    7.000 
#    0.000    0.000    0.000    0.000    0.000    0.000 
#
# Total GULP energy -357157.454475 kJ/mol
# GULP energy per Si atom -5580.585226 kJ/mol
# Density = 1.731106 g / cm^3
# Si number density = 17.350546 Si / 1000 Ang^3
#
#
#
# Elastic Constant Matrix: (Units=GPa)
#
#
# Indices 1 2 3 4 5 6 
#
# 1 9.7379 11.8097 7.7585 0.0000 0.0000 0.0000
# 2 11.8097 100.1358 51.1582 0.0000 0.0000 0.0000
# 3 7.7585 51.1582 95.9116 0.0000 0.0000 0.0000
# 4 0.0000 0.0000 0.0000 20.8566 0.0000 0.0000
# 5 0.0000 0.0000 0.0000 0.0000 109.2371 0.0000
# 6 0.0000 0.0000 0.0000 0.0000 0.0000 26.2958
#
#
#
# Elastic Compliance Matrix: (Units=1/GPa)
#
#
# Indices 1 2 3 4 5 6 
#
# 1 0.120447 -0.012684 -0.002978 0.000000 0.000000 0.000000
# 2 -0.012684 0.015063 -0.007008 0.000000 0.000000 0.000000
# 3 -0.002978 -0.007008 0.014405 0.000000 0.000000 0.000000
# 4 0.000000 0.000000 0.000000 0.047946 0.000000 0.000000
# 5 0.000000 0.000000 0.000000 0.000000 0.009154 0.000000
# 6 0.000000 0.000000 0.000000 0.000000 0.000000 0.038029
#
#
# Mechanical properties :
#
#
# Convention : Reuss Voigt Hill
#
# Bulk Modulus (GPa) = 9.56249 38.58199 24.07224
# Shear Modulus (GPa) = 15.37311 40.28181 27.82746
#
# Velocity S-wave (km/s) = 2.97986 4.82357 4.00914
# Velocity P-wave (km/s) = 4.16686 7.30120 5.94433
#
# Compressibility (1/GPa) = 0.10457528
#
# Stress axis : x y z
#
# Youngs Moduli (GPa) = 8.30240 66.38878 69.41893
#
# Poissons Ratio (x) = 0.84206 0.20671
# Poissons Ratio (y) = 0.10531 0.48651
# Poissons Ratio (z) = 0.02472 0.46527
#
# Static dielectric constant tensor:
#      x y z
#    x 1.586210 0.000000 0.000000 
#    y 0.000000 1.599760 0.000000 
#    z 0.000000 0.000000 1.576380 
# 
# From -- ./inp_files/30173.got.cif
#   From: 2010.05.17/outbox.cif.g08.bks.cpg/sg47_16_cif.got.tgz:30173.got - 2010.06.03 20:15:42.
