data_PCOD9383895
_publ_section_title
;
Structure prediction by ZEFSAII (Michael W. Deem and Ramdas Pophale) SiO2 
 PCOD9383895
Probable space group: P M M M
;
_chemical_formula_sum "Si O2"
_cell_formula_units_Z 48
_cell_length_a 8.004429
_cell_length_b 18.435714
_cell_length_c 15.968775
_cell_angle_alpha 90.000000
_cell_angle_beta 90.000000
_cell_angle_gamma 90.000000
_cell_volume 2356.470030
_symmetry_space_group_name_H-M "P M M M"
_symmetry_group_IT_number 47
_symmetry_cell_setting 'orthorhombic'
loop_
_space_group_symop_operation_xyz
x,y,z
-x,-y,z
x,-y,-z
-x,y,-z
-x,-y,-z
x,y,-z
-x,y,z
x,-y,z
loop_
_atom_site_type_symbol
_atom_site_label
_atom_site_fract_x
_atom_site_fract_y
_atom_site_fract_z
Si Si1 0.798122 0.850667 0.093628
Si Si2 0.700807 0.919121 0.267357
Si Si3 0.797721 0.311115 0.146480
Si Si4 0.197407 0.500000 0.593594
Si Si5 0.204269 0.417501 0.000000
Si Si6 0.704685 0.195864 0.406164
Si Si7 0.696797 0.346474 0.665320
O O1 0.741871 0.898485 0.171871
O O2 0.744775 0.767993 0.113819
O O3 0.000000 0.851571 0.092489
O O4 0.740709 0.871610 0.000000
O O5 0.500000 0.919814 0.274850
O O6 0.762656 0.858464 0.332951
O O7 0.763420 0.000000 0.286623
O O8 0.733340 0.327834 0.238498
O O9 0.000000 0.310950 0.148729
O O10 0.743399 0.372638 0.081442
O O11 0.273504 0.500000 0.500000
O O12 0.241093 0.574313 0.640405
O O13 0.000000 0.500000 0.585725
O O14 0.262301 0.500000 0.000000
O O15 0.000000 0.418274 0.000000
O O16 0.752995 0.173440 0.500000
O O17 0.500000 0.196378 0.403403
O O18 0.763749 0.277857 0.387447
O O19 0.500000 0.347802 0.651505
#
# Coordination Sequence:
#
# PCOD9383895 Si02
#       7
#     8   8   8   4   4   8   8
#     4  10  20  36  58  82 112 152 196 238 282 340
#     4  10  21  37  57  84 117 149 188 242 297 347
#     4  10  19  34  56  82 111 147 192 235 280 338
#     4  11  25  43  61  84 115 150 191 237 284 337
#     4   9  18  32  53  81 110 143 185 233 282 334
#     4   9  18  34  57  84 113 148 189 231 281 343
#     4  11  22  37  59  86 118 152 188 233 288 343
#
# _framework density 20.369451000000002
#
# number of rings (size 3 to 8) (size 9 to 14) (size 15 to 20)
#    0.000    2.000    2.500    1.250    1.167    2.667 
#    0.000    3.750    0.000    2.000    0.000    1.167 
#    0.000    0.000    0.000    0.000    0.000    0.000 
#
# Total GULP energy -268026.925900 kJ/mol
# GULP energy per Si atom -5583.894290 kJ/mol
# Density = 2.032309 g / cm^3
# Si number density = 20.369451 Si / 1000 Ang^3
#
#
#
# Elastic Constant Matrix: (Units=GPa)
#
#
# Indices 1 2 3 4 5 6 
#
# 1 15.5702 15.1365 3.5061 0.0000 0.0000 0.0000
# 2 15.1365 137.4989 61.4807 0.0000 0.0000 0.0000
# 3 3.5061 61.4807 137.2210 0.0000 0.0000 0.0000
# 4 0.0000 0.0000 0.0000 15.5992 0.0000 0.0000
# 5 0.0000 0.0000 0.0000 0.0000 15.9185 0.0000
# 6 0.0000 0.0000 0.0000 0.0000 0.0000 9.0410
#
#
#
# Elastic Compliance Matrix: (Units=1/GPa)
#
#
# Indices 1 2 3 4 5 6 
#
# 1 0.072427 -0.008936 0.002153 0.000000 0.000000 0.000000
# 2 -0.008936 0.010197 -0.004340 0.000000 0.000000 0.000000
# 3 0.002153 -0.004340 0.009177 0.000000 0.000000 0.000000
# 4 0.000000 0.000000 0.000000 0.064106 0.000000 0.000000
# 5 0.000000 0.000000 0.000000 0.000000 0.062820 0.000000
# 6 0.000000 0.000000 0.000000 0.000000 0.000000 0.110607
#
#
# Mechanical properties :
#
#
# Convention : Reuss Voigt Hill
#
# Bulk Modulus (GPa) = 14.37703 50.05963 32.21833
# Shear Modulus (GPa) = 13.34165 22.12287 17.73226
#
# Velocity S-wave (km/s) = 2.56204 3.29915 2.95368
# Velocity P-wave (km/s) = 3.97813 6.25633 5.24248
#
# Compressibility (1/GPa) = 0.06955542
#
# Stress axis : x y z
#
# Youngs Moduli (GPa) = 13.80692 98.06552 108.96553
#
# Poissons Ratio (x) = 0.87630 -0.23461
# Poissons Ratio (y) = 0.12338 0.47296
# Poissons Ratio (z) = -0.02973 0.42565
#
# Static dielectric constant tensor:
#      x y z
#    x 1.734860 0.000000 0.000000 
#    y 0.000000 1.734640 0.000000 
#    z 0.000000 0.000000 1.724170 
# 
# From -- ./inp_files/21072.got.cif
#   From: 2010.05.17/outbox.cif.g08.bks.cpg/sg47_11_cif.got.tgz:21072.got - 2010.06.03 20:15:42.
