data_PCOD9383754
_publ_section_title
;
Structure prediction by ZEFSAII (Michael W. Deem and Ramdas Pophale) SiO2 
 PCOD9383754
Probable space group: P M M M
;
_chemical_formula_sum "Si O2"
_cell_formula_units_Z 48
_cell_length_a 29.778554
_cell_length_b 7.709123
_cell_length_c 9.961114
_cell_angle_alpha 90.000000
_cell_angle_beta 90.000000
_cell_angle_gamma 90.000000
_cell_volume 2286.738431
_symmetry_space_group_name_H-M "P M M M"
_symmetry_group_IT_number 47
_symmetry_cell_setting 'orthorhombic'
loop_
_space_group_symop_operation_xyz
x,y,z
-x,-y,z
x,-y,-z
-x,y,-z
-x,-y,-z
x,y,-z
-x,y,z
x,-y,z
loop_
_atom_site_type_symbol
_atom_site_label
_atom_site_fract_x
_atom_site_fract_y
_atom_site_fract_z
Si Si1 0.551794 0.290509 0.650320
Si Si2 0.889462 0.790052 0.753325
Si Si3 0.789942 0.703892 0.845249
Si Si4 0.708608 0.204973 0.653451
Si Si5 0.949410 0.211922 0.000000
Si Si6 0.630667 0.206290 0.153163
Si Si7 0.947707 0.787596 0.500000
O O1 0.566847 0.233458 0.500000
O O2 0.500000 0.235297 0.667675
O O3 0.552255 0.500000 0.649950
O O4 0.583891 0.230988 0.769221
O O5 0.839258 0.729457 0.782597
O O6 0.917230 0.732825 0.624498
O O7 0.887261 0.000000 0.750016
O O8 0.921028 0.733246 0.873781
O O9 0.780953 0.500000 0.854107
O O10 0.753657 0.777676 0.741506
O O11 0.788160 0.773626 0.000000
O O12 0.711530 0.274698 0.500000
O O13 0.668800 0.279818 0.746742
O O14 0.699727 0.000000 0.639641
O O15 0.000000 0.274389 0.000000
O O16 0.950928 0.000000 0.000000
O O17 0.638693 0.000000 0.142206
O O18 0.631425 0.275368 0.000000
O O19 0.000000 0.730438 0.500000
O O20 0.949753 0.000000 0.500000
#
# Coordination Sequence:
#
# PCOD9383754 Si02
#       7
#     8   8   8   8   4   8   4
#     4   9  19  36  57  82 115 157 202 243 282 329
#     4  10  19  33  55  81 110 143 179 224 273 322
#     4  11  24  40  57  80 113 149 185 226 275 333
#     4  10  22  40  63  87 110 141 185 234 284 339
#     4   9  16  28  51  81 107 137 181 227 270 315
#     4  10  21  37  58  86 118 150 186 233 287 341
#     4   9  18  32  53  83 113 139 175 225 274 321
#
# _framework density 20.990596
#
# number of rings (size 3 to 8) (size 9 to 14) (size 15 to 20)
#    0.000    2.167    0.833    2.500    1.167    6.667 
#    0.000    2.500    0.000    3.000    0.000    0.000 
#    0.000    0.000    0.000    0.000    0.000    0.000 
#
# Total GULP energy -267850.737925 kJ/mol
# GULP energy per Si atom -5580.223707 kJ/mol
# Density = 2.094282 g / cm^3
# Si number density = 20.990596 Si / 1000 Ang^3
#
#
#
# Elastic Constant Matrix: (Units=GPa)
#
#
# Indices 1 2 3 4 5 6 
#
# 1 140.5377 -6.5061 108.8985 0.0000 0.0000 0.0000
# 2 -6.5061 34.5085 9.9944 0.0000 0.0000 0.0000
# 3 108.8985 9.9944 242.8206 0.0000 0.0000 0.0000
# 4 0.0000 0.0000 0.0000 3.4443 0.0000 0.0000
# 5 0.0000 0.0000 0.0000 0.0000 32.8569 0.0000
# 6 0.0000 0.0000 0.0000 0.0000 0.0000 54.2193
#
#
#
# Elastic Compliance Matrix: (Units=1/GPa)
#
#
# Indices 1 2 3 4 5 6 
#
# 1 0.011343 0.003655 -0.005238 0.000000 0.000000 0.000000
# 2 0.003655 0.030506 -0.002895 0.000000 0.000000 0.000000
# 3 -0.005238 -0.002895 0.006586 0.000000 0.000000 0.000000
# 4 0.000000 0.000000 0.000000 0.290334 0.000000 0.000000
# 5 0.000000 0.000000 0.000000 0.000000 0.030435 0.000000
# 6 0.000000 0.000000 0.000000 0.000000 0.000000 0.018444
#
#
# Mechanical properties :
#
#
# Convention : Reuss Voigt Hill
#
# Bulk Modulus (GPa) = 25.32842 71.40448 48.36645
# Shear Modulus (GPa) = 12.20219 38.46943 25.33581
#
# Velocity S-wave (km/s) = 2.41367 4.28565 3.47797
# Velocity P-wave (km/s) = 4.45651 7.65377 6.26262
#
# Compressibility (1/GPa) = 0.03948135
#
# Stress axis : x y z
#
# Youngs Moduli (GPa) = 88.15857 32.78047 151.82949
#
# Poissons Ratio (x) = -0.11983 0.79522
# Poissons Ratio (y) = -0.32226 0.43955
# Poissons Ratio (z) = 0.46174 0.09490
#
# Static dielectric constant tensor:
#      x y z
#    x 1.734130 0.000000 0.000000 
#    y 0.000000 1.790390 0.000000 
#    z 0.000000 0.000000 1.692580 
# 
# From -- ./inp_files/13955.got.cif
#   From: 2010.05.17/outbox.cif.g08.bks.cpg/sg47_7_cif.got.tgz:13955.got - 2010.06.03 20:15:42.
