data_PCOD9383068
_publ_section_title
;
Structure prediction by ZEFSAII (Michael W. Deem and Ramdas Pophale) SiO2 
 PCOD9383068
Probable space group: P M M M
;
_chemical_formula_sum "Si O2"
_cell_formula_units_Z 40
_cell_length_a 7.319940
_cell_length_b 17.847655
_cell_length_c 13.225653
_cell_angle_alpha 90.000000
_cell_angle_beta 90.000000
_cell_angle_gamma 90.000000
_cell_volume 1727.849086
_symmetry_space_group_name_H-M "P M M M"
_symmetry_group_IT_number 47
_symmetry_cell_setting 'orthorhombic'
loop_
_space_group_symop_operation_xyz
x,y,z
-x,-y,z
x,-y,-z
-x,y,-z
-x,-y,-z
x,y,-z
-x,y,z
x,-y,z
loop_
_atom_site_type_symbol
_atom_site_label
_atom_site_fract_x
_atom_site_fract_y
_atom_site_fract_z
Si Si1 0.711289 0.377469 0.389048
Si Si2 0.223094 0.915854 0.779875
Si Si3 0.220714 0.798135 0.387377
Si Si4 0.277175 0.417798 0.170196
Si Si5 0.209695 0.871703 0.000000
Si Si6 0.721305 0.303058 0.000000
O O1 0.790749 0.395160 0.500000
O O2 0.500000 0.401540 0.392441
O O3 0.716007 0.287394 0.376967
O O4 0.788558 0.409558 0.285341
O O5 0.284260 0.852823 0.701018
O O6 0.287886 0.899550 0.893793
O O7 0.000000 0.912358 0.780826
O O8 0.273697 0.000000 0.749480
O O9 0.273618 0.824361 0.500000
O O10 0.000000 0.795903 0.384036
O O11 0.500000 0.414729 0.171874
O O12 0.227201 0.500000 0.130647
O O13 0.219157 0.350326 0.098036
O O14 0.212966 0.781701 0.000000
O O15 0.000000 0.898320 0.000000
O O16 0.500000 0.300445 0.000000
#
# Coordination Sequence:
#
# PCOD9383068 Si02
#       6
#     8   8   8   8   4   4
#     4   9  17  29  46  67  90 117 148 182 219 259
#     4   9  17  29  46  68  91 115 147 185 221 258
#     4   9  17  29  46  67  90 117 148 182 219 259
#     4   9  17  29  46  68  91 115 147 185 221 258
#     4  10  19  31  49  69  89 116 148 182 220 262
#     4  10  19  31  49  69  89 116 148 182 220 262
#
# _framework density 23.150169000000002
#
# number of rings (size 3 to 8) (size 9 to 14) (size 15 to 20)
#    0.000    2.800    0.000    1.800    0.000    3.200 
#    0.000    4.000    0.000    6.000    0.000    5.600 
#    0.000    0.000    0.000    0.000    0.000    0.000 
#
# Total GULP energy -223496.636435 kJ/mol
# GULP energy per Si atom -5587.415911 kJ/mol
# Density = 2.309748 g / cm^3
# Si number density = 23.150169 Si / 1000 Ang^3
#
#
#
# Elastic Constant Matrix: (Units=GPa)
#
#
# Indices 1 2 3 4 5 6 
#
# 1 94.6732 -8.9468 3.9749 0.0000 0.0000 0.0000
# 2 -8.9468 73.3482 21.3401 0.0000 0.0000 0.0000
# 3 3.9749 21.3401 112.8888 0.0000 0.0000 0.0000
# 4 0.0000 0.0000 0.0000 -67.1383 0.0000 0.0000
# 5 0.0000 0.0000 0.0000 0.0000 -11.9979 0.0000
# 6 0.0000 0.0000 0.0000 0.0000 0.0000 10.8292
#
#
#
# Elastic Compliance Matrix: (Units=1/GPa)
#
#
# Indices 1 2 3 4 5 6 
#
# 1 0.010732 0.001502 -0.000662 0.000000 0.000000 0.000000
# 2 0.001502 0.014637 -0.002820 0.000000 0.000000 0.000000
# 3 -0.000662 -0.002820 0.009415 0.000000 0.000000 0.000000
# 4 0.000000 0.000000 0.000000 -0.014895 0.000000 0.000000
# 5 0.000000 0.000000 0.000000 0.000000 -0.083348 0.000000
# 6 0.000000 0.000000 0.000000 0.000000 0.000000 0.092343
#
#
# Mechanical properties :
#
#
# Convention : Reuss Voigt Hill
#
# Bulk Modulus (GPa) = 32.44201 34.84961 33.64581
# Shear Modulus (GPa) = 115.95744 3.97474 59.96609
#
# Velocity S-wave (km/s) = 7.08505 1.31174 5.09503
# Velocity P-wave (km/s) = 8.99860 4.16901 7.01268
#
# Compressibility (1/GPa) = 0.03082424
#
# Stress axis : x y z
#
# Youngs Moduli (GPa) = 93.17628 68.31918 106.21773
#
# Poissons Ratio (x) = -0.10259 0.07029
# Poissons Ratio (y) = -0.13992 0.29952
# Poissons Ratio (z) = 0.06166 0.19265
#
# Static dielectric constant tensor:
#      x y z
#    x 1.891550 0.000000 0.000000 
#    y 0.000000 1.790280 0.000000 
#    z 0.000000 0.000000 1.856320 
# 
# From -- ./inp_files/15106.got.cif
#   From: 2010.05.17/outbox.cif.g08.bks.cpg/sg47_8_cif.got.tgz:15106.got - 2010.06.03 20:15:42.
