data_PCOD9383471
_publ_section_title
;
Structure prediction by ZEFSAII (Michael W. Deem and Ramdas Pophale) SiO2 
 PCOD9383471
Probable space group: P M M M
;
_chemical_formula_sum "Si O2"
_cell_formula_units_Z 44
_cell_length_a 7.457596
_cell_length_b 8.155881
_cell_length_c 32.598424
_cell_angle_alpha 90.000000
_cell_angle_beta 90.000000
_cell_angle_gamma 90.000000
_cell_volume 1982.742599
_symmetry_space_group_name_H-M "P M M M"
_symmetry_group_IT_number 47
_symmetry_cell_setting 'orthorhombic'
loop_
_space_group_symop_operation_xyz
x,y,z
-x,-y,z
x,-y,-z
-x,y,-z
-x,-y,-z
x,y,-z
-x,y,z
x,-y,z
loop_
_atom_site_type_symbol
_atom_site_label
_atom_site_fract_x
_atom_site_fract_y
_atom_site_fract_z
Si Si1 0.284452 0.806238 0.543985
Si Si2 0.716701 0.316101 0.088070
Si Si3 0.790676 0.188389 0.635370
Si Si4 0.780270 0.500000 0.686117
Si Si5 0.718497 0.189888 0.000000
Si Si6 0.210490 0.176018 0.173696
Si Si7 0.780551 0.500000 0.218601
O O1 0.222383 0.735830 0.500000
O O2 0.500000 0.793364 0.544436
O O3 0.220580 0.749021 0.588237
O O4 0.238212 0.000000 0.543286
O O5 0.500000 0.313169 0.087260
O O6 0.776273 0.500000 0.098203
O O7 0.778951 0.269715 0.042528
O O8 0.774365 0.199827 0.124814
O O9 0.716705 0.332739 0.664015
O O10 0.000000 0.173153 0.645711
O O11 0.716172 0.000000 0.637649
O O12 0.732140 0.500000 0.733799
O O13 0.000000 0.500000 0.683464
O O14 0.500000 0.200136 0.000000
O O15 0.767696 0.000000 0.000000
O O16 0.285097 0.336612 0.195749
O O17 0.000000 0.171914 0.183950
O O18 0.288663 0.000000 0.185505
O O19 0.000000 0.500000 0.216185
#
# Coordination Sequence:
#
# PCOD9383471 Si02
#       7
#     8   8   8   4   4   8   4
#     4   8  14  26  45  68  95 129 165 197 233 281
#     4  10  19  32  52  76 103 136 171 206 247 295
#     4   9  17  29  47  71  96 123 158 199 241 284
#     4   9  18  32  50  72  98 125 156 199 247 292
#     4   9  17  29  46  71 102 135 172 209 243 286
#     4  10  20  34  54  78 102 131 167 206 251 301
#     4   9  18  34  53  73  99 127 159 203 249 298
#
# _framework density 22.191483000000002
#
# number of rings (size 3 to 8) (size 9 to 14) (size 15 to 20)
#    0.000    2.818    0.909    1.364    0.000    3.273 
#    0.000    6.818    0.000    7.636    0.000    2.545 
#    0.000    0.000    0.000    0.000    0.000    0.000 
#
# Total GULP energy -245462.713034 kJ/mol
# GULP energy per Si atom -5578.698024 kJ/mol
# Density = 2.214097 g / cm^3
# Si number density = 22.191483 Si / 1000 Ang^3
#
#
#
# Elastic Constant Matrix: (Units=GPa)
#
#
# Indices 1 2 3 4 5 6 
#
# 1 62.8011 9.3367 -4.1410 0.0000 0.0000 0.0000
# 2 9.3367 164.6550 89.4355 0.0000 0.0000 0.0000
# 3 -4.1410 89.4355 152.5246 0.0000 0.0000 0.0000
# 4 0.0000 0.0000 0.0000 -14.1410 0.0000 0.0000
# 5 0.0000 0.0000 0.0000 0.0000 6.0070 0.0000
# 6 0.0000 0.0000 0.0000 0.0000 0.0000 -0.9138
#
#
#
# Elastic Compliance Matrix: (Units=1/GPa)
#
#
# Indices 1 2 3 4 5 6 
#
# 1 0.016272 -0.001706 0.001442 0.000000 0.000000 0.000000
# 2 -0.001706 0.009091 -0.005377 0.000000 0.000000 0.000000
# 3 0.001442 -0.005377 0.009748 0.000000 0.000000 0.000000
# 4 0.000000 0.000000 0.000000 -0.070716 0.000000 0.000000
# 5 0.000000 0.000000 0.000000 0.000000 0.166473 0.000000
# 6 0.000000 0.000000 0.000000 0.000000 0.000000 -1.094385
#
#
# Mechanical properties :
#
#
# Convention : Reuss Voigt Hill
#
# Bulk Modulus (GPa) = 41.96470 63.24925 52.60698
# Shear Modulus (GPa) = -5.29497 17.21372 5.95938
#
# Velocity S-wave (km/s) = -1.54636 2.78814 1.64051
# Velocity P-wave (km/s) = 3.97027 6.23927 5.22932
#
# Compressibility (1/GPa) = 0.02382955
#
# Stress axis : x y z
#
# Youngs Moduli (GPa) = 61.45515 110.00489 102.58310
#
# Poissons Ratio (x) = 0.18767 -0.14794
# Poissons Ratio (y) = 0.10484 0.55156
# Poissons Ratio (z) = -0.08863 0.59146
#
# Static dielectric constant tensor:
#      x y z
#    x 1.849930 0.000000 0.000000 
#    y 0.000000 1.821250 0.000000 
#    z 0.000000 0.000000 1.791600 
# 
# From -- ./inp_files/33989.got.cif
#   From: 2010.05.17/outbox.cif.g08.bks.cpg/sg47_17_cif.got.tgz:33989.got - 2010.06.03 20:15:42.
