data_PCOD9383398
_publ_section_title
;
Structure prediction by ZEFSAII (Michael W. Deem and Ramdas Pophale) SiO2 
 PCOD9383398
Probable space group: P M M M
;
_chemical_formula_sum "Si O2"
_cell_formula_units_Z 52
_cell_length_a 8.798373
_cell_length_b 23.971222
_cell_length_c 14.839598
_cell_angle_alpha 90.000000
_cell_angle_beta 90.000000
_cell_angle_gamma 90.000000
_cell_volume 3129.786261
_symmetry_space_group_name_H-M "P M M M"
_symmetry_group_IT_number 47
_symmetry_cell_setting 'orthorhombic'
loop_
_space_group_symop_operation_xyz
x,y,z
-x,-y,z
x,-y,-z
-x,y,-z
-x,-y,-z
x,y,-z
-x,y,z
x,-y,z
loop_
_atom_site_type_symbol
_atom_site_label
_atom_site_fract_x
_atom_site_fract_y
_atom_site_fract_z
Si Si1 0.683343 0.392552 0.099806
Si Si2 0.816809 0.333183 0.395550
Si Si3 0.683695 0.561896 0.290659
Si Si4 0.816562 0.221042 0.288562
Si Si5 0.824989 0.000000 0.390684
Si Si6 0.183007 0.731407 0.899395
Si Si7 0.318281 0.882696 0.394854
O O1 0.500000 0.390787 0.099871
O O2 0.729917 0.428133 0.186385
O O3 0.745397 0.329875 0.111697
O O4 0.731828 0.412446 0.000000
O O5 0.771398 0.329117 0.500000
O O6 0.749441 0.388085 0.349532
O O7 0.771259 0.277420 0.341759
O O8 0.000000 0.336417 0.391333
O O9 0.500000 0.564317 0.294504
O O10 0.731512 0.500000 0.320166
O O11 0.771931 0.230084 0.184306
O O12 0.745297 0.167465 0.335393
O O13 0.000000 0.216565 0.293489
O O14 0.744174 0.057306 0.363358
O O15 0.820793 0.000000 0.500000
O O16 0.000000 0.000000 0.361981
O O17 0.000000 0.725190 0.895398
O O18 0.223199 0.751703 0.000000
O O19 0.271344 0.874610 0.500000
O O20 0.500000 0.883411 0.392196
#
# Coordination Sequence:
#
# PCOD9383398 Si02
#       7
#     8   8   8   8   4   8   8
#     4   9  17  30  49  71  94 120 150 189 241 299
#     4  10  21  36  52  70  93 123 161 205 249 292
#     4  10  21  35  50  69  93 122 158 199 244 298
#     4  10  19  32  51  74 100 129 162 201 244 293
#     4   9  17  31  51  73 102 141 178 209 243 284
#     4   9  17  30  50  74  98 124 155 195 244 294
#     4  10  20  32  48  74 107 140 173 208 243 281
#
# _framework density 16.614553000000001
#
# number of rings (size 3 to 8) (size 9 to 14) (size 15 to 20)
#    0.000    2.385    1.538    1.154    0.000    4.923 
#    0.000    3.077    0.000    0.000    0.000    3.769 
#    0.000    4.308    0.000    0.000    0.000    0.000 
#
# Total GULP energy -289975.309081 kJ/mol
# GULP energy per Si atom -5576.448252 kJ/mol
# Density = 1.657674 g / cm^3
# Si number density = 16.614553 Si / 1000 Ang^3
#
#
#
# Elastic Constant Matrix: (Units=GPa)
#
#
# Indices 1 2 3 4 5 6 
#
# 1 14.4767 31.9334 27.9831 0.0000 0.0000 0.0000
# 2 31.9334 140.3283 71.8750 0.0000 0.0000 0.0000
# 3 27.9831 71.8750 110.3547 0.0000 0.0000 0.0000
# 4 0.0000 0.0000 0.0000 23.4779 0.0000 0.0000
# 5 0.0000 0.0000 0.0000 0.0000 20.5860 0.0000
# 6 0.0000 0.0000 0.0000 0.0000 0.0000 28.8517
#
#
#
# Elastic Compliance Matrix: (Units=1/GPa)
#
#
# Indices 1 2 3 4 5 6 
#
# 1 0.186165 -0.027289 -0.029433 0.000000 0.000000 0.000000
# 2 -0.027289 0.014693 -0.002650 0.000000 0.000000 0.000000
# 3 -0.029433 -0.002650 0.018251 0.000000 0.000000 0.000000
# 4 0.000000 0.000000 0.000000 0.042593 0.000000 0.000000
# 5 0.000000 0.000000 0.000000 0.000000 0.048577 0.000000
# 6 0.000000 0.000000 0.000000 0.000000 0.000000 0.034660
#
#
# Mechanical properties :
#
#
# Convention : Reuss Voigt Hill
#
# Bulk Modulus (GPa) = 9.96357 58.74919 34.35638
# Shear Modulus (GPa) = 10.05752 23.47433 16.76593
#
# Velocity S-wave (km/s) = 2.46304 3.76290 3.18010
# Velocity P-wave (km/s) = 3.75482 7.36995 5.84871
#
# Compressibility (1/GPa) = 0.10036562
#
# Stress axis : x y z
#
# Youngs Moduli (GPa) = 5.37156 68.05746 54.79027
#
# Poissons Ratio (x) = 1.85720 1.61267
# Poissons Ratio (y) = 0.14658 0.14521
# Poissons Ratio (z) = 0.15810 0.18037
#
# Static dielectric constant tensor:
#      x y z
#    x 1.563280 0.000000 0.000000 
#    y 0.000000 1.527180 0.000000 
#    z 0.000000 0.000000 1.578270 
# 
# From -- ./inp_files/7083.got.cif
#   From: 2010.05.17/outbox.cif.g08.bks.cpg/sg47_4_cif.got.tgz:7083.got - 2010.06.03 20:15:42.
