data_PCOD9383621
_publ_section_title
;
Structure prediction by ZEFSAII (Michael W. Deem and Ramdas Pophale) SiO2 
 PCOD9383621
Probable space group: P M M M
;
_chemical_formula_sum "Si O2"
_cell_formula_units_Z 56
_cell_length_a 15.473593
_cell_length_b 22.806146
_cell_length_c 8.664336
_cell_angle_alpha 90.000000
_cell_angle_beta 90.000000
_cell_angle_gamma 90.000000
_cell_volume 3057.583707
_symmetry_space_group_name_H-M "P M M M"
_symmetry_group_IT_number 47
_symmetry_cell_setting 'orthorhombic'
loop_
_space_group_symop_operation_xyz
x,y,z
-x,-y,z
x,-y,-z
-x,y,-z
-x,-y,-z
x,y,-z
-x,y,z
x,-y,z
loop_
_atom_site_type_symbol
_atom_site_label
_atom_site_fract_x
_atom_site_fract_y
_atom_site_fract_z
Si Si1 0.326088 0.379332 0.682257
Si Si2 0.000000 0.431735 0.685430
Si Si3 0.397133 0.500000 0.816526
Si Si4 0.597767 0.067723 0.811990
Si Si5 0.097675 0.783194 0.684955
Si Si6 0.141802 0.345213 0.816388
Si Si7 0.595811 0.268638 0.816347
Si Si8 0.270409 0.167321 0.186552
O O1 0.311381 0.381202 0.500000
O O2 0.356953 0.441955 0.742653
O O3 0.238994 0.359539 0.767604
O O4 0.394261 0.329014 0.725926
O O5 0.918167 0.396532 0.749815
O O6 0.000000 0.500000 0.731263
O O7 0.000000 0.428816 0.500000
O O8 0.500000 0.500000 0.790935
O O9 0.381294 0.500000 0.000000
O O10 0.500000 0.084882 0.763298
O O11 0.673867 0.111066 0.761356
O O12 0.611813 0.000000 0.767222
O O13 0.597346 0.069747 0.000000
O O14 0.102024 0.781426 0.500000
O O15 0.113975 0.717495 0.747831
O O16 0.174980 0.823774 0.747057
O O17 0.000000 0.801173 0.730085
O O18 0.133681 0.342517 0.000000
O O19 0.500000 0.243041 0.793025
O O20 0.670749 0.223582 0.771113
O O21 0.604859 0.280304 0.000000
O O22 0.264671 0.166131 0.000000
#
# Coordination Sequence:
#
# PCOD9383621 Si02
#       8
#     8   4   4   8   8   8   8   8
#     4  12  25  40  59  82 112 146 186 234 286 342
#     4  11  25  43  63  87 117 147 182 229 289 352
#     4  11  25  45  65  82 105 142 189 237 285 343
#     4   8  14  27  51  86 126 164 200 240 289 344
#     4  11  23  39  59  82 113 149 189 240 300 357
#     4  12  24  40  62  85 112 145 187 234 286 348
#     4  10  20  34  53  80 115 150 186 231 285 344
#     4  10  19  32  55  86 118 153 197 242 289 347
#
# _framework density 18.315116
#
# number of rings (size 3 to 8) (size 9 to 14) (size 15 to 20)
#    0.000    1.429    2.143    4.714    1.000    5.714 
#    0.000    0.000    0.000    2.143    0.000    4.000 
#    0.000    0.000    0.000    0.000    0.000    0.000 
#
# Total GULP energy -312883.707604 kJ/mol
# GULP energy per Si atom -5587.209064 kJ/mol
# Density = 1.827343 g / cm^3
# Si number density = 18.315116 Si / 1000 Ang^3
#
#
#
# Elastic Constant Matrix: (Units=GPa)
#
#
# Indices 1 2 3 4 5 6 
#
# 1 143.6662 68.3220 35.7199 0.0000 0.0000 0.0000
# 2 68.3220 114.7700 29.1352 0.0000 0.0000 0.0000
# 3 35.7199 29.1352 39.4341 0.0000 0.0000 0.0000
# 4 0.0000 0.0000 0.0000 -19.3409 0.0000 0.0000
# 5 0.0000 0.0000 0.0000 0.0000 49.8097 0.0000
# 6 0.0000 0.0000 0.0000 0.0000 0.0000 33.8558
#
#
#
# Elastic Compliance Matrix: (Units=1/GPa)
#
#
# Indices 1 2 3 4 5 6 
#
# 1 0.010816 -0.004864 -0.006204 0.000000 0.000000 0.000000
# 2 -0.004864 0.012912 -0.005134 0.000000 0.000000 0.000000
# 3 -0.006204 -0.005134 0.034771 0.000000 0.000000 0.000000
# 4 0.000000 0.000000 0.000000 -0.051704 0.000000 0.000000
# 5 0.000000 0.000000 0.000000 0.000000 0.020076 0.000000
# 6 0.000000 0.000000 0.000000 0.000000 0.000000 0.029537
#
#
# Mechanical properties :
#
#
# Convention : Reuss Voigt Hill
#
# Bulk Modulus (GPa) = 38.31988 62.69159 50.50573
# Shear Modulus (GPa) = 51.27655 23.84448 37.56051
#
# Velocity S-wave (km/s) = 5.29694 3.61210 4.53348
# Velocity P-wave (km/s) = 7.64056 7.19028 7.41884
#
# Compressibility (1/GPa) = 0.02609612
#
# Stress axis : x y z
#
# Youngs Moduli (GPa) = 92.45468 77.44846 28.75939
#
# Poissons Ratio (x) = 0.37670 0.17842
# Poissons Ratio (y) = 0.44969 0.14765
# Poissons Ratio (z) = 0.57357 0.39761
#
# Static dielectric constant tensor:
#      x y z
#    x 1.686210 0.000000 0.000000 
#    y 0.000000 1.593830 0.000000 
#    z 0.000000 0.000000 1.616430 
# 
# From -- ./inp_files/7428.got.cif
#   From: 2010.05.17/outbox.cif.g08.bks.cpg/sg47_4_cif.got.tgz:7428.got - 2010.06.03 20:15:42.
