data_PCOD9383381
_publ_section_title
;
Structure prediction by ZEFSAII (Michael W. Deem and Ramdas Pophale) SiO2 
 PCOD9383381
Probable space group: P M M M
;
_chemical_formula_sum "Si O2"
_cell_formula_units_Z 52
_cell_length_a 11.122915
_cell_length_b 30.117211
_cell_length_c 9.051193
_cell_angle_alpha 90.000000
_cell_angle_beta 90.000000
_cell_angle_gamma 90.000000
_cell_volume 3032.069805
_symmetry_space_group_name_H-M "P M M M"
_symmetry_group_IT_number 47
_symmetry_cell_setting 'orthorhombic'
loop_
_space_group_symop_operation_xyz
x,y,z
-x,-y,z
x,-y,-z
-x,y,-z
-x,-y,-z
x,y,-z
-x,y,z
x,-y,z
loop_
_atom_site_type_symbol
_atom_site_label
_atom_site_fract_x
_atom_site_fract_y
_atom_site_fract_z
Si Si1 0.364417 0.448306 0.679602
Si Si2 0.000000 0.052134 0.323095
Si Si3 0.145869 0.796975 0.671954
Si Si4 0.642654 0.049662 0.332966
Si Si5 0.203627 0.111572 0.173367
Si Si6 0.854645 0.293261 0.831178
Si Si7 0.140073 0.613013 0.321323
O O1 0.364527 0.446962 0.500000
O O2 0.500000 0.433289 0.726007
O O3 0.351860 0.500000 0.722645
O O4 0.246833 0.420425 0.726545
O O5 0.888810 0.078530 0.254323
O O6 0.000000 0.056124 0.500000
O O7 0.000000 0.000000 0.285570
O O8 0.179636 0.798451 0.500000
O O9 0.193228 0.839771 0.757802
O O10 0.186226 0.750917 0.746378
O O11 0.000000 0.798829 0.679344
O O12 0.687135 0.060247 0.500000
O O13 0.500000 0.046638 0.341817
O O14 0.674005 0.087229 0.216335
O O15 0.688641 0.000000 0.294981
O O16 0.180342 0.113317 0.000000
O O17 0.829664 0.338755 0.745129
O O18 0.000000 0.290359 0.836278
O O19 0.810868 0.294566 0.000000
O O20 0.141237 0.615128 0.500000
O O21 0.000000 0.601746 0.279257
#
# Coordination Sequence:
#
# PCOD9383381 Si02
#       7
#     8   4   8   8   8   8   8
#     4   8  14  25  42  66  97 132 168 206 248 294
#     4  11  23  37  51  69  99 137 171 201 238 291
#     4  10  19  32  51  72  98 131 166 200 240 295
#     4   9  19  37  58  75  93 124 166 205 241 289
#     4  12  23  33  50  76 105 131 159 200 250 299
#     4   9  17  29  46  68  96 126 157 197 246 294
#     4   9  16  26  43  69  97 124 161 207 252 296
#
# _framework density 17.149999999999999
#
# number of rings (size 3 to 8) (size 9 to 14) (size 15 to 20)
#    0.000    2.385    0.769    3.923    0.000    5.846 
#    0.000    2.308    0.000    1.846    0.000    5.385 
#    0.000    0.000    0.000    0.000    0.000    0.000 
#
# Total GULP energy -289666.790235 kJ/mol
# GULP energy per Si atom -5570.515197 kJ/mol
# Density = 1.711097 g / cm^3
# Si number density = 17.150000 Si / 1000 Ang^3
#
#
#
# Elastic Constant Matrix: (Units=GPa)
#
#
# Indices 1 2 3 4 5 6 
#
# 1 72.2441 61.3054 29.2527 0.0000 0.0000 0.0000
# 2 61.3054 137.2937 52.9048 0.0000 0.0000 0.0000
# 3 29.2527 52.9048 69.4676 0.0000 0.0000 0.0000
# 4 0.0000 0.0000 0.0000 -10.8347 0.0000 0.0000
# 5 0.0000 0.0000 0.0000 0.0000 11.0381 0.0000
# 6 0.0000 0.0000 0.0000 0.0000 0.0000 -75.2882
#
#
#
# Elastic Compliance Matrix: (Units=1/GPa)
#
#
# Indices 1 2 3 4 5 6 
#
# 1 0.022612 -0.009098 -0.002593 0.000000 0.000000 0.000000
# 2 -0.009098 0.013969 -0.006808 0.000000 0.000000 0.000000
# 3 -0.002593 -0.006808 0.020672 0.000000 0.000000 0.000000
# 4 0.000000 0.000000 0.000000 -0.092296 0.000000 0.000000
# 5 0.000000 0.000000 0.000000 0.000000 0.090595 0.000000
# 6 0.000000 0.000000 0.000000 0.000000 0.000000 -0.013282
#
#
# Mechanical properties :
#
#
# Convention : Reuss Voigt Hill
#
# Bulk Modulus (GPa) = 49.36840 62.88124 56.12482
# Shear Modulus (GPa) = 58.12614 -5.98079 26.07267
#
# Velocity S-wave (km/s) = 5.82807 -1.86947 3.90330
# Velocity P-wave (km/s) = 8.61030 5.66438 7.28774
#
# Compressibility (1/GPa) = 0.02025587
#
# Stress axis : x y z
#
# Youngs Moduli (GPa) = 44.22398 71.58583 48.37502
#
# Poissons Ratio (x) = 0.65126 0.12546
# Poissons Ratio (y) = 0.40233 0.32932
# Poissons Ratio (z) = 0.11469 0.48733
#
# Static dielectric constant tensor:
#      x y z
#    x 1.686050 0.000000 0.000000 
#    y 0.000000 1.563420 0.000000 
#    z 0.000000 0.000000 1.577880 
# 
# From -- ./inp_files/4550.got.cif
#   From: 2010.05.17/outbox.cif.g08.bks.cpg/sg47_3_cif.got.tgz:4550.got - 2010.06.03 20:15:42.
