data_PCOD9383038
_publ_section_title
;
Structure prediction by ZEFSAII (Michael W. Deem and Ramdas Pophale) SiO2 
 PCOD9383038
Probable space group: P M M M
;
_chemical_formula_sum "Si O2"
_cell_formula_units_Z 56
_cell_length_a 19.770310
_cell_length_b 19.453350
_cell_length_c 7.918628
_cell_angle_alpha 90.000000
_cell_angle_beta 90.000000
_cell_angle_gamma 90.000000
_cell_volume 3045.494510
_symmetry_space_group_name_H-M "P M M M"
_symmetry_group_IT_number 47
_symmetry_cell_setting 'orthorhombic'
loop_
_space_group_symop_operation_xyz
x,y,z
-x,-y,z
x,-y,-z
-x,y,-z
-x,-y,-z
x,y,-z
-x,y,z
x,-y,z
loop_
_atom_site_type_symbol
_atom_site_label
_atom_site_fract_x
_atom_site_fract_y
_atom_site_fract_z
Si Si1 0.918694 0.573609 0.194043
Si Si2 0.216954 0.716331 0.297753
Si Si3 0.075415 0.276711 0.306418
Si Si4 0.715599 0.423606 0.297851
Si Si5 0.575812 0.356013 0.204671
Si Si6 0.354548 0.783001 0.799687
Si Si7 0.422274 0.924100 0.703475
O O1 0.892724 0.500000 0.258981
O O2 0.909562 0.641230 0.302980
O O3 0.000000 0.568144 0.185585
O O4 0.895737 0.583416 0.000000
O O5 0.208506 0.710217 0.500000
O O6 0.146402 0.747094 0.227577
O O7 0.239644 0.640548 0.231322
O O8 0.280577 0.765112 0.267830
O O9 0.071056 0.252925 0.500000
O O10 0.000000 0.266119 0.230148
O O11 0.725188 0.425099 0.500000
O O12 0.730183 0.500000 0.230183
O O13 0.637339 0.403801 0.264323
O O14 0.500000 0.374080 0.261920
O O15 0.595481 0.278286 0.260412
O O16 0.575804 0.357926 0.000000
O O17 0.379734 0.858513 0.756416
O O18 0.351924 0.776526 0.000000
O O19 0.423170 0.925151 0.500000
O O20 0.500000 0.915500 0.761425
O O21 0.398711 0.000000 0.760604
#
# Coordination Sequence:
#
# PCOD9383038 Si02
#       7
#     8   8   8   8   8   8   8
#     4   8  14  24  36  51  74 103 132 165 213 274
#     4   9  18  32  47  62  85 118 151 185 231 284
#     4   9  17  28  43  63  83 104 137 184 232 275
#     4   9  18  31  44  58  78 107 145 187 229 274
#     4   9  18  31  45  62  84 110 142 182 228 271
#     4  10  19  31  48  69  94 123 156 191 223 260
#     4   9  18  32  50  74 104 135 162 185 213 253
#
# _framework density 18.387817999999999
#
# number of rings (size 3 to 8) (size 9 to 14) (size 15 to 20)
#    0.000    3.000    0.000    1.714    0.000    4.000 
#    0.000    5.000    0.000    0.000    0.000    0.000 
#    0.000    0.571    0.000    6.571    0.000    1.857 
#
# Total GULP energy -311842.478128 kJ/mol
# GULP energy per Si atom -5568.615681 kJ/mol
# Density = 1.834597 g / cm^3
# Si number density = 18.387818 Si / 1000 Ang^3
#
#
#
# Elastic Constant Matrix: (Units=GPa)
#
#
# Indices 1 2 3 4 5 6 
#
# 1 138.5771 37.0953 4.3515 0.0000 0.0000 0.0000
# 2 37.0953 74.2964 2.6087 0.0000 0.0000 0.0000
# 3 4.3515 2.6087 21.4071 0.0000 0.0000 0.0000
# 4 0.0000 0.0000 0.0000 25.7966 0.0000 0.0000
# 5 0.0000 0.0000 0.0000 0.0000 6.4665 0.0000
# 6 0.0000 0.0000 0.0000 0.0000 0.0000 6.7896
#
#
#
# Elastic Compliance Matrix: (Units=1/GPa)
#
#
# Indices 1 2 3 4 5 6 
#
# 1 0.008360 -0.004132 -0.001196 0.000000 0.000000 0.000000
# 2 -0.004132 0.015560 -0.001056 0.000000 0.000000 0.000000
# 3 -0.001196 -0.001056 0.047085 0.000000 0.000000 0.000000
# 4 0.000000 0.000000 0.000000 0.038765 0.000000 0.000000
# 5 0.000000 0.000000 0.000000 0.000000 0.154644 0.000000
# 6 0.000000 0.000000 0.000000 0.000000 0.000000 0.147284
#
#
# Mechanical properties :
#
#
# Convention : Reuss Voigt Hill
#
# Bulk Modulus (GPa) = 17.17127 35.82128 26.49627
# Shear Modulus (GPa) = 11.26437 20.49221 15.87829
#
# Velocity S-wave (km/s) = 2.47776 3.34195 2.94176
# Velocity P-wave (km/s) = 4.18860 5.86641 5.09702
#
# Compressibility (1/GPa) = 0.05823683
#
# Stress axis : x y z
#
# Youngs Moduli (GPa) = 119.61979 64.26846 21.23809
#
# Poissons Ratio (x) = 0.26556 0.02540
# Poissons Ratio (y) = 0.49427 0.02243
# Poissons Ratio (z) = 0.14304 0.06788
#
# Static dielectric constant tensor:
#      x y z
#    x 1.701920 0.000000 0.000000 
#    y 0.000000 1.642180 0.000000 
#    z 0.000000 0.000000 1.662560 
# 
# From -- ./inp_files/9825.got.cif
#   From: 2010.05.17/outbox.cif.g08.bks.cpg/sg47_5_cif.got.tgz:9825.got - 2010.06.03 20:15:42.
