data_PCOD9383856
_publ_section_title
;
Structure prediction by ZEFSAII (Michael W. Deem and Ramdas Pophale) SiO2 
 PCOD9383856
Probable space group: P M M M
;
_chemical_formula_sum "Si O2"
_cell_formula_units_Z 64
_cell_length_a 19.907415
_cell_length_b 20.222390
_cell_length_c 8.015904
_cell_angle_alpha 90.000000
_cell_angle_beta 90.000000
_cell_angle_gamma 90.000000
_cell_volume 3227.006641
_symmetry_space_group_name_H-M "P M M M"
_symmetry_group_IT_number 47
_symmetry_cell_setting 'orthorhombic'
loop_
_space_group_symop_operation_xyz
x,y,z
-x,-y,z
x,-y,-z
-x,y,-z
-x,-y,-z
x,y,-z
-x,y,z
x,-y,z
loop_
_atom_site_type_symbol
_atom_site_label
_atom_site_fract_x
_atom_site_fract_y
_atom_site_fract_z
Si Si1 0.336180 0.693640 0.298328
Si Si2 0.194731 0.163278 0.690123
Si Si3 0.577362 0.427949 0.703556
Si Si4 0.923010 0.575324 0.200535
Si Si5 0.075591 0.078421 0.801875
Si Si6 0.818099 0.689507 0.701178
Si Si7 0.680881 0.925146 0.199087
Si Si8 0.576872 0.820901 0.798819
O O1 0.336152 0.693850 0.500000
O O2 0.380021 0.632759 0.234830
O O3 0.259579 0.681088 0.245875
O O4 0.373316 0.760618 0.244988
O O5 0.216643 0.175158 0.500000
O O6 0.131145 0.116048 0.700278
O O7 0.170664 0.234450 0.758630
O O8 0.256157 0.123714 0.771892
O O9 0.578319 0.426625 0.500000
O O10 0.500000 0.421699 0.753895
O O11 0.602781 0.500000 0.755307
O O12 0.905318 0.500000 0.258307
O O13 0.869897 0.632764 0.243867
O O14 0.000000 0.589515 0.258347
O O15 0.925205 0.572835 0.000000
O O16 0.000000 0.099462 0.760499
O O17 0.080388 0.000000 0.775483
O O18 0.086564 0.089860 0.000000
O O19 0.821269 0.688065 0.500000
O O20 0.614263 0.887459 0.262159
O O21 0.690947 0.000000 0.265348
O O22 0.674130 0.930829 0.000000
O O23 0.500000 0.812294 0.737291
O O24 0.573538 0.823819 0.000000
#
# Coordination Sequence:
#
# PCOD9383856 Si02
#       8
#     8   8   8   8   8   8   8   8
#     4  10  19  34  54  77 107 145 184 222 268 326
#     4  11  22  36  53  79 114 146 179 227 280 328
#     4   8  14  25  44  72 101 130 170 216 257 301
#     4   9  20  40  63  86 113 147 189 233 275 323
#     4   9  19  36  56  78 105 139 181 224 266 323
#     4  10  22  36  53  81 114 145 183 226 269 321
#     4  10  21  37  57  79 104 141 187 231 281 341
#     4  10  21  36  55  80 108 140 180 229 285 338
#
# _framework density 19.832622000000001
#
# number of rings (size 3 to 8) (size 9 to 14) (size 15 to 20)
#    0.000    2.375    1.250    2.250    0.000    6.250 
#    0.000    6.250    0.000    0.375    0.000    3.500 
#    0.000    0.000    0.000    0.000    0.000    0.000 
#
# Total GULP energy -356749.006615 kJ/mol
# GULP energy per Si atom -5574.203228 kJ/mol
# Density = 1.978748 g / cm^3
# Si number density = 19.832622 Si / 1000 Ang^3
#
#
#
# Elastic Constant Matrix: (Units=GPa)
#
#
# Indices 1 2 3 4 5 6 
#
# 1 128.3104 90.7174 18.1103 0.0000 0.0000 0.0000
# 2 90.7174 143.3914 18.3860 0.0000 0.0000 0.0000
# 3 18.1103 18.3860 10.9605 0.0000 0.0000 0.0000
# 4 0.0000 0.0000 0.0000 16.8505 0.0000 0.0000
# 5 0.0000 0.0000 0.0000 0.0000 3.0564 0.0000
# 6 0.0000 0.0000 0.0000 0.0000 0.0000 41.7921
#
#
#
# Elastic Compliance Matrix: (Units=1/GPa)
#
#
# Indices 1 2 3 4 5 6 
#
# 1 0.015143 -0.008118 -0.011403 0.000000 0.000000 0.000000
# 2 -0.008118 0.013237 -0.008791 0.000000 0.000000 0.000000
# 3 -0.011403 -0.008791 0.124825 0.000000 0.000000 0.000000
# 4 0.000000 0.000000 0.000000 0.059346 0.000000 0.000000
# 5 0.000000 0.000000 0.000000 0.000000 0.327187 0.000000
# 6 0.000000 0.000000 0.000000 0.000000 0.000000 0.023928
#
#
# Mechanical properties :
#
#
# Convention : Reuss Voigt Hill
#
# Bulk Modulus (GPa) = 10.35404 59.67663 35.01533
# Shear Modulus (GPa) = 7.66303 22.70301 15.18302
#
# Velocity S-wave (km/s) = 1.96780 3.38706 2.76987
# Velocity P-wave (km/s) = 3.22413 6.74179 5.28425
#
# Compressibility (1/GPa) = 0.09658070
#
# Stress axis : x y z
#
# Youngs Moduli (GPa) = 66.03914 75.54561 8.01120
#
# Poissons Ratio (x) = 0.61327 0.09135
# Poissons Ratio (y) = 0.53610 0.07043
# Poissons Ratio (z) = 0.75302 0.66415
#
# Static dielectric constant tensor:
#      x y z
#    x 1.686910 0.000000 0.000000 
#    y 0.000000 1.715220 0.000000 
#    z 0.000000 0.000000 1.732680 
# 
# From -- ./inp_files/11643.got.cif
#   From: 2010.05.17/outbox.cif.g08.bks.cpg/sg47_6_cif.got.tgz:11643.got - 2010.06.03 20:15:42.
