data_PCOD9383826
_publ_section_title
;
Structure prediction by ZEFSAII (Michael W. Deem and Ramdas Pophale) SiO2 
 PCOD9383826
Probable space group: P M M M
;
_chemical_formula_sum "Si O2"
_cell_formula_units_Z 56
_cell_length_a 16.057899
_cell_length_b 9.885162
_cell_length_c 19.015196
_cell_angle_alpha 90.000000
_cell_angle_beta 90.000000
_cell_angle_gamma 90.000000
_cell_volume 3018.375863
_symmetry_space_group_name_H-M "P M M M"
_symmetry_group_IT_number 47
_symmetry_cell_setting 'orthorhombic'
loop_
_space_group_symop_operation_xyz
x,y,z
-x,-y,z
x,-y,-z
-x,y,-z
-x,-y,-z
x,y,-z
-x,y,z
x,-y,z
loop_
_atom_site_type_symbol
_atom_site_label
_atom_site_fract_x
_atom_site_fract_y
_atom_site_fract_z
Si Si1 0.099002 0.000000 0.420462
Si Si2 0.846834 0.752830 0.675170
Si Si3 0.595167 0.340356 0.174056
Si Si4 0.754172 0.336182 0.079990
Si Si5 0.907621 0.662832 0.177653
Si Si6 0.339905 0.162619 0.300119
Si Si7 0.898658 0.500000 0.415835
Si Si8 0.600269 0.649505 0.580791
O O1 0.125540 0.126372 0.374476
O O2 0.133819 0.000000 0.500000
O O3 0.000000 0.000000 0.426395
O O4 0.899819 0.727391 0.745352
O O5 0.755118 0.786731 0.703461
O O6 0.857454 0.625513 0.624038
O O7 0.500000 0.327306 0.148433
O O8 0.606721 0.500000 0.194084
O O9 0.666366 0.305854 0.117434
O O10 0.609489 0.241277 0.239714
O O11 0.759278 0.500000 0.077364
O O12 0.832486 0.291183 0.127310
O O13 0.757955 0.285837 0.000000
O O14 0.899219 0.500000 0.186905
O O15 0.000000 0.689078 0.148330
O O16 0.370787 0.225097 0.373491
O O17 0.345994 0.000000 0.295959
O O18 0.884559 0.500000 0.500000
O O19 0.000000 0.500000 0.405416
O O20 0.627929 0.660629 0.500000
O O21 0.500000 0.647908 0.581424
O O22 0.627854 0.500000 0.607775
#
# Coordination Sequence:
#
# PCOD9383826 Si02
#       8
#     4   8   8   8   8   8   4   8
#     4  11  24  42  60  80 116 160 199 248 306 360
#     4  12  23  39  58  86 116 154 204 249 300 358
#     4  10  21  38  63  91 119 155 199 246 301 360
#     4   9  18  33  56  89 129 162 191 237 297 358
#     4  10  19  33  58  89 121 157 199 244 294 356
#     4  12  25  39  56  84 119 155 198 251 301 361
#     4  11  24  40  60  86 114 152 205 258 308 362
#     4   9  20  39  61  84 111 148 194 243 299 360
#
# _framework density 18.553023
#
# number of rings (size 3 to 8) (size 9 to 14) (size 15 to 20)
#    0.000    1.571    2.857    3.000    2.000    5.429 
#    0.000    3.571    0.000    0.429    0.000    1.000 
#    0.000    2.857    0.000    0.000    0.000    0.000 
#
# Total GULP energy -312440.682587 kJ/mol
# GULP energy per Si atom -5579.297903 kJ/mol
# Density = 1.851080 g / cm^3
# Si number density = 18.553023 Si / 1000 Ang^3
#
#
#
# Elastic Constant Matrix: (Units=GPa)
#
#
# Indices 1 2 3 4 5 6 
#
# 1 113.0470 33.8028 53.9942 0.0000 0.0000 0.0000
# 2 33.8028 105.0211 44.2051 0.0000 0.0000 0.0000
# 3 53.9942 44.2051 115.9598 0.0000 0.0000 0.0000
# 4 0.0000 0.0000 0.0000 12.8357 0.0000 0.0000
# 5 0.0000 0.0000 0.0000 0.0000 16.1598 0.0000
# 6 0.0000 0.0000 0.0000 0.0000 0.0000 -0.4467
#
#
#
# Elastic Compliance Matrix: (Units=1/GPa)
#
#
# Indices 1 2 3 4 5 6 
#
# 1 0.011638 -0.001745 -0.004754 0.000000 0.000000 0.000000
# 2 -0.001745 0.011603 -0.003611 0.000000 0.000000 0.000000
# 3 -0.004754 -0.003611 0.012214 0.000000 0.000000 0.000000
# 4 0.000000 0.000000 0.000000 0.077908 0.000000 0.000000
# 5 0.000000 0.000000 0.000000 0.000000 0.061882 0.000000
# 6 0.000000 0.000000 0.000000 0.000000 0.000000 -2.238635
#
#
# Mechanical properties :
#
#
# Convention : Reuss Voigt Hill
#
# Bulk Modulus (GPa) = 65.63420 66.44801 66.04110
# Shear Modulus (GPa) = -2.45328 19.17815 8.36244
#
# Velocity S-wave (km/s) = -1.15116 3.21860 2.12535
# Velocity P-wave (km/s) = 5.80400 7.05021 6.45724
#
# Compressibility (1/GPa) = 0.01523596
#
# Stress axis : x y z
#
# Youngs Moduli (GPa) = 85.92373 86.18156 81.87518
#
# Poissons Ratio (x) = 0.15038 0.38923
# Poissons Ratio (y) = 0.14993 0.29564
# Poissons Ratio (z) = 0.40847 0.31119
#
# Static dielectric constant tensor:
#      x y z
#    x 1.635480 0.000000 0.000000 
#    y 0.000000 1.605570 0.000000 
#    z 0.000000 0.000000 1.631660 
# 
# From -- ./inp_files/31015.got.cif
#   From: 2010.05.17/outbox.cif.g08.bks.cpg/sg47_16_cif.got.tgz:31015.got - 2010.06.03 20:15:42.
