data_PCOD9383137
_publ_section_title
;
Structure prediction by ZEFSAII (Michael W. Deem and Ramdas Pophale) SiO2 
 PCOD9383137
Probable space group: P M M M
;
_chemical_formula_sum "Si O2"
_cell_formula_units_Z 28
_cell_length_a 12.069724
_cell_length_b 8.060685
_cell_length_c 17.136778
_cell_angle_alpha 90.000000
_cell_angle_beta 90.000000
_cell_angle_gamma 90.000000
_cell_volume 1667.241299
_symmetry_space_group_name_H-M "P M M M"
_symmetry_group_IT_number 47
_symmetry_cell_setting 'orthorhombic'
loop_
_space_group_symop_operation_xyz
x,y,z
-x,-y,z
x,-y,-z
-x,y,-z
-x,-y,-z
x,y,-z
-x,y,z
x,-y,z
loop_
_atom_site_type_symbol
_atom_site_label
_atom_site_fract_x
_atom_site_fract_y
_atom_site_fract_z
Si Si1 0.269168 0.189988 0.149090
Si Si2 0.366296 0.000000 0.411582
Si Si3 0.367905 0.688434 0.696963
Si Si4 0.872966 0.301234 0.000000
Si Si5 0.500000 0.689686 0.908084
O O1 0.285978 0.291839 0.229060
O O2 0.187723 0.245564 0.079718
O O3 0.391374 0.211066 0.113860
O O4 0.245593 0.000000 0.169134
O O5 0.338304 0.833182 0.363883
O O6 0.500000 0.000000 0.416098
O O7 0.322846 0.000000 0.500000
O O8 0.500000 0.714796 0.718781
O O9 0.360715 0.500000 0.666852
O O10 0.870506 0.500000 0.000000
O O11 0.000000 0.243091 0.000000
O O12 0.500000 0.500000 0.874616
O O13 0.500000 0.670249 0.000000
#
# Coordination Sequence:
#
# PCOD9383137 Si02
#       5
#     8   4   8   4   4
#     4  12  22  33  52  75 103 136 177 224 264 306
#     4   9  18  32  48  71 105 140 174 209 255 320
#     4  10  19  31  49  74 105 139 177 218 259 306
#     4  11  25  42  55  70  99 141 183 222 268 319
#     4  11  21  31  47  73 100 131 174 218 265 307
#
# _framework density 16.794208999999999
#
# number of rings (size 3 to 8) (size 9 to 14) (size 15 to 20)
#    0.000    1.286    4.286    3.429    0.000    2.286 
#    0.000    2.857    0.000    0.000    0.000    0.000 
#    0.000    2.286    0.000    6.000    0.000    0.286 
#
# Total GULP energy -156035.307237 kJ/mol
# GULP energy per Si atom -5572.689544 kJ/mol
# Density = 1.675598 g / cm^3
# Si number density = 16.794209 Si / 1000 Ang^3
#
#
#
# Elastic Constant Matrix: (Units=GPa)
#
#
# Indices 1 2 3 4 5 6 
#
# 1 71.7337 19.5573 29.7531 0.0000 0.0000 0.0000
# 2 19.5573 119.7441 52.6362 0.0000 0.0000 0.0000
# 3 29.7531 52.6362 114.1548 0.0000 0.0000 0.0000
# 4 0.0000 0.0000 0.0000 11.7040 0.0000 0.0000
# 5 0.0000 0.0000 0.0000 0.0000 3.4383 0.0000
# 6 0.0000 0.0000 0.0000 0.0000 0.0000 24.6835
#
#
#
# Elastic Compliance Matrix: (Units=1/GPa)
#
#
# Indices 1 2 3 4 5 6 
#
# 1 0.015718 -0.000961 -0.003653 0.000000 0.000000 0.000000
# 2 -0.000961 0.010533 -0.004606 0.000000 0.000000 0.000000
# 3 -0.003653 -0.004606 0.011836 0.000000 0.000000 0.000000
# 4 0.000000 0.000000 0.000000 0.085441 0.000000 0.000000
# 5 0.000000 0.000000 0.000000 0.000000 0.290840 0.000000
# 6 0.000000 0.000000 0.000000 0.000000 0.000000 0.040513
#
#
# Mechanical properties :
#
#
# Convention : Reuss Voigt Hill
#
# Bulk Modulus (GPa) = 50.90279 56.61399 53.75839
# Shear Modulus (GPa) = 10.41947 21.54424 15.98186
#
# Velocity S-wave (km/s) = 2.49353 3.58556 3.08820
# Velocity P-wave (km/s) = 6.21818 7.13619 6.69294
#
# Compressibility (1/GPa) = 0.01964529
#
# Stress axis : x y z
#
# Youngs Moduli (GPa) = 63.62193 94.94111 84.48701
#
# Poissons Ratio (x) = 0.09125 0.30867
# Poissons Ratio (y) = 0.06115 0.38916
# Poissons Ratio (z) = 0.23244 0.43731
#
# Static dielectric constant tensor:
#      x y z
#    x 1.540950 0.000000 0.000000 
#    y 0.000000 1.603440 0.000000 
#    z 0.000000 0.000000 1.602110 
# 
# From -- ./inp_files/27198.got.cif
#   From: 2010.05.17/outbox.cif.g08.bks.cpg/sg47_14_cif.got.tgz:27198.got - 2010.06.03 20:15:42.
