data_PCOD9383535
_publ_section_title
;
Structure prediction by ZEFSAII (Michael W. Deem and Ramdas Pophale) SiO2 
 PCOD9383535
Probable space group: P M M M
;
_chemical_formula_sum "Si O2"
_cell_formula_units_Z 56
_cell_length_a 8.728811
_cell_length_b 23.528037
_cell_length_c 14.620248
_cell_angle_alpha 90.000000
_cell_angle_beta 90.000000
_cell_angle_gamma 90.000000
_cell_volume 3002.586475
_symmetry_space_group_name_H-M "P M M M"
_symmetry_group_IT_number 47
_symmetry_cell_setting 'orthorhombic'
loop_
_space_group_symop_operation_xyz
x,y,z
-x,-y,z
x,-y,-z
-x,y,-z
-x,-y,-z
x,y,-z
-x,y,z
x,-y,z
loop_
_atom_site_type_symbol
_atom_site_label
_atom_site_fract_x
_atom_site_fract_y
_atom_site_fract_z
Si Si1 0.820897 0.282989 0.109353
Si Si2 0.683190 0.841383 0.894619
Si Si3 0.186932 0.000000 0.394439
Si Si4 0.683362 0.608509 0.790882
Si Si5 0.814729 0.889336 0.280179
Si Si6 0.817492 0.221280 0.607049
Si Si7 0.315579 0.344783 0.603101
Si Si8 0.816500 0.500000 0.105800
O O1 0.752366 0.220777 0.127744
O O2 0.733395 0.333072 0.160518
O O3 0.000000 0.283675 0.135110
O O4 0.809786 0.292445 0.000000
O O5 0.500000 0.838490 0.888690
O O6 0.748035 0.885518 0.821343
O O7 0.725371 0.854314 0.000000
O O8 0.233806 0.056175 0.339046
O O9 0.238508 0.000000 0.500000
O O10 0.000000 0.000000 0.396759
O O11 0.500000 0.603172 0.794087
O O12 0.733340 0.613875 0.684767
O O13 0.756965 0.555811 0.842954
O O14 0.766514 0.831681 0.332331
O O15 0.000000 0.889554 0.275835
O O16 0.791150 0.208059 0.500000
O O17 0.737361 0.280960 0.627069
O O18 0.000000 0.228638 0.619732
O O19 0.259699 0.357697 0.500000
O O20 0.500000 0.345376 0.601083
O O21 0.000000 0.500000 0.106195
O O22 0.764511 0.500000 0.000000
#
# Coordination Sequence:
#
# PCOD9383535 Si02
#       8
#     8   8   4   8   8   8   8   4
#     4  10  20  34  54  81 112 143 174 214 266 320
#     4  10  21  36  53  75 105 140 177 219 267 318
#     4   9  18  34  56  81 108 138 175 219 266 319
#     4  11  22  36  57  82 108 142 181 220 263 311
#     4  10  19  32  53  78 104 138 178 220 266 315
#     4   9  17  29  48  77 109 138 170 210 258 311
#     4   9  19  35  53  76 107 140 173 210 256 310
#     4  11  25  43  60  79 106 140 177 219 266 315
#
# _framework density 18.650586000000001
#
# number of rings (size 3 to 8) (size 9 to 14) (size 15 to 20)
#    0.000    2.143    0.000    3.214    0.000    9.714 
#    0.000    1.071    0.000    6.000    0.000    0.000 
#    0.000    0.000    0.000    0.000    0.000    0.000 
#
# Total GULP energy -312706.712607 kJ/mol
# GULP energy per Si atom -5584.048439 kJ/mol
# Density = 1.860814 g / cm^3
# Si number density = 18.650586 Si / 1000 Ang^3
#
#
#
# Elastic Constant Matrix: (Units=GPa)
#
#
# Indices 1 2 3 4 5 6 
#
# 1 27.4553 23.9360 36.9598 0.0000 0.0000 0.0000
# 2 23.9360 88.7398 101.8203 0.0000 0.0000 0.0000
# 3 36.9598 101.8203 150.0964 0.0000 0.0000 0.0000
# 4 0.0000 0.0000 0.0000 34.9155 0.0000 0.0000
# 5 0.0000 0.0000 0.0000 0.0000 24.2555 0.0000
# 6 0.0000 0.0000 0.0000 0.0000 0.0000 42.6473
#
#
#
# Elastic Compliance Matrix: (Units=1/GPa)
#
#
# Indices 1 2 3 4 5 6 
#
# 1 0.054679 0.003159 -0.015607 0.000000 0.000000 0.000000
# 2 0.003159 0.051026 -0.035392 0.000000 0.000000 0.000000
# 3 -0.015607 -0.035392 0.034514 0.000000 0.000000 0.000000
# 4 0.000000 0.000000 0.000000 0.028641 0.000000 0.000000
# 5 0.000000 0.000000 0.000000 0.000000 0.041228 0.000000
# 6 0.000000 0.000000 0.000000 0.000000 0.000000 0.023448
#
#
# Mechanical properties :
#
#
# Convention : Reuss Voigt Hill
#
# Bulk Modulus (GPa) = 22.45251 65.74709 44.09980
# Shear Modulus (GPa) = 14.53231 27.26868 20.90049
#
# Velocity S-wave (km/s) = 2.79442 3.82787 3.35122
# Velocity P-wave (km/s) = 4.74092 7.40711 6.21859
#
# Compressibility (1/GPa) = 0.04453845
#
# Stress axis : x y z
#
# Youngs Moduli (GPa) = 18.28862 19.59803 28.97370
#
# Poissons Ratio (x) = -0.06191 0.45219
# Poissons Ratio (y) = -0.05777 1.02543
# Poissons Ratio (z) = 0.28543 0.69361
#
# Static dielectric constant tensor:
#      x y z
#    x 1.629070 0.000000 0.000000 
#    y 0.000000 1.605420 0.000000 
#    z 0.000000 0.000000 1.678070 
# 
# From -- ./inp_files/7445.got.cif
#   From: 2010.05.17/outbox.cif.g08.bks.cpg/sg47_4_cif.got.tgz:7445.got - 2010.06.03 20:15:42.
