data_PCOD9383794
_publ_section_title
;
Structure prediction by ZEFSAII (Michael W. Deem and Ramdas Pophale) SiO2 
 PCOD9383794
Probable space group: P M M M
;
_chemical_formula_sum "Si O2"
_cell_formula_units_Z 40
_cell_length_a 8.491061
_cell_length_b 15.726673
_cell_length_c 14.884209
_cell_angle_alpha 90.000000
_cell_angle_beta 90.000000
_cell_angle_gamma 90.000000
_cell_volume 1987.579813
_symmetry_space_group_name_H-M "P M M M"
_symmetry_group_IT_number 47
_symmetry_cell_setting 'orthorhombic'
loop_
_space_group_symop_operation_xyz
x,y,z
-x,-y,z
x,-y,-z
-x,y,-z
-x,-y,-z
x,y,-z
-x,y,z
x,-y,z
loop_
_atom_site_type_symbol
_atom_site_label
_atom_site_fract_x
_atom_site_fract_y
_atom_site_fract_z
Si Si1 0.811312 0.224687 0.145250
Si Si2 0.184819 0.593037 0.642538
Si Si3 0.311918 0.096694 0.000000
Si Si4 0.692226 0.902500 0.500000
Si Si5 0.312244 0.226876 0.346861
Si Si6 0.814122 0.590896 0.139182
O O1 0.745353 0.148898 0.086239
O O2 0.765162 0.216936 0.249328
O O3 0.750160 0.317359 0.111314
O O4 0.000000 0.226113 0.137884
O O5 0.243809 0.500000 0.611865
O O6 0.269232 0.679629 0.614952
O O7 0.193811 0.591817 0.751793
O O8 0.000000 0.598752 0.619185
O O9 0.500000 0.094797 0.000000
O O10 0.252431 0.000000 0.000000
O O11 0.500000 0.903752 0.500000
O O12 0.740543 0.847740 0.413422
O O13 0.746291 0.000000 0.500000
O O14 0.500000 0.222597 0.336598
O O15 0.745639 0.500000 0.109161
O O16 0.000000 0.589742 0.115624
#
# Coordination Sequence:
#
# PCOD9383794 Si02
#       6
#     8   8   4   4   8   8
#     4  10  20  36  59  85 113 145 180 222 274 330
#     4   8  14  27  48  74 107 146 182 218 267 325
#     4  11  25  43  60  79 106 142 185 233 282 330
#     4   9  20  38  56  75 104 144 187 229 278 337
#     4  10  19  33  56  83 110 144 186 230 274 323
#     4   7  11  23  46  75 105 138 173 205 245 305
#
# _framework density 20.124979
#
# number of rings (size 3 to 8) (size 9 to 14) (size 15 to 20)
#    0.000    3.000    0.000    3.900    0.000    2.000 
#    0.000    5.000    0.000   12.000    0.000    0.000 
#    0.000    0.000    0.000    0.000    0.000    0.000 
#
# Total GULP energy -223019.733807 kJ/mol
# GULP energy per Si atom -5575.493345 kJ/mol
# Density = 2.007917 g / cm^3
# Si number density = 20.124979 Si / 1000 Ang^3
#
#
#
# Elastic Constant Matrix: (Units=GPa)
#
#
# Indices 1 2 3 4 5 6 
#
# 1 29.4768 32.1750 10.6308 0.0000 0.0000 0.0000
# 2 32.1750 241.0672 73.7542 0.0000 0.0000 0.0000
# 3 10.6308 73.7542 87.4530 0.0000 0.0000 0.0000
# 4 0.0000 0.0000 0.0000 38.9563 0.0000 0.0000
# 5 0.0000 0.0000 0.0000 0.0000 44.1787 0.0000
# 6 0.0000 0.0000 0.0000 0.0000 0.0000 29.0950
#
#
#
# Elastic Compliance Matrix: (Units=1/GPa)
#
#
# Indices 1 2 3 4 5 6 
#
# 1 0.039725 -0.005155 -0.000482 0.000000 0.000000 0.000000
# 2 -0.005155 0.006260 -0.004653 0.000000 0.000000 0.000000
# 3 -0.000482 -0.004653 0.015417 0.000000 0.000000 0.000000
# 4 0.000000 0.000000 0.000000 0.025670 0.000000 0.000000
# 5 0.000000 0.000000 0.000000 0.000000 0.022635 0.000000
# 6 0.000000 0.000000 0.000000 0.000000 0.000000 0.034370
#
#
# Mechanical properties :
#
#
# Convention : Reuss Voigt Hill
#
# Bulk Modulus (GPa) = 24.49543 65.67966 45.08755
# Shear Modulus (GPa) = 28.04843 38.54181 33.29512
#
# Velocity S-wave (km/s) = 3.73730 4.38096 4.07187
# Velocity P-wave (km/s) = 5.55169 7.63526 6.67527
#
# Compressibility (1/GPa) = 0.04082394
#
# Stress axis : x y z
#
# Youngs Moduli (GPa) = 25.17292 159.75357 64.86338
#
# Poissons Ratio (x) = 0.82348 0.03125
# Poissons Ratio (y) = 0.12976 0.30178
# Poissons Ratio (z) = 0.01213 0.74326
#
# Static dielectric constant tensor:
#      x y z
#    x 1.683920 0.000000 0.000000 
#    y 0.000000 1.746570 0.000000 
#    z 0.000000 0.000000 1.734160 
# 
# From -- ./inp_files/20727.got.cif
#   From: 2010.05.17/outbox.cif.g08.bks.cpg/sg47_11_cif.got.tgz:20727.got - 2010.06.03 20:15:42.
