data_PCOD9383099
_publ_section_title
;
Structure prediction by ZEFSAII (Michael W. Deem and Ramdas Pophale) SiO2 
 PCOD9383099
Probable space group: P M M M
;
_chemical_formula_sum "Si O2"
_cell_formula_units_Z 44
_cell_length_a 31.722398
_cell_length_b 8.376477
_cell_length_c 7.288856
_cell_angle_alpha 90.000000
_cell_angle_beta 90.000000
_cell_angle_gamma 90.000000
_cell_volume 1936.808937
_symmetry_space_group_name_H-M "P M M M"
_symmetry_group_IT_number 47
_symmetry_cell_setting 'orthorhombic'
loop_
_space_group_symop_operation_xyz
x,y,z
-x,-y,z
x,-y,-z
-x,y,-z
-x,-y,-z
x,y,-z
-x,y,z
x,-y,z
loop_
_atom_site_type_symbol
_atom_site_label
_atom_site_fract_x
_atom_site_fract_y
_atom_site_fract_z
Si Si1 0.000000 0.815290 0.276763
Si Si2 0.910308 0.317502 0.723222
Si Si3 0.549241 0.678220 0.222949
Si Si4 0.305429 0.000000 0.776123
Si Si5 0.596595 0.000000 0.223251
Si Si6 0.177466 0.822407 0.721489
Si Si7 0.736407 0.673864 0.212732
O O1 0.956287 0.738124 0.214275
O O2 0.000000 0.804268 0.500000
O O3 0.000000 0.000000 0.227614
O O4 0.911122 0.308542 0.500000
O O5 0.903387 0.500000 0.774399
O O6 0.869827 0.217305 0.782859
O O7 0.500000 0.693086 0.273709
O O8 0.564003 0.500000 0.280601
O O9 0.574361 0.835289 0.284139
O O10 0.550888 0.678312 0.000000
O O11 0.354442 0.000000 0.727144
O O12 0.283773 0.163934 0.710101
O O13 0.302038 0.000000 0.000000
O O14 0.594277 0.000000 0.000000
O O15 0.177076 0.820428 0.500000
O O16 0.213275 0.699961 0.780126
O O17 0.189559 0.000000 0.782781
O O18 0.725708 0.500000 0.292215
O O19 0.723421 0.669084 0.000000
#
# Coordination Sequence:
#
# PCOD9383099 Si02
#       7
#     4   8   8   4   4   8   8
#     4   9  15  23  35  53  82 117 146 173 214 267
#     4   9  16  25  38  59  87 116 145 179 220 267
#     4   8  13  20  30  47  72 101 136 179 223 266
#     4   9  18  31  43  60  85 112 151 198 235 276
#     4   9  15  22  35  51  71 103 141 183 228 268
#     4  10  19  31  49  72  95 119 151 192 234 276
#     4  10  20  34  51  68  90 122 156 193 239 284
#
# _framework density 22.717783000000001
#
# number of rings (size 3 to 8) (size 9 to 14) (size 15 to 20)
#    0.000    2.818    0.909    2.182    0.000    6.182 
#    0.000    3.636    0.000    0.000    0.000    0.636 
#    0.000    5.091    0.000    0.000    0.000    7.273 
#
# Total GULP energy -245727.150037 kJ/mol
# GULP energy per Si atom -5584.707955 kJ/mol
# Density = 2.266608 g / cm^3
# Si number density = 22.717783 Si / 1000 Ang^3
#
#
#
# Elastic Constant Matrix: (Units=GPa)
#
#
# Indices 1 2 3 4 5 6 
#
# 1 121.1166 91.9036 -2.5791 0.0000 0.0000 0.0000
# 2 91.9036 215.5603 8.7513 0.0000 0.0000 0.0000
# 3 -2.5791 8.7513 96.4439 0.0000 0.0000 0.0000
# 4 0.0000 0.0000 0.0000 -9.3434 0.0000 0.0000
# 5 0.0000 0.0000 0.0000 0.0000 -19.9053 0.0000
# 6 0.0000 0.0000 0.0000 0.0000 0.0000 6.2946
#
#
#
# Elastic Compliance Matrix: (Units=1/GPa)
#
#
# Indices 1 2 3 4 5 6 
#
# 1 0.012267 -0.005263 0.000806 0.000000 0.000000 0.000000
# 2 -0.005263 0.006914 -0.000768 0.000000 0.000000 0.000000
# 3 0.000806 -0.000768 0.010460 0.000000 0.000000 0.000000
# 4 0.000000 0.000000 0.000000 -0.107027 0.000000 0.000000
# 5 0.000000 0.000000 0.000000 0.000000 -0.050238 0.000000
# 6 0.000000 0.000000 0.000000 0.000000 0.000000 0.158866
#
#
# Mechanical properties :
#
#
# Convention : Reuss Voigt Hill
#
# Bulk Modulus (GPa) = 52.10915 69.91918 61.01416
# Shear Modulus (GPa) = 103.97430 17.74551 60.85991
#
# Velocity S-wave (km/s) = 6.77253 2.79790 5.18148
# Velocity P-wave (km/s) = 9.17298 6.42509 7.91913
#
# Compressibility (1/GPa) = 0.01919049
#
# Stress axis : x y z
#
# Youngs Moduli (GPa) = 81.51937 144.63396 95.60265
#
# Poissons Ratio (x) = 0.76117 -0.07702
# Poissons Ratio (y) = 0.42901 0.07343
# Poissons Ratio (z) = -0.06567 0.11109
#
# Static dielectric constant tensor:
#      x y z
#    x 1.798480 0.000000 0.000000 
#    y 0.000000 1.823390 0.000000 
#    z 0.000000 0.000000 2.054520 
# 
# From -- ./inp_files/13775.got.cif
#   From: 2010.05.17/outbox.cif.g08.bks.cpg/sg47_7_cif.got.tgz:13775.got - 2010.06.03 20:15:42.
