data_PCOD9383552
_publ_section_title
;
Structure prediction by ZEFSAII (Michael W. Deem and Ramdas Pophale) SiO2 
 PCOD9383552
Probable space group: P M M M
;
_chemical_formula_sum "Si O2"
_cell_formula_units_Z 40
_cell_length_a 27.888511
_cell_length_b 7.688730
_cell_length_c 8.581650
_cell_angle_alpha 90.000000
_cell_angle_beta 90.000000
_cell_angle_gamma 90.000000
_cell_volume 1840.139448
_symmetry_space_group_name_H-M "P M M M"
_symmetry_group_IT_number 47
_symmetry_cell_setting 'orthorhombic'
loop_
_space_group_symop_operation_xyz
x,y,z
-x,-y,z
x,-y,-z
-x,y,-z
-x,-y,-z
x,y,-z
-x,y,z
x,-y,z
loop_
_atom_site_type_symbol
_atom_site_label
_atom_site_fract_x
_atom_site_fract_y
_atom_site_fract_z
Si Si1 0.053321 0.294795 0.500000
Si Si2 0.104377 0.202880 0.172192
Si Si3 0.799011 0.289290 0.674904
Si Si4 0.700577 0.712371 0.177175
Si Si5 0.500000 0.287628 0.819850
Si Si6 0.399248 0.712387 0.679372
O O1 0.048953 0.500000 0.500000
O O2 0.079442 0.257854 0.334898
O O3 0.000000 0.214680 0.500000
O O4 0.160881 0.230582 0.204009
O O5 0.094216 0.000000 0.161566
O O6 0.091703 0.279826 0.000000
O O7 0.811502 0.230810 0.500000
O O8 0.799584 0.500000 0.675437
O O9 0.745435 0.232024 0.718623
O O10 0.699719 0.500000 0.183368
O O11 0.648135 0.771708 0.230694
O O12 0.709528 0.763705 0.000000
O O13 0.500000 0.500000 0.809525
O O14 0.549515 0.227479 0.743222
O O15 0.500000 0.240468 0.000000
O O16 0.394428 0.760204 0.500000
O O17 0.399816 0.500000 0.688889
#
# Coordination Sequence:
#
# PCOD9383552 Si02
#       6
#     4   8   8   8   4   8
#     4  11  25  45  69  97 127 161 203 250 295 340
#     4  11  24  41  63  92 126 164 203 244 295 353
#     4  10  19  32  53  80 109 145 189 236 287 343
#     4   9  16  25  38  59  88 122 163 215 272 330
#     4   9  15  21  29  41  61  97 146 199 258 325
#     4   9  15  22  31  45  69 104 150 204 261 324
#
# _framework density 21.737482
#
# number of rings (size 3 to 8) (size 9 to 14) (size 15 to 20)
#    0.000    2.200    1.000    3.000    0.000    9.600 
#    0.000    2.000    0.000    0.000    0.000    0.000 
#    0.000    0.000    0.000    0.900    0.000   17.600 
#
# Total GULP energy -223238.463654 kJ/mol
# GULP energy per Si atom -5580.961591 kJ/mol
# Density = 2.168801 g / cm^3
# Si number density = 21.737482 Si / 1000 Ang^3
#
#
#
# Elastic Constant Matrix: (Units=GPa)
#
#
# Indices 1 2 3 4 5 6 
#
# 1 123.2961 2.9129 60.5585 0.0000 0.0000 0.0000
# 2 2.9129 41.2132 14.8881 0.0000 0.0000 0.0000
# 3 60.5585 14.8881 158.1647 0.0000 0.0000 0.0000
# 4 0.0000 0.0000 0.0000 5.2371 0.0000 0.0000
# 5 0.0000 0.0000 0.0000 0.0000 18.9831 0.0000
# 6 0.0000 0.0000 0.0000 0.0000 0.0000 -5.9051
#
#
#
# Elastic Compliance Matrix: (Units=1/GPa)
#
#
# Indices 1 2 3 4 5 6 
#
# 1 0.010009 0.000701 -0.003898 0.000000 0.000000 0.000000
# 2 0.000701 0.025167 -0.002637 0.000000 0.000000 0.000000
# 3 -0.003898 -0.002637 0.008063 0.000000 0.000000 0.000000
# 4 0.000000 0.000000 0.000000 0.190946 0.000000 0.000000
# 5 0.000000 0.000000 0.000000 0.000000 0.052678 0.000000
# 6 0.000000 0.000000 0.000000 0.000000 0.000000 -0.169344
#
#
# Mechanical properties :
#
#
# Convention : Reuss Voigt Hill
#
# Bulk Modulus (GPa) = 31.67573 53.26588 42.47081
# Shear Modulus (GPa) = 35.78770 19.95064 27.86917
#
# Velocity S-wave (km/s) = 4.06194 3.03281 3.58450
# Velocity P-wave (km/s) = 6.05002 6.06805 6.05904
#
# Compressibility (1/GPa) = 0.03156991
#
# Stress axis : x y z
#
# Youngs Moduli (GPa) = 99.91414 39.73412 124.01901
#
# Poissons Ratio (x) = -0.02784 0.48344
# Poissons Ratio (y) = -0.07002 0.32708
# Poissons Ratio (z) = 0.38947 0.10479
#
# Static dielectric constant tensor:
#      x y z
#    x 1.805150 0.000000 0.000000 
#    y 0.000000 1.838220 0.000000 
#    z 0.000000 0.000000 1.570790 
# 
# From -- ./inp_files/13085.got.cif
#   From: 2010.05.17/outbox.cif.g08.bks.cpg/sg47_7_cif.got.tgz:13085.got - 2010.06.03 20:15:42.
