data_PCOD9383195
_publ_section_title
;
Structure prediction by ZEFSAII (Michael W. Deem and Ramdas Pophale) SiO2 
 PCOD9383195
Probable space group: P M M M
;
_chemical_formula_sum "Si O2"
_cell_formula_units_Z 52
_cell_length_a 7.715608
_cell_length_b 22.887653
_cell_length_c 15.822156
_cell_angle_alpha 90.000000
_cell_angle_beta 90.000000
_cell_angle_gamma 90.000000
_cell_volume 2794.068682
_symmetry_space_group_name_H-M "P M M M"
_symmetry_group_IT_number 47
_symmetry_cell_setting 'orthorhombic'
loop_
_space_group_symop_operation_xyz
x,y,z
-x,-y,z
x,-y,-z
-x,y,-z
-x,-y,-z
x,y,-z
-x,y,z
x,-y,z
loop_
_atom_site_type_symbol
_atom_site_label
_atom_site_fract_x
_atom_site_fract_y
_atom_site_fract_z
Si Si1 0.500000 0.565068 0.183852
Si Si2 0.202904 0.233083 0.907092
Si Si3 0.190913 0.626552 0.096233
Si Si4 0.500000 0.432753 0.383131
Si Si5 0.700455 0.000000 0.397353
Si Si6 0.206334 0.662481 0.595159
Si Si7 0.710552 0.872434 0.402721
Si Si8 0.205625 0.766244 0.719588
O O1 0.500000 0.500000 0.147364
O O2 0.333927 0.599418 0.153505
O O3 0.500000 0.562588 0.283087
O O4 0.205136 0.303601 0.906986
O O5 0.278161 0.219930 0.813719
O O6 0.000000 0.214518 0.907664
O O7 0.275797 0.214787 0.000000
O O8 0.000000 0.611478 0.127254
O O9 0.210775 0.605478 0.000000
O O10 0.500000 0.500000 0.413663
O O11 0.329934 0.394164 0.404791
O O12 0.775044 0.063194 0.373995
O O13 0.500000 0.000000 0.368797
O O14 0.698613 0.000000 0.500000
O O15 0.222628 0.688981 0.500000
O O16 0.265071 0.708428 0.667839
O O17 0.000000 0.649554 0.607129
O O18 0.765937 0.862444 0.500000
O O19 0.500000 0.874446 0.403354
O O20 0.766929 0.821043 0.341507
O O21 0.000000 0.756752 0.731631
#
# Coordination Sequence:
#
# PCOD9383195 Si02
#       8
#     4   8   8   4   4   8   8   8
#     4  11  23  35  49  73 101 127 160 205 253 304
#     4   8  15  30  51  71  93 126 163 196 240 300
#     4   9  18  34  54  72  94 128 166 205 256 316
#     4  11  25  41  57  77 101 136 180 218 257 315
#     4   7  12  26  45  65  94 135 178 210 239 287
#     4  10  22  39  58  80 106 135 170 219 275 323
#     4   9  17  29  47  71 101 138 175 208 245 296
#     4  10  19  31  50  77 106 132 162 207 261 310
#
# _framework density 18.610851
#
# number of rings (size 3 to 8) (size 9 to 14) (size 15 to 20)
#    0.000    2.692    0.000    3.692    1.077    4.615 
#    1.385    3.462    0.000    1.385    0.000    0.538 
#    0.000    4.308    0.000    0.000    0.000    0.000 
#
# Total GULP energy -289628.090088 kJ/mol
# GULP energy per Si atom -5569.770963 kJ/mol
# Density = 1.856849 g / cm^3
# Si number density = 18.610851 Si / 1000 Ang^3
#
#
#
# Elastic Constant Matrix: (Units=GPa)
#
#
# Indices 1 2 3 4 5 6 
#
# 1 42.1788 17.6854 37.4143 0.0000 0.0000 0.0000
# 2 17.6854 90.1014 55.5541 0.0000 0.0000 0.0000
# 3 37.4143 55.5541 120.3511 0.0000 0.0000 0.0000
# 4 0.0000 0.0000 0.0000 14.3186 0.0000 0.0000
# 5 0.0000 0.0000 0.0000 0.0000 14.8999 0.0000
# 6 0.0000 0.0000 0.0000 0.0000 0.0000 10.5657
#
#
#
# Elastic Compliance Matrix: (Units=1/GPa)
#
#
# Indices 1 2 3 4 5 6 
#
# 1 0.032739 -0.000211 -0.010080 0.000000 0.000000 0.000000
# 2 -0.000211 0.015515 -0.007096 0.000000 0.000000 0.000000
# 3 -0.010080 -0.007096 0.014718 0.000000 0.000000 0.000000
# 4 0.000000 0.000000 0.000000 0.069839 0.000000 0.000000
# 5 0.000000 0.000000 0.000000 0.000000 0.067114 0.000000
# 6 0.000000 0.000000 0.000000 0.000000 0.000000 0.094646
#
#
# Mechanical properties :
#
#
# Convention : Reuss Voigt Hill
#
# Bulk Modulus (GPa) = 35.46421 52.65991 44.06206
# Shear Modulus (GPa) = 14.76029 17.42200 16.09115
#
# Velocity S-wave (km/s) = 2.81926 3.06293 2.94362
# Velocity P-wave (km/s) = 5.44928 6.39261 5.93970
#
# Compressibility (1/GPa) = 0.02819745
#
# Stress axis : x y z
#
# Youngs Moduli (GPa) = 30.54492 64.45198 67.94171
#
# Poissons Ratio (x) = 0.01358 0.68488
# Poissons Ratio (y) = 0.00644 0.48214
# Poissons Ratio (z) = 0.30791 0.45738
#
# Static dielectric constant tensor:
#      x y z
#    x 1.663980 0.000000 0.000000 
#    y 0.000000 1.636550 0.000000 
#    z 0.000000 0.000000 1.693540 
# 
# From -- ./inp_files/21530.got.cif
#   From: 2010.05.17/outbox.cif.g08.bks.cpg/sg47_11_cif.got.tgz:21530.got - 2010.06.03 20:15:42.
