data_PCOD9383667
_publ_section_title
;
Structure prediction by ZEFSAII (Michael W. Deem and Ramdas Pophale) SiO2 
 PCOD9383667
Probable space group: P M M M
;
_chemical_formula_sum "Si O2"
_cell_formula_units_Z 64
_cell_length_a 20.438098
_cell_length_b 18.312140
_cell_length_c 8.586231
_cell_angle_alpha 90.000000
_cell_angle_beta 90.000000
_cell_angle_gamma 90.000000
_cell_volume 3213.528423
_symmetry_space_group_name_H-M "P M M M"
_symmetry_group_IT_number 47
_symmetry_cell_setting 'orthorhombic'
loop_
_space_group_symop_operation_xyz
x,y,z
-x,-y,z
x,-y,-z
-x,y,-z
-x,-y,-z
x,y,-z
-x,y,z
x,-y,z
loop_
_atom_site_type_symbol
_atom_site_label
_atom_site_fract_x
_atom_site_fract_y
_atom_site_fract_z
Si Si1 0.575995 0.121603 0.818425
Si Si2 0.711012 0.080490 0.315168
Si Si3 0.929686 0.737822 0.186454
Si Si4 0.785037 0.221253 0.187187
Si Si5 0.100659 0.580989 0.683879
Si Si6 0.380380 0.579381 0.181911
Si Si7 0.251055 0.623186 0.681357
Si Si8 0.577687 0.729330 0.670959
O O1 0.500000 0.109135 0.768219
O O2 0.633769 0.083336 0.725333
O O3 0.592992 0.207344 0.793448
O O4 0.579814 0.102610 0.000000
O O5 0.718853 0.088197 0.500000
O O6 0.748916 0.146957 0.233800
O O7 0.735496 0.000000 0.267077
O O8 0.861748 0.775243 0.238428
O O9 0.926081 0.652217 0.230786
O O10 0.000000 0.766538 0.245503
O O11 0.929812 0.743748 0.000000
O O12 0.752425 0.291934 0.268059
O O13 0.781916 0.230811 0.000000
O O14 0.084305 0.586107 0.500000
O O15 0.081149 0.500000 0.738913
O O16 0.179101 0.589495 0.696907
O O17 0.404964 0.500000 0.234456
O O18 0.302805 0.583185 0.210294
O O19 0.405191 0.648799 0.275306
O O20 0.395965 0.587698 0.000000
O O21 0.270450 0.616828 0.500000
O O22 0.606323 0.746400 0.500000
O O23 0.500000 0.731969 0.657897
#
# Coordination Sequence:
#
# PCOD9383667 Si02
#       8
#     8   8   8   8   8   8   8   8
#     4  10  21  38  61  87 115 147 182 219 259 310
#     4  11  24  40  59  85 117 149 179 215 261 315
#     4   9  19  35  54  78 107 141 183 228 275 326
#     4  10  20  36  59  83 109 142 180 224 270 320
#     4   9  18  31  47  71 104 141 180 222 268 316
#     4  11  23  35  48  69  98 132 172 222 277 326
#     4  10  19  33  53  74 100 135 176 220 265 317
#     4  10  21  37  56  75  97 130 173 218 263 315
#
# _framework density 19.915804000000001
#
# number of rings (size 3 to 8) (size 9 to 14) (size 15 to 20)
#    0.000    2.000    0.000    3.375    0.000    6.250 
#    0.000    3.750    0.000    0.375    0.000    2.625 
#    0.000    0.000    0.000    0.000    0.000    0.000 
#
# Total GULP energy -357246.329990 kJ/mol
# GULP energy per Si atom -5581.973906 kJ/mol
# Density = 1.987047 g / cm^3
# Si number density = 19.915804 Si / 1000 Ang^3
#
#
#
# Elastic Constant Matrix: (Units=GPa)
#
#
# Indices 1 2 3 4 5 6 
#
# 1 50.1551 27.4875 2.9620 0.0000 0.0000 0.0000
# 2 27.4875 98.5135 5.9283 0.0000 0.0000 0.0000
# 3 2.9620 5.9283 26.8273 0.0000 0.0000 0.0000
# 4 0.0000 0.0000 0.0000 -1.5452 0.0000 0.0000
# 5 0.0000 0.0000 0.0000 0.0000 12.9074 0.0000
# 6 0.0000 0.0000 0.0000 0.0000 0.0000 -6.6568
#
#
#
# Elastic Compliance Matrix: (Units=1/GPa)
#
#
# Indices 1 2 3 4 5 6 
#
# 1 0.023573 -0.006507 -0.001165 0.000000 0.000000 0.000000
# 2 -0.006507 0.012084 -0.001952 0.000000 0.000000 0.000000
# 3 -0.001165 -0.001952 0.037835 0.000000 0.000000 0.000000
# 4 0.000000 0.000000 0.000000 -0.647163 0.000000 0.000000
# 5 0.000000 0.000000 0.000000 0.000000 0.077475 0.000000
# 6 0.000000 0.000000 0.000000 0.000000 0.000000 -0.150222
#
#
# Mechanical properties :
#
#
# Convention : Reuss Voigt Hill
#
# Bulk Modulus (GPa) = 18.43495 27.58351 23.00923
# Shear Modulus (GPa) = -8.20900 10.21562 1.00331
#
# Velocity S-wave (km/s) = -2.03244 2.26728 0.71054
# Velocity P-wave (km/s) = 1.94134 4.55348 3.50021
#
# Compressibility (1/GPa) = 0.05424478
#
# Stress axis : x y z
#
# Youngs Moduli (GPa) = 42.42087 82.75361 26.43030
#
# Poissons Ratio (x) = 0.53851 0.03078
# Poissons Ratio (y) = 0.27605 0.05159
# Poissons Ratio (z) = 0.04941 0.16152
#
# Static dielectric constant tensor:
#      x y z
#    x 1.755850 0.000000 0.000000 
#    y 0.000000 1.706060 0.000000 
#    z 0.000000 0.000000 1.680110 
# 
# From -- ./inp_files/12774.got.cif
#   From: 2010.05.17/outbox.cif.g08.bks.cpg/sg47_7_cif.got.tgz:12774.got - 2010.06.03 20:15:42.
