data_PCOD9383673
_publ_section_title
;
Structure prediction by ZEFSAII (Michael W. Deem and Ramdas Pophale) SiO2 
 PCOD9383673
Probable space group: P M M M
;
_chemical_formula_sum "Si O2"
_cell_formula_units_Z 52
_cell_length_a 23.757168
_cell_length_b 14.801929
_cell_length_c 8.056321
_cell_angle_alpha 90.000000
_cell_angle_beta 90.000000
_cell_angle_gamma 90.000000
_cell_volume 2833.020699
_symmetry_space_group_name_H-M "P M M M"
_symmetry_group_IT_number 47
_symmetry_cell_setting 'orthorhombic'
loop_
_space_group_symop_operation_xyz
x,y,z
-x,-y,z
x,-y,-z
-x,y,-z
-x,-y,-z
x,y,-z
-x,y,z
x,-y,z
loop_
_atom_site_type_symbol
_atom_site_label
_atom_site_fract_x
_atom_site_fract_y
_atom_site_fract_z
Si Si1 0.851492 0.100268 0.196266
Si Si2 0.888149 0.291620 0.201049
Si Si3 0.563965 0.396456 0.797270
Si Si4 0.667785 0.279154 0.196851
Si Si5 0.224895 0.396047 0.699011
Si Si6 0.724642 0.100958 0.304153
Si Si7 0.000000 0.395728 0.203117
O O1 0.882991 0.188404 0.263860
O O2 0.784651 0.117293 0.216780
O O3 0.863296 0.000000 0.267224
O O4 0.863576 0.096032 0.000000
O O5 0.832290 0.345921 0.250100
O O6 0.943886 0.343625 0.257683
O O7 0.889604 0.288425 0.000000
O O8 0.500000 0.374656 0.746378
O O9 0.576479 0.500000 0.747152
O O10 0.611709 0.328081 0.737571
O O11 0.564810 0.395685 0.000000
O O12 0.721368 0.342540 0.233246
O O13 0.681676 0.180574 0.266348
O O14 0.662084 0.270112 0.000000
O O15 0.228472 0.395324 0.500000
O O16 0.224529 0.500000 0.756964
O O17 0.736403 0.101636 0.500000
O O18 0.705210 0.000000 0.257003
O O19 0.000000 0.500000 0.256708
O O20 0.000000 0.395950 0.000000
#
# Coordination Sequence:
#
# PCOD9383673 Si02
#       7
#     8   8   8   8   8   8   4
#     4   9  17  30  49  74 101 128 163 208 255 304
#     4  10  19  33  53  74  97 132 172 212 257 306
#     4   8  15  29  49  74 104 136 170 208 250 299
#     4  11  20  31  52  80 105 132 168 211 258 306
#     4  11  23  35  48  71 104 136 167 210 259 305
#     4  10  20  33  50  73 103 138 171 205 252 308
#     4   9  18  32  50  72  98 131 175 219 255 302
#
# _framework density 18.354966000000001
#
# number of rings (size 3 to 8) (size 9 to 14) (size 15 to 20)
#    0.000    2.231    1.538    2.769    0.000    3.385 
#    0.000    0.769    0.000    6.000    0.000    8.615 
#    0.000    3.692    0.000    0.000    0.000    0.000 
#
# Total GULP energy -290145.090701 kJ/mol
# GULP energy per Si atom -5579.713283 kJ/mol
# Density = 1.831319 g / cm^3
# Si number density = 18.354966 Si / 1000 Ang^3
#
#
#
# Elastic Constant Matrix: (Units=GPa)
#
#
# Indices 1 2 3 4 5 6 
#
# 1 85.0667 69.3341 -11.4956 0.0000 0.0000 0.0000
# 2 69.3341 171.5850 1.0231 0.0000 0.0000 0.0000
# 3 -11.4956 1.0231 13.2219 0.0000 0.0000 0.0000
# 4 0.0000 0.0000 0.0000 20.2261 0.0000 0.0000
# 5 0.0000 0.0000 0.0000 0.0000 -25.7411 0.0000
# 6 0.0000 0.0000 0.0000 0.0000 0.0000 33.9194
#
#
#
# Elastic Compliance Matrix: (Units=1/GPa)
#
#
# Indices 1 2 3 4 5 6 
#
# 1 0.021590 -0.008840 0.019455 0.000000 0.000000 0.000000
# 2 -0.008840 0.009450 -0.008417 0.000000 0.000000 0.000000
# 3 0.019455 -0.008417 0.093198 0.000000 0.000000 0.000000
# 4 0.000000 0.000000 0.000000 0.049441 0.000000 0.000000
# 5 0.000000 0.000000 0.000000 0.000000 -0.038848 0.000000
# 6 0.000000 0.000000 0.000000 0.000000 0.000000 0.029482
#
#
# Mechanical properties :
#
#
# Convention : Reuss Voigt Hill
#
# Bulk Modulus (GPa) = 7.77400 43.06630 25.42015
# Shear Modulus (GPa) = 24.65548 19.74834 22.20191
#
# Velocity S-wave (km/s) = 3.66903 3.28367 3.48168
# Velocity P-wave (km/s) = 4.71101 6.15553 5.48107
#
# Compressibility (1/GPa) = 0.12863387
#
# Stress axis : x y z
#
# Youngs Moduli (GPa) = 46.31864 105.81737 10.72981
#
# Poissons Ratio (x) = 0.93542 -0.20875
# Poissons Ratio (y) = 0.40945 0.09031
# Poissons Ratio (z) = -0.90112 0.89067
#
# Static dielectric constant tensor:
#      x y z
#    x 1.599030 0.000000 0.000000 
#    y 0.000000 1.659410 0.000000 
#    z 0.000000 0.000000 1.644420 
# 
# From -- ./inp_files/11092.got.cif
#   From: 2010.05.17/outbox.cif.g08.bks.cpg/sg47_6_cif.got.tgz:11092.got - 2010.06.03 20:15:42.
