data_PCOD9383729
_publ_section_title
;
Structure prediction by ZEFSAII (Michael W. Deem and Ramdas Pophale) SiO2 
 PCOD9383729
Probable space group: P M M M
;
_chemical_formula_sum "Si O2"
_cell_formula_units_Z 48
_cell_length_a 10.142812
_cell_length_b 14.975123
_cell_length_c 15.028042
_cell_angle_alpha 90.000000
_cell_angle_beta 90.000000
_cell_angle_gamma 90.000000
_cell_volume 2282.607154
_symmetry_space_group_name_H-M "P M M M"
_symmetry_group_IT_number 47
_symmetry_cell_setting 'orthorhombic'
loop_
_space_group_symop_operation_xyz
x,y,z
-x,-y,z
x,-y,-z
-x,y,-z
-x,-y,-z
x,y,-z
-x,y,z
x,-y,z
loop_
_atom_site_type_symbol
_atom_site_label
_atom_site_fract_x
_atom_site_fract_y
_atom_site_fract_z
Si Si1 0.657723 0.660535 0.901640
Si Si2 0.752488 0.355098 0.715954
Si Si3 0.500000 0.393145 0.600309
Si Si4 0.240605 0.856184 0.283498
Si Si5 0.158110 0.162052 0.901243
Si Si6 0.000000 0.362406 0.396555
Si Si7 0.500000 0.893715 0.396891
Si Si8 0.000000 0.143087 0.600715
O O1 0.500000 0.679720 0.887075
O O2 0.713742 0.610683 0.814353
O O3 0.748904 0.749446 0.906944
O O4 0.667657 0.617582 0.000000
O O5 0.626820 0.362972 0.653484
O O6 0.781054 0.250107 0.726799
O O7 0.874151 0.392801 0.660374
O O8 0.500000 0.500000 0.597770
O O9 0.500000 0.358744 0.500000
O O10 0.217837 0.890373 0.183183
O O11 0.375258 0.868089 0.336442
O O12 0.126873 0.889774 0.347468
O O13 0.000000 0.180972 0.885012
O O14 0.165360 0.120288 0.000000
O O15 0.000000 0.252866 0.399759
O O16 0.000000 0.391076 0.500000
O O17 0.500000 0.858906 0.500000
O O18 0.500000 0.000000 0.404340
O O19 0.000000 0.113829 0.500000
#
# Coordination Sequence:
#
# PCOD9383729 Si02
#       8
#     8   8   4   8   8   4   4   4
#     4   9  17  28  46  76 112 141 169 212 260 309
#     4  10  19  33  54  80 104 139 174 216 264 314
#     4  11  23  37  52  73 104 140 181 225 268 317
#     4  10  19  33  56  81 104 139 174 217 263 314
#     4   9  17  29  49  81 115 140 167 211 266 316
#     4   9  18  30  48  76 108 131 167 221 264 305
#     4  11  25  41  54  73 104 140 179 223 272 321
#     4   9  16  28  48  78 106 127 165 219 264 303
#
# _framework density 21.028585
#
# number of rings (size 3 to 8) (size 9 to 14) (size 15 to 20)
#    0.000    2.333    1.667    1.500    7.000    2.667 
#    0.000    0.833    0.000    5.000    0.000    1.167 
#    0.000    1.333    0.000    0.000    0.000    0.000 
#
# Total GULP energy -267395.474273 kJ/mol
# GULP energy per Si atom -5570.739047 kJ/mol
# Density = 2.098072 g / cm^3
# Si number density = 21.028585 Si / 1000 Ang^3
#
#
#
# Elastic Constant Matrix: (Units=GPa)
#
#
# Indices 1 2 3 4 5 6 
#
# 1 179.6540 -8.8150 108.4281 0.0000 0.0000 0.0000
# 2 -8.8150 46.7147 7.4067 0.0000 0.0000 0.0000
# 3 108.4281 7.4067 276.9682 0.0000 0.0000 0.0000
# 4 0.0000 0.0000 0.0000 -23.5573 0.0000 0.0000
# 5 0.0000 0.0000 0.0000 0.0000 44.4927 0.0000
# 6 0.0000 0.0000 0.0000 0.0000 0.0000 -4.9141
#
#
#
# Elastic Compliance Matrix: (Units=1/GPa)
#
#
# Indices 1 2 3 4 5 6 
#
# 1 0.007448 0.001876 -0.002966 0.000000 0.000000 0.000000
# 2 0.001876 0.021970 -0.001322 0.000000 0.000000 0.000000
# 3 -0.002966 -0.001322 0.004807 0.000000 0.000000 0.000000
# 4 0.000000 0.000000 0.000000 -0.042450 0.000000 0.000000
# 5 0.000000 0.000000 0.000000 0.000000 0.022476 0.000000
# 6 0.000000 0.000000 0.000000 0.000000 0.000000 -0.203496
#
#
# Mechanical properties :
#
#
# Convention : Reuss Voigt Hill
#
# Bulk Modulus (GPa) = 34.01217 79.70849 56.86033
# Shear Modulus (GPa) = -28.63366 29.62539 0.49587
#
# Velocity S-wave (km/s) = -3.69406 3.75749 0.48613
# Velocity P-wave (km/s) = 1.40905 7.53738 5.23577
#
# Compressibility (1/GPa) = 0.02940124
#
# Stress axis : x y z
#
# Youngs Moduli (GPa) = 134.25617 45.51643 208.02793
#
# Poissons Ratio (x) = -0.08538 0.61703
# Poissons Ratio (y) = -0.25184 0.27498
# Poissons Ratio (z) = 0.39822 0.06017
#
# Static dielectric constant tensor:
#      x y z
#    x 1.968900 0.000000 0.000000 
#    y 0.000000 1.775620 0.000000 
#    z 0.000000 0.000000 1.811310 
# 
# From -- ./inp_files/21204.got.cif
#   From: 2010.05.17/outbox.cif.g08.bks.cpg/sg47_11_cif.got.tgz:21204.got - 2010.06.03 20:15:42.
