data_PCOD9383336
_publ_section_title
;
Structure prediction by ZEFSAII (Michael W. Deem and Ramdas Pophale) SiO2 
 PCOD9383336
Probable space group: P M M M
;
_chemical_formula_sum "Si O2"
_cell_formula_units_Z 64
_cell_length_a 8.092031
_cell_length_b 19.247826
_cell_length_c 22.303464
_cell_angle_alpha 90.000000
_cell_angle_beta 90.000000
_cell_angle_gamma 90.000000
_cell_volume 3473.853836
_symmetry_space_group_name_H-M "P M M M"
_symmetry_group_IT_number 47
_symmetry_cell_setting 'orthorhombic'
loop_
_space_group_symop_operation_xyz
x,y,z
-x,-y,z
x,-y,-z
-x,y,-z
-x,-y,-z
x,y,-z
-x,y,z
x,-y,z
loop_
_atom_site_type_symbol
_atom_site_label
_atom_site_fract_x
_atom_site_fract_y
_atom_site_fract_z
Si Si1 0.306698 0.922027 0.278454
Si Si2 0.198430 0.922289 0.068574
Si Si3 0.798186 0.224185 0.606638
Si Si4 0.807957 0.924072 0.411940
Si Si5 0.194094 0.723972 0.736549
Si Si6 0.695265 0.424094 0.306177
Si Si7 0.695326 0.173884 0.173601
Si Si8 0.800087 0.622631 0.434210
O O1 0.500000 0.905124 0.292364
O O2 0.205974 0.922167 0.339750
O O3 0.235245 0.873437 0.227566
O O4 0.306049 0.000000 0.254276
O O5 0.243667 0.858929 0.111949
O O6 0.000000 0.925213 0.067300
O O7 0.256627 0.000000 0.088495
O O8 0.256404 0.912089 0.000000
O O9 0.738479 0.152981 0.575113
O O10 0.740632 0.236219 0.676016
O O11 0.757370 0.295613 0.573228
O O12 0.000000 0.219776 0.608055
O O13 0.000000 0.925182 0.430157
O O14 0.735686 0.000000 0.429902
O O15 0.224191 0.642881 0.724281
O O16 0.266996 0.750425 0.799459
O O17 0.000000 0.736913 0.738173
O O18 0.500000 0.420722 0.294986
O O19 0.757894 0.500000 0.287142
O O20 0.725658 0.415868 0.377355
O O21 0.500000 0.164660 0.173073
O O22 0.749600 0.597896 0.500000
O O23 0.000000 0.617529 0.429908
#
# Coordination Sequence:
#
# PCOD9383336 Si02
#       8
#     8   8   8   8   8   8   8   8
#     4   9  17  26  35  54  86 118 148 185 230 279
#     4   9  19  35  51  67  93 135 186 232 268 301
#     4   8  14  26  42  61  86 115 150 194 241 283
#     4   9  15  23  37  56  79 109 147 189 232 278
#     4  10  19  32  50  71  96 127 162 196 236 291
#     4  10  21  36  53  74 102 130 153 188 242 297
#     4  11  20  29  45  69  98 129 164 208 255 301
#     4   9  18  32  50  70  92 124 165 203 237 282
#
# _framework density 18.423342000000002
#
# number of rings (size 3 to 8) (size 9 to 14) (size 15 to 20)
#    0.000    2.625    1.250    2.625    0.000    3.000 
#    0.000    3.125    0.000    0.375    0.000    2.625 
#    0.000    0.500    0.000   11.625    0.000    9.750 
#
# Total GULP energy -356545.532056 kJ/mol
# GULP energy per Si atom -5571.023938 kJ/mol
# Density = 1.838141 g / cm^3
# Si number density = 18.423342 Si / 1000 Ang^3
#
#
#
# Elastic Constant Matrix: (Units=GPa)
#
#
# Indices 1 2 3 4 5 6 
#
# 1 20.8147 4.8394 11.1740 0.0000 0.0000 0.0000
# 2 4.8394 100.7119 27.5395 0.0000 0.0000 0.0000
# 3 11.1740 27.5395 87.6776 0.0000 0.0000 0.0000
# 4 0.0000 0.0000 0.0000 -0.9159 0.0000 0.0000
# 5 0.0000 0.0000 0.0000 0.0000 -1.3903 0.0000
# 6 0.0000 0.0000 0.0000 0.0000 0.0000 17.0796
#
#
#
# Elastic Compliance Matrix: (Units=1/GPa)
#
#
# Indices 1 2 3 4 5 6 
#
# 1 0.051622 -0.000746 -0.006345 0.000000 0.000000 0.000000
# 2 -0.000746 0.010873 -0.003320 0.000000 0.000000 0.000000
# 3 -0.006345 -0.003320 0.013257 0.000000 0.000000 0.000000
# 4 0.000000 0.000000 0.000000 -1.091819 0.000000 0.000000
# 5 0.000000 0.000000 0.000000 0.000000 -0.719285 0.000000
# 6 0.000000 0.000000 0.000000 0.000000 0.000000 0.058549
#
#
# Mechanical properties :
#
#
# Convention : Reuss Voigt Hill
#
# Bulk Modulus (GPa) = 18.20458 32.92334 25.56396
# Shear Modulus (GPa) = -3.05312 13.99810 5.47249
#
# Velocity S-wave (km/s) = -1.28872 2.75944 1.72536
# Velocity P-wave (km/s) = 2.77278 5.29735 4.22790
#
# Compressibility (1/GPa) = 0.05493122
#
# Stress axis : x y z
#
# Youngs Moduli (GPa) = 19.37141 91.97057 75.43241
#
# Poissons Ratio (x) = 0.06857 0.47860
# Poissons Ratio (y) = 0.01444 0.25045
# Poissons Ratio (z) = 0.12291 0.30536
#
# Static dielectric constant tensor:
#      x y z
#    x 1.664060 0.000000 0.000000 
#    y 0.000000 1.711370 0.000000 
#    z 0.000000 0.000000 1.639580 
# 
# From -- ./inp_files/30157.got.cif
#   From: 2010.05.17/outbox.cif.g08.bks.cpg/sg47_16_cif.got.tgz:30157.got - 2010.06.03 20:15:42.
