data_PCOD9383865
_publ_section_title
;
Structure prediction by ZEFSAII (Michael W. Deem and Ramdas Pophale) SiO2 
 PCOD9383865
Probable space group: P M M M
;
_chemical_formula_sum "Si O2"
_cell_formula_units_Z 56
_cell_length_a 22.651240
_cell_length_b 15.499879
_cell_length_c 8.713008
_cell_angle_alpha 90.000000
_cell_angle_beta 90.000000
_cell_angle_gamma 90.000000
_cell_volume 3059.062867
_symmetry_space_group_name_H-M "P M M M"
_symmetry_group_IT_number 47
_symmetry_cell_setting 'orthorhombic'
loop_
_space_group_symop_operation_xyz
x,y,z
-x,-y,z
x,-y,-z
-x,y,-z
-x,-y,-z
x,y,-z
-x,y,z
x,-y,z
loop_
_atom_site_type_symbol
_atom_site_label
_atom_site_fract_x
_atom_site_fract_y
_atom_site_fract_z
Si Si1 0.657099 0.649925 0.685391
Si Si2 0.500000 0.900515 0.813306
Si Si3 0.835725 0.772741 0.181977
Si Si4 0.432587 0.500000 0.686448
Si Si5 0.372884 0.164783 0.183453
Si Si6 0.208637 0.402778 0.684838
Si Si7 0.069825 0.902010 0.316043
Si Si8 0.742322 0.904086 0.682689
O O1 0.655308 0.661720 0.500000
O O2 0.606011 0.582908 0.730303
O O3 0.645231 0.739433 0.768092
O O4 0.722228 0.614056 0.722587
O O5 0.439433 0.855482 0.764504
O O6 0.500000 0.000000 0.764552
O O7 0.500000 0.899449 0.000000
O O8 0.828696 0.676449 0.248336
O O9 0.891745 0.827363 0.240417
O O10 0.780054 0.829508 0.238435
O O11 0.835952 0.768283 0.000000
O O12 0.500000 0.500000 0.742562
O O13 0.434591 0.500000 0.500000
O O14 0.324854 0.103817 0.262542
O O15 0.369518 0.154024 0.000000
O O16 0.204095 0.399971 0.500000
O O17 0.192447 0.500000 0.735286
O O18 0.079137 0.898682 0.500000
O O19 0.000000 0.891091 0.287506
O O20 0.085882 0.000000 0.265955
O O21 0.745863 0.892295 0.500000
O O22 0.765056 0.000000 0.720121
#
# Coordination Sequence:
#
# PCOD9383865 Si02
#       8
#     8   4   8   4   8   8   8   8
#     4  10  19  34  55  78 105 138 178 227 284 342
#     4   9  20  38  55  70  97 138 178 219 273 345
#     4  12  24  36  56  89 125 158 193 237 291 346
#     4   9  18  32  53  81 107 137 180 231 286 345
#     4  11  22  36  55  78 104 138 180 225 283 347
#     4  10  20  37  60  82 110 152 198 241 288 346
#     4   9  19  38  64  92 124 165 208 245 283 332
#     4  11  23  38  56  79 110 147 188 237 287 336
#
# _framework density 18.306260000000002
#
# number of rings (size 3 to 8) (size 9 to 14) (size 15 to 20)
#    0.000    1.714    2.143    3.429    1.000    4.286 
#    0.000    2.143    0.000    3.429    0.000    3.000 
#    0.000    0.000    0.000    0.000    0.000    0.000 
#
# Total GULP energy -312753.764705 kJ/mol
# GULP energy per Si atom -5584.888655 kJ/mol
# Density = 1.826459 g / cm^3
# Si number density = 18.306260 Si / 1000 Ang^3
#
#
#
# Elastic Constant Matrix: (Units=GPa)
#
#
# Indices 1 2 3 4 5 6 
#
# 1 90.7084 65.7382 36.0113 0.0000 0.0000 0.0000
# 2 65.7382 164.2777 49.5567 0.0000 0.0000 0.0000
# 3 36.0113 49.5567 35.5355 0.0000 0.0000 0.0000
# 4 0.0000 0.0000 0.0000 130.5883 0.0000 0.0000
# 5 0.0000 0.0000 0.0000 0.0000 21.8950 0.0000
# 6 0.0000 0.0000 0.0000 0.0000 0.0000 31.2192
#
#
#
# Elastic Compliance Matrix: (Units=1/GPa)
#
#
# Indices 1 2 3 4 5 6 
#
# 1 0.019348 -0.003155 -0.015207 0.000000 0.000000 0.000000
# 2 -0.003155 0.011022 -0.012174 0.000000 0.000000 0.000000
# 3 -0.015207 -0.012174 0.060530 0.000000 0.000000 0.000000
# 4 0.000000 0.000000 0.000000 0.007658 0.000000 0.000000
# 5 0.000000 0.000000 0.000000 0.000000 0.045673 0.000000
# 6 0.000000 0.000000 0.000000 0.000000 0.000000 0.032032
#
#
# Mechanical properties :
#
#
# Convention : Reuss Voigt Hill
#
# Bulk Modulus (GPa) = 33.52667 65.90375 49.71521
# Shear Modulus (GPa) = 20.22023 46.02152 33.12088
#
# Velocity S-wave (km/s) = 3.32709 5.01940 4.25816
# Velocity P-wave (km/s) = 5.75443 8.34693 7.16885
#
# Compressibility (1/GPa) = 0.02982700
#
# Stress axis : x y z
#
# Youngs Moduli (GPa) = 51.68454 90.72578 16.52084
#
# Poissons Ratio (x) = 0.28623 0.25124
# Poissons Ratio (y) = 0.16306 0.20113
# Poissons Ratio (z) = 0.78599 1.10450
#
# Static dielectric constant tensor:
#      x y z
#    x 1.629470 0.000000 0.000000 
#    y 0.000000 1.636360 0.000000 
#    z 0.000000 0.000000 1.611940 
# 
# From -- ./inp_files/11370.got.cif
#   From: 2010.05.17/outbox.cif.g08.bks.cpg/sg47_6_cif.got.tgz:11370.got - 2010.06.03 20:15:42.
