data_PCOD9383960
_publ_section_title
;
Structure prediction by ZEFSAII (Michael W. Deem and Ramdas Pophale) SiO2 
 PCOD9383960
Probable space group: P M M M
;
_chemical_formula_sum "Si O2"
_cell_formula_units_Z 56
_cell_length_a 9.530412
_cell_length_b 14.930091
_cell_length_c 22.871815
_cell_angle_alpha 90.000000
_cell_angle_beta 90.000000
_cell_angle_gamma 90.000000
_cell_volume 3254.428691
_symmetry_space_group_name_H-M "P M M M"
_symmetry_group_IT_number 47
_symmetry_cell_setting 'orthorhombic'
loop_
_space_group_symop_operation_xyz
x,y,z
-x,-y,z
x,-y,-z
-x,y,-z
-x,-y,-z
x,y,-z
-x,y,z
x,-y,z
loop_
_atom_site_type_symbol
_atom_site_label
_atom_site_fract_x
_atom_site_fract_y
_atom_site_fract_z
Si Si1 0.837392 0.393469 0.251379
Si Si2 0.162542 0.852206 0.067457
Si Si3 0.168371 0.107724 0.618080
Si Si4 0.349766 0.500000 0.068891
Si Si5 0.154154 0.649866 0.113973
Si Si6 0.665093 0.097630 0.822086
Si Si7 0.662749 0.891960 0.500000
Si Si8 0.330312 0.224965 0.285388
O O1 0.802906 0.500000 0.254059
O O2 0.835171 0.361262 0.183734
O O3 0.733332 0.325198 0.283983
O O4 0.000000 0.383257 0.271328
O O5 0.166295 0.748696 0.087955
O O6 0.253323 0.898680 0.117121
O O7 0.000000 0.881379 0.070328
O O8 0.209027 0.862094 0.000000
O O9 0.247202 0.131489 0.557426
O O10 0.247894 0.164920 0.667409
O O11 0.000000 0.125203 0.616243
O O12 0.185062 0.000000 0.627489
O O13 0.500000 0.500000 0.098411
O O14 0.269801 0.587814 0.087156
O O15 0.361134 0.500000 0.000000
O O16 0.000000 0.615562 0.097321
O O17 0.500000 0.104979 0.834322
O O18 0.700443 0.176236 0.776875
O O19 0.691097 0.000000 0.793972
O O20 0.500000 0.858982 0.500000
O O21 0.653918 0.000000 0.500000
O O22 0.500000 0.224035 0.293853
#
# Coordination Sequence:
#
# PCOD9383960 Si02
#       8
#     8   8   8   4   8   8   4   8
#     4  10  20  36  57  79 103 134 174 221 273 331
#     4  10  21  36  54  74  95 124 167 218 269 324
#     4  10  20  34  55  85 121 160 198 233 270 315
#     4  11  23  33  45  71 101 125 157 204 259 326
#     4  10  19  35  55  72  94 126 164 209 265 330
#     4  10  22  38  54  74 102 137 175 218 271 327
#     4   9  17  31  53  83 122 163 198 233 271 313
#     4  11  22  36  56  81 111 145 182 228 276 327
#
# _framework density 17.207321
#
# number of rings (size 3 to 8) (size 9 to 14) (size 15 to 20)
#    0.000    1.857    2.143    2.143    0.000    6.286 
#    0.000    1.429    0.000    0.000    0.000    0.500 
#    0.000    4.000    0.000    0.000    0.000    0.000 
#
# Total GULP energy -312180.005948 kJ/mol
# GULP energy per Si atom -5574.642963 kJ/mol
# Density = 1.716816 g / cm^3
# Si number density = 17.207321 Si / 1000 Ang^3
#
#
#
# Elastic Constant Matrix: (Units=GPa)
#
#
# Indices 1 2 3 4 5 6 
#
# 1 111.4836 59.8572 58.6173 0.0000 0.0000 0.0000
# 2 59.8572 90.4763 37.7411 0.0000 0.0000 0.0000
# 3 58.6173 37.7411 96.7739 0.0000 0.0000 0.0000
# 4 0.0000 0.0000 0.0000 13.4957 0.0000 0.0000
# 5 0.0000 0.0000 0.0000 0.0000 28.5003 0.0000
# 6 0.0000 0.0000 0.0000 0.0000 0.0000 37.0144
#
#
#
# Elastic Compliance Matrix: (Units=1/GPa)
#
#
# Indices 1 2 3 4 5 6 
#
# 1 0.017268 -0.008433 -0.007171 0.000000 0.000000 0.000000
# 2 -0.008433 0.017318 -0.001646 0.000000 0.000000 0.000000
# 3 -0.007171 -0.001646 0.015319 0.000000 0.000000 0.000000
# 4 0.000000 0.000000 0.000000 0.074097 0.000000 0.000000
# 5 0.000000 0.000000 0.000000 0.000000 0.035087 0.000000
# 6 0.000000 0.000000 0.000000 0.000000 0.000000 0.027017
#
#
# Mechanical properties :
#
#
# Convention : Reuss Voigt Hill
#
# Bulk Modulus (GPa) = 64.91135 67.90722 66.40929
# Shear Modulus (GPa) = 22.14928 25.30330 23.72629
#
# Velocity S-wave (km/s) = 3.59165 3.83887 3.71731
# Velocity P-wave (km/s) = 7.41653 7.69409 7.55658
#
# Compressibility (1/GPa) = 0.01540563
#
# Stress axis : x y z
#
# Youngs Moduli (GPa) = 57.91048 57.74225 65.27972
#
# Poissons Ratio (x) = 0.48694 0.46810
# Poissons Ratio (y) = 0.48836 0.10745
# Poissons Ratio (z) = 0.41526 0.09505
#
# Static dielectric constant tensor:
#      x y z
#    x 1.600600 0.000000 0.000000 
#    y 0.000000 1.593020 0.000000 
#    z 0.000000 0.000000 1.570170 
# 
# From -- ./inp_files/21619.got.cif
#   From: 2010.05.17/outbox.cif.g08.bks.cpg/sg47_11_cif.got.tgz:21619.got - 2010.06.03 20:15:42.
