data_PCOD9383223
_publ_section_title
;
Structure prediction by ZEFSAII (Michael W. Deem and Ramdas Pophale) SiO2 
 PCOD9383223
Probable space group: P M M M
;
_chemical_formula_sum "Si O2"
_cell_formula_units_Z 52
_cell_length_a 15.946086
_cell_length_b 21.217669
_cell_length_c 7.825743
_cell_angle_alpha 90.000000
_cell_angle_beta 90.000000
_cell_angle_gamma 90.000000
_cell_volume 2647.752297
_symmetry_space_group_name_H-M "P M M M"
_symmetry_group_IT_number 47
_symmetry_cell_setting 'orthorhombic'
loop_
_space_group_symop_operation_xyz
x,y,z
-x,-y,z
x,-y,-z
-x,y,-z
-x,-y,-z
x,y,-z
-x,y,z
x,-y,z
loop_
_atom_site_type_symbol
_atom_site_label
_atom_site_fract_x
_atom_site_fract_y
_atom_site_fract_z
Si Si1 0.103074 0.072004 0.000000
Si Si2 0.909803 0.392265 0.000000
Si Si3 0.099998 0.155667 0.309232
Si Si4 0.401668 0.068299 0.794723
Si Si5 0.286448 0.426914 0.000000
Si Si6 0.319727 0.666675 0.696688
Si Si7 0.875537 0.699454 0.306537
Si Si8 0.595193 0.204052 0.704932
O O1 0.133304 0.108500 0.832423
O O2 0.000000 0.073501 0.000000
O O3 0.129432 0.000000 0.000000
O O4 0.816784 0.423557 0.000000
O O5 0.910043 0.348004 0.167038
O O6 0.000000 0.427412 0.000000
O O7 0.135764 0.148169 0.500000
O O8 0.110560 0.228172 0.256014
O O9 0.000000 0.144574 0.320027
O O10 0.500000 0.069452 0.737604
O O11 0.363956 0.136084 0.744791
O O12 0.366864 0.000000 0.735865
O O13 0.401570 0.067144 0.000000
O O14 0.321074 0.389969 0.832987
O O15 0.310089 0.500000 0.000000
O O16 0.347255 0.651474 0.500000
O O17 0.222910 0.686403 0.686610
O O18 0.364718 0.730244 0.762389
O O19 0.908043 0.691359 0.500000
O O20 0.593685 0.208221 0.500000
O O21 0.500000 0.201847 0.771667
#
# Coordination Sequence:
#
# PCOD9383223 Si02
#       8
#     4   4   8   8   4   8   8   8
#     4   9  17  27  38  54  78 109 147 192 239 284
#     4  10  19  31  51  78 106 132 156 192 236 282
#     4   9  16  25  40  62  84 108 143 188 233 277
#     4   8  14  24  39  64  99 135 168 204 250 304
#     4  10  22  38  56  79 103 136 175 202 243 308
#     4   9  19  35  54  77 103 133 169 210 253 299
#     4   9  17  30  48  71  99 128 158 193 238 294
#     4   9  17  29  48  75 102 130 170 219 266 305
#
# _framework density 19.639299999999999
#
# number of rings (size 3 to 8) (size 9 to 14) (size 15 to 20)
#    0.000    3.000    0.000    1.385    1.077    2.615 
#    0.000    3.077    0.000    1.846    0.000   10.769 
#    0.000    0.000    0.000    0.000    0.000    0.000 
#
# Total GULP energy -289567.928496 kJ/mol
# GULP energy per Si atom -5568.614010 kJ/mol
# Density = 1.959460 g / cm^3
# Si number density = 19.639300 Si / 1000 Ang^3
#
#
#
# Elastic Constant Matrix: (Units=GPa)
#
#
# Indices 1 2 3 4 5 6 
#
# 1 17.2447 29.0771 7.8472 0.0000 0.0000 0.0000
# 2 29.0771 177.0464 70.4323 0.0000 0.0000 0.0000
# 3 7.8472 70.4323 70.3421 0.0000 0.0000 0.0000
# 4 0.0000 0.0000 0.0000 -12.9159 0.0000 0.0000
# 5 0.0000 0.0000 0.0000 0.0000 11.9155 0.0000
# 6 0.0000 0.0000 0.0000 0.0000 0.0000 10.6923
#
#
#
# Elastic Compliance Matrix: (Units=1/GPa)
#
#
# Indices 1 2 3 4 5 6 
#
# 1 0.082357 -0.016406 0.007239 0.000000 0.000000 0.000000
# 2 -0.016406 0.012656 -0.010842 0.000000 0.000000 0.000000
# 3 0.007239 -0.010842 0.024264 0.000000 0.000000 0.000000
# 4 0.000000 0.000000 0.000000 -0.077424 0.000000 0.000000
# 5 0.000000 0.000000 0.000000 0.000000 0.083925 0.000000
# 6 0.000000 0.000000 0.000000 0.000000 0.000000 0.093525
#
#
# Mechanical properties :
#
#
# Convention : Reuss Voigt Hill
#
# Bulk Modulus (GPa) = 12.61659 53.26070 32.93865
# Shear Modulus (GPa) = 17.49847 12.42349 14.96098
#
# Velocity S-wave (km/s) = 2.98819 2.51785 2.76304
# Velocity P-wave (km/s) = 4.28297 5.96918 5.19494
#
# Compressibility (1/GPa) = 0.07926070
#
# Stress axis : x y z
#
# Youngs Moduli (GPa) = 12.14223 79.01599 41.21288
#
# Poissons Ratio (x) = 1.29632 -0.29835
# Poissons Ratio (y) = 0.19920 0.44682
# Poissons Ratio (z) = -0.08790 0.85667
#
# Static dielectric constant tensor:
#      x y z
#    x 1.730490 0.000000 0.000000 
#    y 0.000000 1.677210 0.000000 
#    z 0.000000 0.000000 1.707930 
# 
# From -- ./inp_files/9600.got.cif
#   From: 2010.05.17/outbox.cif.g08.bks.cpg/sg47_5_cif.got.tgz:9600.got - 2010.06.03 20:15:42.
