data_PCOD9383373
_publ_section_title
;
Structure prediction by ZEFSAII (Michael W. Deem and Ramdas Pophale) SiO2 
 PCOD9383373
Probable space group: P M M M
;
_chemical_formula_sum "Si O2"
_cell_formula_units_Z 64
_cell_length_a 9.374513
_cell_length_b 17.919450
_cell_length_c 21.235860
_cell_angle_alpha 90.000000
_cell_angle_beta 90.000000
_cell_angle_gamma 90.000000
_cell_volume 3567.329662
_symmetry_space_group_name_H-M "P M M M"
_symmetry_group_IT_number 47
_symmetry_cell_setting 'orthorhombic'
loop_
_space_group_symop_operation_xyz
x,y,z
-x,-y,z
x,-y,-z
-x,y,-z
-x,-y,-z
x,y,-z
-x,y,z
x,-y,z
loop_
_atom_site_type_symbol
_atom_site_label
_atom_site_fract_x
_atom_site_fract_y
_atom_site_fract_z
Si Si1 0.841182 0.698914 0.073565
Si Si2 0.833685 0.369483 0.263210
Si Si3 0.666606 0.419049 0.146549
Si Si4 0.670213 0.916305 0.199108
Si Si5 0.329307 0.736096 0.431416
Si Si6 0.327787 0.782341 0.293042
Si Si7 0.831545 0.877260 0.928029
Si Si8 0.167307 0.416575 0.406020
O O1 0.723148 0.649888 0.106629
O O2 0.818666 0.787468 0.078098
O O3 0.000000 0.682153 0.099124
O O4 0.841497 0.680706 0.000000
O O5 0.757216 0.416370 0.209932
O O6 0.751591 0.290645 0.267080
O O7 0.823676 0.409522 0.330475
O O8 0.000000 0.357312 0.249900
O O9 0.500000 0.410930 0.160554
O O10 0.688131 0.500000 0.115040
O O11 0.500000 0.908176 0.189291
O O12 0.712975 0.853447 0.250236
O O13 0.746564 0.908693 0.131403
O O14 0.697440 0.000000 0.223465
O O15 0.293913 0.770141 0.500000
O O16 0.500000 0.725716 0.428896
O O17 0.291112 0.782173 0.368066
O O18 0.255572 0.654767 0.428926
O O19 0.500000 0.773845 0.288311
O O20 0.000000 0.895847 0.923264
O O21 0.786091 0.897625 0.000000
O O22 0.214422 0.500000 0.425028
O O23 0.000000 0.408679 0.423235
#
# Coordination Sequence:
#
# PCOD9383373 Si02
#       8
#     8   8   8   8   8   8   8   8
#     4   9  19  36  55  72  91 120 161 206 249 295
#     4  10  19  32  51  72  94 123 164 209 249 294
#     4  11  23  34  45  66  96 128 163 206 255 302
#     4  10  21  35  52  77 107 136 165 199 242 293
#     4   9  18  32  50  72  97 129 170 211 251 297
#     4   9  18  34  54  74 100 133 166 204 251 300
#     4   9  19  36  56  78 104 133 165 201 242 291
#     4   9  18  31  46  67  97 131 164 201 248 297
#
# _framework density 17.94059
#
# number of rings (size 3 to 8) (size 9 to 14) (size 15 to 20)
#    0.000    2.500    0.000    2.625    0.000    7.000 
#    0.000    5.000    0.000    0.375    0.000    2.625 
#    0.000    0.000    0.000    7.375    0.000    7.750 
#
# Total GULP energy -356752.645451 kJ/mol
# GULP energy per Si atom -5574.260085 kJ/mol
# Density = 1.789976 g / cm^3
# Si number density = 17.940590 Si / 1000 Ang^3
#
#
#
# Elastic Constant Matrix: (Units=GPa)
#
#
# Indices 1 2 3 4 5 6 
#
# 1 38.4576 32.2855 25.8658 0.0000 0.0000 0.0000
# 2 32.2855 85.5680 54.7439 0.0000 0.0000 0.0000
# 3 25.8658 54.7439 100.2362 0.0000 0.0000 0.0000
# 4 0.0000 0.0000 0.0000 -15.0525 0.0000 0.0000
# 5 0.0000 0.0000 0.0000 0.0000 17.3648 0.0000
# 6 0.0000 0.0000 0.0000 0.0000 0.0000 -47.8498
#
#
#
# Elastic Compliance Matrix: (Units=1/GPa)
#
#
# Indices 1 2 3 4 5 6 
#
# 1 0.038670 -0.012614 -0.003090 0.000000 0.000000 0.000000
# 2 -0.012614 0.022078 -0.008803 0.000000 0.000000 0.000000
# 3 -0.003090 -0.008803 0.015581 0.000000 0.000000 0.000000
# 4 0.000000 0.000000 0.000000 -0.066434 0.000000 0.000000
# 5 0.000000 0.000000 0.000000 0.000000 0.057588 0.000000
# 6 0.000000 0.000000 0.000000 0.000000 0.000000 -0.020899
#
#
# Mechanical properties :
#
#
# Convention : Reuss Voigt Hill
#
# Bulk Modulus (GPa) = 36.60782 50.00579 43.30681
# Shear Modulus (GPa) = 47.75458 -1.68305 23.03577
#
# Velocity S-wave (km/s) = 5.16488 -0.96962 3.58719
# Velocity P-wave (km/s) = 7.48447 5.16526 6.43029
#
# Compressibility (1/GPa) = 0.02731657
#
# Stress axis : x y z
#
# Youngs Moduli (GPa) = 25.85977 45.29476 64.17946
#
# Poissons Ratio (x) = 0.57134 0.19830
# Poissons Ratio (y) = 0.32619 0.56495
# Poissons Ratio (z) = 0.07990 0.39872
#
# Static dielectric constant tensor:
#      x y z
#    x 1.599750 0.000000 0.000000 
#    y 0.000000 1.604220 0.000000 
#    z 0.000000 0.000000 1.647720 
# 
# From -- ./inp_files/9974.got.cif
#   From: 2010.05.17/outbox.cif.g08.bks.cpg/sg47_5_cif.got.tgz:9974.got - 2010.06.03 20:15:42.
