data_PCOD9383343
_publ_section_title
;
Structure prediction by ZEFSAII (Michael W. Deem and Ramdas Pophale) SiO2 
 PCOD9383343
Probable space group: P M M M
;
_chemical_formula_sum "Si O2"
_cell_formula_units_Z 52
_cell_length_a 12.991335
_cell_length_b 25.763434
_cell_length_c 7.724296
_cell_angle_alpha 90.000000
_cell_angle_beta 90.000000
_cell_angle_gamma 90.000000
_cell_volume 2585.332699
_symmetry_space_group_name_H-M "P M M M"
_symmetry_group_IT_number 47
_symmetry_cell_setting 'orthorhombic'
loop_
_space_group_symop_operation_xyz
x,y,z
-x,-y,z
x,-y,-z
-x,y,-z
-x,-y,-z
x,y,-z
-x,y,z
x,-y,z
loop_
_atom_site_type_symbol
_atom_site_label
_atom_site_fract_x
_atom_site_fract_y
_atom_site_fract_z
Si Si1 0.820460 0.387257 0.209124
Si Si2 0.612430 0.662845 0.209656
Si Si3 0.215164 0.140119 0.800448
Si Si4 0.384368 0.060592 0.211215
Si Si5 0.385835 0.783062 0.296699
Si Si6 0.000000 0.693540 0.297188
Si Si7 0.877402 0.500000 0.200227
Si Si8 0.000000 0.814998 0.793517
O O1 0.708321 0.370292 0.269871
O O2 0.902016 0.342079 0.250102
O O3 0.846385 0.444572 0.277954
O O4 0.821408 0.390623 0.000000
O O5 0.500000 0.643052 0.262083
O O6 0.622705 0.721519 0.274705
O O7 0.615292 0.664773 0.000000
O O8 0.288604 0.094922 0.723960
O O9 0.292200 0.189021 0.795914
O O10 0.105388 0.158361 0.724629
O O11 0.195298 0.125159 0.000000
O O12 0.500000 0.076856 0.268928
O O13 0.371952 0.000000 0.254794
O O14 0.385001 0.064437 0.000000
O O15 0.380623 0.795786 0.500000
O O16 0.500000 0.798021 0.230459
O O17 0.000000 0.752363 0.226545
O O18 0.000000 0.700693 0.500000
O O19 0.000000 0.500000 0.194696
O O20 0.839224 0.500000 0.000000
O O21 0.000000 0.823086 0.000000
#
# Coordination Sequence:
#
# PCOD9383343 Si02
#       8
#     8   8   8   8   8   4   4   4
#     4  10  19  34  55  75  99 131 163 198 245 296
#     4   9  18  32  50  73 100 130 164 199 237 290
#     4  10  19  32  50  71  98 133 169 203 241 289
#     4   8  14  26  47  75 101 124 157 203 249 288
#     4  10  20  32  48  72 100 128 161 204 251 295
#     4  12  24  35  51  75 100 127 166 211 252 291
#     4   9  16  30  53  77  97 124 163 200 241 295
#     4  10  22  36  48  69 102 136 169 203 240 287
#
# _framework density 20.113465000000001
#
# number of rings (size 3 to 8) (size 9 to 14) (size 15 to 20)
#    0.000    2.385    0.769    3.000    0.000    6.462 
#    0.000    1.538    0.000    5.077    0.000    2.154 
#    0.000    5.538    0.000    0.000    0.000    0.000 
#
# Total GULP energy -289979.939297 kJ/mol
# GULP energy per Si atom -5576.537294 kJ/mol
# Density = 2.006769 g / cm^3
# Si number density = 20.113465 Si / 1000 Ang^3
#
#
#
# Elastic Constant Matrix: (Units=GPa)
#
#
# Indices 1 2 3 4 5 6 
#
# 1 185.6683 95.5378 11.9862 0.0000 0.0000 0.0000
# 2 95.5378 123.6022 2.8457 0.0000 0.0000 0.0000
# 3 11.9862 2.8457 34.7484 0.0000 0.0000 0.0000
# 4 0.0000 0.0000 0.0000 -28.3857 0.0000 0.0000
# 5 0.0000 0.0000 0.0000 0.0000 -37.2456 0.0000
# 6 0.0000 0.0000 0.0000 0.0000 0.0000 45.4502
#
#
#
# Elastic Compliance Matrix: (Units=1/GPa)
#
#
# Indices 1 2 3 4 5 6 
#
# 1 0.009169 -0.007028 -0.002587 0.000000 0.000000 0.000000
# 2 -0.007028 0.013492 0.001319 0.000000 0.000000 0.000000
# 3 -0.002587 0.001319 0.029563 0.000000 0.000000 0.000000
# 4 0.000000 0.000000 0.000000 -0.035229 0.000000 0.000000
# 5 0.000000 0.000000 0.000000 0.000000 -0.026849 0.000000
# 6 0.000000 0.000000 0.000000 0.000000 0.000000 0.022002
#
#
# Mechanical properties :
#
#
# Convention : Reuss Voigt Hill
#
# Bulk Modulus (GPa) = 28.06429 62.75092 45.40761
# Shear Modulus (GPa) = 123.10032 11.54041 67.32037
#
# Velocity S-wave (km/s) = 7.83172 2.39794 5.79163
# Velocity P-wave (km/s) = 9.78593 6.23963 8.20662
#
# Compressibility (1/GPa) = 0.03563247
#
# Stress axis : x y z
#
# Youngs Moduli (GPa) = 109.06131 74.11735 33.82638
#
# Poissons Ratio (x) = 0.52087 0.08752
# Poissons Ratio (y) = 0.76645 -0.04462
# Poissons Ratio (z) = 0.28218 -0.09778
#
# Static dielectric constant tensor:
#      x y z
#    x 1.741500 0.000000 0.000000 
#    y 0.000000 1.715310 0.000000 
#    z 0.000000 0.000000 1.740320 
# 
# From -- ./inp_files/4633.got.cif
#   From: 2010.05.17/outbox.cif.g08.bks.cpg/sg47_3_cif.got.tgz:4633.got - 2010.06.03 20:15:42.
