data_PCOD9383050
_publ_section_title
;
Structure prediction by ZEFSAII (Michael W. Deem and Ramdas Pophale) SiO2 
 PCOD9383050
Probable space group: P M M M
;
_chemical_formula_sum "Si O2"
_cell_formula_units_Z 52
_cell_length_a 7.493306
_cell_length_b 28.987713
_cell_length_c 12.256677
_cell_angle_alpha 90.000000
_cell_angle_beta 90.000000
_cell_angle_gamma 90.000000
_cell_volume 2662.319432
_symmetry_space_group_name_H-M "P M M M"
_symmetry_group_IT_number 47
_symmetry_cell_setting 'orthorhombic'
loop_
_space_group_symop_operation_xyz
x,y,z
-x,-y,z
x,-y,-z
-x,y,-z
-x,-y,-z
x,y,-z
-x,y,z
x,-y,z
loop_
_atom_site_type_symbol
_atom_site_label
_atom_site_fract_x
_atom_site_fract_y
_atom_site_fract_z
Si Si1 0.290376 0.134512 0.773548
Si Si2 0.285096 0.399662 0.375497
Si Si3 0.717953 0.052935 0.376075
Si Si4 0.294335 0.500000 0.367392
Si Si5 0.282880 0.176169 0.000000
Si Si6 0.216215 0.222251 0.375235
Si Si7 0.786934 0.690370 0.763551
Si Si8 0.789591 0.714816 0.000000
O O1 0.500000 0.125510 0.791414
O O2 0.216670 0.089416 0.712883
O O3 0.272290 0.177240 0.691056
O O4 0.218221 0.150847 0.890376
O O5 0.222583 0.390182 0.500000
O O6 0.500000 0.403564 0.381259
O O7 0.216131 0.450085 0.338195
O O8 0.243687 0.358129 0.295009
O O9 0.772380 0.065445 0.500000
O O10 0.500000 0.053974 0.375659
O O11 0.770724 0.000000 0.355288
O O12 0.500000 0.500000 0.328902
O O13 0.296815 0.500000 0.500000
O O14 0.228648 0.229755 0.000000
O O15 0.500000 0.176255 0.000000
O O16 0.278013 0.221375 0.500000
O O17 0.280397 0.267816 0.311979
O O18 0.000000 0.223005 0.376700
O O19 0.000000 0.696954 0.770346
O O20 0.714893 0.695303 0.886362
O O21 0.000000 0.703715 0.000000
#
# Coordination Sequence:
#
# PCOD9383050 Si02
#       8
#     8   8   8   4   4   8   8   4
#     4  10  19  31  48  70  95 124 158 197 237 278
#     4   9  17  30  50  75 101 129 159 193 237 286
#     4   8  14  26  45  68  93 122 156 192 233 284
#     4   7  12  26  47  70  97 128 160 191 228 281
#     4  10  20  32  47  70  97 121 156 206 242 268
#     4  10  20  32  47  69  96 124 154 192 239 288
#     4  10  20  33  49  69  94 124 161 201 238 281
#     4  10  20  36  54  66  86 129 173 196 229 286
#
# _framework density 19.531841
#
# number of rings (size 3 to 8) (size 9 to 14) (size 15 to 20)
#    0.000    2.692    1.538    2.308    0.000    3.077 
#    0.000    0.769    0.000    4.615    0.000    5.385 
#    0.000    1.846    0.000    0.000    0.000    0.000 
#
# Total GULP energy -290085.704819 kJ/mol
# GULP energy per Si atom -5578.571247 kJ/mol
# Density = 1.948739 g / cm^3
# Si number density = 19.531841 Si / 1000 Ang^3
#
#
#
# Elastic Constant Matrix: (Units=GPa)
#
#
# Indices 1 2 3 4 5 6 
#
# 1 48.4827 -14.5750 -0.8953 0.0000 0.0000 0.0000
# 2 -14.5750 147.5241 97.8161 0.0000 0.0000 0.0000
# 3 -0.8953 97.8161 176.8572 0.0000 0.0000 0.0000
# 4 0.0000 0.0000 0.0000 7.4129 0.0000 0.0000
# 5 0.0000 0.0000 0.0000 0.0000 11.1610 0.0000
# 6 0.0000 0.0000 0.0000 0.0000 0.0000 34.8471
#
#
#
# Elastic Compliance Matrix: (Units=1/GPa)
#
#
# Indices 1 2 3 4 5 6 
#
# 1 0.021572 0.003251 -0.001689 0.000000 0.000000 0.000000
# 2 0.003251 0.011194 -0.006175 0.000000 0.000000 0.000000
# 3 -0.001689 -0.006175 0.009061 0.000000 0.000000 0.000000
# 4 0.000000 0.000000 0.000000 0.134901 0.000000 0.000000
# 5 0.000000 0.000000 0.000000 0.000000 0.089597 0.000000
# 6 0.000000 0.000000 0.000000 0.000000 0.000000 0.028697
#
#
# Mechanical properties :
#
#
# Convention : Reuss Voigt Hill
#
# Bulk Modulus (GPa) = 30.67309 59.72839 45.20074
# Shear Modulus (GPa) = 15.86729 30.05209 22.95969
#
# Velocity S-wave (km/s) = 2.85332 3.92678 3.43228
# Velocity P-wave (km/s) = 5.15689 7.15583 6.23696
#
# Compressibility (1/GPa) = 0.03260187
#
# Stress axis : x y z
#
# Youngs Moduli (GPa) = 46.35617 89.33468 110.36557
#
# Poissons Ratio (x) = -0.29044 0.18640
# Poissons Ratio (y) = -0.15071 0.68147
# Poissons Ratio (z) = 0.07829 0.55161
#
# Static dielectric constant tensor:
#      x y z
#    x 1.745890 0.000000 0.000000 
#    y 0.000000 1.671340 0.000000 
#    z 0.000000 0.000000 1.676270 
# 
# From -- ./inp_files/15505.got.cif
#   From: 2010.05.17/outbox.cif.g08.bks.cpg/sg47_8_cif.got.tgz:15505.got - 2010.06.03 20:15:42.
