data_PCOD9383791
_publ_section_title
;
Structure prediction by ZEFSAII (Michael W. Deem and Ramdas Pophale) SiO2 
 PCOD9383791
Probable space group: P M M M
;
_chemical_formula_sum "Si O2"
_cell_formula_units_Z 48
_cell_length_a 19.499071
_cell_length_b 7.751133
_cell_length_c 15.870804
_cell_angle_alpha 90.000000
_cell_angle_beta 90.000000
_cell_angle_gamma 90.000000
_cell_volume 2398.711614
_symmetry_space_group_name_H-M "P M M M"
_symmetry_group_IT_number 47
_symmetry_cell_setting 'orthorhombic'
loop_
_space_group_symop_operation_xyz
x,y,z
-x,-y,z
x,-y,-z
-x,y,-z
-x,-y,-z
x,y,-z
-x,y,z
x,-y,z
loop_
_atom_site_type_symbol
_atom_site_label
_atom_site_fract_x
_atom_site_fract_y
_atom_site_fract_z
Si Si1 0.578349 0.000000 0.600925
Si Si2 0.823602 0.290031 0.404421
Si Si3 0.319028 0.199615 0.149319
Si Si4 0.578744 0.706890 0.000000
Si Si5 0.833239 0.291299 0.093116
Si Si6 0.078888 0.288629 0.253713
Si Si7 0.326814 0.304584 0.337054
O O1 0.617202 0.169461 0.632853
O O2 0.500000 0.000000 0.630436
O O3 0.579662 0.000000 0.500000
O O4 0.834347 0.229564 0.500000
O O5 0.826530 0.500000 0.405510
O O6 0.879496 0.231663 0.336413
O O7 0.747607 0.246979 0.371523
O O8 0.378421 0.236479 0.081966
O O9 0.245170 0.237312 0.108424
O O10 0.324707 0.303796 0.235759
O O11 0.321916 0.000000 0.173412
O O12 0.577454 0.500000 0.000000
O O13 0.500000 0.769627 0.000000
O O14 0.834654 0.500000 0.094092
O O15 0.880704 0.231680 0.169974
O O16 0.855461 0.233557 0.000000
O O17 0.079541 0.500000 0.253562
O O18 0.000000 0.233943 0.254093
O O19 0.339473 0.500000 0.367178
#
# Coordination Sequence:
#
# PCOD9383791 Si02
#       7
#     4   8   8   4   8   8   8
#     4  11  26  46  66  95 130 160 203 263 322 380
#     4   9  17  30  53  85 118 157 204 253 308 371
#     4  12  23  38  62  91 123 162 208 259 309 367
#     4  11  25  43  63  91 126 163 202 248 313 386
#     4  10  19  33  56  82 114 157 204 253 306 367
#     4   9  17  29  48  80 120 158 200 253 310 369
#     4  11  22  41  67  93 125 167 215 261 312 377
#
# _framework density 20.010742
#
# number of rings (size 3 to 8) (size 9 to 14) (size 15 to 20)
#    0.000    1.667    3.333    2.250    0.000    3.333 
#    0.000    4.167    0.000    0.500    0.000    1.167 
#    0.000    3.333    0.000    0.167    0.000    0.000 
#
# Total GULP energy -268260.716459 kJ/mol
# GULP energy per Si atom -5588.764926 kJ/mol
# Density = 1.996520 g / cm^3
# Si number density = 20.010742 Si / 1000 Ang^3
#
#
#
# Elastic Constant Matrix: (Units=GPa)
#
#
# Indices 1 2 3 4 5 6 
#
# 1 193.3745 32.1350 99.4613 0.0000 0.0000 0.0000
# 2 32.1350 63.9218 17.7279 0.0000 0.0000 0.0000
# 3 99.4613 17.7279 159.9301 0.0000 0.0000 0.0000
# 4 0.0000 0.0000 0.0000 13.1527 0.0000 0.0000
# 5 0.0000 0.0000 0.0000 0.0000 59.2120 0.0000
# 6 0.0000 0.0000 0.0000 0.0000 0.0000 17.1861
#
#
#
# Elastic Compliance Matrix: (Units=1/GPa)
#
#
# Indices 1 2 3 4 5 6 
#
# 1 0.008043 -0.002741 -0.004698 0.000000 0.000000 0.000000
# 2 -0.002741 0.017074 -0.000188 0.000000 0.000000 0.000000
# 3 -0.004698 -0.000188 0.009196 0.000000 0.000000 0.000000
# 4 0.000000 0.000000 0.000000 0.076030 0.000000 0.000000
# 5 0.000000 0.000000 0.000000 0.000000 0.016888 0.000000
# 6 0.000000 0.000000 0.000000 0.000000 0.000000 0.058187
#
#
# Mechanical properties :
#
#
# Convention : Reuss Voigt Hill
#
# Bulk Modulus (GPa) = 52.46992 79.54164 66.00578
# Shear Modulus (GPa) = 24.15166 35.77032 29.96099
#
# Velocity S-wave (km/s) = 3.47787 4.23254 3.87362
# Velocity P-wave (km/s) = 6.51193 7.98258 7.28446
#
# Compressibility (1/GPa) = 0.01905854
#
# Stress axis : x y z
#
# Youngs Moduli (GPa) = 124.32651 58.56835 108.74811
#
# Poissons Ratio (x) = 0.16051 0.51094
# Poissons Ratio (y) = 0.34072 0.02047
# Poissons Ratio (z) = 0.58414 0.01103
#
# Static dielectric constant tensor:
#      x y z
#    x 1.660580 0.000000 0.000000 
#    y 0.000000 1.713050 0.000000 
#    z 0.000000 0.000000 1.704680 
# 
# From -- ./inp_files/24486.got.cif
#   From: 2010.05.17/outbox.cif.g08.bks.cpg/sg47_13_cif.got.tgz:24486.got - 2010.06.03 20:15:42.
