data_PCOD9383176
_publ_section_title
;
Structure prediction by ZEFSAII (Michael W. Deem and Ramdas Pophale) SiO2 
 PCOD9383176
Probable space group: P M M M
;
_chemical_formula_sum "Si O2"
_cell_formula_units_Z 64
_cell_length_a 8.189762
_cell_length_b 16.853413
_cell_length_c 23.117250
_cell_angle_alpha 90.000000
_cell_angle_beta 90.000000
_cell_angle_gamma 90.000000
_cell_volume 3190.768634
_symmetry_space_group_name_H-M "P M M M"
_symmetry_group_IT_number 47
_symmetry_cell_setting 'orthorhombic'
loop_
_space_group_symop_operation_xyz
x,y,z
-x,-y,z
x,-y,-z
-x,y,-z
-x,-y,-z
x,y,-z
-x,y,z
x,-y,z
loop_
_atom_site_type_symbol
_atom_site_label
_atom_site_fract_x
_atom_site_fract_y
_atom_site_fract_z
Si Si1 0.693428 0.245345 0.437952
Si Si2 0.810772 0.380368 0.731427
Si Si3 0.812615 0.091261 0.233660
Si Si4 0.688392 0.779670 0.688455
Si Si5 0.308047 0.587389 0.858238
Si Si6 0.802512 0.586173 0.600540
Si Si7 0.802155 0.088927 0.097549
Si Si8 0.196496 0.265430 0.064296
O O1 0.763950 0.219655 0.500000
O O2 0.500000 0.229492 0.439600
O O3 0.754464 0.210761 0.376899
O O4 0.723072 0.339401 0.430583
O O5 0.789280 0.286490 0.722558
O O6 0.720143 0.405776 0.789242
O O7 0.755595 0.411952 0.668658
O O8 0.000000 0.401777 0.738619
O O9 0.699936 0.141739 0.274682
O O10 0.768938 0.094709 0.166098
O O11 0.000000 0.119955 0.238785
O O12 0.808880 0.000000 0.250805
O O13 0.500000 0.752145 0.684827
O O14 0.500000 0.586646 0.869672
O O15 0.240509 0.500000 0.876488
O O16 0.241979 0.666507 0.889648
O O17 0.760711 0.500000 0.576443
O O18 0.000000 0.595630 0.598369
O O19 0.743619 0.174007 0.073212
O O20 0.000000 0.087238 0.089691
O O21 0.744989 0.000000 0.077880
O O22 0.000000 0.260120 0.065849
O O23 0.248317 0.291257 0.000000
#
# Coordination Sequence:
#
# PCOD9383176 Si02
#       8
#     8   8   8   8   8   8   8   8
#     4   9  19  34  48  64  90 127 170 210 247 291
#     4  10  19  33  54  77 102 131 164 206 259 315
#     4   9  17  30  50  76 105 136 168 203 249 307
#     4  10  19  31  50  75 102 133 169 210 256 305
#     4  11  24  39  55  76 103 138 180 226 274 318
#     4   9  18  31  47  70  98 125 155 196 248 303
#     4   8  15  30  53  81 111 139 166 201 250 308
#     4  10  21  36  56  82 108 138 179 221 259 307
#
# _framework density 20.057862
#
# number of rings (size 3 to 8) (size 9 to 14) (size 15 to 20)
#    0.000    2.500    0.000    3.000    0.000    5.250 
#    0.000    3.750    0.000    1.500    0.000    3.500 
#    0.000    0.000    0.000    0.000    0.000    0.000 
#
# Total GULP energy -356649.028049 kJ/mol
# GULP energy per Si atom -5572.641063 kJ/mol
# Density = 2.001221 g / cm^3
# Si number density = 20.057862 Si / 1000 Ang^3
#
#
#
# Elastic Constant Matrix: (Units=GPa)
#
#
# Indices 1 2 3 4 5 6 
#
# 1 12.0142 11.0888 9.7934 0.0000 0.0000 0.0000
# 2 11.0888 83.6103 40.6305 0.0000 0.0000 0.0000
# 3 9.7934 40.6305 65.4881 0.0000 0.0000 0.0000
# 4 0.0000 0.0000 0.0000 68.7515 0.0000 0.0000
# 5 0.0000 0.0000 0.0000 0.0000 17.1140 0.0000
# 6 0.0000 0.0000 0.0000 0.0000 0.0000 -1.8929
#
#
#
# Elastic Compliance Matrix: (Units=1/GPa)
#
#
# Indices 1 2 3 4 5 6 
#
# 1 0.098820 -0.008482 -0.009516 0.000000 0.000000 0.000000
# 2 -0.008482 0.017851 -0.009807 0.000000 0.000000 0.000000
# 3 -0.009516 -0.009807 0.022777 0.000000 0.000000 0.000000
# 4 0.000000 0.000000 0.000000 0.014545 0.000000 0.000000
# 5 0.000000 0.000000 0.000000 0.000000 0.058432 0.000000
# 6 0.000000 0.000000 0.000000 0.000000 0.000000 -0.528276
#
#
# Mechanical properties :
#
#
# Convention : Reuss Voigt Hill
#
# Bulk Modulus (GPa) = 11.92753 31.57088 21.74920
# Shear Modulus (GPa) = -21.52417 23.43450 0.95517
#
# Velocity S-wave (km/s) = -3.27938 3.42181 0.69083
# Velocity P-wave (km/s) = 2.89476 5.60231 3.39162
#
# Compressibility (1/GPa) = 0.08383966
#
# Stress axis : x y z
#
# Youngs Moduli (GPa) = 10.11942 56.02021 43.90350
#
# Poissons Ratio (x) = 0.47516 0.41777
# Poissons Ratio (y) = 0.08583 0.43054
# Poissons Ratio (z) = 0.09629 0.54937
#
# Static dielectric constant tensor:
#      x y z
#    x 1.726360 0.000000 0.000000 
#    y 0.000000 1.743190 0.000000 
#    z 0.000000 0.000000 1.727210 
# 
# From -- ./inp_files/21941.got.cif
#   From: 2010.05.17/outbox.cif.g08.bks.cpg/sg47_11_cif.got.tgz:21941.got - 2010.06.03 20:15:42.
