data_PCOD9383043
_publ_section_title
;
Structure prediction by ZEFSAII (Michael W. Deem and Ramdas Pophale) SiO2 
 PCOD9383043
Probable space group: P M M M
;
_chemical_formula_sum "Si O2"
_cell_formula_units_Z 60
_cell_length_a 15.485146
_cell_length_b 14.133413
_cell_length_c 16.028366
_cell_angle_alpha 90.000000
_cell_angle_beta 90.000000
_cell_angle_gamma 90.000000
_cell_volume 3507.935546
_symmetry_space_group_name_H-M "P M M M"
_symmetry_group_IT_number 47
_symmetry_cell_setting 'orthorhombic'
loop_
_space_group_symop_operation_xyz
x,y,z
-x,-y,z
x,-y,-z
-x,y,-z
-x,-y,-z
x,y,-z
-x,y,z
x,-y,z
loop_
_atom_site_type_symbol
_atom_site_label
_atom_site_fract_x
_atom_site_fract_y
_atom_site_fract_z
Si Si1 0.601847 0.613409 0.159569
Si Si2 0.600239 0.109385 0.730471
Si Si3 0.500000 0.604292 0.596097
Si Si4 0.679662 0.108353 0.093268
Si Si5 0.835791 0.613431 0.595262
Si Si6 0.230684 0.700480 0.907332
Si Si7 0.336525 0.701720 0.666204
Si Si8 0.096982 0.613233 0.223450
O O1 0.500000 0.642557 0.152951
O O2 0.603423 0.500000 0.154860
O O3 0.672407 0.656266 0.096732
O O4 0.643546 0.649044 0.246284
O O5 0.500000 0.127951 0.711168
O O6 0.614722 0.121640 0.829868
O O7 0.658356 0.186950 0.684805
O O8 0.619784 0.000000 0.710230
O O9 0.500000 0.500000 0.640217
O O10 0.500000 0.587171 0.500000
O O11 0.417393 0.665895 0.614958
O O12 0.753120 0.187352 0.102582
O O13 0.711302 0.000000 0.098791
O O14 0.641855 0.120372 0.000000
O O15 0.864666 0.636726 0.500000
O O16 0.820095 0.500000 0.595723
O O17 0.748129 0.667155 0.619347
O O18 0.893918 0.633154 0.677093
O O19 0.169519 0.661708 0.834085
O O20 0.194995 0.680745 0.000000
O O21 0.107718 0.500000 0.214147
O O22 0.000000 0.639192 0.196736
#
# Coordination Sequence:
#
# PCOD9383043 Si02
#       8
#     8   8   4   8   8   8   8   8
#     4  11  21  32  49  72 103 145 185 219 259 309
#     4  10  19  31  48  69  95 135 183 226 272 319
#     4  11  22  32  47  73 100 131 175 219 261 314
#     4   9  18  32  50  73  99 129 171 224 277 321
#     4  10  20  34  55  81 106 134 171 215 267 324
#     4  11  22  36  55  77 106 144 182 223 266 313
#     4  12  19  32  50  71 102 137 173 220 267 310
#     4  10  21  37  57  81 110 142 175 213 260 318
#
# _framework density 17.104078000000001
#
# number of rings (size 3 to 8) (size 9 to 14) (size 15 to 20)
#    0.000    1.533    4.000    2.000    0.000    3.200 
#    0.000    5.333    0.000    2.400    0.000    1.867 
#    0.000    0.000    0.000    5.600    0.000    0.267 
#
# Total GULP energy -334229.239844 kJ/mol
# GULP energy per Si atom -5570.487331 kJ/mol
# Density = 1.706515 g / cm^3
# Si number density = 17.104078 Si / 1000 Ang^3
#
#
#
# Elastic Constant Matrix: (Units=GPa)
#
#
# Indices 1 2 3 4 5 6 
#
# 1 63.6686 21.9426 23.5391 0.0000 0.0000 0.0000
# 2 21.9426 67.7766 26.8690 0.0000 0.0000 0.0000
# 3 23.5391 26.8690 89.6697 0.0000 0.0000 0.0000
# 4 0.0000 0.0000 0.0000 37.2493 0.0000 0.0000
# 5 0.0000 0.0000 0.0000 0.0000 18.7151 0.0000
# 6 0.0000 0.0000 0.0000 0.0000 0.0000 8.3217
#
#
#
# Elastic Compliance Matrix: (Units=1/GPa)
#
#
# Indices 1 2 3 4 5 6 
#
# 1 0.018595 -0.004636 -0.003492 0.000000 0.000000 0.000000
# 2 -0.004636 0.017899 -0.004146 0.000000 0.000000 0.000000
# 3 -0.003492 -0.004146 0.013311 0.000000 0.000000 0.000000
# 4 0.000000 0.000000 0.000000 0.026846 0.000000 0.000000
# 5 0.000000 0.000000 0.000000 0.000000 0.053433 0.000000
# 6 0.000000 0.000000 0.000000 0.000000 0.000000 0.120168
#
#
# Mechanical properties :
#
#
# Convention : Reuss Voigt Hill
#
# Bulk Modulus (GPa) = 39.59379 40.64625 40.12002
# Shear Modulus (GPa) = 17.65412 22.77483 20.21447
#
# Velocity S-wave (km/s) = 3.21621 3.65299 3.44154
# Velocity P-wave (km/s) = 6.08202 6.45044 6.26894
#
# Compressibility (1/GPa) = 0.02525648
#
# Stress axis : x y z
#
# Youngs Moduli (GPa) = 53.77756 55.86924 75.12441
#
# Poissons Ratio (x) = 0.25899 0.26236
# Poissons Ratio (y) = 0.24930 0.31150
# Poissons Ratio (z) = 0.18781 0.23166
#
# Static dielectric constant tensor:
#      x y z
#    x 1.582070 0.000000 0.000000 
#    y 0.000000 1.596660 0.000000 
#    z 0.000000 0.000000 1.632110 
# 
# From -- ./inp_files/23900.got.cif
#   From: 2010.05.17/outbox.cif.g08.bks.cpg/sg47_12_cif.got.tgz:23900.got - 2010.06.03 20:15:42.
