data_PCOD9383386
_publ_section_title
;
Structure prediction by ZEFSAII (Michael W. Deem and Ramdas Pophale) SiO2 
 PCOD9383386
Probable space group: P M M M
;
_chemical_formula_sum "Si O2"
_cell_formula_units_Z 44
_cell_length_a 18.002183
_cell_length_b 7.651213
_cell_length_c 15.166123
_cell_angle_alpha 90.000000
_cell_angle_beta 90.000000
_cell_angle_gamma 90.000000
_cell_volume 2088.959588
_symmetry_space_group_name_H-M "P M M M"
_symmetry_group_IT_number 47
_symmetry_cell_setting 'orthorhombic'
loop_
_space_group_symop_operation_xyz
x,y,z
-x,-y,z
x,-y,-z
-x,y,-z
-x,-y,-z
x,y,-z
-x,y,z
x,-y,z
loop_
_atom_site_type_symbol
_atom_site_label
_atom_site_fract_x
_atom_site_fract_y
_atom_site_fract_z
Si Si1 0.320396 0.796537 0.903394
Si Si2 0.842460 0.301139 0.855920
Si Si3 0.500000 0.785903 0.398023
Si Si4 0.914224 0.708687 0.500000
Si Si5 0.354102 0.213034 0.293376
Si Si6 0.808755 0.206595 0.663587
Si Si7 0.000000 0.301804 0.103796
O O1 0.230958 0.786384 0.894454
O O2 0.349054 0.724236 0.808947
O O3 0.342404 0.000000 0.904939
O O4 0.341184 0.721068 0.000000
O O5 0.843876 0.500000 0.890728
O O6 0.834555 0.302695 0.751115
O O7 0.921948 0.216123 0.873318
O O8 0.500000 0.730771 0.500000
O O9 0.573360 0.728716 0.345493
O O10 0.500000 0.000000 0.398224
O O11 0.918783 0.500000 0.500000
O O12 0.864819 0.762376 0.416006
O O13 0.000000 0.775324 0.500000
O O14 0.278086 0.257904 0.345554
O O15 0.356414 0.000000 0.289326
O O16 0.808810 0.000000 0.683124
O O17 0.000000 0.500000 0.144459
O O18 0.000000 0.319994 0.000000
#
# Coordination Sequence:
#
# PCOD9383386 Si02
#       7
#     8   8   4   4   8   8   4
#     4   9  17  31  49  70 102 140 175 220 273 321
#     4  10  19  32  51  73 100 134 175 220 266 318
#     4   9  16  26  47  77 109 140 172 218 273 325
#     4  11  25  41  57  78 105 138 184 231 271 315
#     4   8  16  30  48  76 109 138 174 218 266 323
#     4  10  21  37  56  78 107 140 176 220 271 324
#     4   9  18  30  45  68  97 128 165 213 262 305
#
# _framework density 21.063117999999999
#
# number of rings (size 3 to 8) (size 9 to 14) (size 15 to 20)
#    0.000    2.636    0.000    3.000    2.545    1.818 
#    0.000    1.818    0.000    6.000    0.000   16.545 
#    0.000    5.818    0.000    0.000    0.000    0.000 
#
# Total GULP energy -245260.989860 kJ/mol
# GULP energy per Si atom -5574.113406 kJ/mol
# Density = 2.101518 g / cm^3
# Si number density = 21.063118 Si / 1000 Ang^3
#
#
#
# Elastic Constant Matrix: (Units=GPa)
#
#
# Indices 1 2 3 4 5 6 
#
# 1 168.0531 4.8194 94.2598 0.0000 0.0000 0.0000
# 2 4.8194 51.2266 2.2800 0.0000 0.0000 0.0000
# 3 94.2598 2.2800 155.1950 0.0000 0.0000 0.0000
# 4 0.0000 0.0000 0.0000 4.1028 0.0000 0.0000
# 5 0.0000 0.0000 0.0000 0.0000 12.7608 0.0000
# 6 0.0000 0.0000 0.0000 0.0000 0.0000 29.4844
#
#
#
# Elastic Compliance Matrix: (Units=1/GPa)
#
#
# Indices 1 2 3 4 5 6 
#
# 1 0.009044 -0.000607 -0.005484 0.000000 0.000000 0.000000
# 2 -0.000607 0.019575 0.000081 0.000000 0.000000 0.000000
# 3 -0.005484 0.000081 0.009773 0.000000 0.000000 0.000000
# 4 0.000000 0.000000 0.000000 0.243738 0.000000 0.000000
# 5 0.000000 0.000000 0.000000 0.000000 0.078365 0.000000
# 6 0.000000 0.000000 0.000000 0.000000 0.000000 0.033916
#
#
# Mechanical properties :
#
#
# Convention : Reuss Voigt Hill
#
# Bulk Modulus (GPa) = 37.91913 64.13258 51.02585
# Shear Modulus (GPa) = 12.04178 27.47728 19.75953
#
# Velocity S-wave (km/s) = 2.39362 3.61573 3.06618
# Velocity P-wave (km/s) = 5.06763 6.92425 6.06738
#
# Compressibility (1/GPa) = 0.02637191
#
# Stress axis : x y z
#
# Youngs Moduli (GPa) = 110.57266 51.08667 102.32181
#
# Poissons Ratio (x) = 0.03100 0.56113
# Poissons Ratio (y) = 0.06709 -0.00828
# Poissons Ratio (z) = 0.60638 -0.00414
#
# Static dielectric constant tensor:
#      x y z
#    x 1.775810 0.000000 0.000000 
#    y 0.000000 1.813110 0.000000 
#    z 0.000000 0.000000 1.757840 
# 
# From -- ./inp_files/24373.got.cif
#   From: 2010.05.17/outbox.cif.g08.bks.cpg/sg47_13_cif.got.tgz:24373.got - 2010.06.03 20:15:42.
