data_PCOD9383370
_publ_section_title
;
Structure prediction by ZEFSAII (Michael W. Deem and Ramdas Pophale) SiO2 
 PCOD9383370
Probable space group: P M M M
;
_chemical_formula_sum "Si O2"
_cell_formula_units_Z 56
_cell_length_a 18.512019
_cell_length_b 7.445440
_cell_length_c 18.882873
_cell_angle_alpha 90.000000
_cell_angle_beta 90.000000
_cell_angle_gamma 90.000000
_cell_volume 2602.628779
_symmetry_space_group_name_H-M "P M M M"
_symmetry_group_IT_number 47
_symmetry_cell_setting 'orthorhombic'
loop_
_space_group_symop_operation_xyz
x,y,z
-x,-y,z
x,-y,-z
-x,y,-z
-x,-y,-z
x,y,-z
-x,y,z
x,-y,z
loop_
_atom_site_type_symbol
_atom_site_label
_atom_site_fract_x
_atom_site_fract_y
_atom_site_fract_z
Si Si1 0.500000 0.779867 0.081533
Si Si2 0.221472 0.212404 0.420441
Si Si3 0.642001 0.779876 0.668751
Si Si4 0.919212 0.716086 0.330839
Si Si5 0.638224 0.213676 0.830317
Si Si6 0.781568 0.284142 0.080219
Si Si7 0.081677 0.280874 0.831321
Si Si8 0.500000 0.218915 0.418252
O O1 0.571289 0.718763 0.123127
O O2 0.500000 0.000000 0.080818
O O3 0.500000 0.722384 0.000000
O O4 0.222560 0.287034 0.500000
O O5 0.285458 0.282641 0.370589
O O6 0.144164 0.233008 0.383533
O O7 0.235002 0.000000 0.426167
O O8 0.639402 0.717473 0.749958
O O9 0.571649 0.726037 0.624100
O O10 0.642606 0.000000 0.670128
O O11 0.921139 0.500000 0.329250
O O12 0.904246 0.775271 0.249993
O O13 0.000000 0.778242 0.350654
O O14 0.713010 0.243401 0.870986
O O15 0.627704 0.000000 0.824697
O O16 0.786869 0.500000 0.076668
O O17 0.855180 0.218598 0.117033
O O18 0.772290 0.217100 0.000000
O O19 0.082286 0.500000 0.831841
O O20 0.000000 0.226151 0.850520
O O21 0.500000 0.277915 0.500000
O O22 0.500000 0.000000 0.419302
#
# Coordination Sequence:
#
# PCOD9383370 Si02
#       8
#     4   8   8   8   8   8   8   4
#     4   9  17  29  46  69  94 120 154 193 230 271
#     4  10  20  32  46  68  99 128 153 189 239 287
#     4   9  17  29  46  70  97 125 161 199 233 277
#     4   9  18  33  52  71  91 120 160 200 233 273
#     4  10  19  32  51  71  94 127 164 199 234 276
#     4  10  20  32  48  73 101 125 154 195 239 283
#     4   8  15  30  51  72  94 122 156 193 234 280
#     4   9  15  25  45  72 102 131 156 192 244 289
#
# _framework density 21.516705999999999
#
# number of rings (size 3 to 8) (size 9 to 14) (size 15 to 20)
#    0.000    2.714    0.000    3.000    0.000    5.429 
#    0.000    3.214    0.000    2.571    0.000    2.500 
#    0.000    3.429    0.000    0.000    0.000    0.000 
#
# Total GULP energy -312821.122593 kJ/mol
# GULP energy per Si atom -5586.091475 kJ/mol
# Density = 2.146773 g / cm^3
# Si number density = 21.516706 Si / 1000 Ang^3
#
#
#
# Elastic Constant Matrix: (Units=GPa)
#
#
# Indices 1 2 3 4 5 6 
#
# 1 197.8057 -2.5387 151.7910 0.0000 0.0000 0.0000
# 2 -2.5387 64.0001 6.6128 0.0000 0.0000 0.0000
# 3 151.7910 6.6128 237.5372 0.0000 0.0000 0.0000
# 4 0.0000 0.0000 0.0000 7.2933 0.0000 0.0000
# 5 0.0000 0.0000 0.0000 0.0000 84.5713 0.0000
# 6 0.0000 0.0000 0.0000 0.0000 0.0000 4.8396
#
#
#
# Elastic Compliance Matrix: (Units=1/GPa)
#
#
# Indices 1 2 3 4 5 6 
#
# 1 0.009991 0.001059 -0.006414 0.000000 0.000000 0.000000
# 2 0.001059 0.015782 -0.001116 0.000000 0.000000 0.000000
# 3 -0.006414 -0.001116 0.008340 0.000000 0.000000 0.000000
# 4 0.000000 0.000000 0.000000 0.137111 0.000000 0.000000
# 5 0.000000 0.000000 0.000000 0.000000 0.011824 0.000000
# 6 0.000000 0.000000 0.000000 0.000000 0.000000 0.206630
#
#
# Mechanical properties :
#
#
# Convention : Reuss Voigt Hill
#
# Bulk Modulus (GPa) = 47.23478 90.11923 68.67701
# Shear Modulus (GPa) = 12.20473 42.23937 27.22205
#
# Velocity S-wave (km/s) = 2.38422 4.43549 3.56077
# Velocity P-wave (km/s) = 5.43872 8.25868 6.99233
#
# Compressibility (1/GPa) = 0.02117084
#
# Stress axis : x y z
#
# Youngs Moduli (GPa) = 100.09121 63.36212 119.91096
#
# Poissons Ratio (x) = -0.06710 0.76909
# Poissons Ratio (y) = -0.10600 0.13383
# Poissons Ratio (z) = 0.64197 0.07072
#
# Static dielectric constant tensor:
#      x y z
#    x 1.734150 0.000000 0.000000 
#    y 0.000000 1.834150 0.000000 
#    z 0.000000 0.000000 1.747070 
# 
# From -- ./inp_files/31094.got.cif
#   From: 2010.05.17/outbox.cif.g08.bks.cpg/sg47_16_cif.got.tgz:31094.got - 2010.06.03 20:15:42.
