data_PCOD9383515
_publ_section_title
;
Structure prediction by ZEFSAII (Michael W. Deem and Ramdas Pophale) SiO2 
 PCOD9383515
Probable space group: P M M M
;
_chemical_formula_sum "Si O2"
_cell_formula_units_Z 48
_cell_length_a 16.981895
_cell_length_b 16.635256
_cell_length_c 8.753557
_cell_angle_alpha 90.000000
_cell_angle_beta 90.000000
_cell_angle_gamma 90.000000
_cell_volume 2472.863840
_symmetry_space_group_name_H-M "P M M M"
_symmetry_group_IT_number 47
_symmetry_cell_setting 'orthorhombic'
loop_
_space_group_symop_operation_xyz
x,y,z
-x,-y,z
x,-y,-z
-x,y,-z
-x,-y,-z
x,y,-z
-x,y,z
x,-y,z
loop_
_atom_site_type_symbol
_atom_site_label
_atom_site_fract_x
_atom_site_fract_y
_atom_site_fract_z
Si Si1 0.406230 0.912792 0.185303
Si Si2 0.313537 0.407884 0.317442
Si Si3 0.594756 0.737262 0.177529
Si Si4 0.160228 0.675590 0.816802
Si Si5 0.000000 0.590822 0.814163
Si Si6 0.095463 0.000000 0.173875
Si Si7 0.092712 0.169260 0.317576
O O1 0.500000 0.914158 0.219557
O O2 0.376220 0.825008 0.237560
O O3 0.373621 0.000000 0.237421
O O4 0.399900 0.911288 0.000000
O O5 0.309236 0.408542 0.500000
O O6 0.329256 0.500000 0.266145
O O7 0.375960 0.340931 0.265193
O O8 0.231987 0.374813 0.249479
O O9 0.500000 0.739991 0.179851
O O10 0.619944 0.729869 0.000000
O O11 0.078985 0.634304 0.765551
O O12 0.150424 0.765726 0.756308
O O13 0.164831 0.675709 0.000000
O O14 0.000000 0.500000 0.760401
O O15 0.000000 0.590893 0.000000
O O16 0.116758 0.918946 0.261195
O O17 0.000000 0.000000 0.167971
O O18 0.125111 0.000000 0.000000
O O19 0.095043 0.174398 0.500000
O O20 0.000000 0.182579 0.270160
#
# Coordination Sequence:
#
# PCOD9383515 Si02
#       7
#     8   8   8   8   4   4   8
#     4   7  10  20  44  80 116 143 169 209 263 320
#     4  11  25  42  57  77 110 151 191 233 287 347
#     4   9  18  34  59  89 115 143 185 233 278 330
#     4  11  21  36  59  83 110 142 184 235 285 336
#     4   9  18  32  53  82 109 132 167 221 282 337
#     4   9  17  29  49  77 109 145 192 237 274 321
#     4  10  19  32  52  80 115 150 184 225 280 338
#
# _framework density 19.410692000000001
#
# number of rings (size 3 to 8) (size 9 to 14) (size 15 to 20)
#    0.000    2.500    0.833    3.750    0.000    4.333 
#    0.000    1.667    1.833    2.500    0.000    2.333 
#    0.000    0.000    0.000    0.000    0.000    0.000 
#
# Total GULP energy -267588.122044 kJ/mol
# GULP energy per Si atom -5574.752543 kJ/mol
# Density = 1.936651 g / cm^3
# Si number density = 19.410692 Si / 1000 Ang^3
#
#
#
# Elastic Constant Matrix: (Units=GPa)
#
#
# Indices 1 2 3 4 5 6 
#
# 1 24.3248 33.1882 10.6677 0.0000 0.0000 0.0000
# 2 33.1882 209.5537 42.5164 0.0000 0.0000 0.0000
# 3 10.6677 42.5164 44.8554 0.0000 0.0000 0.0000
# 4 0.0000 0.0000 0.0000 23.3576 0.0000 0.0000
# 5 0.0000 0.0000 0.0000 0.0000 -945.6635 0.0000
# 6 0.0000 0.0000 0.0000 0.0000 0.0000 17.9622
#
#
#
# Elastic Compliance Matrix: (Units=1/GPa)
#
#
# Indices 1 2 3 4 5 6 
#
# 1 0.053644 -0.007314 -0.005825 0.000000 0.000000 0.000000
# 2 -0.007314 0.006905 -0.004806 0.000000 0.000000 0.000000
# 3 -0.005825 -0.004806 0.028235 0.000000 0.000000 0.000000
# 4 0.000000 0.000000 0.000000 0.042813 0.000000 0.000000
# 5 0.000000 0.000000 0.000000 0.000000 -0.001057 0.000000
# 6 0.000000 0.000000 0.000000 0.000000 0.000000 0.055673
#
#
# Mechanical properties :
#
#
# Convention : Reuss Voigt Hill
#
# Bulk Modulus (GPa) = 18.90581 50.16429 34.53505
# Shear Modulus (GPa) = 20.85650 -168.04462 -73.59406
#
# Velocity S-wave (km/s) = 3.28149 -9.31457 -6.16413
# Velocity P-wave (km/s) = 4.91107 9.47533 5.72989
#
# Compressibility (1/GPa) = 0.05289380
#
# Stress axis : x y z
#
# Youngs Moduli (GPa) = 18.64138 144.81216 35.41758
#
# Poissons Ratio (x) = 1.05916 0.20631
# Poissons Ratio (y) = 0.13634 0.17022
# Poissons Ratio (z) = 0.10859 0.69596
#
# Static dielectric constant tensor:
#      x y z
#    x 1.692480 0.000000 0.000000 
#    y 0.000000 1.718100 0.000000 
#    z 0.000000 0.000000 1.655000 
# 
# From -- ./inp_files/9239.got.cif
#   From: 2010.05.17/outbox.cif.g08.bks.cpg/sg47_5_cif.got.tgz:9239.got - 2010.06.03 20:15:42.
