data_PCOD9383867
_publ_section_title
;
Structure prediction by ZEFSAII (Michael W. Deem and Ramdas Pophale) SiO2 
 PCOD9383867
Probable space group: P M M M
;
_chemical_formula_sum "Si O2"
_cell_formula_units_Z 48
_cell_length_a 15.625922
_cell_length_b 19.214520
_cell_length_c 9.119839
_cell_angle_alpha 90.000000
_cell_angle_beta 90.000000
_cell_angle_gamma 90.000000
_cell_volume 2738.182329
_symmetry_space_group_name_H-M "P M M M"
_symmetry_group_IT_number 47
_symmetry_cell_setting 'orthorhombic'
loop_
_space_group_symop_operation_xyz
x,y,z
-x,-y,z
x,-y,-z
-x,y,-z
-x,-y,-z
x,y,-z
-x,y,z
x,-y,z
loop_
_atom_site_type_symbol
_atom_site_label
_atom_site_fract_x
_atom_site_fract_y
_atom_site_fract_z
Si Si1 0.399701 0.815609 0.823780
Si Si2 0.669033 0.662860 0.176767
Si Si3 0.500000 0.578786 0.821841
Si Si4 0.823652 0.582387 0.324651
Si Si5 0.094876 0.084498 0.828557
Si Si6 0.269131 0.917322 0.674014
Si Si7 0.000000 0.415701 0.832353
O O1 0.500000 0.813002 0.781425
O O2 0.352934 0.742755 0.788899
O O3 0.346880 0.876632 0.747904
O O4 0.397013 0.823960 0.000000
O O5 0.585349 0.618942 0.221114
O O6 0.749852 0.629851 0.256691
O O7 0.679816 0.657039 0.000000
O O8 0.500000 0.500000 0.768263
O O9 0.500000 0.577780 0.000000
O O10 0.827077 0.588587 0.500000
O O11 0.808323 0.500000 0.289931
O O12 0.914071 0.603517 0.253379
O O13 0.177792 0.107575 0.739065
O O14 0.000000 0.107999 0.778677
O O15 0.093846 0.000000 0.821032
O O16 0.104531 0.103065 0.000000
O O17 0.269890 0.907376 0.500000
O O18 0.276249 0.000000 0.704210
O O19 0.000000 0.500000 0.837160
O O20 0.000000 0.390196 0.000000
#
# Coordination Sequence:
#
# PCOD9383867 Si02
#       7
#     8   8   4   8   8   8   4
#     4  10  21  38  58  78 103 138 181 227 273 321
#     4  10  19  34  55  79 105 138 181 224 268 320
#     4   9  16  28  51  81 108 133 168 218 267 309
#     4  10  20  33  51  79 114 147 178 217 267 320
#     4   8  14  27  50  79 108 137 169 208 257 310
#     4  10  21  35  53  80 111 142 178 220 266 320
#     4   9  17  31  53  79 105 139 184 227 266 311
#
# _framework density 17.529876999999999
#
# number of rings (size 3 to 8) (size 9 to 14) (size 15 to 20)
#    0.000    2.500    0.833    2.250    0.000    5.333 
#    0.000    3.750    1.833    1.500    0.000    0.000 
#    0.000    0.000    0.000    0.000    0.000    0.000 
#
# Total GULP energy -267666.116667 kJ/mol
# GULP energy per Si atom -5576.377431 kJ/mol
# Density = 1.748998 g / cm^3
# Si number density = 17.529877 Si / 1000 Ang^3
#
#
#
# Elastic Constant Matrix: (Units=GPa)
#
#
# Indices 1 2 3 4 5 6 
#
# 1 189.2186 68.1372 75.4615 0.0000 0.0000 0.0000
# 2 68.1372 62.7097 47.6177 0.0000 0.0000 0.0000
# 3 75.4615 47.6177 57.0648 0.0000 0.0000 0.0000
# 4 0.0000 0.0000 0.0000 20.0722 0.0000 0.0000
# 5 0.0000 0.0000 0.0000 0.0000 -22.0226 0.0000
# 6 0.0000 0.0000 0.0000 0.0000 0.0000 -275.4079
#
#
#
# Elastic Compliance Matrix: (Units=1/GPa)
#
#
# Indices 1 2 3 4 5 6 
#
# 1 0.011329 -0.002549 -0.012855 0.000000 0.000000 0.000000
# 2 -0.002549 0.044099 -0.033428 0.000000 0.000000 0.000000
# 3 -0.012855 -0.033428 0.062417 0.000000 0.000000 0.000000
# 4 0.000000 0.000000 0.000000 0.049820 0.000000 0.000000
# 5 0.000000 0.000000 0.000000 0.000000 -0.045408 0.000000
# 6 0.000000 0.000000 0.000000 0.000000 0.000000 -0.003631
#
#
# Mechanical properties :
#
#
# Convention : Reuss Voigt Hill
#
# Bulk Modulus (GPa) = 49.54901 76.82512 63.18707
# Shear Modulus (GPa) = 22.41984 -47.61988 -12.60002
#
# Velocity S-wave (km/s) = 3.58012 -5.21766 -2.68390
# Velocity P-wave (km/s) = 6.73918 2.76076 5.14967
#
# Compressibility (1/GPa) = 0.02018204
#
# Stress axis : x y z
#
# Youngs Moduli (GPa) = 88.26694 22.67640 16.02124
#
# Poissons Ratio (x) = 0.05779 0.20595
# Poissons Ratio (y) = 0.22495 0.53556
# Poissons Ratio (z) = 1.13467 0.75803
#
# Static dielectric constant tensor:
#      x y z
#    x 1.586600 0.000000 0.000000 
#    y 0.000000 1.592680 0.000000 
#    z 0.000000 0.000000 1.582430 
# 
# From -- ./inp_files/6423.got.cif
#   From: 2010.05.17/outbox.cif.g08.bks.cpg/sg47_4_cif.got.tgz:6423.got - 2010.06.03 20:15:42.
