data_PCOD9383455
_publ_section_title
;
Structure prediction by ZEFSAII (Michael W. Deem and Ramdas Pophale) SiO2 
 PCOD9383455
Probable space group: P M M M
;
_chemical_formula_sum "Si O2"
_cell_formula_units_Z 52
_cell_length_a 7.749336
_cell_length_b 15.135438
_cell_length_c 20.577690
_cell_angle_alpha 90.000000
_cell_angle_beta 90.000000
_cell_angle_gamma 90.000000
_cell_volume 2413.548917
_symmetry_space_group_name_H-M "P M M M"
_symmetry_group_IT_number 47
_symmetry_cell_setting 'orthorhombic'
loop_
_space_group_symop_operation_xyz
x,y,z
-x,-y,z
x,-y,-z
-x,y,-z
-x,-y,-z
x,y,-z
-x,y,z
x,-y,z
loop_
_atom_site_type_symbol
_atom_site_label
_atom_site_fract_x
_atom_site_fract_y
_atom_site_fract_z
Si Si1 0.205537 0.099034 0.743505
Si Si2 0.206704 0.602517 0.808349
Si Si3 0.296976 0.402083 0.340290
Si Si4 0.293049 0.783269 0.378179
Si Si5 0.201642 0.711307 0.070021
Si Si6 0.700105 0.098331 0.892261
Si Si7 0.288306 0.101661 0.500000
O O1 0.256852 0.170079 0.690376
O O2 0.287850 0.109841 0.814256
O O3 0.000000 0.103425 0.753221
O O4 0.250631 0.000000 0.719728
O O5 0.235983 0.500000 0.826083
O O6 0.282749 0.616587 0.736901
O O7 0.274941 0.665214 0.865519
O O8 0.000000 0.616076 0.801391
O O9 0.500000 0.407005 0.356103
O O10 0.221395 0.500000 0.351893
O O11 0.223435 0.316761 0.376773
O O12 0.500000 0.777696 0.385203
O O13 0.229736 0.845225 0.436291
O O14 0.211880 0.816794 0.077179
O O15 0.000000 0.685755 0.069010
O O16 0.277851 0.685779 0.000000
O O17 0.500000 0.099862 0.911644
O O18 0.770148 0.000000 0.907170
O O19 0.500000 0.100573 0.500000
O O20 0.231794 0.000000 0.500000
#
# Coordination Sequence:
#
# PCOD9383455 Si02
#       7
#     8   8   8   8   8   8   4
#     4  10  20  33  51  76 103 129 161 207 260 307
#     4   9  18  33  53  76 101 130 165 205 250 302
#     4   9  18  32  50  74 102 129 162 208 257 299
#     4  10  19  32  52  75 101 137 175 208 247 296
#     4  10  21  35  51  73 101 133 168 207 253 303
#     4  10  21  36  53  73  98 130 169 212 256 303
#     4   9  18  32  50  74 104 137 175 215 250 291
#
# _framework density 21.545034999999999
#
# number of rings (size 3 to 8) (size 9 to 14) (size 15 to 20)
#    0.000    2.385    0.000    2.308    0.000    7.077 
#    0.000    3.846    0.000    3.692    0.000    3.231 
#    0.000    3.692    0.000    0.000    0.000    0.000 
#
# Total GULP energy -290319.667811 kJ/mol
# GULP energy per Si atom -5583.070535 kJ/mol
# Density = 2.149600 g / cm^3
# Si number density = 21.545035 Si / 1000 Ang^3
#
#
#
# Elastic Constant Matrix: (Units=GPa)
#
#
# Indices 1 2 3 4 5 6 
#
# 1 32.7352 10.2068 0.6518 0.0000 0.0000 0.0000
# 2 10.2068 134.1906 48.4151 0.0000 0.0000 0.0000
# 3 0.6518 48.4151 44.4546 0.0000 0.0000 0.0000
# 4 0.0000 0.0000 0.0000 28.6776 0.0000 0.0000
# 5 0.0000 0.0000 0.0000 0.0000 6.8540 0.0000
# 6 0.0000 0.0000 0.0000 0.0000 0.0000 14.9554
#
#
#
# Elastic Compliance Matrix: (Units=1/GPa)
#
#
# Indices 1 2 3 4 5 6 
#
# 1 0.031627 -0.003687 0.003552 0.000000 0.000000 0.000000
# 2 -0.003687 0.012705 -0.013783 0.000000 0.000000 0.000000
# 3 0.003552 -0.013783 0.037454 0.000000 0.000000 0.000000
# 4 0.000000 0.000000 0.000000 0.034870 0.000000 0.000000
# 5 0.000000 0.000000 0.000000 0.000000 0.145900 0.000000
# 6 0.000000 0.000000 0.000000 0.000000 0.000000 0.066865
#
#
# Mechanical properties :
#
#
# Convention : Reuss Voigt Hill
#
# Bulk Modulus (GPa) = 18.53582 36.65864 27.59723
# Shear Modulus (GPa) = 13.32472 20.23786 16.78129
#
# Velocity S-wave (km/s) = 2.48958 3.06817 2.79389
# Velocity P-wave (km/s) = 4.10926 5.44090 4.82128
#
# Compressibility (1/GPa) = 0.05394959
#
# Stress axis : x y z
#
# Youngs Moduli (GPa) = 31.61843 78.70609 26.69932
#
# Poissons Ratio (x) = 0.29020 -0.09483
# Poissons Ratio (y) = 0.11658 0.36801
# Poissons Ratio (z) = -0.11231 1.08484
#
# Static dielectric constant tensor:
#      x y z
#    x 1.797930 0.000000 0.000000 
#    y 0.000000 1.800640 0.000000 
#    z 0.000000 0.000000 1.763700 
# 
# From -- ./inp_files/6966.got.cif
#   From: 2010.05.17/outbox.cif.g08.bks.cpg/sg47_4_cif.got.tgz:6966.got - 2010.06.03 20:15:42.
