data_PCOD9383903
_publ_section_title
;
Structure prediction by ZEFSAII (Michael W. Deem and Ramdas Pophale) SiO2 
 PCOD9383903
Probable space group: P M M M
;
_chemical_formula_sum "Si O2"
_cell_formula_units_Z 48
_cell_length_a 30.126891
_cell_length_b 7.380923
_cell_length_c 9.872941
_cell_angle_alpha 90.000000
_cell_angle_beta 90.000000
_cell_angle_gamma 90.000000
_cell_volume 2195.389246
_symmetry_space_group_name_H-M "P M M M"
_symmetry_group_IT_number 47
_symmetry_cell_setting 'orthorhombic'
loop_
_space_group_symop_operation_xyz
x,y,z
-x,-y,z
x,-y,-z
-x,y,-z
-x,-y,-z
x,y,-z
-x,y,z
x,-y,z
loop_
_atom_site_type_symbol
_atom_site_label
_atom_site_fract_x
_atom_site_fract_y
_atom_site_fract_z
Si Si1 0.550967 0.220778 0.653601
Si Si2 0.890016 0.707168 0.744879
Si Si3 0.794635 0.721956 0.843468
Si Si4 0.713787 0.716232 0.655133
Si Si5 0.948857 0.218429 0.000000
Si Si6 0.629111 0.216800 0.154448
Si Si7 0.948767 0.722862 0.500000
O O1 0.563798 0.275388 0.500000
O O2 0.500000 0.275843 0.677244
O O3 0.585311 0.283962 0.766972
O O4 0.551483 0.000000 0.654500
O O5 0.880328 0.500000 0.703600
O O6 0.842546 0.784063 0.788648
O O7 0.919983 0.786689 0.626917
O O8 0.922142 0.710725 0.872510
O O9 0.794794 0.500000 0.845810
O O10 0.756027 0.782176 0.741655
O O11 0.787828 0.778046 0.000000
O O12 0.710477 0.785383 0.500000
O O13 0.718859 0.500000 0.644758
O O14 0.670588 0.748811 0.746992
O O15 0.000000 0.274551 0.000000
O O16 0.947329 0.000000 0.000000
O O17 0.624860 0.000000 0.144471
O O18 0.634655 0.285135 0.000000
O O19 0.950526 0.500000 0.500000
O O20 0.000000 0.781677 0.500000
#
# Coordination Sequence:
#
# PCOD9383903 Si02
#       7
#     8   8   8   8   4   8   4
#     4   8  14  26  46  72 102 137 176 219 265 310
#     4  10  19  34  57  81 105 135 172 215 259 305
#     4   9  17  31  52  78 102 129 167 210 257 306
#     4  10  21  35  54  78 104 137 175 214 261 317
#     4  11  23  37  53  77 109 143 177 211 252 305
#     4  10  20  33  51  77 108 141 177 217 263 312
#     4   9  18  30  49  81 111 131 161 211 262 301
#
# _framework density 21.864006
#
# number of rings (size 3 to 8) (size 9 to 14) (size 15 to 20)
#    0.000    2.500    0.833    2.250    1.167    3.667 
#    0.000    2.917    0.000    2.000    0.000    3.500 
#    0.000    0.000    0.000    0.000    0.000    0.000 
#
# Total GULP energy -268002.195283 kJ/mol
# GULP energy per Si atom -5583.379068 kJ/mol
# Density = 2.181424 g / cm^3
# Si number density = 21.864006 Si / 1000 Ang^3
#
#
#
# Elastic Constant Matrix: (Units=GPa)
#
#
# Indices 1 2 3 4 5 6 
#
# 1 192.6323 0.0948 137.2141 0.0000 0.0000 0.0000
# 2 0.0948 79.6843 1.6515 0.0000 0.0000 0.0000
# 3 137.2141 1.6515 246.4896 0.0000 0.0000 0.0000
# 4 0.0000 0.0000 0.0000 -144.7049 0.0000 0.0000
# 5 0.0000 0.0000 0.0000 0.0000 36.9879 0.0000
# 6 0.0000 0.0000 0.0000 0.0000 0.0000 -8.4793
#
#
#
# Elastic Compliance Matrix: (Units=1/GPa)
#
#
# Indices 1 2 3 4 5 6 
#
# 1 0.008603 0.000089 -0.004790 0.000000 0.000000 0.000000
# 2 0.000089 0.012552 -0.000134 0.000000 0.000000 0.000000
# 3 -0.004790 -0.000134 0.006724 0.000000 0.000000 0.000000
# 4 0.000000 0.000000 0.000000 -0.006911 0.000000 0.000000
# 5 0.000000 0.000000 0.000000 0.000000 0.027036 0.000000
# 6 0.000000 0.000000 0.000000 0.000000 0.000000 -0.117934
#
#
# Mechanical properties :
#
#
# Convention : Reuss Voigt Hill
#
# Bulk Modulus (GPa) = 54.91268 88.52522 71.71895
# Shear Modulus (GPa) = -92.26594 2.08380 -45.09107
#
# Velocity S-wave (km/s) = -6.50319 0.97731 -4.54623
# Velocity P-wave (km/s) = 5.58736 6.46919 2.30562
#
# Compressibility (1/GPa) = 0.01821073
#
# Stress axis : x y z
#
# Youngs Moduli (GPa) = 116.24035 79.66737 148.71897
#
# Poissons Ratio (x) = -0.00709 0.71230
# Poissons Ratio (y) = -0.01035 0.01988
# Poissons Ratio (z) = 0.55674 0.01065
#
# Static dielectric constant tensor:
#      x y z
#    x 1.751870 0.000000 0.000000 
#    y 0.000000 1.904550 0.000000 
#    z 0.000000 0.000000 1.747050 
# 
# From -- ./inp_files/13953.got.cif
#   From: 2010.05.17/outbox.cif.g08.bks.cpg/sg47_7_cif.got.tgz:13953.got - 2010.06.03 20:15:42.
