data_PCOD9383670
_publ_section_title
;
Structure prediction by ZEFSAII (Michael W. Deem and Ramdas Pophale) SiO2 
 PCOD9383670
Probable space group: P M M M
;
_chemical_formula_sum "Si O2"
_cell_formula_units_Z 52
_cell_length_a 16.714138
_cell_length_b 17.771836
_cell_length_c 7.334528
_cell_angle_alpha 90.000000
_cell_angle_beta 90.000000
_cell_angle_gamma 90.000000
_cell_volume 2178.654941
_symmetry_space_group_name_H-M "P M M M"
_symmetry_group_IT_number 47
_symmetry_cell_setting 'orthorhombic'
loop_
_space_group_symop_operation_xyz
x,y,z
-x,-y,z
x,-y,-z
-x,y,-z
-x,-y,-z
x,y,-z
-x,y,z
x,-y,z
loop_
_atom_site_type_symbol
_atom_site_label
_atom_site_fract_x
_atom_site_fract_y
_atom_site_fract_z
Si Si1 0.365359 0.201739 0.218897
Si Si2 0.909945 0.309204 0.721765
Si Si3 0.235806 0.414761 0.721711
Si Si4 0.254892 0.919175 0.209452
Si Si5 0.500000 0.915860 0.779940
Si Si6 0.410416 0.369850 0.292291
Si Si7 0.087771 0.134535 0.279885
O O1 0.283257 0.162477 0.281079
O O2 0.424833 0.134441 0.269522
O O3 0.394518 0.280122 0.297219
O O4 0.366092 0.214530 0.000000
O O5 0.909323 0.311420 0.500000
O O6 0.833431 0.357517 0.783740
O O7 0.902476 0.221913 0.775762
O O8 0.000000 0.335092 0.776497
O O9 0.239356 0.407725 0.500000
O O10 0.212749 0.500000 0.765739
O O11 0.326927 0.400468 0.788134
O O12 0.160141 0.914619 0.211267
O O13 0.280635 0.000000 0.290017
O O14 0.284267 0.920423 0.000000
O O15 0.500000 0.000000 0.709315
O O16 0.500000 0.920107 0.000000
O O17 0.413903 0.398440 0.500000
O O18 0.500000 0.383229 0.213499
O O19 0.090504 0.132696 0.500000
O O20 0.000000 0.109159 0.222724
#
# Coordination Sequence:
#
# PCOD9383670 Si02
#       7
#     8   8   8   8   4   8   8
#     4  10  19  33  53  74  95 125 165 204 243 297
#     4   8  14  26  45  69  96 125 159 201 245 288
#     4   9  17  28  44  69  99 130 163 198 241 295
#     4  10  21  34  48  71 101 129 161 205 255 299
#     4   9  16  28  49  73  94 119 154 198 243 287
#     4  10  20  33  50  72  99 131 166 206 250 293
#     4   9  18  33  52  72  96 131 172 206 241 293
#
# _framework density 23.867937999999999
#
# number of rings (size 3 to 8) (size 9 to 14) (size 15 to 20)
#    0.000    2.692    0.769    2.308    0.000    5.231 
#    0.000    4.615    0.000    2.308    0.000    1.077 
#    0.000    0.000    0.000   13.231    0.000   10.769 
#
# Total GULP energy -290174.284186 kJ/mol
# GULP energy per Si atom -5580.274696 kJ/mol
# Density = 2.381361 g / cm^3
# Si number density = 23.867938 Si / 1000 Ang^3
#
#
#
# Elastic Constant Matrix: (Units=GPa)
#
#
# Indices 1 2 3 4 5 6 
#
# 1 137.9182 18.2595 -0.6383 0.0000 0.0000 0.0000
# 2 18.2595 53.9373 -3.1197 0.0000 0.0000 0.0000
# 3 -0.6383 -3.1197 90.5616 0.0000 0.0000 0.0000
# 4 0.0000 0.0000 0.0000 3.4098 0.0000 0.0000
# 5 0.0000 0.0000 0.0000 0.0000 -0.6563 0.0000
# 6 0.0000 0.0000 0.0000 0.0000 0.0000 18.5785
#
#
#
# Elastic Compliance Matrix: (Units=1/GPa)
#
#
# Indices 1 2 3 4 5 6 
#
# 1 0.007591 -0.002572 -0.000035 0.000000 0.000000 0.000000
# 2 -0.002572 0.019448 0.000652 0.000000 0.000000 0.000000
# 3 -0.000035 0.000652 0.011064 0.000000 0.000000 0.000000
# 4 0.000000 0.000000 0.000000 0.293269 0.000000 0.000000
# 5 0.000000 0.000000 0.000000 0.000000 -1.523808 0.000000
# 6 0.000000 0.000000 0.000000 0.000000 0.000000 0.053826
#
#
# Mechanical properties :
#
#
# Convention : Reuss Voigt Hill
#
# Bulk Modulus (GPa) = 29.24519 34.60223 31.92371
# Shear Modulus (GPa) = -4.45117 22.12747 8.83815
#
# Velocity S-wave (km/s) = -1.36710 3.04810 1.92639
# Velocity P-wave (km/s) = 3.12851 5.18813 4.28394
#
# Compressibility (1/GPa) = 0.03419366
#
# Stress axis : x y z
#
# Youngs Moduli (GPa) = 131.73483 51.41812 90.37987
#
# Poissons Ratio (x) = 0.13224 0.00317
# Poissons Ratio (y) = 0.33880 -0.05891
# Poissons Ratio (z) = 0.00462 -0.03352
#
# Static dielectric constant tensor:
#      x y z
#    x 2.005520 0.000000 0.000000 
#    y 0.000000 1.859190 0.000000 
#    z 0.000000 0.000000 2.024970 
# 
# From -- ./inp_files/17805.got.cif
#   From: 2010.05.17/outbox.cif.g08.bks.cpg/sg47_9_cif.got.tgz:17805.got - 2010.06.03 20:15:42.
