data_PCOD9383426
_publ_section_title
;
Structure prediction by ZEFSAII (Michael W. Deem and Ramdas Pophale) SiO2 
 PCOD9383426
Probable space group: P M M M
;
_chemical_formula_sum "Si O2"
_cell_formula_units_Z 64
_cell_length_a 13.863547
_cell_length_b 13.782660
_cell_length_c 20.324806
_cell_angle_alpha 90.000000
_cell_angle_beta 90.000000
_cell_angle_gamma 90.000000
_cell_volume 3883.593905
_symmetry_space_group_name_H-M "P M M M"
_symmetry_group_IT_number 47
_symmetry_cell_setting 'orthorhombic'
loop_
_space_group_symop_operation_xyz
x,y,z
-x,-y,z
x,-y,-z
-x,y,-z
-x,-y,-z
x,y,-z
-x,y,z
x,-y,z
loop_
_atom_site_type_symbol
_atom_site_label
_atom_site_fract_x
_atom_site_fract_y
_atom_site_fract_z
Si Si1 0.272065 0.115821 0.574001
Si Si2 0.610965 0.818450 0.308470
Si Si3 0.693989 0.111893 0.828552
Si Si4 0.388711 0.606154 0.731535
Si Si5 0.889988 0.886466 0.675439
Si Si6 0.888568 0.208151 0.817005
Si Si7 0.238633 0.389521 0.852133
Si Si8 0.609656 0.269880 0.075496
O O1 0.276455 0.155470 0.500000
O O2 0.361096 0.139244 0.621292
O O3 0.180652 0.147182 0.617927
O O4 0.264340 0.000000 0.568957
O O5 0.500000 0.838563 0.292536
O O6 0.672800 0.861331 0.247904
O O7 0.625870 0.702451 0.310640
O O8 0.805890 0.136186 0.844507
O O9 0.630559 0.183122 0.873489
O O10 0.672361 0.000000 0.839255
O O11 0.500000 0.611188 0.755937
O O12 0.377679 0.500000 0.699332
O O13 0.312664 0.611612 0.790463
O O14 0.886073 0.817891 0.739251
O O15 0.000000 0.887098 0.651831
O O16 0.866609 0.000000 0.693926
O O17 0.846812 0.314314 0.835075
O O18 0.000000 0.195501 0.838196
O O19 0.207043 0.500000 0.863284
O O20 0.306827 0.348090 0.909875
O O21 0.500000 0.306612 0.085647
O O22 0.616819 0.236923 0.000000
#
# Coordination Sequence:
#
# PCOD9383426 Si02
#       8
#     8   8   8   8   8   8   8   8
#     4  10  20  32  45  66 100 138 173 210 254 307
#     4  11  20  32  50  72  99 133 172 213 257 305
#     4  11  21  34  53  76 102 136 177 215 257 308
#     4   9  16  28  50  76  98 123 161 207 253 301
#     4   9  16  28  48  72  98 130 169 212 260 311
#     4  10  19  32  52  77 103 130 167 217 265 306
#     4  10  19  32  51  75 105 137 168 206 253 306
#     4  10  21  36  53  78 111 141 171 209 254 305
#
# _framework density 16.479581
#
# number of rings (size 3 to 8) (size 9 to 14) (size 15 to 20)
#    0.000    2.000    3.750    1.500    0.000    4.500 
#    0.000    3.125    0.000    6.375    0.000    8.750 
#    0.000    0.000    0.000   10.750    0.000    0.250 
#
# Total GULP energy -356383.762566 kJ/mol
# GULP energy per Si atom -5568.496290 kJ/mol
# Density = 1.644207 g / cm^3
# Si number density = 16.479581 Si / 1000 Ang^3
#
#
#
# Elastic Constant Matrix: (Units=GPa)
#
#
# Indices 1 2 3 4 5 6 
#
# 1 78.6839 6.6197 10.0469 0.0000 0.0000 0.0000
# 2 6.6197 56.0026 10.5929 0.0000 0.0000 0.0000
# 3 10.0469 10.5929 59.8069 0.0000 0.0000 0.0000
# 4 0.0000 0.0000 0.0000 11.6246 0.0000 0.0000
# 5 0.0000 0.0000 0.0000 0.0000 12.4030 0.0000
# 6 0.0000 0.0000 0.0000 0.0000 0.0000 17.3772
#
#
#
# Elastic Compliance Matrix: (Units=1/GPa)
#
#
# Indices 1 2 3 4 5 6 
#
# 1 0.013061 -0.001168 -0.001987 0.000000 0.000000 0.000000
# 2 -0.001168 0.018580 -0.003095 0.000000 0.000000 0.000000
# 3 -0.001987 -0.003095 0.017602 0.000000 0.000000 0.000000
# 4 0.000000 0.000000 0.000000 0.086025 0.000000 0.000000
# 5 0.000000 0.000000 0.000000 0.000000 0.080626 0.000000
# 6 0.000000 0.000000 0.000000 0.000000 0.000000 0.057547
#
#
# Mechanical properties :
#
#
# Convention : Reuss Voigt Hill
#
# Bulk Modulus (GPa) = 27.21565 27.66805 27.44185
# Shear Modulus (GPa) = 16.76796 19.42988 18.09892
#
# Velocity S-wave (km/s) = 3.19329 3.43742 3.31760
# Velocity P-wave (km/s) = 5.49060 5.70791 5.60031
#
# Compressibility (1/GPa) = 0.03674357
#
# Stress axis : x y z
#
# Youngs Moduli (GPa) = 76.56333 53.82209 56.81034
#
# Poissons Ratio (x) = 0.06286 0.11290
# Poissons Ratio (y) = 0.08942 0.17581
# Poissons Ratio (z) = 0.15215 0.16656
#
# Static dielectric constant tensor:
#      x y z
#    x 1.584800 0.000000 0.000000 
#    y 0.000000 1.571920 0.000000 
#    z 0.000000 0.000000 1.539170 
# 
# From -- ./inp_files/28323.got.cif
#   From: 2010.05.17/outbox.cif.g08.bks.cpg/sg47_15_cif.got.tgz:28323.got - 2010.06.03 20:15:42.
