data_PCOD9383756
_publ_section_title
;
Structure prediction by ZEFSAII (Michael W. Deem and Ramdas Pophale) SiO2 
 PCOD9383756
Probable space group: P M M M
;
_chemical_formula_sum "Si O2"
_cell_formula_units_Z 64
_cell_length_a 24.521247
_cell_length_b 15.758782
_cell_length_c 7.730076
_cell_angle_alpha 90.000000
_cell_angle_beta 90.000000
_cell_angle_gamma 90.000000
_cell_volume 2987.094509
_symmetry_space_group_name_H-M "P M M M"
_symmetry_group_IT_number 47
_symmetry_cell_setting 'orthorhombic'
loop_
_space_group_symop_operation_xyz
x,y,z
-x,-y,z
x,-y,-z
-x,y,-z
-x,-y,-z
x,y,-z
-x,y,z
x,-y,z
loop_
_atom_site_type_symbol
_atom_site_label
_atom_site_fract_x
_atom_site_fract_y
_atom_site_fract_z
Si Si1 0.321323 0.361480 0.805265
Si Si2 0.200296 0.407114 0.705373
Si Si3 0.936336 0.095480 0.289012
Si Si4 0.329124 0.178256 0.697930
Si Si5 0.772234 0.091482 0.795759
Si Si6 0.559409 0.602152 0.202299
Si Si7 0.852261 0.234406 0.299728
Si Si8 0.439354 0.901141 0.791176
O O1 0.265644 0.396342 0.726058
O O2 0.315025 0.260560 0.807215
O O3 0.381217 0.375277 0.721364
O O4 0.324474 0.396240 0.000000
O O5 0.190083 0.407937 0.500000
O O6 0.184851 0.500000 0.776458
O O7 0.167896 0.324551 0.776078
O O8 0.932112 0.094867 0.500000
O O9 0.900085 0.174297 0.224023
O O10 0.000000 0.106324 0.246037
O O11 0.919812 0.000000 0.230659
O O12 0.315662 0.196981 0.500000
O O13 0.291908 0.101822 0.763747
O O14 0.391890 0.154928 0.715231
O O15 0.801219 0.170371 0.707178
O O16 0.790770 0.000000 0.728644
O O17 0.783091 0.095787 0.000000
O O18 0.500000 0.630822 0.273773
O O19 0.558007 0.500000 0.203217
O O20 0.560406 0.630859 0.000000
O O21 0.867076 0.250295 0.500000
O O22 0.500000 0.874452 0.739077
O O23 0.432300 0.000000 0.742768
O O24 0.436251 0.896652 0.000000
#
# Coordination Sequence:
#
# PCOD9383756 Si02
#       8
#     8   8   8   8   8   8   8   8
#     4  11  21  34  54  77 101 133 178 228 278 335
#     4  10  21  36  53  76 109 147 185 232 288 337
#     4   8  14  26  48  81 117 150 189 236 278 319
#     4  12  24  36  51  74 105 138 174 219 273 333
#     4  11  23  37  54  78 109 143 178 224 278 328
#     4   8  15  29  49  73  97 120 155 208 267 325
#     4  10  19  33  55  81 110 148 190 230 274 328
#     4   9  19  37  58  76  96 128 173 223 273 326
#
# _framework density 21.425502999999999
#
# number of rings (size 3 to 8) (size 9 to 14) (size 15 to 20)
#    0.000    2.125    1.250    4.125    0.000    4.750 
#    0.000    1.875    0.000    1.875    0.000    8.750 
#    0.000    0.000    0.000    2.250    0.000    2.625 
#
# Total GULP energy -357063.274794 kJ/mol
# GULP energy per Si atom -5579.113669 kJ/mol
# Density = 2.137674 g / cm^3
# Si number density = 21.425503 Si / 1000 Ang^3
#
#
#
# Elastic Constant Matrix: (Units=GPa)
#
#
# Indices 1 2 3 4 5 6 
#
# 1 116.8598 66.7583 0.2449 0.0000 0.0000 0.0000
# 2 66.7583 150.4514 8.9437 0.0000 0.0000 0.0000
# 3 0.2449 8.9437 44.0553 0.0000 0.0000 0.0000
# 4 0.0000 0.0000 0.0000 16.9545 0.0000 0.0000
# 5 0.0000 0.0000 0.0000 0.0000 26.7699 0.0000
# 6 0.0000 0.0000 0.0000 0.0000 0.0000 31.5065
#
#
#
# Elastic Compliance Matrix: (Units=1/GPa)
#
#
# Indices 1 2 3 4 5 6 
#
# 1 0.011505 -0.005163 0.000984 0.000000 0.000000 0.000000
# 2 -0.005163 0.009045 -0.001808 0.000000 0.000000 0.000000
# 3 0.000984 -0.001808 0.023060 0.000000 0.000000 0.000000
# 4 0.000000 0.000000 0.000000 0.058981 0.000000 0.000000
# 5 0.000000 0.000000 0.000000 0.000000 0.037355 0.000000
# 6 0.000000 0.000000 0.000000 0.000000 0.000000 0.031739
#
#
# Mechanical properties :
#
#
# Convention : Reuss Voigt Hill
#
# Bulk Modulus (GPa) = 31.60868 51.47336 41.54102
# Shear Modulus (GPa) = 25.74589 30.74082 28.24336
#
# Velocity S-wave (km/s) = 3.47024 3.79195 3.63466
# Velocity P-wave (km/s) = 5.55352 6.57635 6.08646
#
# Compressibility (1/GPa) = 0.03163688
#
# Stress axis : x y z
#
# Youngs Moduli (GPa) = 86.91928 110.55514 43.36469
#
# Poissons Ratio (x) = 0.57085 -0.04268
# Poissons Ratio (y) = 0.44881 0.07839
# Poissons Ratio (z) = -0.08555 0.19984
#
# Static dielectric constant tensor:
#      x y z
#    x 1.803460 0.000000 0.000000 
#    y 0.000000 1.799450 0.000000 
#    z 0.000000 0.000000 1.832190 
# 
# From -- ./inp_files/12731.got.cif
#   From: 2010.05.17/outbox.cif.g08.bks.cpg/sg47_7_cif.got.tgz:12731.got - 2010.06.03 20:15:42.
