data_PCOD9383797
_publ_section_title
;
Structure prediction by ZEFSAII (Michael W. Deem and Ramdas Pophale) SiO2 
 PCOD9383797
Probable space group: P M M M
;
_chemical_formula_sum "Si O2"
_cell_formula_units_Z 33
_cell_length_a 9.729949
_cell_length_b 11.979994
_cell_length_c 15.748272
_cell_angle_alpha 90.000000
_cell_angle_beta 90.000000
_cell_angle_gamma 90.000000
_cell_volume 1835.693084
_symmetry_space_group_name_H-M "P M M M"
_symmetry_group_IT_number 47
_symmetry_cell_setting 'orthorhombic'
loop_
_space_group_symop_operation_xyz
x,y,z
-x,-y,z
x,-y,-z
-x,y,-z
-x,-y,-z
x,y,-z
-x,y,z
x,-y,z
loop_
_atom_site_type_symbol
_atom_site_label
_atom_site_fract_x
_atom_site_fract_y
_atom_site_fract_z
Si Si1 0.741556 0.000000 0.129079
Si Si2 0.336999 0.632926 0.261999
Si Si3 0.340539 0.247878 0.907531
Si Si4 0.000000 0.000000 0.000000
Si Si5 0.835733 0.239387 0.400639
Si Si6 0.835520 0.000000 0.322371
O O1 0.666962 0.115114 0.105858
O O2 0.880380 0.000000 0.074288
O O3 0.768202 0.000000 0.229779
O O4 0.500000 0.660184 0.271848
O O5 0.324937 0.500000 0.255082
O O6 0.282948 0.691004 0.175356
O O7 0.251212 0.679960 0.340610
O O8 0.500000 0.281854 0.911132
O O9 0.276822 0.273921 0.000000
O O10 0.807064 0.256196 0.500000
O O11 0.801271 0.112408 0.373283
O O12 0.000000 0.254866 0.387548
O O13 0.000000 0.000000 0.310195
#
# Coordination Sequence:
#
# PCOD9383797 Si02
#       6
#     4   8   8   1   8   4
#     4  12  19  32  52  83 113 145 178 222 272 336
#     4  10  22  39  58  82 112 148 191 236 282 330
#     4  10  20  35  56  80 109 145 184 227 272 326
#     4  12  24  28  50  92 120 144 184 222 280 346
#     4  10  21  38  61  85 111 144 186 232 281 340
#     4  10  19  33  56  83 112 144 176 220 279 335
#
# _framework density 17.976861
#
# number of rings (size 3 to 8) (size 9 to 14) (size 15 to 20)
#    0.000    1.697    4.242    0.727    0.000    4.364 
#    0.000    5.455    0.000    1.455    0.000    2.545 
#    0.000    0.000    0.000    0.000    0.000    0.000 
#
# Total GULP energy -183794.897643 kJ/mol
# GULP energy per Si atom -5569.542353 kJ/mol
# Density = 1.793595 g / cm^3
# Si number density = 17.976861 Si / 1000 Ang^3
#
#
#
# Elastic Constant Matrix: (Units=GPa)
#
#
# Indices 1 2 3 4 5 6 
#
# 1 33.9453 22.6972 49.0393 0.0000 0.0000 0.0000
# 2 22.6972 73.5365 59.9509 0.0000 0.0000 0.0000
# 3 49.0393 59.9509 193.5292 0.0000 0.0000 0.0000
# 4 0.0000 0.0000 0.0000 0.2765 0.0000 0.0000
# 5 0.0000 0.0000 0.0000 0.0000 28.1783 0.0000
# 6 0.0000 0.0000 0.0000 0.0000 0.0000 25.7692
#
#
#
# Elastic Compliance Matrix: (Units=1/GPa)
#
#
# Indices 1 2 3 4 5 6 
#
# 1 0.048795 -0.006663 -0.010300 0.000000 0.000000 0.000000
# 2 -0.006663 0.019103 -0.004229 0.000000 0.000000 0.000000
# 3 -0.010300 -0.004229 0.009087 0.000000 0.000000 0.000000
# 4 0.000000 0.000000 0.000000 3.617003 0.000000 0.000000
# 5 0.000000 0.000000 0.000000 0.000000 0.035488 0.000000
# 6 0.000000 0.000000 0.000000 0.000000 0.000000 0.038806
#
#
# Mechanical properties :
#
#
# Convention : Reuss Voigt Hill
#
# Bulk Modulus (GPa) = 28.90197 62.70952 45.80575
# Shear Modulus (GPa) = 1.30815 22.13303 11.72059
#
# Velocity S-wave (km/s) = 0.85397 3.51265 2.55616
# Velocity P-wave (km/s) = 4.13335 7.17013 5.85215
#
# Compressibility (1/GPa) = 0.03459971
#
# Stress axis : x y z
#
# Youngs Moduli (GPa) = 20.49401 52.34692 110.04335
#
# Poissons Ratio (x) = 0.34881 1.13346
# Poissons Ratio (y) = 0.13656 0.46541
# Poissons Ratio (z) = 0.21109 0.22139
#
# Static dielectric constant tensor:
#      x y z
#    x 1.603910 0.000000 0.000000 
#    y 0.000000 1.601090 0.000000 
#    z 0.000000 0.000000 1.631820 
# 
# From -- ./inp_files/3452.got.cif
#   From: 2010.05.17/outbox.cif.g08.bks.cpg/sg47_2_cif.got.tgz:3452.got - 2010.06.03 20:15:42.
