data_PCOD9383719
_publ_section_title
;
Structure prediction by ZEFSAII (Michael W. Deem and Ramdas Pophale) SiO2 
 PCOD9383719
Probable space group: P M M M
;
_chemical_formula_sum "Si O2"
_cell_formula_units_Z 52
_cell_length_a 28.624090
_cell_length_b 12.369717
_cell_length_c 8.667339
_cell_angle_alpha 90.000000
_cell_angle_beta 90.000000
_cell_angle_gamma 90.000000
_cell_volume 3068.861124
_symmetry_space_group_name_H-M "P M M M"
_symmetry_group_IT_number 47
_symmetry_cell_setting 'orthorhombic'
loop_
_space_group_symop_operation_xyz
x,y,z
-x,-y,z
x,-y,-z
-x,y,-z
-x,-y,-z
x,y,-z
-x,y,z
x,-y,z
loop_
_atom_site_type_symbol
_atom_site_label
_atom_site_fract_x
_atom_site_fract_y
_atom_site_fract_z
Si Si1 0.326715 0.625491 0.315526
Si Si2 0.851659 0.216077 0.685167
Si Si3 0.445433 0.000000 0.684877
Si Si4 0.376215 0.175769 0.814818
Si Si5 0.194978 0.000000 0.186516
Si Si6 0.052604 0.125169 0.687732
Si Si7 0.301658 0.000000 0.186567
Si Si8 0.225295 0.629076 0.819604
O O1 0.327679 0.630816 0.500000
O O2 0.333500 0.500000 0.268115
O O3 0.365718 0.705161 0.247451
O O4 0.274799 0.658659 0.258236
O O5 0.850442 0.219543 0.500000
O O6 0.828890 0.105832 0.745986
O O7 0.905926 0.205281 0.735599
O O8 0.819403 0.311341 0.749377
O O9 0.419547 0.893463 0.750705
O O10 0.500000 0.000000 0.725564
O O11 0.440808 0.000000 0.500000
O O12 0.331138 0.104379 0.765959
O O13 0.378909 0.177255 0.000000
O O14 0.248829 0.000000 0.238070
O O15 0.192622 0.000000 0.000000
O O16 0.052408 0.124460 0.500000
O O17 0.000000 0.152988 0.738602
O O18 0.062232 0.000000 0.734570
O O19 0.301009 0.000000 0.000000
O O20 0.220124 0.500000 0.803751
O O21 0.228757 0.657216 0.000000
#
# Coordination Sequence:
#
# PCOD9383719 Si02
#       8
#     8   8   4   8   4   8   4   8
#     4  10  20  34  53  78 107 139 177 217 254 297
#     4  11  20  31  49  73  98 124 163 209 254 301
#     4  10  21  37  57  81 111 146 182 221 266 311
#     4  10  19  33  54  78 106 140 178 217 260 309
#     4  11  20  30  45  68 103 138 162 191 243 306
#     4   8  14  27  47  69  94 123 156 198 250 306
#     4   8  17  30  43  64  95 131 165 197 237 292
#     4  10  21  36  52  71 100 139 176 207 248 303
#
# _framework density 16.944398
#
# number of rings (size 3 to 8) (size 9 to 14) (size 15 to 20)
#    0.000    2.231    0.769    4.154    0.000    3.692 
#    0.000    3.846    0.000    3.231    0.000    6.462 
#    0.000    0.000    0.000    0.000    0.000    0.000 
#
# Total GULP energy -289988.278347 kJ/mol
# GULP energy per Si atom -5576.697661 kJ/mol
# Density = 1.690583 g / cm^3
# Si number density = 16.944398 Si / 1000 Ang^3
#
#
#
# Elastic Constant Matrix: (Units=GPa)
#
#
# Indices 1 2 3 4 5 6 
#
# 1 138.0926 59.3567 41.1161 0.0000 0.0000 0.0000
# 2 59.3567 75.6798 37.4563 0.0000 0.0000 0.0000
# 3 41.1161 37.4563 52.0565 0.0000 0.0000 0.0000
# 4 0.0000 0.0000 0.0000 28.2267 0.0000 0.0000
# 5 0.0000 0.0000 0.0000 0.0000 4.6495 0.0000
# 6 0.0000 0.0000 0.0000 0.0000 0.0000 17.8706
#
#
#
# Elastic Compliance Matrix: (Units=1/GPa)
#
#
# Indices 1 2 3 4 5 6 
#
# 1 0.011438 -0.006988 -0.004006 0.000000 0.000000 0.000000
# 2 -0.006988 0.024792 -0.012319 0.000000 0.000000 0.000000
# 3 -0.004006 -0.012319 0.031237 0.000000 0.000000 0.000000
# 4 0.000000 0.000000 0.000000 0.035427 0.000000 0.000000
# 5 0.000000 0.000000 0.000000 0.000000 0.215078 0.000000
# 6 0.000000 0.000000 0.000000 0.000000 0.000000 0.055958
#
#
# Mechanical properties :
#
#
# Convention : Reuss Voigt Hill
#
# Bulk Modulus (GPa) = 47.98138 60.18744 54.08441
# Shear Modulus (GPa) = 11.69581 18.67601 15.18591
#
# Velocity S-wave (km/s) = 2.63010 3.32353 2.99694
# Velocity P-wave (km/s) = 6.13202 7.09405 6.63050
#
# Compressibility (1/GPa) = 0.02084142
#
# Stress axis : x y z
#
# Youngs Moduli (GPa) = 87.42736 40.33631 32.01283
#
# Poissons Ratio (x) = 0.28189 0.12824
# Poissons Ratio (y) = 0.61098 0.39435
# Poissons Ratio (z) = 0.35022 0.49689
#
# Static dielectric constant tensor:
#      x y z
#    x 1.575910 0.000000 0.000000 
#    y 0.000000 1.564000 0.000000 
#    z 0.000000 0.000000 1.573900 
# 
# From -- ./inp_files/13312.got.cif
#   From: 2010.05.17/outbox.cif.g08.bks.cpg/sg47_7_cif.got.tgz:13312.got - 2010.06.03 20:15:42.
