data_PCOD9383277
_publ_section_title
;
Structure prediction by ZEFSAII (Michael W. Deem and Ramdas Pophale) SiO2 
 PCOD9383277
Probable space group: P M M M
;
_chemical_formula_sum "Si O2"
_cell_formula_units_Z 44
_cell_length_a 14.155859
_cell_length_b 15.796856
_cell_length_c 13.018233
_cell_angle_alpha 90.000000
_cell_angle_beta 90.000000
_cell_angle_gamma 90.000000
_cell_volume 2911.112089
_symmetry_space_group_name_H-M "P M M M"
_symmetry_group_IT_number 47
_symmetry_cell_setting 'orthorhombic'
loop_
_space_group_symop_operation_xyz
x,y,z
-x,-y,z
x,-y,-z
-x,y,-z
-x,-y,-z
x,y,-z
-x,y,z
x,-y,z
loop_
_atom_site_type_symbol
_atom_site_label
_atom_site_fract_x
_atom_site_fract_y
_atom_site_fract_z
Si Si1 0.892036 0.092639 0.377015
Si Si2 0.114878 0.397235 0.500000
Si Si3 0.110283 0.337548 0.114733
Si Si4 0.192134 0.729173 0.320756
Si Si5 0.393036 0.684628 0.379973
Si Si6 0.755346 0.500000 0.886524
Si Si7 0.606111 0.500000 0.296809
O O1 0.896603 0.088085 0.500000
O O2 0.834259 0.176616 0.354592
O O3 0.000000 0.103468 0.339359
O O4 0.857057 0.000000 0.340442
O O5 0.138398 0.500000 0.500000
O O6 0.154498 0.343773 0.598746
O O7 0.000000 0.391851 0.500000
O O8 0.143418 0.283482 0.211051
O O9 0.176322 0.419632 0.119613
O O10 0.000000 0.360218 0.126102
O O11 0.121607 0.299762 0.000000
O O12 0.305324 0.721391 0.317767
O O13 0.380851 0.705741 0.500000
O O14 0.500000 0.709049 0.348968
O O15 0.385253 0.583673 0.364911
O O16 0.682016 0.500000 0.793792
O O17 0.709362 0.500000 0.000000
O O18 0.500000 0.500000 0.252224
#
# Coordination Sequence:
#
# PCOD9383277 Si02
#       7
#     8   4   8   8   8   4   4
#     4   9  17  30  49  75 104 130 159 196 243 303
#     4  11  24  32  42  74 108 129 156 200 250 292
#     4  10  21  34  48  67  95 133 171 203 241 296
#     4  12  20  33  54  71  98 134 167 205 246 298
#     4  10  20  32  47  68  95 128 165 204 247 298
#     4  10  19  32  47  64  90 126 169 210 246 286
#     4  10  19  32  47  64  90 128 169 206 246 292
#
# _framework density 15.114499
#
# number of rings (size 3 to 8) (size 9 to 14) (size 15 to 20)
#    0.000    1.727    3.636    2.727    2.545    2.364 
#    0.000    0.000    0.000    1.636    0.000    5.091 
#    0.000    0.000    0.000    1.636    0.000    0.364 
#
# Total GULP energy -245053.963836 kJ/mol
# GULP energy per Si atom -5569.408269 kJ/mol
# Density = 1.508010 g / cm^3
# Si number density = 15.114499 Si / 1000 Ang^3
#
#
#
# Elastic Constant Matrix: (Units=GPa)
#
#
# Indices 1 2 3 4 5 6 
#
# 1 80.1405 24.8932 21.5040 0.0000 0.0000 0.0000
# 2 24.8932 90.4002 10.5711 0.0000 0.0000 0.0000
# 3 21.5040 10.5711 64.5641 0.0000 0.0000 0.0000
# 4 0.0000 0.0000 0.0000 12.2557 0.0000 0.0000
# 5 0.0000 0.0000 0.0000 0.0000 21.0467 0.0000
# 6 0.0000 0.0000 0.0000 0.0000 0.0000 8.3509
#
#
#
# Elastic Compliance Matrix: (Units=1/GPa)
#
#
# Indices 1 2 3 4 5 6 
#
# 1 0.014743 -0.003554 -0.004329 0.000000 0.000000 0.000000
# 2 -0.003554 0.012134 -0.000803 0.000000 0.000000 0.000000
# 3 -0.004329 -0.000803 0.017062 0.000000 0.000000 0.000000
# 4 0.000000 0.000000 0.000000 0.081595 0.000000 0.000000
# 5 0.000000 0.000000 0.000000 0.000000 0.047513 0.000000
# 6 0.000000 0.000000 0.000000 0.000000 0.000000 0.119748
#
#
# Mechanical properties :
#
#
# Convention : Reuss Voigt Hill
#
# Bulk Modulus (GPa) = 37.63852 38.78239 38.21045
# Shear Modulus (GPa) = 15.67288 20.20643 17.93965
#
# Velocity S-wave (km/s) = 3.22365 3.66032 3.44890
# Velocity P-wave (km/s) = 6.22995 6.60141 6.41837
#
# Compressibility (1/GPa) = 0.02656853
#
# Stress axis : x y z
#
# Youngs Moduli (GPa) = 67.82680 82.41029 58.61077
#
# Poissons Ratio (x) = 0.29286 0.25371
# Poissons Ratio (y) = 0.24103 0.04707
# Poissons Ratio (z) = 0.29360 0.06619
#
# Static dielectric constant tensor:
#      x y z
#    x 1.516820 0.000000 0.000000 
#    y 0.000000 1.498440 0.000000 
#    z 0.000000 0.000000 1.518740 
# 
# From -- ./inp_files/17477.got.cif
#   From: 2010.05.17/outbox.cif.g08.bks.cpg/sg47_9_cif.got.tgz:17477.got - 2010.06.03 20:15:42.
