data_PCOD9383825
_publ_section_title
;
Structure prediction by ZEFSAII (Michael W. Deem and Ramdas Pophale) SiO2 
 PCOD9383825
Probable space group: P M M M
;
_chemical_formula_sum "Si O2"
_cell_formula_units_Z 37
_cell_length_a 11.867568
_cell_length_b 11.889433
_cell_length_c 14.895805
_cell_angle_alpha 90.000000
_cell_angle_beta 90.000000
_cell_angle_gamma 90.000000
_cell_volume 2101.778045
_symmetry_space_group_name_H-M "P M M M"
_symmetry_group_IT_number 47
_symmetry_cell_setting 'orthorhombic'
loop_
_space_group_symop_operation_xyz
x,y,z
-x,-y,z
x,-y,-z
-x,y,-z
-x,-y,-z
x,y,-z
-x,y,z
x,-y,z
loop_
_atom_site_type_symbol
_atom_site_label
_atom_site_fract_x
_atom_site_fract_y
_atom_site_fract_z
Si Si1 0.746183 0.865147 0.098946
Si Si2 0.500000 0.217446 0.366877
Si Si3 0.863432 0.500000 0.898357
Si Si4 0.500000 0.000000 0.500000
Si Si5 0.500000 0.135859 0.837175
Si Si6 0.134611 0.706555 0.228975
Si Si7 0.721863 0.366846 0.602416
O O1 0.615525 0.832313 0.113208
O O2 0.817940 0.817113 0.180947
O O3 0.751481 0.000000 0.099901
O O4 0.785806 0.826389 0.000000
O O5 0.500000 0.101168 0.422430
O O6 0.500000 0.188127 0.261638
O O7 0.390901 0.292906 0.388869
O O8 0.831301 0.608424 0.840837
O O9 0.000000 0.500000 0.902717
O O10 0.820287 0.500000 0.000000
O O11 0.500000 0.000000 0.829959
O O12 0.191209 0.678670 0.323785
O O13 0.000000 0.709094 0.237050
O O14 0.764046 0.355640 0.500000
O O15 0.700074 0.500000 0.618169
#
# Coordination Sequence:
#
# PCOD9383825 Si02
#       7
#     8   4   4   1   4   8   8
#     4  10  21  37  59  86 119 157 199 248 302 362
#     4  12  21  38  62  93 119 153 193 245 301 356
#     4   9  18  34  55  78 107 146 195 246 287 334
#     4  12  24  36  66 100 120 144 200 254 292 362
#     4  10  19  33  58  86 115 149 190 240 297 355
#     4  11  22  37  58  85 116 156 204 247 295 355
#     4  11  23  40  62  87 119 156 198 249 300 355
#
# _framework density 17.604142
#
# number of rings (size 3 to 8) (size 9 to 14) (size 15 to 20)
#    0.000    1.405    4.865    1.297    0.000    4.324 
#    0.000    2.162    0.000    0.000    0.000    6.811 
#    0.000    0.000    0.000    0.000    0.000    0.000 
#
# Total GULP energy -206187.017469 kJ/mol
# GULP energy per Si atom -5572.622094 kJ/mol
# Density = 1.756407 g / cm^3
# Si number density = 17.604142 Si / 1000 Ang^3
#
#
#
# Elastic Constant Matrix: (Units=GPa)
#
#
# Indices 1 2 3 4 5 6 
#
# 1 90.6695 43.4658 55.0359 0.0000 0.0000 0.0000
# 2 43.4658 77.6758 52.6915 0.0000 0.0000 0.0000
# 3 55.0359 52.6915 151.4440 0.0000 0.0000 0.0000
# 4 0.0000 0.0000 0.0000 31.7641 0.0000 0.0000
# 5 0.0000 0.0000 0.0000 0.0000 -10.5002 0.0000
# 6 0.0000 0.0000 0.0000 0.0000 0.0000 19.3235
#
#
#
# Elastic Compliance Matrix: (Units=1/GPa)
#
#
# Indices 1 2 3 4 5 6 
#
# 1 0.016473 -0.006750 -0.003638 0.000000 0.000000 0.000000
# 2 -0.006750 0.019617 -0.004372 0.000000 0.000000 0.000000
# 3 -0.003638 -0.004372 0.009446 0.000000 0.000000 0.000000
# 4 0.000000 0.000000 0.000000 0.031482 0.000000 0.000000
# 5 0.000000 0.000000 0.000000 0.000000 -0.095236 0.000000
# 6 0.000000 0.000000 0.000000 0.000000 0.000000 0.051751
#
#
# Mechanical properties :
#
#
# Convention : Reuss Voigt Hill
#
# Bulk Modulus (GPa) = 62.43776 69.13065 65.78420
# Shear Modulus (GPa) = 73.10667 19.35720 46.23194
#
# Velocity S-wave (km/s) = 6.45122 3.31959 5.13020
# Velocity P-wave (km/s) = 9.54126 7.35171 8.51714
#
# Compressibility (1/GPa) = 0.01601595
#
# Stress axis : x y z
#
# Youngs Moduli (GPa) = 60.70434 50.97535 105.86080
#
# Poissons Ratio (x) = 0.34410 0.38511
# Poissons Ratio (y) = 0.40978 0.46285
# Poissons Ratio (z) = 0.22084 0.22288
#
# Static dielectric constant tensor:
#      x y z
#    x 1.581050 0.000000 0.000000 
#    y 0.000000 1.608420 0.000000 
#    z 0.000000 0.000000 1.606030 
# 
# From -- ./inp_files/22537.got.cif
#   From: 2010.05.17/outbox.cif.g08.bks.cpg/sg47_12_cif.got.tgz:22537.got - 2010.06.03 20:15:42.
