data_PCOD9383396
_publ_section_title
;
Structure prediction by ZEFSAII (Michael W. Deem and Ramdas Pophale) SiO2 
 PCOD9383396
Probable space group: P M M M
;
_chemical_formula_sum "Si O2"
_cell_formula_units_Z 48
_cell_length_a 9.503906
_cell_length_b 8.184446
_cell_length_c 33.406176
_cell_angle_alpha 90.000000
_cell_angle_beta 90.000000
_cell_angle_gamma 90.000000
_cell_volume 2598.472857
_symmetry_space_group_name_H-M "P M M M"
_symmetry_group_IT_number 47
_symmetry_cell_setting 'orthorhombic'
loop_
_space_group_symop_operation_xyz
x,y,z
-x,-y,z
x,-y,-z
-x,y,-z
-x,-y,-z
x,y,-z
-x,y,z
x,-y,z
loop_
_atom_site_type_symbol
_atom_site_label
_atom_site_fract_x
_atom_site_fract_y
_atom_site_fract_z
Si Si1 0.837656 0.801842 0.259690
Si Si2 0.661635 0.196964 0.663517
Si Si3 0.663554 0.305749 0.817187
Si Si4 0.328761 0.817851 0.904043
Si Si5 0.671802 0.500000 0.046349
Si Si6 0.661058 0.304940 0.424297
Si Si7 0.840786 0.805147 0.500000
O O1 0.757665 0.746211 0.299877
O O2 0.757127 0.738956 0.220684
O O3 0.000000 0.750509 0.259840
O O4 0.833585 0.000000 0.259024
O O5 0.500000 0.254810 0.668469
O O6 0.711031 0.249560 0.619543
O O7 0.659897 0.000000 0.664406
O O8 0.500000 0.261615 0.809125
O O9 0.668367 0.500000 0.824742
O O10 0.709425 0.216156 0.857856
O O11 0.500000 0.816132 0.905275
O O12 0.281551 0.665289 0.931071
O O13 0.282938 0.000000 0.916451
O O14 0.500000 0.500000 0.047610
O O15 0.713707 0.500000 0.000000
O O16 0.500000 0.242880 0.429351
O O17 0.656474 0.500000 0.424872
O O18 0.757470 0.247880 0.460478
O O19 0.000000 0.739263 0.500000
O O20 0.847156 0.000000 0.500000
#
# Coordination Sequence:
#
# PCOD9383396 Si02
#       7
#     8   8   8   8   4   8   4
#     4  10  21  35  51  75 107 139 173 216 265 318
#     4   9  18  34  55  77 104 141 182 219 258 310
#     4  10  19  32  51  73  99 134 179 227 268 314
#     4   9  16  27  44  66  95 133 176 220 268 321
#     4   9  16  26  40  64 101 137 173 219 269 326
#     4  10  21  37  58  83 109 136 170 214 261 310
#     4  11  24  39  56  80 108 139 176 215 258 310
#
# _framework density 18.472387999999999
#
# number of rings (size 3 to 8) (size 9 to 14) (size 15 to 20)
#    0.000    2.333    0.833    2.000    0.000    6.333 
#    0.000    5.000    0.000    0.000    0.000    0.000 
#    0.000    1.333    0.000    3.500    0.000    3.333 
#
# Total GULP energy -267855.735960 kJ/mol
# GULP energy per Si atom -5580.327833 kJ/mol
# Density = 1.843034 g / cm^3
# Si number density = 18.472388 Si / 1000 Ang^3
#
#
#
# Elastic Constant Matrix: (Units=GPa)
#
#
# Indices 1 2 3 4 5 6 
#
# 1 57.8701 28.2028 65.5440 0.0000 0.0000 0.0000
# 2 28.2028 74.1718 61.2289 0.0000 0.0000 0.0000
# 3 65.5440 61.2289 170.2478 0.0000 0.0000 0.0000
# 4 0.0000 0.0000 0.0000 31.3499 0.0000 0.0000
# 5 0.0000 0.0000 0.0000 0.0000 -5.4829 0.0000
# 6 0.0000 0.0000 0.0000 0.0000 0.0000 14.8523
#
#
#
# Elastic Compliance Matrix: (Units=1/GPa)
#
#
# Indices 1 2 3 4 5 6 
#
# 1 0.031032 -0.002755 -0.010956 0.000000 0.000000 0.000000
# 2 -0.002755 0.019420 -0.005923 0.000000 0.000000 0.000000
# 3 -0.010956 -0.005923 0.012222 0.000000 0.000000 0.000000
# 4 0.000000 0.000000 0.000000 0.031898 0.000000 0.000000
# 5 0.000000 0.000000 0.000000 0.000000 -0.182384 0.000000
# 6 0.000000 0.000000 0.000000 0.000000 0.000000 0.067330
#
#
# Mechanical properties :
#
#
# Convention : Reuss Voigt Hill
#
# Bulk Modulus (GPa) = 42.72752 68.02677 55.37714
# Shear Modulus (GPa) = 188.05725 17.96480 103.01103
#
# Velocity S-wave (km/s) = 10.10077 3.12191 7.47569
# Velocity P-wave (km/s) = 12.61803 7.06408 10.22536
#
# Compressibility (1/GPa) = 0.02340412
#
# Stress axis : x y z
#
# Youngs Moduli (GPa) = 32.22511 51.49425 81.81869
#
# Poissons Ratio (x) = 0.14187 0.89641
# Poissons Ratio (y) = 0.08878 0.48465
# Poissons Ratio (z) = 0.35306 0.30503
#
# Static dielectric constant tensor:
#      x y z
#    x 1.620040 0.000000 0.000000 
#    y 0.000000 1.650760 0.000000 
#    z 0.000000 0.000000 1.609860 
# 
# From -- ./inp_files/34125.got.cif
#   From: 2010.05.17/outbox.cif.g08.bks.cpg/sg47_18_cif.got.tgz:34125.got - 2010.06.03 20:15:42.
