data_PCOD9383974
_publ_section_title
;
Structure prediction by ZEFSAII (Michael W. Deem and Ramdas Pophale) SiO2 
 PCOD9383974
Probable space group: P M M M
;
_chemical_formula_sum "Si O2"
_cell_formula_units_Z 52
_cell_length_a 28.970602
_cell_length_b 9.073737
_cell_length_c 12.048462
_cell_angle_alpha 90.000000
_cell_angle_beta 90.000000
_cell_angle_gamma 90.000000
_cell_volume 3167.198764
_symmetry_space_group_name_H-M "P M M M"
_symmetry_group_IT_number 47
_symmetry_cell_setting 'orthorhombic'
loop_
_space_group_symop_operation_xyz
x,y,z
-x,-y,z
x,-y,-z
-x,y,-z
-x,-y,-z
x,y,-z
-x,y,z
x,-y,z
loop_
_atom_site_type_symbol
_atom_site_label
_atom_site_fract_x
_atom_site_fract_y
_atom_site_fract_z
Si Si1 0.947117 0.175290 0.773995
Si Si2 0.868832 0.324636 0.630896
Si Si3 0.805893 0.678567 0.000000
Si Si4 0.085711 0.322501 0.000000
Si Si5 0.593732 0.669573 0.634933
Si Si6 0.500000 0.170325 0.364623
Si Si7 0.226176 0.322234 0.241212
Si Si8 0.310708 0.175952 0.368673
O O1 0.910547 0.236697 0.686095
O O2 0.937126 0.256108 0.890236
O O3 0.000000 0.203672 0.739904
O O4 0.941369 0.000000 0.788318
O O5 0.865084 0.296539 0.500000
O O6 0.876682 0.500000 0.647654
O O7 0.820845 0.288166 0.691968
O O8 0.781744 0.725628 0.886085
O O9 0.805373 0.500000 0.000000
O O10 0.859941 0.719285 0.000000
O O11 0.082391 0.500000 0.000000
O O12 0.592580 0.669927 0.500000
O O13 0.595447 0.500000 0.671208
O O14 0.546646 0.748138 0.671963
O O15 0.640101 0.755802 0.666144
O O16 0.500000 0.172911 0.500000
O O17 0.500000 0.000000 0.330879
O O18 0.232168 0.500000 0.244239
O O19 0.269364 0.245877 0.299027
O O20 0.303991 0.210019 0.500000
O O21 0.311732 0.000000 0.357022
#
# Coordination Sequence:
#
# PCOD9383974 Si02
#       8
#     8   8   4   4   8   4   8   8
#     4  11  24  39  55  79 110 139 167 204 254 309
#     4  10  21  37  58  81 103 133 175 215 250 298
#     4   9  18  34  58  81 100 123 157 204 253 300
#     4  11  20  38  63  84 104 130 167 211 255 300
#     4   9  16  26  41  62  90 129 175 216 253 296
#     4   9  15  23  37  59  91 130 169 212 259 303
#     4  10  19  35  56  77 100 127 163 206 253 302
#     4  10  20  32  46  69 102 137 172 209 251 300
#
# _framework density 16.418293999999999
#
# number of rings (size 3 to 8) (size 9 to 14) (size 15 to 20)
#    0.000    2.077    1.538    2.538    0.000    7.692 
#    0.000    1.923    0.000    0.000    0.000    0.000 
#    0.000    0.615    0.000    6.615    0.000    5.077 
#
# Total GULP energy -290191.987475 kJ/mol
# GULP energy per Si atom -5580.615144 kJ/mol
# Density = 1.638093 g / cm^3
# Si number density = 16.418294 Si / 1000 Ang^3
#
#
#
# Elastic Constant Matrix: (Units=GPa)
#
#
# Indices 1 2 3 4 5 6 
#
# 1 174.2836 81.5368 69.1448 0.0000 0.0000 0.0000
# 2 81.5368 77.2741 49.3947 0.0000 0.0000 0.0000
# 3 69.1448 49.3947 81.6187 0.0000 0.0000 0.0000
# 4 0.0000 0.0000 0.0000 19.1420 0.0000 0.0000
# 5 0.0000 0.0000 0.0000 0.0000 713.4562 0.0000
# 6 0.0000 0.0000 0.0000 0.0000 0.0000 55.9886
#
#
#
# Elastic Compliance Matrix: (Units=1/GPa)
#
#
# Indices 1 2 3 4 5 6 
#
# 1 0.012128 -0.010159 -0.004126 0.000000 0.000000 0.000000
# 2 -0.010159 0.029616 -0.009317 0.000000 0.000000 0.000000
# 3 -0.004126 -0.009317 0.021386 0.000000 0.000000 0.000000
# 4 0.000000 0.000000 0.000000 0.052241 0.000000 0.000000
# 5 0.000000 0.000000 0.000000 0.000000 0.001402 0.000000
# 6 0.000000 0.000000 0.000000 0.000000 0.000000 0.017861
#
#
# Mechanical properties :
#
#
# Convention : Reuss Voigt Hill
#
# Bulk Modulus (GPa) = 62.79137 81.48102 72.13619
# Shear Modulus (GPa) = 26.71732 166.59071 96.65402
#
# Velocity S-wave (km/s) = 4.03834 10.08399 7.68098
# Velocity P-wave (km/s) = 7.75062 13.61317 11.07679
#
# Compressibility (1/GPa) = 0.01592576
#
# Stress axis : x y z
#
# Youngs Moduli (GPa) = 82.45701 33.76558 46.76032
#
# Poissons Ratio (x) = 0.34303 0.19292
# Poissons Ratio (y) = 0.83770 0.43565
# Poissons Ratio (z) = 0.34020 0.31458
#
# Static dielectric constant tensor:
#      x y z
#    x 1.533700 0.000000 0.000000 
#    y 0.000000 1.548610 0.000000 
#    z 0.000000 0.000000 1.531820 
# 
# From -- ./inp_files/19874.got.cif
#   From: 2010.05.17/outbox.cif.g08.bks.cpg/sg47_10_cif.got.tgz:19874.got - 2010.06.03 20:15:42.
