data_PCOD9383003
_publ_section_title
;
Structure prediction by ZEFSAII (Michael W. Deem and Ramdas Pophale) SiO2 
 PCOD9383003
Probable space group: P M M M
;
_chemical_formula_sum "Si O2"
_cell_formula_units_Z 52
_cell_length_a 26.966008
_cell_length_b 8.660434
_cell_length_c 13.178345
_cell_angle_alpha 90.000000
_cell_angle_beta 90.000000
_cell_angle_gamma 90.000000
_cell_volume 3077.635538
_symmetry_space_group_name_H-M "P M M M"
_symmetry_group_IT_number 47
_symmetry_cell_setting 'orthorhombic'
loop_
_space_group_symop_operation_xyz
x,y,z
-x,-y,z
x,-y,-z
-x,y,-z
-x,-y,-z
x,y,-z
-x,y,z
x,-y,z
loop_
_atom_site_type_symbol
_atom_site_label
_atom_site_fract_x
_atom_site_fract_y
_atom_site_fract_z
Si Si1 0.395046 0.815465 0.618560
Si Si2 0.942552 0.812833 0.690903
Si Si3 0.232929 0.186230 0.883374
Si Si4 0.705796 0.315089 0.302424
Si Si5 0.117596 0.685483 0.500000
Si Si6 0.232140 0.687889 0.500000
Si Si7 0.500000 0.678995 0.376955
Si Si8 0.881422 0.812100 0.885783
O O1 0.389122 0.765925 0.500000
O O2 0.349419 0.747712 0.680952
O O3 0.448797 0.758237 0.655360
O O4 0.393770 0.000000 0.621016
O O5 0.910695 0.747053 0.598708
O O6 0.918145 0.762060 0.797219
O O7 0.000000 0.766576 0.683253
O O8 0.940702 0.000000 0.686766
O O9 0.268799 0.257598 0.800302
O O10 0.175576 0.232832 0.863955
O O11 0.235089 0.000000 0.876602
O O12 0.244717 0.228788 0.000000
O O13 0.704702 0.500000 0.303638
O O14 0.738855 0.261547 0.398982
O O15 0.116944 0.500000 0.500000
O O16 0.174981 0.737909 0.500000
O O17 0.232329 0.500000 0.500000
O O18 0.500000 0.500000 0.348213
O O19 0.500000 0.688812 0.500000
O O20 0.882163 0.000000 0.887107
O O21 0.894387 0.760731 0.000000
#
# Coordination Sequence:
#
# PCOD9383003 Si02
#       8
#     8   8   8   8   4   4   4   8
#     4  10  19  31  47  71 103 137 174 211 249 296
#     4  10  20  33  50  73  98 122 155 201 246 290
#     4   9  18  33  51  71  97 128 164 205 248 297
#     4  11  20  32  50  72 102 133 165 207 253 300
#     4  11  22  36  51  66  91 131 170 199 236 292
#     4   9  20  34  48  70  99 128 160 203 251 294
#     4   9  17  29  47  69  98 139 178 211 251 294
#     4   8  15  30  52  75  97 122 154 196 247 301
#
# _framework density 16.896086
#
# number of rings (size 3 to 8) (size 9 to 14) (size 15 to 20)
#    0.000    2.385    0.769    3.462    0.000    3.385 
#    0.000    3.846    0.000    1.385    0.000    1.615 
#    0.000    4.308    0.000    0.000    0.000    0.000 
#
# Total GULP energy -290112.476214 kJ/mol
# GULP energy per Si atom -5579.086081 kJ/mol
# Density = 1.685763 g / cm^3
# Si number density = 16.896086 Si / 1000 Ang^3
#
#
#
# Elastic Constant Matrix: (Units=GPa)
#
#
# Indices 1 2 3 4 5 6 
#
# 1 160.3876 35.9695 82.4070 0.0000 0.0000 0.0000
# 2 35.9695 26.4453 24.9180 0.0000 0.0000 0.0000
# 3 82.4070 24.9180 96.5910 0.0000 0.0000 0.0000
# 4 0.0000 0.0000 0.0000 15.0520 0.0000 0.0000
# 5 0.0000 0.0000 0.0000 0.0000 -9.1710 0.0000
# 6 0.0000 0.0000 0.0000 0.0000 0.0000 22.7760
#
#
#
# Elastic Compliance Matrix: (Units=1/GPa)
#
#
# Indices 1 2 3 4 5 6 
#
# 1 0.012615 -0.009271 -0.008371 0.000000 0.000000 0.000000
# 2 -0.009271 0.056770 -0.006736 0.000000 0.000000 0.000000
# 3 -0.008371 -0.006736 0.019232 0.000000 0.000000 0.000000
# 4 0.000000 0.000000 0.000000 0.066436 0.000000 0.000000
# 5 0.000000 0.000000 0.000000 0.000000 -0.109040 0.000000
# 6 0.000000 0.000000 0.000000 0.000000 0.000000 0.043906
#
#
# Mechanical properties :
#
#
# Convention : Reuss Voigt Hill
#
# Bulk Modulus (GPa) = 25.08626 63.33475 44.21051
# Shear Modulus (GPa) = 32.90285 15.07337 23.98811
#
# Velocity S-wave (km/s) = 4.41768 2.99008 3.77204
# Velocity P-wave (km/s) = 6.39538 7.03470 6.72264
#
# Compressibility (1/GPa) = 0.03986246
#
# Stress axis : x y z
#
# Youngs Moduli (GPa) = 79.27095 17.61486 51.99588
#
# Poissons Ratio (x) = 0.16330 0.43525
# Poissons Ratio (y) = 0.73490 0.35024
# Poissons Ratio (z) = 0.66357 0.11865
#
# Static dielectric constant tensor:
#      x y z
#    x 1.556580 0.000000 0.000000 
#    y 0.000000 1.577910 0.000000 
#    z 0.000000 0.000000 1.552430 
# 
# From -- ./inp_files/19853.got.cif
#   From: 2010.05.17/outbox.cif.g08.bks.cpg/sg47_10_cif.got.tgz:19853.got - 2010.06.03 20:15:42.
