data_PCOD9383427
_publ_section_title
;
Structure prediction by ZEFSAII (Michael W. Deem and Ramdas Pophale) SiO2 
 PCOD9383427
Probable space group: P M M M
;
_chemical_formula_sum "Si O2"
_cell_formula_units_Z 44
_cell_length_a 11.322867
_cell_length_b 15.597164
_cell_length_c 13.375980
_cell_angle_alpha 90.000000
_cell_angle_beta 90.000000
_cell_angle_gamma 90.000000
_cell_volume 2362.259779
_symmetry_space_group_name_H-M "P M M M"
_symmetry_group_IT_number 47
_symmetry_cell_setting 'orthorhombic'
loop_
_space_group_symop_operation_xyz
x,y,z
-x,-y,z
x,-y,-z
-x,y,-z
-x,-y,-z
x,y,-z
-x,y,z
x,-y,z
loop_
_atom_site_type_symbol
_atom_site_label
_atom_site_fract_x
_atom_site_fract_y
_atom_site_fract_z
Si Si1 0.774741 0.278813 0.116354
Si Si2 0.500000 0.100744 0.387958
Si Si3 0.862198 0.903357 0.810873
Si Si4 0.357613 0.500000 0.612456
Si Si5 0.000000 0.399119 0.120992
Si Si6 0.639668 0.682797 0.305778
Si Si7 0.751838 0.843252 0.616504
O O1 0.807175 0.178639 0.133368
O O2 0.884482 0.341462 0.147329
O O3 0.667233 0.298192 0.190582
O O4 0.750358 0.293974 0.000000
O O5 0.500000 0.140688 0.500000
O O6 0.624765 0.123833 0.342284
O O7 0.500000 0.000000 0.398267
O O8 0.845417 0.881760 0.692789
O O9 0.000000 0.903987 0.835817
O O10 0.815394 0.000000 0.830672
O O11 0.500000 0.500000 0.604945
O O12 0.309810 0.500000 0.500000
O O13 0.328019 0.585852 0.669959
O O14 0.000000 0.500000 0.155333
O O15 0.000000 0.402872 0.000000
O O16 0.500000 0.697490 0.330006
O O17 0.728327 0.742501 0.369648
O O18 0.767822 0.866387 0.500000
#
# Coordination Sequence:
#
# PCOD9383427 Si02
#       7
#     8   4   8   4   4   8   8
#     4  10  21  37  57  81 108 139 181 227 271 321
#     4   9  16  26  44  69  94 124 165 209 252 300
#     4  10  21  36  54  78 107 139 177 223 274 326
#     4   9  18  32  53  80 111 144 179 214 255 310
#     4   9  18  34  57  81 103 134 176 222 271 314
#     4  10  20  34  53  80 110 143 180 220 267 320
#     4  10  19  32  51  75 105 140 178 217 262 315
#
# _framework density 18.626232999999999
#
# number of rings (size 3 to 8) (size 9 to 14) (size 15 to 20)
#    0.000    2.273    1.818    1.091    1.273    2.909 
#    0.000    1.818    0.000    1.636    0.000    3.182 
#    0.000    0.000    0.000    0.000    0.000    0.000 
#
# Total GULP energy -244958.437924 kJ/mol
# GULP energy per Si atom -5567.237226 kJ/mol
# Density = 1.858384 g / cm^3
# Si number density = 18.626233 Si / 1000 Ang^3
#
#
#
# Elastic Constant Matrix: (Units=GPa)
#
#
# Indices 1 2 3 4 5 6 
#
# 1 17.9357 11.7083 -1.7434 0.0000 0.0000 0.0000
# 2 11.7083 137.1145 8.2818 0.0000 0.0000 0.0000
# 3 -1.7434 8.2818 61.1940 0.0000 0.0000 0.0000
# 4 0.0000 0.0000 0.0000 17.2582 0.0000 0.0000
# 5 0.0000 0.0000 0.0000 0.0000 5.9862 0.0000
# 6 0.0000 0.0000 0.0000 0.0000 0.0000 19.9742
#
#
#
# Elastic Compliance Matrix: (Units=1/GPa)
#
#
# Indices 1 2 3 4 5 6 
#
# 1 0.059393 -0.005216 0.002398 0.000000 0.000000 0.000000
# 2 -0.005216 0.007811 -0.001206 0.000000 0.000000 0.000000
# 3 0.002398 -0.001206 0.016573 0.000000 0.000000 0.000000
# 4 0.000000 0.000000 0.000000 0.057943 0.000000 0.000000
# 5 0.000000 0.000000 0.000000 0.000000 0.167051 0.000000
# 6 0.000000 0.000000 0.000000 0.000000 0.000000 0.050065
#
#
# Mechanical properties :
#
#
# Convention : Reuss Voigt Hill
#
# Bulk Modulus (GPa) = 13.20496 28.08197 20.64347
# Shear Modulus (GPa) = 12.75094 21.84355 17.29725
#
# Velocity S-wave (km/s) = 2.61927 3.42823 3.05068
# Velocity P-wave (km/s) = 4.03141 5.54794 4.84932
#
# Compressibility (1/GPa) = 0.07572910
#
# Stress axis : x y z
#
# Youngs Moduli (GPa) = 16.83697 128.01736 60.33916
#
# Poissons Ratio (x) = 0.66780 -0.14469
# Poissons Ratio (y) = 0.08783 0.07276
# Poissons Ratio (z) = -0.04038 0.15436
#
# Static dielectric constant tensor:
#      x y z
#    x 1.660990 0.000000 0.000000 
#    y 0.000000 1.702290 0.000000 
#    z 0.000000 0.000000 1.664430 
# 
# From -- ./inp_files/22658.got.cif
#   From: 2010.05.17/outbox.cif.g08.bks.cpg/sg47_12_cif.got.tgz:22658.got - 2010.06.03 20:15:42.
