data_PCOD9383185
_publ_section_title
;
Structure prediction by ZEFSAII (Michael W. Deem and Ramdas Pophale) SiO2 
 PCOD9383185
Probable space group: P M M M
;
_chemical_formula_sum "Si O2"
_cell_formula_units_Z 40
_cell_length_a 20.325245
_cell_length_b 9.043889
_cell_length_c 12.753042
_cell_angle_alpha 90.000000
_cell_angle_beta 90.000000
_cell_angle_gamma 90.000000
_cell_volume 2344.254739
_symmetry_space_group_name_H-M "P M M M"
_symmetry_group_IT_number 47
_symmetry_cell_setting 'orthorhombic'
loop_
_space_group_symop_operation_xyz
x,y,z
-x,-y,z
x,-y,-z
-x,y,-z
-x,-y,-z
x,y,-z
-x,y,z
x,-y,z
loop_
_atom_site_type_symbol
_atom_site_label
_atom_site_fract_x
_atom_site_fract_y
_atom_site_fract_z
Si Si1 0.762901 0.177079 0.782325
Si Si2 0.391800 0.177198 0.215248
Si Si3 0.136525 0.676139 0.375266
Si Si4 0.000000 0.829889 0.372770
Si Si5 0.396438 0.330708 0.000000
Si Si6 0.500000 0.819902 0.619340
Si Si7 0.763530 0.329127 0.000000
O O1 0.685231 0.211774 0.768187
O O2 0.806120 0.248110 0.691043
O O3 0.769978 0.000000 0.783642
O O4 0.783783 0.245512 0.894186
O O5 0.415773 0.250026 0.107124
O O6 0.436338 0.224209 0.313080
O O7 0.397189 0.000000 0.203845
O O8 0.144903 0.703621 0.500000
O O9 0.136135 0.500000 0.359176
O O10 0.066491 0.745596 0.342041
O O11 0.000000 0.831385 0.500000
O O12 0.000000 0.000000 0.336835
O O13 0.418009 0.500000 0.000000
O O14 0.316391 0.327844 0.000000
O O15 0.500000 0.766155 0.500000
O O16 0.500000 0.000000 0.615521
O O17 0.784828 0.500000 0.000000
#
# Coordination Sequence:
#
# PCOD9383185 Si02
#       7
#     8   8   8   4   4   4   4
#     4  10  19  31  50  76 102 129 166 211 254 296
#     4   9  18  32  51  73  97 126 163 208 252 296
#     4  10  20  33  50  74 104 137 170 204 247 299
#     4   9  17  31  51  74 101 132 167 209 252 291
#     4   9  17  30  50  73  97 123 155 200 251 301
#     4   9  18  33  51  70  94 129 170 207 248 299
#     4   9  17  31  50  71  98 132 165 200 249 304
#
# _framework density 17.062992999999999
#
# number of rings (size 3 to 8) (size 9 to 14) (size 15 to 20)
#    0.000    2.600    0.000    2.100    0.000    6.800 
#    0.000    4.500    0.000    1.800    0.000    4.200 
#    0.000    0.000    0.000    0.000    0.000    0.000 
#
# Total GULP energy -223081.973186 kJ/mol
# GULP energy per Si atom -5577.049330 kJ/mol
# Density = 1.702416 g / cm^3
# Si number density = 17.062993 Si / 1000 Ang^3
#
#
#
# Elastic Constant Matrix: (Units=GPa)
#
#
# Indices 1 2 3 4 5 6 
#
# 1 100.5364 59.9225 76.5867 0.0000 0.0000 0.0000
# 2 59.9225 81.4143 65.9289 0.0000 0.0000 0.0000
# 3 76.5867 65.9289 137.5311 0.0000 0.0000 0.0000
# 4 0.0000 0.0000 0.0000 27.2765 0.0000 0.0000
# 5 0.0000 0.0000 0.0000 0.0000 -26.4317 0.0000
# 6 0.0000 0.0000 0.0000 0.0000 0.0000 13.8692
#
#
#
# Elastic Compliance Matrix: (Units=1/GPa)
#
#
# Indices 1 2 3 4 5 6 
#
# 1 0.021243 -0.009898 -0.007085 0.000000 0.000000 0.000000
# 2 -0.009898 0.024689 -0.006323 0.000000 0.000000 0.000000
# 3 -0.007085 -0.006323 0.014247 0.000000 0.000000 0.000000
# 4 0.000000 0.000000 0.000000 0.036662 0.000000 0.000000
# 5 0.000000 0.000000 0.000000 0.000000 -0.037833 0.000000
# 6 0.000000 0.000000 0.000000 0.000000 0.000000 0.072102
#
#
# Mechanical properties :
#
#
# Convention : Reuss Voigt Hill
#
# Bulk Modulus (GPa) = 73.70719 80.48423 77.09571
# Shear Modulus (GPa) = 27.43570 10.74571 19.09071
#
# Velocity S-wave (km/s) = 4.01422 2.51224 3.34853
# Velocity P-wave (km/s) = 8.04837 7.46233 7.76088
#
# Compressibility (1/GPa) = 0.01356720
#
# Stress axis : x y z
#
# Youngs Moduli (GPa) = 47.07358 40.50462 70.18816
#
# Poissons Ratio (x) = 0.40093 0.49726
# Poissons Ratio (y) = 0.46595 0.44380
# Poissons Ratio (z) = 0.33350 0.25611
#
# Static dielectric constant tensor:
#      x y z
#    x 1.576130 0.000000 0.000000 
#    y 0.000000 1.567400 0.000000 
#    z 0.000000 0.000000 1.556190 
# 
# From -- ./inp_files/15161.got.cif
#   From: 2010.05.17/outbox.cif.g08.bks.cpg/sg47_8_cif.got.tgz:15161.got - 2010.06.03 20:15:42.
