data_PCOD9383060
_publ_section_title
;
Structure prediction by ZEFSAII (Michael W. Deem and Ramdas Pophale) SiO2 
 PCOD9383060
Probable space group: P M M M
;
_chemical_formula_sum "Si O2"
_cell_formula_units_Z 52
_cell_length_a 8.355558
_cell_length_b 27.290517
_cell_length_c 12.730639
_cell_angle_alpha 90.000000
_cell_angle_beta 90.000000
_cell_angle_gamma 90.000000
_cell_volume 2902.935755
_symmetry_space_group_name_H-M "P M M M"
_symmetry_group_IT_number 47
_symmetry_cell_setting 'orthorhombic'
loop_
_space_group_symop_operation_xyz
x,y,z
-x,-y,z
x,-y,-z
-x,y,-z
-x,-y,-z
x,y,-z
-x,y,z
x,-y,z
loop_
_atom_site_type_symbol
_atom_site_label
_atom_site_fract_x
_atom_site_fract_y
_atom_site_fract_z
Si Si1 0.194777 0.722986 0.117129
Si Si2 0.693050 0.556786 0.118146
Si Si3 0.306536 0.215510 0.500000
Si Si4 0.193313 0.672342 0.500000
Si Si5 0.191103 0.055630 0.500000
Si Si6 0.806888 0.835928 0.882852
Si Si7 0.193380 0.360537 0.273758
Si Si8 0.690639 0.866458 0.336147
O O1 0.244937 0.779193 0.131458
O O2 0.251155 0.686256 0.206229
O O3 0.000000 0.722897 0.118836
O O4 0.244062 0.706902 0.000000
O O5 0.500000 0.558442 0.118578
O O6 0.740700 0.500000 0.132995
O O7 0.755337 0.591762 0.209343
O O8 0.746664 0.571976 0.000000
O O9 0.500000 0.218311 0.500000
O O10 0.240594 0.270360 0.500000
O O11 0.254823 0.182712 0.399243
O O12 0.249937 0.646069 0.606739
O O13 0.000000 0.670679 0.500000
O O14 0.246523 0.086959 0.399812
O O15 0.000000 0.054181 0.500000
O O16 0.252816 0.000000 0.500000
O O17 0.744506 0.865348 0.783756
O O18 0.000000 0.836588 0.881304
O O19 0.755674 0.851680 0.000000
O O20 0.000000 0.359510 0.275117
O O21 0.500000 0.866662 0.342166
#
# Coordination Sequence:
#
# PCOD9383060 Si02
#       8
#     8   8   4   4   4   8   8   8
#     4   8  14  25  43  68  96 126 162 204 243 278
#     4   9  19  36  55  73  92 114 146 193 246 296
#     4   9  19  33  48  71 102 136 174 209 240 285
#     4  10  21  33  47  71 102 135 166 198 236 277
#     4  10  21  37  58  81 101 126 167 216 260 303
#     4   9  17  30  49  73 103 141 180 210 240 289
#     4  10  19  31  48  71  98 126 159 197 238 286
#     4  10  20  33  51  77 108 138 168 208 258 302
#
# _framework density 17.912901999999999
#
# number of rings (size 3 to 8) (size 9 to 14) (size 15 to 20)
#    0.000    2.692    0.000    3.923    0.000    5.846 
#    0.000    1.923    0.000    3.692    0.000    3.231 
#    0.000    0.000    0.000    0.000    0.000    0.000 
#
# Total GULP energy -289985.011835 kJ/mol
# GULP energy per Si atom -5576.634843 kJ/mol
# Density = 1.787213 g / cm^3
# Si number density = 17.912902 Si / 1000 Ang^3
#
#
#
# Elastic Constant Matrix: (Units=GPa)
#
#
# Indices 1 2 3 4 5 6 
#
# 1 12.8292 14.9914 27.0750 0.0000 0.0000 0.0000
# 2 14.9914 103.8379 92.3534 0.0000 0.0000 0.0000
# 3 27.0750 92.3534 194.0580 0.0000 0.0000 0.0000
# 4 0.0000 0.0000 0.0000 13.0908 0.0000 0.0000
# 5 0.0000 0.0000 0.0000 0.0000 13.1574 0.0000
# 6 0.0000 0.0000 0.0000 0.0000 0.0000 11.9274
#
#
#
# Elastic Compliance Matrix: (Units=1/GPa)
#
#
# Indices 1 2 3 4 5 6 
#
# 1 0.111388 -0.003917 -0.013676 0.000000 0.000000 0.000000
# 2 -0.003917 0.016836 -0.007466 0.000000 0.000000 0.000000
# 3 -0.013676 -0.007466 0.010614 0.000000 0.000000 0.000000
# 4 0.000000 0.000000 0.000000 0.076389 0.000000 0.000000
# 5 0.000000 0.000000 0.000000 0.000000 0.076003 0.000000
# 6 0.000000 0.000000 0.000000 0.000000 0.000000 0.083841
#
#
# Mechanical properties :
#
#
# Convention : Reuss Voigt Hill
#
# Bulk Modulus (GPa) = 11.27162 64.39607 37.83384
# Shear Modulus (GPa) = 10.99473 19.38880 15.19176
#
# Velocity S-wave (km/s) = 2.48016 3.29354 2.91536
# Velocity P-wave (km/s) = 3.80890 7.10569 5.70081
#
# Compressibility (1/GPa) = 0.08871842
#
# Stress axis : x y z
#
# Youngs Moduli (GPa) = 8.97766 59.39624 94.21268
#
# Poissons Ratio (x) = 0.23268 1.28850
# Poissons Ratio (y) = 0.03517 0.70338
# Poissons Ratio (z) = 0.12278 0.44344
#
# Static dielectric constant tensor:
#      x y z
#    x 1.616090 0.000000 0.000000 
#    y 0.000000 1.592480 0.000000 
#    z 0.000000 0.000000 1.632860 
# 
# From -- ./inp_files/15575.got.cif
#   From: 2010.05.17/outbox.cif.g08.bks.cpg/sg47_8_cif.got.tgz:15575.got - 2010.06.03 20:15:42.
