data_PCOD9383081
_publ_section_title
;
Structure prediction by ZEFSAII (Michael W. Deem and Ramdas Pophale) SiO2 
 PCOD9383081
Probable space group: P M M M
;
_chemical_formula_sum "Si O2"
_cell_formula_units_Z 56
_cell_length_a 15.167565
_cell_length_b 15.006633
_cell_length_c 14.953588
_cell_angle_alpha 90.000000
_cell_angle_beta 90.000000
_cell_angle_gamma 90.000000
_cell_volume 3403.647197
_symmetry_space_group_name_H-M "P M M M"
_symmetry_group_IT_number 47
_symmetry_cell_setting 'orthorhombic'
loop_
_space_group_symop_operation_xyz
x,y,z
-x,-y,z
x,-y,-z
-x,y,-z
-x,-y,-z
x,y,-z
-x,y,z
x,-y,z
loop_
_atom_site_type_symbol
_atom_site_label
_atom_site_fract_x
_atom_site_fract_y
_atom_site_fract_z
Si Si1 0.397495 0.755954 0.392580
Si Si2 0.221052 0.898075 0.100570
Si Si3 0.897926 0.393639 0.733916
Si Si4 0.722746 0.105226 0.704995
Si Si5 0.900733 0.891649 0.604086
Si Si6 0.105119 0.274053 0.901391
Si Si7 0.261152 0.603170 0.393802
O O1 0.391749 0.767419 0.500000
O O2 0.500000 0.746728 0.369057
O O3 0.351213 0.838588 0.344461
O O4 0.340010 0.669055 0.368515
O O5 0.280837 0.883645 0.187788
O O6 0.146233 0.823635 0.107758
O O7 0.187272 0.000000 0.108307
O O8 0.260140 0.889933 0.000000
O O9 0.894672 0.500000 0.750750
O O10 0.869532 0.339259 0.821466
O O11 0.829366 0.372916 0.655738
O O12 0.000000 0.371798 0.712228
O O13 0.819301 0.134959 0.667088
O O14 0.714512 0.000000 0.685256
O O15 0.885121 0.865675 0.500000
O O16 0.000000 0.861544 0.630245
O O17 0.902680 0.000000 0.605692
O O18 0.000000 0.267190 0.899312
O O19 0.131190 0.308490 0.000000
O O20 0.248136 0.610007 0.500000
O O21 0.282168 0.500000 0.372872
#
# Coordination Sequence:
#
# PCOD9383081 Si02
#       7
#     8   8   8   8   8   8   8
#     4  10  21  35  51  73  98 122 153 194 236 281
#     4   9  18  31  46  65  89 120 160 203 242 279
#     4   9  17  29  47  72 100 128 157 190 229 276
#     4  10  19  31  49  70  95 128 159 191 236 286
#     4   8  14  25  41  62  89 121 156 190 223 265
#     4   9  17  28  42  62  91 127 163 198 235 274
#     4   9  18  33  52  72  95 125 159 193 230 272
#
# _framework density 16.452939000000001
#
# number of rings (size 3 to 8) (size 9 to 14) (size 15 to 20)
#    0.000    2.857    0.000    1.714    0.000    2.857 
#    0.000    8.571    0.000    1.286    0.000    2.000 
#    0.000    0.000    0.000   12.286    0.000    0.429 
#
# Total GULP energy -311970.737498 kJ/mol
# GULP energy per Si atom -5570.906027 kJ/mol
# Density = 1.641549 g / cm^3
# Si number density = 16.452939 Si / 1000 Ang^3
#
#
#
# Elastic Constant Matrix: (Units=GPa)
#
#
# Indices 1 2 3 4 5 6 
#
# 1 93.0945 46.8412 58.1617 0.0000 0.0000 0.0000
# 2 46.8412 57.8686 42.5174 0.0000 0.0000 0.0000
# 3 58.1617 42.5174 63.4904 0.0000 0.0000 0.0000
# 4 0.0000 0.0000 0.0000 23.2605 0.0000 0.0000
# 5 0.0000 0.0000 0.0000 0.0000 13.1931 0.0000
# 6 0.0000 0.0000 0.0000 0.0000 0.0000 22.2084
#
#
#
# Elastic Compliance Matrix: (Units=1/GPa)
#
#
# Indices 1 2 3 4 5 6 
#
# 1 0.026528 -0.007122 -0.019532 0.000000 0.000000 0.000000
# 2 -0.007122 0.035930 -0.017537 0.000000 0.000000 0.000000
# 3 -0.019532 -0.017537 0.045387 0.000000 0.000000 0.000000
# 4 0.000000 0.000000 0.000000 0.042991 0.000000 0.000000
# 5 0.000000 0.000000 0.000000 0.000000 0.075797 0.000000
# 6 0.000000 0.000000 0.000000 0.000000 0.000000 0.045028
#
#
# Mechanical properties :
#
#
# Convention : Reuss Voigt Hill
#
# Bulk Modulus (GPa) = 51.37935 56.61046 53.99490
# Shear Modulus (GPa) = 13.64132 16.19460 14.91796
#
# Velocity S-wave (km/s) = 2.88255 3.14076 3.01442
# Velocity P-wave (km/s) = 6.50958 6.90179 6.70855
#
# Compressibility (1/GPa) = 0.01946307
#
# Stress axis : x y z
#
# Youngs Moduli (GPa) = 37.69534 27.83168 22.03261
#
# Poissons Ratio (x) = 0.19823 0.43035
# Poissons Ratio (y) = 0.26848 0.38638
# Poissons Ratio (z) = 0.73628 0.48808
#
# Static dielectric constant tensor:
#      x y z
#    x 1.525310 0.000000 0.000000 
#    y 0.000000 1.570960 0.000000 
#    z 0.000000 0.000000 1.574880 
# 
# From -- ./inp_files/17675.got.cif
#   From: 2010.05.17/outbox.cif.g08.bks.cpg/sg47_9_cif.got.tgz:17675.got - 2010.06.03 20:15:42.
