data_PCOD9383979
_publ_section_title
;
Structure prediction by ZEFSAII (Michael W. Deem and Ramdas Pophale) SiO2 
 PCOD9383979
Probable space group: P M M M
;
_chemical_formula_sum "Si O2"
_cell_formula_units_Z 48
_cell_length_a 7.601135
_cell_length_b 29.992161
_cell_length_c 10.217800
_cell_angle_alpha 90.000000
_cell_angle_beta 90.000000
_cell_angle_gamma 90.000000
_cell_volume 2329.397485
_symmetry_space_group_name_H-M "P M M M"
_symmetry_group_IT_number 47
_symmetry_cell_setting 'orthorhombic'
loop_
_space_group_symop_operation_xyz
x,y,z
-x,-y,z
x,-y,-z
-x,y,-z
-x,-y,-z
x,y,-z
-x,y,z
x,-y,z
loop_
_atom_site_type_symbol
_atom_site_label
_atom_site_fract_x
_atom_site_fract_y
_atom_site_fract_z
Si Si1 0.283466 0.948884 0.500000
Si Si2 0.287736 0.551456 0.854302
Si Si3 0.790710 0.699999 0.850789
Si Si4 0.707165 0.107446 0.256585
Si Si5 0.791229 0.373167 0.649097
Si Si6 0.287407 0.801019 0.150250
Si Si7 0.788708 0.051406 0.000000
O O1 0.500000 0.950006 0.500000
O O2 0.220695 0.921811 0.374142
O O3 0.226045 0.000000 0.500000
O O4 0.500000 0.551755 0.855944
O O5 0.231158 0.500000 0.839619
O O6 0.231106 0.582143 0.734555
O O7 0.228902 0.567283 0.000000
O O8 0.717912 0.666066 0.742692
O O9 0.763807 0.751276 0.809646
O O10 0.000000 0.692226 0.859315
O O11 0.719835 0.694505 0.000000
O O12 0.500000 0.113204 0.283590
O O13 0.779271 0.157116 0.233421
O O14 0.726472 0.078610 0.125790
O O15 0.721110 0.375325 0.500000
O O16 0.000000 0.365335 0.637192
O O17 0.500000 0.802728 0.149193
O O18 0.227429 0.807082 0.000000
O O19 0.000000 0.050945 0.000000
O O20 0.727149 0.000000 0.000000
#
# Coordination Sequence:
#
# PCOD9383979 Si02
#       7
#     4   8   8   8   8   8   4
#     4   9  18  32  53  79 103 133 175 215 254 307
#     4   9  19  36  57  81 109 142 182 227 273 321
#     4   9  18  33  53  74  98 135 177 216 260 311
#     4  10  19  35  56  78 105 137 174 216 262 314
#     4  10  21  36  53  77 111 146 182 224 265 313
#     4   9  17  31  51  77 103 128 165 215 265 312
#     4  11  23  35  51  79 109 137 173 217 262 311
#
# _framework density 20.606186000000001
#
# number of rings (size 3 to 8) (size 9 to 14) (size 15 to 20)
#    0.000    2.500    0.833    1.750    0.000    4.667 
#    1.500    4.583    0.000    1.500    0.000    0.000 
#    0.000    0.000    0.000    0.000    0.000    0.000 
#
# Total GULP energy -267842.909257 kJ/mol
# GULP energy per Si atom -5580.060610 kJ/mol
# Density = 2.055929 g / cm^3
# Si number density = 20.606186 Si / 1000 Ang^3
#
#
#
# Elastic Constant Matrix: (Units=GPa)
#
#
# Indices 1 2 3 4 5 6 
#
# 1 42.2676 -2.2014 -0.9224 0.0000 0.0000 0.0000
# 2 -2.2014 159.0013 113.2621 0.0000 0.0000 0.0000
# 3 -0.9224 113.2621 181.7442 0.0000 0.0000 0.0000
# 4 0.0000 0.0000 0.0000 35.1747 0.0000 0.0000
# 5 0.0000 0.0000 0.0000 0.0000 17.0894 0.0000
# 6 0.0000 0.0000 0.0000 0.0000 0.0000 21.7451
#
#
#
# Elastic Compliance Matrix: (Units=1/GPa)
#
#
# Indices 1 2 3 4 5 6 
#
# 1 0.023678 0.000436 -0.000151 0.000000 0.000000 0.000000
# 2 0.000436 0.011318 -0.007051 0.000000 0.000000 0.000000
# 3 -0.000151 -0.007051 0.009896 0.000000 0.000000 0.000000
# 4 0.000000 0.000000 0.000000 0.028430 0.000000 0.000000
# 5 0.000000 0.000000 0.000000 0.000000 0.058516 0.000000
# 6 0.000000 0.000000 0.000000 0.000000 0.000000 0.045987
#
#
# Mechanical properties :
#
#
# Convention : Reuss Voigt Hill
#
# Bulk Modulus (GPa) = 31.88955 67.03219 49.46087
# Shear Modulus (GPa) = 24.77566 32.99349 28.88458
#
# Velocity S-wave (km/s) = 3.47124 4.00577 3.74805
# Velocity P-wave (km/s) = 5.61919 7.34818 6.54106
#
# Compressibility (1/GPa) = 0.03135824
#
# Stress axis : x y z
#
# Youngs Moduli (GPa) = 42.23303 88.35425 101.05377
#
# Poissons Ratio (x) = -0.03849 0.01529
# Poissons Ratio (y) = -0.01840 0.71255
# Poissons Ratio (z) = 0.00639 0.62300
#
# Static dielectric constant tensor:
#      x y z
#    x 1.772370 0.000000 0.000000 
#    y 0.000000 1.726030 0.000000 
#    z 0.000000 0.000000 1.791890 
# 
# From -- ./inp_files/2659.got.cif
#   From: 2010.05.17/outbox.cif.g08.bks.cpg/sg47_2_cif.got.tgz:2659.got - 2010.06.03 20:15:42.
