data_PCOD9383268
_publ_section_title
;
Structure prediction by ZEFSAII (Michael W. Deem and Ramdas Pophale) SiO2 
 PCOD9383268
Probable space group: P M M M
;
_chemical_formula_sum "Si O2"
_cell_formula_units_Z 64
_cell_length_a 24.900235
_cell_length_b 9.302681
_cell_length_c 14.985171
_cell_angle_alpha 90.000000
_cell_angle_beta 90.000000
_cell_angle_gamma 90.000000
_cell_volume 3471.149172
_symmetry_space_group_name_H-M "P M M M"
_symmetry_group_IT_number 47
_symmetry_cell_setting 'orthorhombic'
loop_
_space_group_symop_operation_xyz
x,y,z
-x,-y,z
x,-y,-z
-x,y,-z
-x,-y,-z
x,y,-z
-x,y,z
x,-y,z
loop_
_atom_site_type_symbol
_atom_site_label
_atom_site_fract_x
_atom_site_fract_y
_atom_site_fract_z
Si Si1 0.358303 0.332499 0.768085
Si Si2 0.157484 0.842295 0.104294
Si Si3 0.940617 0.827656 0.348794
Si Si4 0.167609 0.338056 0.605655
Si Si5 0.563901 0.828250 0.100914
Si Si6 0.713340 0.324599 0.603799
Si Si7 0.058024 0.669110 0.840072
Si Si8 0.255474 0.336935 0.894514
O O1 0.374013 0.500000 0.757018
O O2 0.405031 0.246192 0.817956
O O3 0.332854 0.280283 0.673834
O O4 0.308971 0.327008 0.837681
O O5 0.108273 0.734123 0.110264
O O6 0.210790 0.770912 0.142352
O O7 0.145088 0.000000 0.142428
O O8 0.168680 0.858208 0.000000
O O9 0.885601 0.757544 0.384068
O O10 0.943535 0.760223 0.250523
O O11 0.000000 0.793151 0.390329
O O12 0.936062 0.000000 0.348995
O O13 0.175532 0.352805 0.500000
O O14 0.158409 0.500000 0.643130
O O15 0.226270 0.281493 0.635865
O O16 0.500000 0.802762 0.107373
O O17 0.572656 0.000000 0.104754
O O18 0.580885 0.780286 0.000000
O O19 0.704603 0.281157 0.500000
O O20 0.714512 0.500000 0.605422
O O21 0.064410 0.500000 0.822051
O O22 0.000000 0.688243 0.885582
O O23 0.234210 0.500000 0.886924
O O24 0.266079 0.311696 0.000000
#
# Coordination Sequence:
#
# PCOD9383268 Si02
#       8
#     8   8   8   8   8   8   8   8
#     4  10  19  31  54  85 110 141 185 229 270 311
#     4  10  21  35  50  70  97 128 161 202 255 311
#     4  10  21  35  50  71  99 127 159 207 267 328
#     4   9  18  33  53  75  99 131 172 214 259 319
#     4   9  19  36  56  80 115 156 190 221 264 320
#     4   8  16  32  52  77 110 144 179 224 276 323
#     4  10  21  36  53  70  89 119 161 207 254 309
#     4   9  18  31  46  71 107 138 168 212 262 313
#
# _framework density 18.437698000000001
#
# number of rings (size 3 to 8) (size 9 to 14) (size 15 to 20)
#    0.000    2.625    0.000    2.625    1.750    4.500 
#    0.000    5.000    0.000    1.500    0.000    2.625 
#    0.000    0.000    0.000    0.000    0.000    0.000 
#
# Total GULP energy -356347.191259 kJ/mol
# GULP energy per Si atom -5567.924863 kJ/mol
# Density = 1.839573 g / cm^3
# Si number density = 18.437698 Si / 1000 Ang^3
#
#
#
# Elastic Constant Matrix: (Units=GPa)
#
#
# Indices 1 2 3 4 5 6 
#
# 1 88.5707 41.8390 44.1297 0.0000 0.0000 0.0000
# 2 41.8390 51.6283 24.5866 0.0000 0.0000 0.0000
# 3 44.1297 24.5866 79.5645 0.0000 0.0000 0.0000
# 4 0.0000 0.0000 0.0000 11.3733 0.0000 0.0000
# 5 0.0000 0.0000 0.0000 0.0000 25.6077 0.0000
# 6 0.0000 0.0000 0.0000 0.0000 0.0000 29.1325
#
#
#
# Elastic Compliance Matrix: (Units=1/GPa)
#
#
# Indices 1 2 3 4 5 6 
#
# 1 0.021725 -0.013915 -0.007749 0.000000 0.000000 0.000000
# 2 -0.013915 0.031624 -0.002054 0.000000 0.000000 0.000000
# 3 -0.007749 -0.002054 0.017501 0.000000 0.000000 0.000000
# 4 0.000000 0.000000 0.000000 0.087925 0.000000 0.000000
# 5 0.000000 0.000000 0.000000 0.000000 0.039051 0.000000
# 6 0.000000 0.000000 0.000000 0.000000 0.000000 0.034326
#
#
# Mechanical properties :
#
#
# Convention : Reuss Voigt Hill
#
# Bulk Modulus (GPa) = 42.71239 48.98602 45.84920
# Shear Modulus (GPa) = 17.39772 20.50325 18.95049
#
# Velocity S-wave (km/s) = 3.07513 3.33833 3.20943
# Velocity P-wave (km/s) = 5.98537 6.44091 6.21731
#
# Compressibility (1/GPa) = 0.02341241
#
# Stress axis : x y z
#
# Youngs Moduli (GPa) = 46.03052 31.62137 57.13805
#
# Poissons Ratio (x) = 0.44001 0.44279
# Poissons Ratio (y) = 0.64051 0.11739
# Poissons Ratio (z) = 0.35671 0.06497
#
# Static dielectric constant tensor:
#      x y z
#    x 1.659380 0.000000 0.000000 
#    y 0.000000 1.658030 0.000000 
#    z 0.000000 0.000000 1.677520 
# 
# From -- ./inp_files/12676.got.cif
#   From: 2010.05.17/outbox.cif.g08.bks.cpg/sg47_7_cif.got.tgz:12676.got - 2010.06.03 20:15:42.
