data_PCOD9383143
_publ_section_title
;
Structure prediction by ZEFSAII (Michael W. Deem and Ramdas Pophale) SiO2 
 PCOD9383143
Probable space group: P M M M
;
_chemical_formula_sum "Si O2"
_cell_formula_units_Z 52
_cell_length_a 12.949587
_cell_length_b 28.365270
_cell_length_c 8.169473
_cell_angle_alpha 90.000000
_cell_angle_beta 90.000000
_cell_angle_gamma 90.000000
_cell_volume 3000.798827
_symmetry_space_group_name_H-M "P M M M"
_symmetry_group_IT_number 47
_symmetry_cell_setting 'orthorhombic'
loop_
_space_group_symop_operation_xyz
x,y,z
-x,-y,z
x,-y,-z
-x,y,-z
-x,-y,-z
x,y,-z
-x,y,z
x,-y,z
loop_
_atom_site_type_symbol
_atom_site_label
_atom_site_fract_x
_atom_site_fract_y
_atom_site_fract_z
Si Si1 0.875353 0.615345 0.815524
Si Si2 0.000000 0.110050 0.695959
Si Si3 0.202634 0.946194 0.804190
Si Si4 0.000000 0.782189 0.300595
Si Si5 0.188617 0.715540 0.692938
Si Si6 0.617995 0.877818 0.304578
Si Si7 0.380998 0.772823 0.194135
Si Si8 0.125531 0.445836 0.500000
O O1 0.826686 0.666638 0.786375
O O2 0.843279 0.581398 0.665992
O O3 0.000000 0.620731 0.804532
O O4 0.851774 0.598252 0.000000
O O5 0.898611 0.082244 0.751030
O O6 0.000000 0.164008 0.758455
O O7 0.000000 0.112005 0.500000
O O8 0.302884 0.918139 0.744705
O O9 0.199867 0.000000 0.742196
O O10 0.204508 0.947583 0.000000
O O11 0.898565 0.752979 0.251488
O O12 0.000000 0.783842 0.500000
O O13 0.171236 0.706337 0.500000
O O14 0.299664 0.738856 0.720044
O O15 0.620141 0.872322 0.500000
O O16 0.500000 0.888491 0.253784
O O17 0.647247 0.827286 0.228955
O O18 0.500000 0.766628 0.249555
O O19 0.376834 0.764644 0.000000
O O20 0.160436 0.500000 0.500000
O O21 0.000000 0.446191 0.500000
#
# Coordination Sequence:
#
# PCOD9383143 Si02
#       8
#     8   4   8   4   8   8   8   4
#     4  10  19  31  49  75 109 146 188 235 280 327
#     4  11  22  38  57  80 106 134 173 215 256 308
#     4  11  24  40  57  77 103 135 169 210 263 320
#     4   9  20  32  50  77 104 136 170 213 263 313
#     4  11  19  32  53  76 109 146 184 225 268 322
#     4  10  21  38  59  81 104 131 169 216 265 320
#     4  10  21  36  53  76 108 143 179 220 266 320
#     4   9  18  32  50  72 105 151 195 235 280 326
#
# _framework density 17.328719
#
# number of rings (size 3 to 8) (size 9 to 14) (size 15 to 20)
#    0.000    1.769    1.538    3.231    0.000    5.846 
#    0.000    5.385    0.000    0.000    0.000    0.000 
#    0.000    1.231    0.000    3.231    0.000    0.154 
#
# Total GULP energy -290384.911106 kJ/mol
# GULP energy per Si atom -5584.325214 kJ/mol
# Density = 1.728928 g / cm^3
# Si number density = 17.328719 Si / 1000 Ang^3
#
#
#
# Elastic Constant Matrix: (Units=GPa)
#
#
# Indices 1 2 3 4 5 6 
#
# 1 60.8589 47.5496 19.0868 0.0000 0.0000 0.0000
# 2 47.5496 117.3996 35.3102 0.0000 0.0000 0.0000
# 3 19.0868 35.3102 69.5818 0.0000 0.0000 0.0000
# 4 0.0000 0.0000 0.0000 12.4516 0.0000 0.0000
# 5 0.0000 0.0000 0.0000 0.0000 28.2932 0.0000
# 6 0.0000 0.0000 0.0000 0.0000 0.0000 -58.5760
#
#
#
# Elastic Compliance Matrix: (Units=1/GPa)
#
#
# Indices 1 2 3 4 5 6 
#
# 1 0.024265 -0.009236 -0.001969 0.000000 0.000000 0.000000
# 2 -0.009236 0.013567 -0.004352 0.000000 0.000000 0.000000
# 3 -0.001969 -0.004352 0.017120 0.000000 0.000000 0.000000
# 4 0.000000 0.000000 0.000000 0.080311 0.000000 0.000000
# 5 0.000000 0.000000 0.000000 0.000000 0.035344 0.000000
# 6 0.000000 0.000000 0.000000 0.000000 0.000000 -0.017072
#
#
# Mechanical properties :
#
#
# Convention : Reuss Voigt Hill
#
# Bulk Modulus (GPa) = 41.94738 50.19262 46.07000
# Shear Modulus (GPa) = 25.96126 6.16001 16.06063
#
# Velocity S-wave (km/s) = 3.87481 1.88746 3.04768
# Velocity P-wave (km/s) = 6.65419 5.81188 6.24725
#
# Compressibility (1/GPa) = 0.02383939
#
# Stress axis : x y z
#
# Youngs Moduli (GPa) = 41.21180 73.70646 58.41115
#
# Poissons Ratio (x) = 0.68072 0.11503
# Poissons Ratio (y) = 0.38061 0.25418
# Poissons Ratio (z) = 0.08116 0.32074
#
# Static dielectric constant tensor:
#      x y z
#    x 1.563980 0.000000 0.000000 
#    y 0.000000 1.566070 0.000000 
#    z 0.000000 0.000000 1.615300 
# 
# From -- ./inp_files/4674.got.cif
#   From: 2010.05.17/outbox.cif.g08.bks.cpg/sg47_3_cif.got.tgz:4674.got - 2010.06.03 20:15:42.
