data_PCOD9383313
_publ_section_title
;
Structure prediction by ZEFSAII (Michael W. Deem and Ramdas Pophale) SiO2 
 PCOD9383313
Probable space group: P M M M
;
_chemical_formula_sum "Si O2"
_cell_formula_units_Z 44
_cell_length_a 31.718460
_cell_length_b 9.368101
_cell_length_c 7.872071
_cell_angle_alpha 90.000000
_cell_angle_beta 90.000000
_cell_angle_gamma 90.000000
_cell_volume 2339.120850
_symmetry_space_group_name_H-M "P M M M"
_symmetry_group_IT_number 47
_symmetry_cell_setting 'orthorhombic'
loop_
_space_group_symop_operation_xyz
x,y,z
-x,-y,z
x,-y,-z
-x,y,-z
-x,-y,-z
x,y,-z
-x,y,z
x,-y,z
loop_
_atom_site_type_symbol
_atom_site_label
_atom_site_fract_x
_atom_site_fract_y
_atom_site_fract_z
Si Si1 0.105933 0.326176 0.812426
Si Si2 0.280787 0.162841 0.794473
Si Si3 0.802274 0.663794 0.298066
Si Si4 0.048490 0.674561 0.500000
Si Si5 0.545325 0.672535 0.796947
Si Si6 0.362889 0.666074 0.791986
O O1 0.107072 0.500000 0.804268
O O2 0.154260 0.280908 0.782433
O O3 0.074543 0.278603 0.665247
O O4 0.091765 0.284517 0.000000
O O5 0.238631 0.244485 0.741878
O O6 0.322858 0.243832 0.734657
O O7 0.280174 0.000000 0.735063
O O8 0.282104 0.162579 0.000000
O O9 0.809172 0.660671 0.500000
O O10 0.795207 0.500000 0.239918
O O11 0.048327 0.500000 0.500000
O O12 0.000000 0.720672 0.500000
O O13 0.500000 0.723567 0.727343
O O14 0.545874 0.500000 0.778151
O O15 0.591083 0.721063 0.732862
O O16 0.544704 0.700380 0.000000
O O17 0.358085 0.500000 0.742959
O O18 0.363684 0.668646 0.000000
#
# Coordination Sequence:
#
# PCOD9383313 Si02
#       6
#     8   8   8   4   8   8
#     4   9  16  27  44  66  94 129 167 206 248 293
#     4  10  20  31  43  63  92 123 155 193 239 293
#     4  10  19  32  50  69  90 119 160 207 249 293
#     4   9  16  26  40  64 101 137 169 205 244 293
#     4   7   9  14  27  49  75 103 139 184 230 274
#     4   8  13  22  37  56  80 113 152 191 232 282
#
# _framework density 18.810486999999998
#
# number of rings (size 3 to 8) (size 9 to 14) (size 15 to 20)
#    0.000    3.182    0.909    2.727    0.000    2.545 
#    0.000    1.818    0.000    0.545    0.000    3.818 
#    0.000    2.182    0.000   12.182    0.000   13.273 
#
# Total GULP energy -245102.733305 kJ/mol
# GULP energy per Si atom -5570.516666 kJ/mol
# Density = 1.876767 g / cm^3
# Si number density = 18.810487 Si / 1000 Ang^3
#
#
#
# Elastic Constant Matrix: (Units=GPa)
#
#
# Indices 1 2 3 4 5 6 
#
# 1 202.0157 48.7787 56.8245 0.0000 0.0000 0.0000
# 2 48.7787 40.1100 14.5168 0.0000 0.0000 0.0000
# 3 56.8245 14.5168 64.9159 0.0000 0.0000 0.0000
# 4 0.0000 0.0000 0.0000 5.9101 0.0000 0.0000
# 5 0.0000 0.0000 0.0000 0.0000 27.0822 0.0000
# 6 0.0000 0.0000 0.0000 0.0000 0.0000 -4.8970
#
#
#
# Elastic Compliance Matrix: (Units=1/GPa)
#
#
# Indices 1 2 3 4 5 6 
#
# 1 0.008549 -0.008365 -0.005612 0.000000 0.000000 0.000000
# 2 -0.008365 0.035312 -0.000574 0.000000 0.000000 0.000000
# 3 -0.005612 -0.000574 0.020446 0.000000 0.000000 0.000000
# 4 0.000000 0.000000 0.000000 0.169202 0.000000 0.000000
# 5 0.000000 0.000000 0.000000 0.000000 0.036925 0.000000
# 6 0.000000 0.000000 0.000000 0.000000 0.000000 -0.204206
#
#
# Mechanical properties :
#
#
# Convention : Reuss Voigt Hill
#
# Bulk Modulus (GPa) = 28.40663 60.80907 44.60785
# Shear Modulus (GPa) = 46.70051 18.08050 32.39050
#
# Velocity S-wave (km/s) = 4.98806 3.10367 4.15413
# Velocity P-wave (km/s) = 6.95044 6.72615 6.83921
#
# Compressibility (1/GPa) = 0.03520305
#
# Stress axis : x y z
#
# Youngs Moduli (GPa) = 116.97801 28.31891 48.90953
#
# Poissons Ratio (x) = 0.23688 0.27450
# Poissons Ratio (y) = 0.97851 0.02809
# Poissons Ratio (z) = 0.65654 0.01627
#
# Static dielectric constant tensor:
#      x y z
#    x 1.664920 0.000000 0.000000 
#    y 0.000000 1.612210 0.000000 
#    z 0.000000 0.000000 1.700840 
# 
# From -- ./inp_files/13632.got.cif
#   From: 2010.05.17/outbox.cif.g08.bks.cpg/sg47_7_cif.got.tgz:13632.got - 2010.06.03 20:15:42.
