data_PCOD9383066
_publ_section_title
;
Structure prediction by ZEFSAII (Michael W. Deem and Ramdas Pophale) SiO2 
 PCOD9383066
Probable space group: P M M M
;
_chemical_formula_sum "Si O2"
_cell_formula_units_Z 56
_cell_length_a 9.659680
_cell_length_b 14.152741
_cell_length_c 25.041795
_cell_angle_alpha 90.000000
_cell_angle_beta 90.000000
_cell_angle_gamma 90.000000
_cell_volume 3423.487564
_symmetry_space_group_name_H-M "P M M M"
_symmetry_group_IT_number 47
_symmetry_cell_setting 'orthorhombic'
loop_
_space_group_symop_operation_xyz
x,y,z
-x,-y,z
x,-y,-z
-x,y,-z
-x,-y,-z
x,y,-z
-x,y,z
x,-y,z
loop_
_atom_site_type_symbol
_atom_site_label
_atom_site_fract_x
_atom_site_fract_y
_atom_site_fract_z
Si Si1 0.664637 0.891009 0.601035
Si Si2 0.836454 0.278609 0.560525
Si Si3 0.660840 0.388171 0.647430
Si Si4 0.334876 0.274388 0.241736
Si Si5 0.500000 0.614094 0.940419
Si Si6 0.000000 0.614642 0.061781
Si Si7 0.252985 0.613746 0.863408
Si Si8 0.163789 0.890492 0.287993
O O1 0.500000 0.868638 0.606960
O O2 0.746715 0.817492 0.564525
O O3 0.746898 0.884261 0.657274
O O4 0.673875 0.000000 0.582863
O O5 0.826305 0.315791 0.500000
O O6 0.765681 0.346951 0.603743
O O7 0.000000 0.262502 0.571946
O O8 0.500000 0.372479 0.630748
O O9 0.680330 0.500000 0.654642
O O10 0.680184 0.334219 0.703470
O O11 0.500000 0.255351 0.235123
O O12 0.277928 0.334842 0.192281
O O13 0.241966 0.181077 0.248832
O O14 0.500000 0.500000 0.945063
O O15 0.373386 0.639494 0.903969
O O16 0.500000 0.652899 0.000000
O O17 0.875068 0.641279 0.100040
O O18 0.000000 0.500000 0.057623
O O19 0.000000 0.648613 0.000000
O O20 0.251141 0.500000 0.854338
O O21 0.000000 0.866970 0.295973
O O22 0.169845 0.000000 0.270680
#
# Coordination Sequence:
#
# PCOD9383066 Si02
#       8
#     8   8   8   8   4   4   8   8
#     4  10  20  36  59  85 110 137 171 214 270 333
#     4  11  24  40  57  79 107 140 182 229 274 326
#     4  10  22  39  58  79 105 142 182 223 273 324
#     4  11  21  34  55  82 112 142 178 222 269 321
#     4   9  16  28  48  72 103 147 190 220 254 305
#     4   9  18  32  48  70 107 153 196 232 266 307
#     4  10  19  31  48  75 111 150 187 224 266 310
#     4  10  21  36  56  81 109 141 175 214 266 327
#
# _framework density 16.357588
#
# number of rings (size 3 to 8) (size 9 to 14) (size 15 to 20)
#    0.000    1.857    2.143    2.143    1.000    6.000 
#    0.000    2.857    0.000    0.000    0.000    0.000 
#    0.000    3.429    0.000    0.000    0.000    0.000 
#
# Total GULP energy -312033.082463 kJ/mol
# GULP energy per Si atom -5572.019330 kJ/mol
# Density = 1.632036 g / cm^3
# Si number density = 16.357588 Si / 1000 Ang^3
#
#
#
# Elastic Constant Matrix: (Units=GPa)
#
#
# Indices 1 2 3 4 5 6 
#
# 1 163.4538 48.6070 71.0721 0.0000 0.0000 0.0000
# 2 48.6070 71.7600 42.5797 0.0000 0.0000 0.0000
# 3 71.0721 42.5797 116.0161 0.0000 0.0000 0.0000
# 4 0.0000 0.0000 0.0000 12.4105 0.0000 0.0000
# 5 0.0000 0.0000 0.0000 0.0000 58.4694 0.0000
# 6 0.0000 0.0000 0.0000 0.0000 0.0000 24.1531
#
#
#
# Elastic Compliance Matrix: (Units=1/GPa)
#
#
# Indices 1 2 3 4 5 6 
#
# 1 0.009019 -0.003619 -0.004197 0.000000 0.000000 0.000000
# 2 -0.003619 0.019267 -0.004854 0.000000 0.000000 0.000000
# 3 -0.004197 -0.004854 0.012972 0.000000 0.000000 0.000000
# 4 0.000000 0.000000 0.000000 0.080577 0.000000 0.000000
# 5 0.000000 0.000000 0.000000 0.000000 0.017103 0.000000
# 6 0.000000 0.000000 0.000000 0.000000 0.000000 0.041403
#
#
# Mechanical properties :
#
#
# Convention : Reuss Voigt Hill
#
# Bulk Modulus (GPa) = 62.82219 75.08306 68.95262
# Shear Modulus (GPa) = 23.69821 31.60468 27.65145
#
# Velocity S-wave (km/s) = 3.81039 4.40035 4.11595
# Velocity P-wave (km/s) = 7.60576 8.47456 8.05189
#
# Compressibility (1/GPa) = 0.01591794
#
# Stress axis : x y z
#
# Youngs Moduli (GPa) = 110.87788 51.90244 77.08798
#
# Poissons Ratio (x) = 0.18782 0.32353
# Poissons Ratio (y) = 0.40124 0.37422
# Poissons Ratio (z) = 0.46535 0.25196
#
# Static dielectric constant tensor:
#      x y z
#    x 1.526480 0.000000 0.000000 
#    y 0.000000 1.551760 0.000000 
#    z 0.000000 0.000000 1.672000 
# 
# From -- ./inp_files/29743.got.cif
#   From: 2010.05.17/outbox.cif.g08.bks.cpg/sg47_15_cif.got.tgz:29743.got - 2010.06.03 20:15:42.
