data_PCOD9383280
_publ_section_title
;
Structure prediction by ZEFSAII (Michael W. Deem and Ramdas Pophale) SiO2 
 PCOD9383280
Probable space group: P M M M
;
_chemical_formula_sum "Si O2"
_cell_formula_units_Z 64
_cell_length_a 16.953239
_cell_length_b 22.949069
_cell_length_c 7.779101
_cell_angle_alpha 90.000000
_cell_angle_beta 90.000000
_cell_angle_gamma 90.000000
_cell_volume 3026.545215
_symmetry_space_group_name_H-M "P M M M"
_symmetry_group_IT_number 47
_symmetry_cell_setting 'orthorhombic'
loop_
_space_group_symop_operation_xyz
x,y,z
-x,-y,z
x,-y,-z
-x,y,-z
-x,-y,-z
x,y,-z
-x,y,z
x,-y,z
loop_
_atom_site_type_symbol
_atom_site_label
_atom_site_fract_x
_atom_site_fract_y
_atom_site_fract_z
Si Si1 0.086831 0.824626 0.707130
Si Si2 0.126091 0.309151 0.206531
Si Si3 0.412577 0.933026 0.206034
Si Si4 0.889501 0.564508 0.800868
Si Si5 0.713172 0.256086 0.798520
Si Si6 0.289242 0.435012 0.296455
Si Si7 0.749489 0.130638 0.308896
Si Si8 0.411996 0.340703 0.708167
O O1 0.089315 0.829556 0.500000
O O2 0.094004 0.754859 0.744234
O O3 0.162415 0.861788 0.774488
O O4 0.000000 0.843500 0.768015
O O5 0.090890 0.370771 0.273149
O O6 0.218980 0.302457 0.252724
O O7 0.119407 0.312898 0.000000
O O8 0.500000 0.910171 0.266361
O O9 0.329396 0.901273 0.242892
O O10 0.406898 0.000000 0.267184
O O11 0.417318 0.933751 0.000000
O O12 0.911110 0.500000 0.726326
O O13 0.794627 0.566257 0.794999
O O14 0.914358 0.563550 0.000000
O O15 0.725657 0.198362 0.691684
O O16 0.627495 0.281319 0.768123
O O17 0.725194 0.242703 0.000000
O O18 0.274018 0.424469 0.500000
O O19 0.321895 0.500000 0.281477
O O20 0.353123 0.390405 0.229420
O O21 0.762066 0.107161 0.500000
O O22 0.412095 0.342145 0.500000
O O23 0.500000 0.348353 0.769820
#
# Coordination Sequence:
#
# PCOD9383280 Si02
#       8
#     8   8   8   8   8   8   8   8
#     4   9  19  35  54  78 108 142 178 218 268 322
#     4   9  17  29  47  71  94 120 159 207 258 312
#     4   9  19  37  60  86 118 155 191 225 261 302
#     4   9  16  27  44  65  89 116 150 199 258 318
#     4  10  19  32  48  67  92 124 164 208 255 310
#     4   9  17  28  42  59  79 108 150 199 251 310
#     4  10  20  34  56  84 112 144 180 223 268 310
#     4  10  20  31  42  58  84 118 156 203 257 311
#
# _framework density 21.146222999999999
#
# number of rings (size 3 to 8) (size 9 to 14) (size 15 to 20)
#    0.000    2.625    1.250    1.125    0.000    3.250 
#    0.000    1.875    0.000    0.750    0.000    7.875 
#    0.000    0.000    0.000    0.000    0.000    0.000 
#
# Total GULP energy -356271.436702 kJ/mol
# GULP energy per Si atom -5566.741198 kJ/mol
# Density = 2.109809 g / cm^3
# Si number density = 21.146223 Si / 1000 Ang^3
#
#
#
# Elastic Constant Matrix: (Units=GPa)
#
#
# Indices 1 2 3 4 5 6 
#
# 1 193.7946 52.1037 16.0785 0.0000 0.0000 0.0000
# 2 52.1037 59.9458 8.3300 0.0000 0.0000 0.0000
# 3 16.0785 8.3300 27.8487 0.0000 0.0000 0.0000
# 4 0.0000 0.0000 0.0000 27.2566 0.0000 0.0000
# 5 0.0000 0.0000 0.0000 0.0000 273.2459 0.0000
# 6 0.0000 0.0000 0.0000 0.0000 0.0000 -23.1268
#
#
#
# Elastic Compliance Matrix: (Units=1/GPa)
#
#
# Indices 1 2 3 4 5 6 
#
# 1 0.006869 -0.005654 -0.002275 0.000000 0.000000 0.000000
# 2 -0.005654 0.022060 -0.003334 0.000000 0.000000 0.000000
# 3 -0.002275 -0.003334 0.038219 0.000000 0.000000 0.000000
# 4 0.000000 0.000000 0.000000 0.036688 0.000000 0.000000
# 5 0.000000 0.000000 0.000000 0.000000 0.003660 0.000000
# 6 0.000000 0.000000 0.000000 0.000000 0.000000 -0.043240
#
#
# Mechanical properties :
#
#
# Convention : Reuss Voigt Hill
#
# Bulk Modulus (GPa) = 22.41048 48.29038 35.35043
# Shear Modulus (GPa) = 49.18576 69.14691 59.16634
#
# Velocity S-wave (km/s) = 4.82808 5.72454 5.29532
# Velocity P-wave (km/s) = 6.45766 8.15965 7.35803
#
# Compressibility (1/GPa) = 0.04462198
#
# Stress axis : x y z
#
# Youngs Moduli (GPa) = 145.58047 45.33155 26.16513
#
# Poissons Ratio (x) = 0.25632 0.05951
# Poissons Ratio (y) = 0.82317 0.08723
# Poissons Ratio (z) = 0.33113 0.15113
#
# Static dielectric constant tensor:
#      x y z
#    x 1.811250 0.000000 0.000000 
#    y 0.000000 1.770600 0.000000 
#    z 0.000000 0.000000 1.789160 
# 
# From -- ./inp_files/9953.got.cif
#   From: 2010.05.17/outbox.cif.g08.bks.cpg/sg47_5_cif.got.tgz:9953.got - 2010.06.03 20:15:42.
