data_PCOD9383563
_publ_section_title
;
Structure prediction by ZEFSAII (Michael W. Deem and Ramdas Pophale) SiO2 
 PCOD9383563
Probable space group: P M M M
;
_chemical_formula_sum "Si O2"
_cell_formula_units_Z 56
_cell_length_a 21.042660
_cell_length_b 15.500989
_cell_length_c 8.557296
_cell_angle_alpha 90.000000
_cell_angle_beta 90.000000
_cell_angle_gamma 90.000000
_cell_volume 2791.236276
_symmetry_space_group_name_H-M "P M M M"
_symmetry_group_IT_number 47
_symmetry_cell_setting 'orthorhombic'
loop_
_space_group_symop_operation_xyz
x,y,z
-x,-y,z
x,-y,-z
-x,y,-z
-x,-y,-z
x,y,-z
-x,y,z
x,-y,z
loop_
_atom_site_type_symbol
_atom_site_label
_atom_site_fract_x
_atom_site_fract_y
_atom_site_fract_z
Si Si1 0.166617 0.350631 0.688760
Si Si2 0.925759 0.000000 0.186417
Si Si3 0.926832 0.500000 0.308257
Si Si4 0.310442 0.398261 0.689043
Si Si5 0.152589 0.839957 0.685417
Si Si6 0.721309 0.098642 0.174471
Si Si7 0.569856 0.713144 0.813340
Si Si8 0.411006 0.097289 0.318236
O O1 0.171457 0.358894 0.500000
O O2 0.115978 0.419997 0.744299
O O3 0.239878 0.365967 0.742709
O O4 0.135284 0.258076 0.719307
O O5 0.892940 0.914425 0.253414
O O6 0.000000 0.000000 0.225415
O O7 0.917990 0.000000 0.000000
O O8 0.928179 0.500000 0.500000
O O9 0.000000 0.500000 0.256840
O O10 0.311267 0.394165 0.500000
O O11 0.317932 0.500000 0.732999
O O12 0.369023 0.338375 0.746957
O O13 0.160776 0.851434 0.500000
O O14 0.220187 0.847460 0.769294
O O15 0.664588 0.101368 0.295914
O O16 0.744066 0.000000 0.167906
O O17 0.698384 0.122094 0.000000
O O18 0.500000 0.677595 0.763628
O O19 0.568756 0.814496 0.764838
O O20 0.573621 0.708367 0.000000
O O21 0.428146 0.100985 0.500000
O O22 0.428949 0.000000 0.258992
#
# Coordination Sequence:
#
# PCOD9383563 Si02
#       8
#     8   4   4   8   8   8   8   8
#     4   9  18  33  55  89 124 153 190 240 297 355
#     4  11  25  43  57  73 109 163 212 251 302 367
#     4   9  16  30  54  84 122 159 186 224 289 363
#     4  10  20  38  66  93 121 157 200 251 307 369
#     4  11  21  33  56  86 117 151 195 251 300 349
#     4  10  19  32  53  81 115 151 191 236 288 351
#     4  11  25  42  59  84 121 162 205 256 313 374
#     4  10  21  37  59  87 119 156 201 251 302 357
#
# _framework density 20.062795000000001
#
# number of rings (size 3 to 8) (size 9 to 14) (size 15 to 20)
#    0.000    1.857    1.429    2.786    0.000    5.714 
#    0.000    5.000    0.000    0.000    0.000    0.000 
#    0.000    4.000    0.000    0.000    0.000    0.000 
#
# Total GULP energy -312248.654032 kJ/mol
# GULP energy per Si atom -5575.868822 kJ/mol
# Density = 2.001713 g / cm^3
# Si number density = 20.062795 Si / 1000 Ang^3
#
#
#
# Elastic Constant Matrix: (Units=GPa)
#
#
# Indices 1 2 3 4 5 6 
#
# 1 128.1521 68.2240 30.3520 0.0000 0.0000 0.0000
# 2 68.2240 124.5008 31.6982 0.0000 0.0000 0.0000
# 3 30.3520 31.6982 29.3113 0.0000 0.0000 0.0000
# 4 0.0000 0.0000 0.0000 0.8926 0.0000 0.0000
# 5 0.0000 0.0000 0.0000 0.0000 20.1966 0.0000
# 6 0.0000 0.0000 0.0000 0.0000 0.0000 21.9661
#
#
#
# Elastic Compliance Matrix: (Units=1/GPa)
#
#
# Indices 1 2 3 4 5 6 
#
# 1 0.012073 -0.004737 -0.007379 0.000000 0.000000 0.000000
# 2 -0.004737 0.012943 -0.009091 0.000000 0.000000 0.000000
# 3 -0.007379 -0.009091 0.051589 0.000000 0.000000 0.000000
# 4 0.000000 0.000000 0.000000 1.120340 0.000000 0.000000
# 5 0.000000 0.000000 0.000000 0.000000 0.049513 0.000000
# 6 0.000000 0.000000 0.000000 0.000000 0.000000 0.045525
#
#
# Mechanical properties :
#
#
# Convention : Reuss Voigt Hill
#
# Bulk Modulus (GPa) = 29.24816 60.27917 44.76366
# Shear Modulus (GPa) = 3.71528 18.72373 11.21951
#
# Velocity S-wave (km/s) = 1.36230 3.05824 2.36735
# Velocity P-wave (km/s) = 4.13333 6.52540 5.46193
#
# Compressibility (1/GPa) = 0.03419019
#
# Stress axis : x y z
#
# Youngs Moduli (GPa) = 82.83236 77.26478 19.38410
#
# Poissons Ratio (x) = 0.36600 0.14303
# Poissons Ratio (y) = 0.39237 0.17623
# Poissons Ratio (z) = 0.61118 0.70244
#
# Static dielectric constant tensor:
#      x y z
#    x 1.719900 0.000000 0.000000 
#    y 0.000000 1.741480 0.000000 
#    z 0.000000 0.000000 1.699440 
# 
# From -- ./inp_files/11340.got.cif
#   From: 2010.05.17/outbox.cif.g08.bks.cpg/sg47_6_cif.got.tgz:11340.got - 2010.06.03 20:15:42.
