data_PCOD9383589
_publ_section_title
;
Structure prediction by ZEFSAII (Michael W. Deem and Ramdas Pophale) SiO2 
 PCOD9383589
Probable space group: P M M M
;
_chemical_formula_sum "Si O2"
_cell_formula_units_Z 52
_cell_length_a 7.906454
_cell_length_b 14.755234
_cell_length_c 20.973846
_cell_angle_alpha 90.000000
_cell_angle_beta 90.000000
_cell_angle_gamma 90.000000
_cell_volume 2446.841990
_symmetry_space_group_name_H-M "P M M M"
_symmetry_group_IT_number 47
_symmetry_cell_setting 'orthorhombic'
loop_
_space_group_symop_operation_xyz
x,y,z
-x,-y,z
x,-y,-z
-x,y,-z
-x,-y,-z
x,y,-z
-x,y,z
x,-y,z
loop_
_atom_site_type_symbol
_atom_site_label
_atom_site_fract_x
_atom_site_fract_y
_atom_site_fract_z
Si Si1 0.800149 0.605293 0.248932
Si Si2 0.207604 0.605229 0.000000
Si Si3 0.199756 0.707625 0.874196
Si Si4 0.199384 0.893355 0.692316
Si Si5 0.696846 0.398654 0.606562
Si Si6 0.801937 0.793489 0.568553
Si Si7 0.697743 0.898427 0.836592
O O1 0.787822 0.500000 0.228995
O O2 0.731178 0.667113 0.192143
O O3 0.712461 0.614517 0.317101
O O4 0.000000 0.625507 0.259859
O O5 0.266796 0.657159 0.936572
O O6 0.256845 0.500000 0.000000
O O7 0.000000 0.607646 0.000000
O O8 0.222410 0.815324 0.874386
O O9 0.000000 0.687265 0.871860
O O10 0.270888 0.837260 0.632870
O O11 0.281335 0.878898 0.761092
O O12 0.000000 0.870627 0.700596
O O13 0.212369 0.000000 0.677339
O O14 0.500000 0.395567 0.588446
O O15 0.762685 0.500000 0.592397
O O16 0.788337 0.314580 0.574702
O O17 0.728520 0.821577 0.500000
O O18 0.000000 0.819364 0.568306
O O19 0.500000 0.900169 0.851623
O O20 0.768541 0.000000 0.847503
#
# Coordination Sequence:
#
# PCOD9383589 Si02
#       7
#     8   4   8   8   8   8   8
#     4   9  17  30  50  76 103 130 163 205 254 307
#     4   9  18  34  56  83 114 144 175 211 252 301
#     4  10  19  32  54  81 107 138 174 211 252 299
#     4   9  18  34  56  80 105 132 164 207 257 307
#     4  10  21  35  50  70  97 130 169 213 259 303
#     4  10  21  35  51  73 100 131 167 205 250 307
#     4  10  21  36  54  77 105 137 173 214 260 305
#
# _framework density 21.251885000000001
#
# number of rings (size 3 to 8) (size 9 to 14) (size 15 to 20)
#    0.000    2.385    0.000    2.308    0.000    9.538 
#    0.000    3.846    0.000    4.154    0.000    3.231 
#    0.000    0.000    0.000    0.000    0.000    0.000 
#
# Total GULP energy -290317.523511 kJ/mol
# GULP energy per Si atom -5583.029298 kJ/mol
# Density = 2.120351 g / cm^3
# Si number density = 21.251885 Si / 1000 Ang^3
#
#
#
# Elastic Constant Matrix: (Units=GPa)
#
#
# Indices 1 2 3 4 5 6 
#
# 1 19.6731 -8.3070 -5.9976 0.0000 0.0000 0.0000
# 2 -8.3070 91.4457 46.2812 0.0000 0.0000 0.0000
# 3 -5.9976 46.2812 53.0531 0.0000 0.0000 0.0000
# 4 0.0000 0.0000 0.0000 8.8409 0.0000 0.0000
# 5 0.0000 0.0000 0.0000 0.0000 51.0057 0.0000
# 6 0.0000 0.0000 0.0000 0.0000 0.0000 6.7897
#
#
#
# Elastic Compliance Matrix: (Units=1/GPa)
#
#
# Indices 1 2 3 4 5 6 
#
# 1 0.053163 0.003201 0.003218 0.000000 0.000000 0.000000
# 2 0.003201 0.019773 -0.016887 0.000000 0.000000 0.000000
# 3 0.003218 -0.016887 0.033944 0.000000 0.000000 0.000000
# 4 0.000000 0.000000 0.000000 0.113111 0.000000 0.000000
# 5 0.000000 0.000000 0.000000 0.000000 0.019606 0.000000
# 6 0.000000 0.000000 0.000000 0.000000 0.000000 0.147283
#
#
# Mechanical properties :
#
#
# Convention : Reuss Voigt Hill
#
# Bulk Modulus (GPa) = 11.63554 25.34723 18.49138
# Shear Modulus (GPa) = 11.45568 22.14028 16.79798
#
# Velocity S-wave (km/s) = 2.32425 3.23120 2.81450
# Velocity P-wave (km/s) = 3.56227 5.08663 4.39110
#
# Compressibility (1/GPa) = 0.08594360
#
# Stress axis : x y z
#
# Youngs Moduli (GPa) = 18.80997 50.57421 29.45987
#
# Poissons Ratio (x) = -0.16188 -0.09480
# Poissons Ratio (y) = -0.06021 0.49749
# Poissons Ratio (z) = -0.06053 0.85406
#
# Static dielectric constant tensor:
#      x y z
#    x 1.776050 0.000000 0.000000 
#    y 0.000000 1.768840 0.000000 
#    z 0.000000 0.000000 1.776810 
# 
# From -- ./inp_files/6965.got.cif
#   From: 2010.05.17/outbox.cif.g08.bks.cpg/sg47_4_cif.got.tgz:6965.got - 2010.06.03 20:15:42.
