data_PCOD9383014
_publ_section_title
;
Structure prediction by ZEFSAII (Michael W. Deem and Ramdas Pophale) SiO2 
 PCOD9383014
Probable space group: P M M M
;
_chemical_formula_sum "Si O2"
_cell_formula_units_Z 64
_cell_length_a 32.971589
_cell_length_b 7.639932
_cell_length_c 14.904597
_cell_angle_alpha 90.000000
_cell_angle_beta 90.000000
_cell_angle_gamma 90.000000
_cell_volume 3754.478386
_symmetry_space_group_name_H-M "P M M M"
_symmetry_group_IT_number 47
_symmetry_cell_setting 'orthorhombic'
loop_
_space_group_symop_operation_xyz
x,y,z
-x,-y,z
x,-y,-z
-x,y,-z
-x,-y,-z
x,y,-z
-x,y,z
x,-y,z
loop_
_atom_site_type_symbol
_atom_site_label
_atom_site_fract_x
_atom_site_fract_y
_atom_site_fract_z
Si Si1 0.202773 0.791023 0.209712
Si Si2 0.456314 0.710805 0.892055
Si Si3 0.826780 0.710375 0.401160
Si Si4 0.280591 0.209511 0.102855
Si Si5 0.630825 0.289369 0.103546
Si Si6 0.079325 0.713628 0.400296
Si Si7 0.124528 0.790384 0.101740
Si Si8 0.955516 0.288991 0.213070
O O1 0.199349 0.760700 0.315587
O O2 0.243414 0.722553 0.162306
O O3 0.162024 0.721702 0.161308
O O4 0.202798 0.000000 0.197033
O O5 0.500000 0.779351 0.858926
O O6 0.457120 0.500000 0.879484
O O7 0.412405 0.774076 0.857594
O O8 0.455604 0.739053 0.000000
O O9 0.813402 0.771977 0.500000
O O10 0.827820 0.500000 0.403510
O O11 0.873638 0.767788 0.388199
O O12 0.325347 0.244032 0.142420
O O13 0.276631 0.000000 0.097221
O O14 0.278550 0.278052 0.000000
O O15 0.628585 0.500000 0.101237
O O16 0.632527 0.225974 0.000000
O O17 0.065870 0.768989 0.500000
O O18 0.078563 0.500000 0.400232
O O19 0.054239 0.772986 0.314318
O O20 0.081728 0.757151 0.149196
O O21 0.870841 0.000000 0.097084
O O22 0.125715 0.722268 0.000000
O O23 0.956623 0.500000 0.216145
O O24 0.000000 0.226744 0.183922
#
# Coordination Sequence:
#
# PCOD9383014 Si02
#       8
#     8   8   8   8   8   8   8   8
#     4  10  19  31  48  67  84 106 139 174 203 238
#     4   7   9  14  26  44  65  91 126 169 212 247
#     4   9  17  30  49  70  90 110 130 157 197 243
#     4   9  17  28  40  55  79 110 140 172 212 250
#     4   8  13  21  33  50  72  98 133 175 212 247
#     4   8  14  27  47  69  91 111 129 152 188 235
#     4  10  21  36  51  65  83 110 142 173 204 238
#     4  10  20  33  50  71  91 110 135 166 198 236
#
# _framework density 17.046309000000001
#
# number of rings (size 3 to 8) (size 9 to 14) (size 15 to 20)
#    0.000    3.125    1.250    2.250    0.000    3.250 
#    0.000    2.500    0.000    3.000    0.000    3.500 
#    0.000    0.000    0.000    0.000    0.000    0.625 
#
# Total GULP energy -356364.909898 kJ/mol
# GULP energy per Si atom -5568.201717 kJ/mol
# Density = 1.700751 g / cm^3
# Si number density = 17.046309 Si / 1000 Ang^3
#
#
#
# Elastic Constant Matrix: (Units=GPa)
#
#
# Indices 1 2 3 4 5 6 
#
# 1 166.9623 6.6354 65.8804 0.0000 0.0000 0.0000
# 2 6.6354 31.3196 2.9612 0.0000 0.0000 0.0000
# 3 65.8804 2.9612 84.5656 0.0000 0.0000 0.0000
# 4 0.0000 0.0000 0.0000 12.6511 0.0000 0.0000
# 5 0.0000 0.0000 0.0000 0.0000 3.9262 0.0000
# 6 0.0000 0.0000 0.0000 0.0000 0.0000 20.8929
#
#
#
# Elastic Compliance Matrix: (Units=1/GPa)
#
#
# Indices 1 2 3 4 5 6 
#
# 1 0.008693 -0.001205 -0.006730 0.000000 0.000000 0.000000
# 2 -0.001205 0.032202 -0.000189 0.000000 0.000000 0.000000
# 3 -0.006730 -0.000189 0.017075 0.000000 0.000000 0.000000
# 4 0.000000 0.000000 0.000000 0.079045 0.000000 0.000000
# 5 0.000000 0.000000 0.000000 0.000000 0.254701 0.000000
# 6 0.000000 0.000000 0.000000 0.000000 0.000000 0.047863
#
#
# Mechanical properties :
#
#
# Convention : Reuss Voigt Hill
#
# Bulk Modulus (GPa) = 23.96821 48.20014 36.08418
# Shear Modulus (GPa) = 10.64434 21.31874 15.98154
#
# Velocity S-wave (km/s) = 2.50158 3.54027 3.06524
# Velocity P-wave (km/s) = 4.73657 6.71184 5.80878
#
# Compressibility (1/GPa) = 0.04172193
#
# Stress axis : x y z
#
# Youngs Moduli (GPa) = 115.03831 31.05386 58.56652
#
# Poissons Ratio (x) = 0.03743 0.39414
# Poissons Ratio (y) = 0.13866 0.01104
# Poissons Ratio (z) = 0.77419 0.00586
#
# Static dielectric constant tensor:
#      x y z
#    x 1.626460 0.000000 0.000000 
#    y 0.000000 1.645720 0.000000 
#    z 0.000000 0.000000 1.563060 
# 
# From -- ./inp_files/25893.got.cif
#   From: 2010.05.17/outbox.cif.g08.bks.cpg/sg47_13_cif.got.tgz:25893.got - 2010.06.03 20:15:42.
