data_PCOD9383601
_publ_section_title
;
Structure prediction by ZEFSAII (Michael W. Deem and Ramdas Pophale) SiO2 
 PCOD9383601
Probable space group: P M M M
;
_chemical_formula_sum "Si O2"
_cell_formula_units_Z 44
_cell_length_a 7.570108
_cell_length_b 15.924394
_cell_length_c 15.881467
_cell_angle_alpha 90.000000
_cell_angle_beta 90.000000
_cell_angle_gamma 90.000000
_cell_volume 1914.501039
_symmetry_space_group_name_H-M "P M M M"
_symmetry_group_IT_number 47
_symmetry_cell_setting 'orthorhombic'
loop_
_space_group_symop_operation_xyz
x,y,z
-x,-y,z
x,-y,-z
-x,y,-z
-x,-y,-z
x,y,-z
-x,y,z
x,-y,z
loop_
_atom_site_type_symbol
_atom_site_label
_atom_site_fract_x
_atom_site_fract_y
_atom_site_fract_z
Si Si1 0.284072 0.408442 0.222479
Si Si2 0.712284 0.734035 0.092834
Si Si3 0.300446 0.098041 0.500000
Si Si4 0.211532 0.904092 0.176899
Si Si5 0.297233 0.631166 0.594794
Si Si6 0.200504 0.189992 0.659001
O O1 0.500000 0.402863 0.226441
O O2 0.240371 0.500000 0.185479
O O3 0.223735 0.329118 0.166510
O O4 0.219352 0.406908 0.319391
O O5 0.500000 0.727394 0.093659
O O6 0.755092 0.832018 0.108228
O O7 0.775616 0.708609 0.000000
O O8 0.500000 0.134145 0.500000
O O9 0.201154 0.126059 0.582687
O O10 0.315534 0.000000 0.500000
O O11 0.281301 0.858459 0.261574
O O12 0.000000 0.911040 0.186610
O O13 0.276924 0.000000 0.163886
O O14 0.220675 0.620373 0.500000
O O15 0.500000 0.602318 0.589223
O O16 0.295194 0.728953 0.621125
O O17 0.000000 0.215543 0.680012
#
# Coordination Sequence:
#
# PCOD9383601 Si02
#       6
#     8   8   4   8   8   8
#     4   9  18  34  57  85 117 151 187 232 286 340
#     4  10  21  37  59  87 116 147 187 236 287 340
#     4  11  23  35  49  75 110 147 190 237 285 336
#     4  10  22  39  58  81 111 150 193 235 285 344
#     4  10  19  32  54  82 113 148 189 233 280 335
#     4  11  21  34  54  78 107 147 193 238 284 335
#
# _framework density 22.982489000000001
#
# number of rings (size 3 to 8) (size 9 to 14) (size 15 to 20)
#    0.000    1.909    2.727    1.364    0.000    4.000 
#    0.000    5.455    0.000    2.182    0.000    2.545 
#    0.000    0.000    0.000    0.000    0.000    0.000 
#
# Total GULP energy -245426.251958 kJ/mol
# GULP energy per Si atom -5577.869363 kJ/mol
# Density = 2.293018 g / cm^3
# Si number density = 22.982489 Si / 1000 Ang^3
#
#
#
# Elastic Constant Matrix: (Units=GPa)
#
#
# Indices 1 2 3 4 5 6 
#
# 1 63.2447 4.9675 5.2264 0.0000 0.0000 0.0000
# 2 4.9675 156.3530 60.1361 0.0000 0.0000 0.0000
# 3 5.2264 60.1361 151.6341 0.0000 0.0000 0.0000
# 4 0.0000 0.0000 0.0000 14.0828 0.0000 0.0000
# 5 0.0000 0.0000 0.0000 0.0000 11.5438 0.0000
# 6 0.0000 0.0000 0.0000 0.0000 0.0000 40.3231
#
#
#
# Elastic Compliance Matrix: (Units=1/GPa)
#
#
# Indices 1 2 3 4 5 6 
#
# 1 0.015873 -0.000347 -0.000410 0.000000 0.000000 0.000000
# 2 -0.000347 0.007555 -0.002984 0.000000 0.000000 0.000000
# 3 -0.000410 -0.002984 0.007792 0.000000 0.000000 0.000000
# 4 0.000000 0.000000 0.000000 0.071008 0.000000 0.000000
# 5 0.000000 0.000000 0.000000 0.000000 0.086627 0.000000
# 6 0.000000 0.000000 0.000000 0.000000 0.000000 0.024800
#
#
# Mechanical properties :
#
#
# Convention : Reuss Voigt Hill
#
# Bulk Modulus (GPa) = 42.12512 56.87686 49.50099
# Shear Modulus (GPa) = 21.82949 33.25006 27.53978
#
# Velocity S-wave (km/s) = 3.08528 3.80775 3.46539
# Velocity P-wave (km/s) = 5.57323 6.64331 6.13166
#
# Compressibility (1/GPa) = 0.02373880
#
# Stress axis : x y z
#
# Youngs Moduli (GPa) = 63.00128 132.37092 128.33041
#
# Poissons Ratio (x) = 0.04590 0.05256
# Poissons Ratio (y) = 0.02185 0.38295
# Poissons Ratio (z) = 0.02580 0.39501
#
# Static dielectric constant tensor:
#      x y z
#    x 1.906560 0.000000 0.000000 
#    y 0.000000 1.873860 0.000000 
#    z 0.000000 0.000000 1.858150 
# 
# From -- ./inp_files/20913.got.cif
#   From: 2010.05.17/outbox.cif.g08.bks.cpg/sg47_11_cif.got.tgz:20913.got - 2010.06.03 20:15:42.
