data_PCOD9383122
_publ_section_title
;
Structure prediction by ZEFSAII (Michael W. Deem and Ramdas Pophale) SiO2 
 PCOD9383122
Probable space group: P M M M
;
_chemical_formula_sum "Si O2"
_cell_formula_units_Z 32
_cell_length_a 23.180653
_cell_length_b 7.592845
_cell_length_c 9.286657
_cell_angle_alpha 90.000000
_cell_angle_beta 90.000000
_cell_angle_gamma 90.000000
_cell_volume 1634.517616
_symmetry_space_group_name_H-M "P M M M"
_symmetry_group_IT_number 47
_symmetry_cell_setting 'orthorhombic'
loop_
_space_group_symop_operation_xyz
x,y,z
-x,-y,z
x,-y,-z
-x,y,-z
-x,-y,-z
x,y,-z
-x,y,z
x,-y,z
loop_
_atom_site_type_symbol
_atom_site_label
_atom_site_fract_x
_atom_site_fract_y
_atom_site_fract_z
Si Si1 0.065581 0.500000 0.175137
Si Si2 0.270827 0.286540 0.334275
Si Si3 0.385242 0.284672 0.834124
Si Si4 0.154104 0.201575 0.168511
Si Si5 0.500000 0.284648 0.665958
O O1 0.103479 0.331294 0.217464
O O2 0.000000 0.500000 0.228539
O O3 0.062740 0.500000 0.000000
O O4 0.273672 0.229129 0.500000
O O5 0.270841 0.500000 0.332930
O O6 0.327095 0.227742 0.246251
O O7 0.212156 0.227169 0.258606
O O8 0.385284 0.500000 0.833735
O O9 0.442375 0.228540 0.748991
O O10 0.386258 0.228327 0.000000
O O11 0.135174 0.000000 0.177419
O O12 0.167026 0.241964 0.000000
O O13 0.500000 0.500000 0.665922
O O14 0.500000 0.228357 0.500000
#
# Coordination Sequence:
#
# PCOD9383122 Si02
#       5
#     4   8   8   8   4
#     4   9  18  34  57  85 117 148 179 222 271 319
#     4  10  19  31  49  73 102 139 182 228 280 333
#     4   9  16  25  40  63  94 134 179 228 281 334
#     4  10  20  34  55  82 111 145 184 225 272 326
#     4   9  15  23  35  57  94 135 178 228 279 334
#
# _framework density 19.577641
#
# number of rings (size 3 to 8) (size 9 to 14) (size 15 to 20)
#    0.000    2.500    1.250    1.875    0.000    6.500 
#    0.000    2.500    0.000    1.500    0.000    2.625 
#    0.000    7.000    0.000    0.000    0.000    0.000 
#
# Total GULP energy -178728.628149 kJ/mol
# GULP energy per Si atom -5585.269630 kJ/mol
# Density = 1.953308 g / cm^3
# Si number density = 19.577641 Si / 1000 Ang^3
#
#
#
# Elastic Constant Matrix: (Units=GPa)
#
#
# Indices 1 2 3 4 5 6 
#
# 1 215.5783 49.8185 101.0362 0.0000 0.0000 0.0000
# 2 49.8185 62.2003 36.7313 0.0000 0.0000 0.0000
# 3 101.0362 36.7313 143.6427 0.0000 0.0000 0.0000
# 4 0.0000 0.0000 0.0000 5.9091 0.0000 0.0000
# 5 0.0000 0.0000 0.0000 0.0000 -9.9725 0.0000
# 6 0.0000 0.0000 0.0000 0.0000 0.0000 -14.8463
#
#
#
# Elastic Compliance Matrix: (Units=1/GPa)
#
#
# Indices 1 2 3 4 5 6 
#
# 1 0.007484 -0.003399 -0.004395 0.000000 0.000000 0.000000
# 2 -0.003399 0.020480 -0.002846 0.000000 0.000000 0.000000
# 3 -0.004395 -0.002846 0.010781 0.000000 0.000000 0.000000
# 4 0.000000 0.000000 0.000000 0.169230 0.000000 0.000000
# 5 0.000000 0.000000 0.000000 0.000000 -0.100276 0.000000
# 6 0.000000 0.000000 0.000000 0.000000 0.000000 -0.067357
#
#
# Mechanical properties :
#
#
# Convention : Reuss Voigt Hill
#
# Bulk Modulus (GPa) = 57.25818 88.51038 72.88428
# Shear Modulus (GPa) = 74.13486 11.80708 42.97097
#
# Velocity S-wave (km/s) = 6.16030 2.45845 4.69006
# Velocity P-wave (km/s) = 8.93920 7.30525 8.16321
#
# Compressibility (1/GPa) = 0.01746475
#
# Stress axis : x y z
#
# Youngs Moduli (GPa) = 133.61952 48.82766 92.75616
#
# Poissons Ratio (x) = 0.16595 0.40766
# Poissons Ratio (y) = 0.45414 0.26402
# Poissons Ratio (z) = 0.58726 0.13898
#
# Static dielectric constant tensor:
#      x y z
#    x 1.631190 0.000000 0.000000 
#    y 0.000000 1.730950 0.000000 
#    z 0.000000 0.000000 1.658580 
# 
# From -- ./inp_files/12013.got.cif
#   From: 2010.05.17/outbox.cif.g08.bks.cpg/sg47_7_cif.got.tgz:12013.got - 2010.06.03 20:15:42.
