data_PCOD9383875
_publ_section_title
;
Structure prediction by ZEFSAII (Michael W. Deem and Ramdas Pophale) SiO2 
 PCOD9383875
Probable space group: P M M M
;
_chemical_formula_sum "Si O2"
_cell_formula_units_Z 40
_cell_length_a 25.537727
_cell_length_b 7.480253
_cell_length_c 10.196842
_cell_angle_alpha 90.000000
_cell_angle_beta 90.000000
_cell_angle_gamma 90.000000
_cell_volume 1947.889053
_symmetry_space_group_name_H-M "P M M M"
_symmetry_group_IT_number 47
_symmetry_cell_setting 'orthorhombic'
loop_
_space_group_symop_operation_xyz
x,y,z
-x,-y,z
x,-y,-z
-x,y,-z
-x,-y,-z
x,y,-z
-x,y,z
x,-y,z
loop_
_atom_site_type_symbol
_atom_site_label
_atom_site_fract_x
_atom_site_fract_y
_atom_site_fract_z
Si Si1 0.439832 0.284768 0.000000
Si Si2 0.373245 0.206989 0.746123
Si Si3 0.056222 0.284924 0.652973
Si Si4 0.827928 0.789338 0.650282
Si Si5 0.738479 0.219550 0.847833
Si Si6 0.439370 0.780229 0.500000
O O1 0.409588 0.217485 0.873135
O O2 0.438307 0.500000 0.000000
O O3 0.500000 0.227138 0.000000
O O4 0.316663 0.281260 0.785955
O O5 0.406739 0.281930 0.626232
O O6 0.363359 0.000000 0.711727
O O7 0.056415 0.227926 0.500000
O O8 0.055747 0.500000 0.655072
O O9 0.112841 0.229703 0.704163
O O10 0.000000 0.224257 0.709852
O O11 0.825360 0.715692 0.500000
O O12 0.785481 0.719748 0.753272
O O13 0.817643 0.000000 0.638614
O O14 0.738152 0.000000 0.850060
O O15 0.743098 0.275066 0.000000
O O16 0.500000 0.722741 0.500000
O O17 0.441025 0.000000 0.500000
#
# Coordination Sequence:
#
# PCOD9383875 Si02
#       6
#     4   8   8   8   8   4
#     4  11  23  37  53  75 103 133 168 211 254 299
#     4  10  19  34  56  78 101 133 170 208 251 301
#     4   8  14  26  44  66  94 126 158 194 237 283
#     4   9  17  27  44  71  98 123 155 197 241 285
#     4   9  17  30  48  71  96 126 162 198 240 289
#     4   9  18  30  49  81 109 125 156 209 256 296
#
# _framework density 20.535049000000001
#
# number of rings (size 3 to 8) (size 9 to 14) (size 15 to 20)
#    0.000    2.800    1.000    1.500    1.400    2.000 
#    0.000    3.500    0.000    2.400    0.000    4.200 
#    0.000    0.000    0.000    0.000    0.000    0.000 
#
# Total GULP energy -222991.511144 kJ/mol
# GULP energy per Si atom -5574.787779 kJ/mol
# Density = 2.048831 g / cm^3
# Si number density = 20.535049 Si / 1000 Ang^3
#
#
#
# Elastic Constant Matrix: (Units=GPa)
#
#
# Indices 1 2 3 4 5 6 
#
# 1 241.6781 -0.8384 107.7128 0.0000 0.0000 0.0000
# 2 -0.8384 55.7838 -1.6513 0.0000 0.0000 0.0000
# 3 107.7128 -1.6513 143.0654 0.0000 0.0000 0.0000
# 4 0.0000 0.0000 0.0000 -1.6132 0.0000 0.0000
# 5 0.0000 0.0000 0.0000 0.0000 19.3145 0.0000
# 6 0.0000 0.0000 0.0000 0.0000 0.0000 15.5096
#
#
#
# Elastic Compliance Matrix: (Units=1/GPa)
#
#
# Indices 1 2 3 4 5 6 
#
# 1 0.006227 -0.000045 -0.004689 0.000000 0.000000 0.000000
# 2 -0.000045 0.017933 0.000241 0.000000 0.000000 0.000000
# 3 -0.004689 0.000241 0.010523 0.000000 0.000000 0.000000
# 4 0.000000 0.000000 0.000000 -0.619868 0.000000 0.000000
# 5 0.000000 0.000000 0.000000 0.000000 0.051775 0.000000
# 6 0.000000 0.000000 0.000000 0.000000 0.000000 0.064476
#
#
# Mechanical properties :
#
#
# Convention : Reuss Voigt Hill
#
# Bulk Modulus (GPa) = 38.91558 72.33039 55.62298
# Shear Modulus (GPa) = -11.07711 28.99579 8.95934
#
# Velocity S-wave (km/s) = -2.32507 3.76175 2.09103
# Velocity P-wave (km/s) = 3.43278 7.35983 5.74243
#
# Compressibility (1/GPa) = 0.02569665
#
# Stress axis : x y z
#
# Youngs Moduli (GPa) = 160.57913 55.76369 95.03000
#
# Poissons Ratio (x) = 0.00252 0.44561
# Poissons Ratio (y) = 0.00726 -0.02290
# Poissons Ratio (z) = 0.75298 -0.01344
#
# Static dielectric constant tensor:
#      x y z
#    x 1.740320 0.000000 0.000000 
#    y 0.000000 1.784470 0.000000 
#    z 0.000000 0.000000 2.188360 
# 
# From -- ./inp_files/12989.got.cif
#   From: 2010.05.17/outbox.cif.g08.bks.cpg/sg47_7_cif.got.tgz:12989.got - 2010.06.03 20:15:42.
