data_PCOD9383360
_publ_section_title
;
Structure prediction by ZEFSAII (Michael W. Deem and Ramdas Pophale) SiO2 
 PCOD9383360
Probable space group: P M M M
;
_chemical_formula_sum "Si O2"
_cell_formula_units_Z 52
_cell_length_a 10.002103
_cell_length_b 13.792629
_cell_length_c 22.660283
_cell_angle_alpha 90.000000
_cell_angle_beta 90.000000
_cell_angle_gamma 90.000000
_cell_volume 3126.106046
_symmetry_space_group_name_H-M "P M M M"
_symmetry_group_IT_number 47
_symmetry_cell_setting 'orthorhombic'
loop_
_space_group_symop_operation_xyz
x,y,z
-x,-y,z
x,-y,-z
-x,y,-z
-x,-y,-z
x,y,-z
-x,y,z
x,-y,z
loop_
_atom_site_type_symbol
_atom_site_label
_atom_site_fract_x
_atom_site_fract_y
_atom_site_fract_z
Si Si1 0.660072 0.615951 0.806177
Si Si2 0.500000 0.118088 0.431352
Si Si3 0.247362 0.116763 0.353923
Si Si4 0.845428 0.117021 0.109476
Si Si5 0.839847 0.220427 0.235878
Si Si6 0.657512 0.617180 0.937527
Si Si7 0.343545 0.118010 0.000000
Si Si8 0.000000 0.882293 0.433568
O O1 0.500000 0.637009 0.800408
O O2 0.674495 0.500000 0.798706
O O3 0.755920 0.680052 0.766113
O O4 0.706543 0.643457 0.872970
O O5 0.500000 0.150751 0.500000
O O6 0.375315 0.147677 0.391392
O O7 0.500000 0.000000 0.434397
O O8 0.221372 0.159266 0.289611
O O9 0.126500 0.146363 0.395962
O O10 0.250281 0.000000 0.348693
O O11 0.821105 0.164202 0.173504
O O12 0.738693 0.146649 0.059049
O O13 0.000000 0.139752 0.091822
O O14 0.837094 0.000000 0.115116
O O15 0.000000 0.233493 0.243620
O O16 0.500000 0.640908 0.937804
O O17 0.665240 0.500000 0.938517
O O18 0.716338 0.651899 0.000000
O O19 0.500000 0.148410 0.000000
O O20 0.343950 0.000000 0.000000
O O21 0.000000 0.845560 0.500000
O O22 0.000000 0.000000 0.436657
#
# Coordination Sequence:
#
# PCOD9383360 Si02
#       8
#     8   4   8   8   8   8   4   4
#     4   9  19  35  53  72  97 130 168 213 265 321
#     4   9  18  32  50  76 111 148 178 205 245 294
#     4  10  19  32  50  76 111 145 177 210 244 293
#     4   9  18  33  52  69  94 135 175 209 252 309
#     4  11  22  34  50  75 104 137 175 214 257 303
#     4   7  10  21  44  69  88 109 143 190 247 309
#     4   9  17  31  49  71  94 121 168 225 267 296
#     4   9  16  28  50  76 105 144 178 203 235 284
#
# _framework density 16.634114
#
# number of rings (size 3 to 8) (size 9 to 14) (size 15 to 20)
#    0.000    2.846    0.769    2.538    1.077    4.308 
#    1.385    0.000    0.000    0.000    0.000    2.154 
#    0.000    3.692    0.000    0.000    0.000    0.000 
#
# Total GULP energy -289519.657940 kJ/mol
# GULP energy per Si atom -5567.685730 kJ/mol
# Density = 1.659625 g / cm^3
# Si number density = 16.634114 Si / 1000 Ang^3
#
#
#
# Elastic Constant Matrix: (Units=GPa)
#
#
# Indices 1 2 3 4 5 6 
#
# 1 129.8359 35.2847 81.8781 0.0000 0.0000 0.0000
# 2 35.2847 49.9478 38.0646 0.0000 0.0000 0.0000
# 3 81.8781 38.0646 134.6882 0.0000 0.0000 0.0000
# 4 0.0000 0.0000 0.0000 13.7865 0.0000 0.0000
# 5 0.0000 0.0000 0.0000 0.0000 33.8634 0.0000
# 6 0.0000 0.0000 0.0000 0.0000 0.0000 20.8198
#
#
#
# Elastic Compliance Matrix: (Units=1/GPa)
#
#
# Indices 1 2 3 4 5 6 
#
# 1 0.013107 -0.004062 -0.006820 0.000000 0.000000 0.000000
# 2 -0.004062 0.026775 -0.005098 0.000000 0.000000 0.000000
# 3 -0.006820 -0.005098 0.013011 0.000000 0.000000 0.000000
# 4 0.000000 0.000000 0.000000 0.072535 0.000000 0.000000
# 5 0.000000 0.000000 0.000000 0.000000 0.029530 0.000000
# 6 0.000000 0.000000 0.000000 0.000000 0.000000 0.048031
#
#
# Mechanical properties :
#
#
# Convention : Reuss Voigt Hill
#
# Bulk Modulus (GPa) = 47.76850 69.43629 58.60239
# Shear Modulus (GPa) = 20.66751 24.31025 22.48888
#
# Velocity S-wave (km/s) = 3.52870 3.82706 3.68091
# Velocity P-wave (km/s) = 6.73661 7.83342 7.30563
#
# Compressibility (1/GPa) = 0.02093430
#
# Stress axis : x y z
#
# Youngs Moduli (GPa) = 76.29778 37.34795 76.85776
#
# Poissons Ratio (x) = 0.15169 0.52415
# Poissons Ratio (y) = 0.30990 0.39181
# Poissons Ratio (z) = 0.52033 0.19040
#
# Static dielectric constant tensor:
#      x y z
#    x 1.554500 0.000000 0.000000 
#    y 0.000000 1.564330 0.000000 
#    z 0.000000 0.000000 1.527900 
# 
# From -- ./inp_files/29679.got.cif
#   From: 2010.05.17/outbox.cif.g08.bks.cpg/sg47_15_cif.got.tgz:29679.got - 2010.06.03 20:15:42.
