data_PCOD9383600
_publ_section_title
;
Structure prediction by ZEFSAII (Michael W. Deem and Ramdas Pophale) SiO2 
 PCOD9383600
Probable space group: P M M M
;
_chemical_formula_sum "Si O2"
_cell_formula_units_Z 44
_cell_length_a 32.657961
_cell_length_b 7.882448
_cell_length_c 9.032749
_cell_angle_alpha 90.000000
_cell_angle_beta 90.000000
_cell_angle_gamma 90.000000
_cell_volume 2325.252515
_symmetry_space_group_name_H-M "P M M M"
_symmetry_group_IT_number 47
_symmetry_cell_setting 'orthorhombic'
loop_
_space_group_symop_operation_xyz
x,y,z
-x,-y,z
x,-y,-z
-x,y,-z
-x,-y,-z
x,y,-z
-x,y,z
x,-y,z
loop_
_atom_site_type_symbol
_atom_site_label
_atom_site_fract_x
_atom_site_fract_y
_atom_site_fract_z
Si Si1 0.000000 0.798140 0.335972
Si Si2 0.744410 0.806817 0.323893
Si Si3 0.827396 0.295651 0.823144
Si Si4 0.394523 0.500000 0.319826
Si Si5 0.917750 0.296075 0.167790
Si Si6 0.305176 0.500000 0.822525
Si Si7 0.546720 0.192617 0.679944
O O1 0.958226 0.747643 0.255937
O O2 0.000000 0.723792 0.500000
O O3 0.000000 0.000000 0.343668
O O4 0.742675 0.774891 0.500000
O O5 0.790846 0.788579 0.266011
O O6 0.718155 0.665950 0.238944
O O7 0.730259 0.000000 0.296705
O O8 0.823940 0.500000 0.804117
O O9 0.873091 0.239802 0.775407
O O10 0.823719 0.262867 0.000000
O O11 0.389769 0.500000 0.500000
O O12 0.350811 0.500000 0.242602
O O13 0.420896 0.334526 0.276218
O O14 0.915167 0.500000 0.161235
O O15 0.922238 0.231874 0.000000
O O16 0.304621 0.500000 0.000000
O O17 0.546363 0.192776 0.500000
O O18 0.500000 0.232476 0.726520
O O19 0.556563 0.000000 0.727094
#
# Coordination Sequence:
#
# PCOD9383600 Si02
#       7
#     4   8   8   4   8   4   8
#     4  11  24  37  48  70 108 147 184 229 276 322
#     4  11  24  41  63  90 118 150 191 243 302 358
#     4   9  18  35  60  88 115 144 179 226 284 347
#     4  10  19  32  54  82 112 150 195 245 298 347
#     4   9  19  36  58  82 107 139 181 222 266 328
#     4  12  26  43  61  83 118 161 205 250 296 355
#     4   8  14  26  48  81 117 150 189 240 294 346
#
# _framework density 18.922677
#
# number of rings (size 3 to 8) (size 9 to 14) (size 15 to 20)
#    0.000    2.273    0.909    3.818    0.000    6.909 
#    0.000    7.273    0.000    1.091    0.000    1.273 
#    0.000    0.000    0.000    0.000    0.000    0.000 
#
# Total GULP energy -245541.265212 kJ/mol
# GULP energy per Si atom -5580.483300 kJ/mol
# Density = 1.887961 g / cm^3
# Si number density = 18.922677 Si / 1000 Ang^3
#
#
#
# Elastic Constant Matrix: (Units=GPa)
#
#
# Indices 1 2 3 4 5 6 
#
# 1 177.5481 86.5315 67.5943 0.0000 0.0000 0.0000
# 2 86.5315 103.2299 54.1918 0.0000 0.0000 0.0000
# 3 67.5943 54.1918 72.1548 0.0000 0.0000 0.0000
# 4 0.0000 0.0000 0.0000 19.3435 0.0000 0.0000
# 5 0.0000 0.0000 0.0000 0.0000 32.0027 0.0000
# 6 0.0000 0.0000 0.0000 0.0000 0.0000 -30.3484
#
#
#
# Elastic Compliance Matrix: (Units=1/GPa)
#
#
# Indices 1 2 3 4 5 6 
#
# 1 0.010664 -0.006100 -0.005409 0.000000 0.000000 0.000000
# 2 -0.006100 0.019481 -0.008917 0.000000 0.000000 0.000000
# 3 -0.005409 -0.008917 0.025624 0.000000 0.000000 0.000000
# 4 0.000000 0.000000 0.000000 0.051697 0.000000 0.000000
# 5 0.000000 0.000000 0.000000 0.000000 0.031247 0.000000
# 6 0.000000 0.000000 0.000000 0.000000 0.000000 -0.032951
#
#
# Mechanical properties :
#
#
# Convention : Reuss Voigt Hill
#
# Bulk Modulus (GPa) = 67.03703 85.50757 76.27230
# Shear Modulus (GPa) = 32.98413 13.84058 23.41235
#
# Velocity S-wave (km/s) = 4.17957 2.70743 3.52129
# Velocity P-wave (km/s) = 7.66782 7.42021 7.54503
#
# Compressibility (1/GPa) = 0.01491713
#
# Stress axis : x y z
#
# Youngs Moduli (GPa) = 93.76967 51.33105 39.02629
#
# Poissons Ratio (x) = 0.31311 0.21110
# Poissons Ratio (y) = 0.57197 0.34801
# Poissons Ratio (z) = 0.50722 0.45773
#
# Static dielectric constant tensor:
#      x y z
#    x 1.657430 0.000000 0.000000 
#    y 0.000000 1.676150 0.000000 
#    z 0.000000 0.000000 1.648610 
# 
# From -- ./inp_files/13766.got.cif
#   From: 2010.05.17/outbox.cif.g08.bks.cpg/sg47_7_cif.got.tgz:13766.got - 2010.06.03 20:15:42.
