data_PCOD9383421
_publ_section_title
;
Structure prediction by ZEFSAII (Michael W. Deem and Ramdas Pophale) SiO2 
 PCOD9383421
Probable space group: P M M M
;
_chemical_formula_sum "Si O2"
_cell_formula_units_Z 52
_cell_length_a 16.896425
_cell_length_b 21.179599
_cell_length_c 8.706452
_cell_angle_alpha 90.000000
_cell_angle_beta 90.000000
_cell_angle_gamma 90.000000
_cell_volume 3115.686612
_symmetry_space_group_name_H-M "P M M M"
_symmetry_group_IT_number 47
_symmetry_cell_setting 'orthorhombic'
loop_
_space_group_symop_operation_xyz
x,y,z
-x,-y,z
x,-y,-z
-x,y,-z
-x,-y,-z
x,y,-z
-x,y,z
x,-y,z
loop_
_atom_site_type_symbol
_atom_site_label
_atom_site_fract_x
_atom_site_fract_y
_atom_site_fract_z
Si Si1 0.911581 0.805041 0.186619
Si Si2 0.668078 0.138691 0.682981
Si Si3 0.500000 0.147504 0.180393
Si Si4 0.818642 0.928810 0.185418
Si Si5 0.247632 0.261938 0.815553
Si Si6 0.654425 0.629848 0.318404
Si Si7 0.500000 0.716208 0.679138
Si Si8 0.592573 0.500000 0.815901
O O1 0.881397 0.874983 0.231198
O O2 0.841561 0.757279 0.231717
O O3 0.000000 0.791762 0.243076
O O4 0.913931 0.803967 0.000000
O O5 0.667127 0.141251 0.500000
O O6 0.581164 0.122961 0.745387
O O7 0.734820 0.090663 0.742411
O O8 0.695829 0.207204 0.746853
O O9 0.500000 0.222672 0.215068
O O10 0.500000 0.135732 0.000000
O O11 0.841245 0.000000 0.227045
O O12 0.810919 0.925441 0.000000
O O13 0.275460 0.329696 0.756579
O O14 0.253332 0.258865 0.000000
O O15 0.667258 0.622957 0.500000
O O16 0.576352 0.672960 0.295743
O O17 0.635724 0.562450 0.245084
O O18 0.500000 0.737554 0.500000
O O19 0.500000 0.500000 0.764187
O O20 0.592747 0.500000 0.000000
#
# Coordination Sequence:
#
# PCOD9383421 Si02
#       8
#     8   8   4   8   8   8   4   4
#     4   8  15  29  51  80 108 131 160 203 253 303
#     4  11  21  33  49  70  98 130 168 210 254 302
#     4  12  22  32  50  72  96 126 168 218 260 296
#     4   9  18  33  52  74 101 132 166 204 248 301
#     4  10  19  32  51  75 102 132 170 212 254 300
#     4  11  21  34  51  71 102 140 177 212 253 300
#     4  10  20  31  47  71 100 134 171 209 250 297
#     4  11  23  35  49  71 104 141 180 219 253 292
#
# _framework density 16.689741000000001
#
# number of rings (size 3 to 8) (size 9 to 14) (size 15 to 20)
#    0.000    1.923    2.308    4.154    0.000    1.538 
#    0.000    1.923    0.000   13.846    0.000    4.846 
#    0.000    4.308    0.000    0.000    0.000    0.000 
#
# Total GULP energy -290214.060891 kJ/mol
# GULP energy per Si atom -5581.039633 kJ/mol
# Density = 1.665175 g / cm^3
# Si number density = 16.689741 Si / 1000 Ang^3
#
#
#
# Elastic Constant Matrix: (Units=GPa)
#
#
# Indices 1 2 3 4 5 6 
#
# 1 130.3204 43.6025 28.0913 0.0000 0.0000 0.0000
# 2 43.6025 87.9779 26.1829 0.0000 0.0000 0.0000
# 3 28.0913 26.1829 53.6465 0.0000 0.0000 0.0000
# 4 0.0000 0.0000 0.0000 67.6932 0.0000 0.0000
# 5 0.0000 0.0000 0.0000 0.0000 4.8455 0.0000
# 6 0.0000 0.0000 0.0000 0.0000 0.0000 10.7686
#
#
#
# Elastic Compliance Matrix: (Units=1/GPa)
#
#
# Indices 1 2 3 4 5 6 
#
# 1 0.009641 -0.003832 -0.003178 0.000000 0.000000 0.000000
# 2 -0.003832 0.014821 -0.005227 0.000000 0.000000 0.000000
# 3 -0.003178 -0.005227 0.022856 0.000000 0.000000 0.000000
# 4 0.000000 0.000000 0.000000 0.014773 0.000000 0.000000
# 5 0.000000 0.000000 0.000000 0.000000 0.206378 0.000000
# 6 0.000000 0.000000 0.000000 0.000000 0.000000 0.092862
#
#
# Mechanical properties :
#
#
# Convention : Reuss Voigt Hill
#
# Bulk Modulus (GPa) = 43.77619 51.96646 47.87132
# Shear Modulus (GPa) = 12.70909 28.26601 20.48755
#
# Velocity S-wave (km/s) = 2.76251 4.11982 3.50745
# Velocity P-wave (km/s) = 6.03834 7.33723 6.71925
#
# Compressibility (1/GPa) = 0.02284347
#
# Stress axis : x y z
#
# Youngs Moduli (GPa) = 103.72841 67.47013 43.75278
#
# Poissons Ratio (x) = 0.25856 0.13904
# Poissons Ratio (y) = 0.39751 0.22870
# Poissons Ratio (z) = 0.32963 0.35267
#
# Static dielectric constant tensor:
#      x y z
#    x 1.567640 0.000000 0.000000 
#    y 0.000000 1.550350 0.000000 
#    z 0.000000 0.000000 1.558760 
# 
# From -- ./inp_files/7109.got.cif
#   From: 2010.05.17/outbox.cif.g08.bks.cpg/sg47_4_cif.got.tgz:7109.got - 2010.06.03 20:15:42.
