data_PCOD9383070
_publ_section_title
;
Structure prediction by ZEFSAII (Michael W. Deem and Ramdas Pophale) SiO2 
 PCOD9383070
Probable space group: P M M M
;
_chemical_formula_sum "Si O2"
_cell_formula_units_Z 52
_cell_length_a 25.458460
_cell_length_b 7.309148
_cell_length_c 13.096823
_cell_angle_alpha 90.000000
_cell_angle_beta 90.000000
_cell_angle_gamma 90.000000
_cell_volume 2437.052266
_symmetry_space_group_name_H-M "P M M M"
_symmetry_group_IT_number 47
_symmetry_cell_setting 'orthorhombic'
loop_
_space_group_symop_operation_xyz
x,y,z
-x,-y,z
x,-y,-z
-x,y,-z
-x,-y,-z
x,y,-z
-x,y,z
x,-y,z
loop_
_atom_site_type_symbol
_atom_site_label
_atom_site_fract_x
_atom_site_fract_y
_atom_site_fract_z
Si Si1 0.000000 0.795132 0.876907
Si Si2 0.559655 0.277319 0.115427
Si Si3 0.628540 0.723556 0.302612
Si Si4 0.736081 0.278569 0.385139
Si Si5 0.061544 0.276831 0.500000
Si Si6 0.148326 0.714776 0.337777
Si Si7 0.560952 0.277062 0.500000
Si Si8 0.886196 0.220773 0.115780
O O1 0.944388 0.707494 0.855055
O O2 0.000000 0.000000 0.831900
O O3 0.000000 0.811704 0.000000
O O4 0.500000 0.222696 0.141137
O O5 0.559997 0.500000 0.115810
O O6 0.600609 0.216053 0.199472
O O7 0.571329 0.219422 0.000000
O O8 0.629003 0.500000 0.303623
O O9 0.688836 0.783654 0.313392
O O10 0.593047 0.778818 0.399313
O O11 0.718661 0.238369 0.500000
O O12 0.739028 0.500000 0.375343
O O13 0.795228 0.209170 0.371140
O O14 0.058815 0.500000 0.500000
O O15 0.097193 0.218102 0.598590
O O16 0.000000 0.216520 0.500000
O O17 0.149013 0.500000 0.362029
O O18 0.146806 0.734781 0.215348
O O19 0.560298 0.500000 0.500000
O O20 0.500000 0.218741 0.500000
O O21 0.889903 0.000000 0.110030
O O22 0.872045 0.281425 0.000000
#
# Coordination Sequence:
#
# PCOD9383070 Si02
#       8
#     4   8   8   8   4   8   4   8
#     4   7  12  26  47  66  85 114 146 171 208 271
#     4   8  13  20  28  39  60  91 125 163 208 255
#     4   9  14  20  31  46  64  92 132 173 214 257
#     4   9  15  26  40  54  75 108 146 180 221 270
#     4   9  18  31  46  66  93 123 152 186 234 283
#     4  10  19  31  49  69  91 121 158 195 228 270
#     4   9  14  17  25  45  68  88 122 178 223 246
#     4   9  18  33  51  70  94 122 148 180 230 284
#
# _framework density 21.337253
#
# number of rings (size 3 to 8) (size 9 to 14) (size 15 to 20)
#    0.000    3.154    1.538    1.846    1.077    2.154 
#    0.000    1.154    0.000    4.615    0.000    0.000 
#    0.000    0.000    0.000    0.000    0.000    3.846 
#
# Total GULP energy -289850.309924 kJ/mol
# GULP energy per Si atom -5574.044422 kJ/mol
# Density = 2.128869 g / cm^3
# Si number density = 21.337253 Si / 1000 Ang^3
#
#
#
# Elastic Constant Matrix: (Units=GPa)
#
#
# Indices 1 2 3 4 5 6 
#
# 1 173.1066 8.5854 93.8963 0.0000 0.0000 0.0000
# 2 8.5854 87.1543 -0.1670 0.0000 0.0000 0.0000
# 3 93.8963 -0.1670 128.1554 0.0000 0.0000 0.0000
# 4 0.0000 0.0000 0.0000 3.1613 0.0000 0.0000
# 5 0.0000 0.0000 0.0000 0.0000 34.2883 0.0000
# 6 0.0000 0.0000 0.0000 0.0000 0.0000 -21.0701
#
#
#
# Elastic Compliance Matrix: (Units=1/GPa)
#
#
# Indices 1 2 3 4 5 6 
#
# 1 0.009667 -0.000966 -0.007084 0.000000 0.000000 0.000000
# 2 -0.000966 0.011570 0.000723 0.000000 0.000000 0.000000
# 3 -0.007084 0.000723 0.012994 0.000000 0.000000 0.000000
# 4 0.000000 0.000000 0.000000 0.316328 0.000000 0.000000
# 5 0.000000 0.000000 0.000000 0.000000 0.029164 0.000000
# 6 0.000000 0.000000 0.000000 0.000000 0.000000 -0.047461
#
#
# Mechanical properties :
#
#
# Convention : Reuss Voigt Hill
#
# Bulk Modulus (GPa) = 51.07929 65.89396 58.48662
# Shear Modulus (GPa) = 14.14650 22.34935 18.24793
#
# Velocity S-wave (km/s) = 2.57766 3.23992 2.92758
# Velocity P-wave (km/s) = 5.73150 6.70412 6.23680
#
# Compressibility (1/GPa) = 0.01957741
#
# Stress axis : x y z
#
# Youngs Moduli (GPa) = 103.44103 86.42722 76.95594
#
# Poissons Ratio (x) = 0.08348 0.54518
# Poissons Ratio (y) = 0.09991 -0.05562
# Poissons Ratio (z) = 0.73281 -0.06247
#
# Static dielectric constant tensor:
#      x y z
#    x 1.772100 0.000000 0.000000 
#    y 0.000000 1.837900 0.000000 
#    z 0.000000 0.000000 1.747460 
# 
# From -- ./inp_files/19844.got.cif
#   From: 2010.05.17/outbox.cif.g08.bks.cpg/sg47_10_cif.got.tgz:19844.got - 2010.06.03 20:15:42.
