data_PCOD9383082
_publ_section_title
;
Structure prediction by ZEFSAII (Michael W. Deem and Ramdas Pophale) SiO2 
 PCOD9383082
Probable space group: P M M M
;
_chemical_formula_sum "Si O2"
_cell_formula_units_Z 45
_cell_length_a 25.269300
_cell_length_b 12.754509
_cell_length_c 8.275085
_cell_angle_alpha 90.000000
_cell_angle_beta 90.000000
_cell_angle_gamma 90.000000
_cell_volume 2667.039326
_symmetry_space_group_name_H-M "P M M M"
_symmetry_group_IT_number 47
_symmetry_cell_setting 'orthorhombic'
loop_
_space_group_symop_operation_xyz
x,y,z
-x,-y,z
x,-y,-z
-x,y,-z
-x,-y,-z
x,y,-z
-x,y,z
x,-y,z
loop_
_atom_site_type_symbol
_atom_site_label
_atom_site_fract_x
_atom_site_fract_y
_atom_site_fract_z
Si Si1 0.000000 0.000000 0.500000
Si Si2 0.500000 0.878741 0.807231
Si Si3 0.837330 0.824637 0.684194
Si Si4 0.913820 0.000000 0.189281
Si Si5 0.886088 0.621069 0.809190
Si Si6 0.000000 0.626766 0.683162
Si Si7 0.276028 0.126348 0.814819
Si Si8 0.388535 0.878025 0.307263
O O1 0.046145 0.000000 0.347148
O O2 0.555567 0.830781 0.749281
O O3 0.500000 0.000000 0.744317
O O4 0.500000 0.881406 0.000000
O O5 0.849674 0.850660 0.500000
O O6 0.850131 0.703928 0.719417
O O7 0.775527 0.842220 0.716224
O O8 0.874986 0.899130 0.791151
O O9 0.934433 0.000000 0.000000
O O10 0.880290 0.500000 0.755107
O O11 0.946508 0.655432 0.773373
O O12 0.876518 0.624656 0.000000
O O13 0.000000 0.500000 0.675092
O O14 0.000000 0.668886 0.500000
O O15 0.333198 0.166955 0.756677
O O16 0.278238 0.000000 0.805758
O O17 0.267590 0.157192 0.000000
O O18 0.386984 0.878027 0.500000
O O19 0.389607 0.000000 0.249758
#
# Coordination Sequence:
#
# PCOD9383082 Si02
#       8
#     1   4   8   4   8   4   8   8
#     4  12  26  48  60  90 110 144 182 218 272 328
#     4   9  15  23  35  53  83 119 160 205 250 297
#     4  12  23  38  58  81 108 138 179 220 263 321
#     4  12  25  45  65  84 111 142 179 224 269 319
#     4  10  21  37  57  80 104 133 168 209 264 321
#     4   9  17  32  53  76  99 122 153 196 244 300
#     4  10  19  31  49  70  95 130 172 214 259 303
#     4   9  16  25  38  59  86 121 162 208 252 297
#
# _framework density 16.872641000000002
#
# number of rings (size 3 to 8) (size 9 to 14) (size 15 to 20)
#    0.000    1.778    1.778    3.867    0.000    6.756 
#    1.600    1.778    0.000    0.000    0.000    0.000 
#    0.000    0.000    0.000    0.800    0.000   14.844 
#
# Total GULP energy -250510.930908 kJ/mol
# GULP energy per Si atom -5566.909576 kJ/mol
# Density = 1.683424 g / cm^3
# Si number density = 16.872641 Si / 1000 Ang^3
#
#
#
# Elastic Constant Matrix: (Units=GPa)
#
#
# Indices 1 2 3 4 5 6 
#
# 1 90.0561 19.2988 33.9138 0.0000 0.0000 0.0000
# 2 19.2988 30.8830 15.6550 0.0000 0.0000 0.0000
# 3 33.9138 15.6550 74.8673 0.0000 0.0000 0.0000
# 4 0.0000 0.0000 0.0000 14.8447 0.0000 0.0000
# 5 0.0000 0.0000 0.0000 0.0000 32.1012 0.0000
# 6 0.0000 0.0000 0.0000 0.0000 0.0000 2.6888
#
#
#
# Elastic Compliance Matrix: (Units=1/GPa)
#
#
# Indices 1 2 3 4 5 6 
#
# 1 0.014431 -0.006380 -0.005203 0.000000 0.000000 0.000000
# 2 -0.006380 0.039041 -0.005273 0.000000 0.000000 0.000000
# 3 -0.005203 -0.005273 0.016816 0.000000 0.000000 0.000000
# 4 0.000000 0.000000 0.000000 0.067364 0.000000 0.000000
# 5 0.000000 0.000000 0.000000 0.000000 0.031151 0.000000
# 6 0.000000 0.000000 0.000000 0.000000 0.000000 0.371906
#
#
# Mechanical properties :
#
#
# Convention : Reuss Voigt Hill
#
# Bulk Modulus (GPa) = 27.34125 37.06018 32.20072
# Shear Modulus (GPa) = 8.52349 18.38954 13.45651
#
# Velocity S-wave (km/s) = 2.25003 3.30495 2.82713
# Velocity P-wave (km/s) = 4.79477 6.04780 5.45737
#
# Compressibility (1/GPa) = 0.03657477
#
# Stress axis : x y z
#
# Youngs Moduli (GPa) = 69.29631 25.61437 59.46574
#
# Poissons Ratio (x) = 0.16343 0.30939
# Poissons Ratio (y) = 0.44214 0.31358
# Poissons Ratio (z) = 0.36053 0.13507
#
# Static dielectric constant tensor:
#      x y z
#    x 1.607580 0.000000 0.000000 
#    y 0.000000 1.562650 0.000000 
#    z 0.000000 0.000000 1.596780 
# 
# From -- ./inp_files/12415.got.cif
#   From: 2010.05.17/outbox.cif.g08.bks.cpg/sg47_7_cif.got.tgz:12415.got - 2010.06.03 20:15:42.
