data_PCOD9383296
_publ_section_title
;
Structure prediction by ZEFSAII (Michael W. Deem and Ramdas Pophale) SiO2 
 PCOD9383296
Probable space group: P M M M
;
_chemical_formula_sum "Si O2"
_cell_formula_units_Z 60
_cell_length_a 15.840442
_cell_length_b 7.312686
_cell_length_c 21.981184
_cell_angle_alpha 90.000000
_cell_angle_beta 90.000000
_cell_angle_gamma 90.000000
_cell_volume 2546.216352
_symmetry_space_group_name_H-M "P M M M"
_symmetry_group_IT_number 47
_symmetry_cell_setting 'orthorhombic'
loop_
_space_group_symop_operation_xyz
x,y,z
-x,-y,z
x,-y,-z
-x,y,-z
-x,-y,-z
x,y,-z
-x,y,z
x,-y,z
loop_
_atom_site_type_symbol
_atom_site_label
_atom_site_fract_x
_atom_site_fract_y
_atom_site_fract_z
Si Si1 0.098125 0.223641 0.173225
Si Si2 0.405764 0.211523 0.109056
Si Si3 0.154415 0.208923 0.567770
Si Si4 0.596759 0.720646 0.749446
Si Si5 0.673869 0.721309 0.628701
Si Si6 0.100448 0.208695 0.695263
Si Si7 0.225412 0.776815 0.067704
Si Si8 0.500000 0.722482 0.568950
O O1 0.129096 0.287237 0.240105
O O2 0.160834 0.281970 0.120033
O O3 0.000000 0.277255 0.163358
O O4 0.098277 0.000000 0.175397
O O5 0.500000 0.290231 0.098258
O O6 0.390020 0.216594 0.181780
O O7 0.321376 0.288151 0.078922
O O8 0.410431 0.000000 0.089908
O O9 0.141372 0.286853 0.500000
O O10 0.252790 0.207056 0.585602
O O11 0.117695 0.295296 0.629591
O O12 0.121786 0.000000 0.565029
O O13 0.500000 0.774406 0.732436
O O14 0.597353 0.500000 0.749742
O O15 0.665910 0.778133 0.699463
O O16 0.681038 0.500000 0.627399
O O17 0.584827 0.778254 0.601483
O O18 0.000000 0.199855 0.701805
O O19 0.133803 0.000000 0.691473
O O20 0.227326 0.000000 0.070588
O O21 0.197586 0.725866 0.000000
O O22 0.500000 0.500000 0.570189
O O23 0.500000 0.782279 0.500000
#
# Coordination Sequence:
#
# PCOD9383296 Si02
#       8
#     8   8   8   8   8   8   8   4
#     4   8  14  25  41  63  91 122 157 196 239 285
#     4   9  18  30  45  68  98 130 162 193 233 283
#     4  10  21  33  46  70 100 126 156 198 244 285
#     4   9  17  31  49  69  92 119 159 206 243 277
#     4  10  19  32  49  69  92 123 162 201 241 287
#     4   8  15  29  48  68  91 123 160 194 233 286
#     4   9  17  27  41  65  96 130 164 194 230 280
#     4   9  16  28  47  65  83 117 162 197 226 274
#
# _framework density 23.564377
#
# number of rings (size 3 to 8) (size 9 to 14) (size 15 to 20)
#    0.000    3.000    0.667    1.200    1.867    2.133 
#    0.000    4.333    0.000    2.000    0.000    2.800 
#    0.000    0.533    0.000    1.200    0.000    1.333 
#
# Total GULP energy -334773.922883 kJ/mol
# GULP energy per Si atom -5579.565381 kJ/mol
# Density = 2.351074 g / cm^3
# Si number density = 23.564377 Si / 1000 Ang^3
#
#
#
# Elastic Constant Matrix: (Units=GPa)
#
#
# Indices 1 2 3 4 5 6 
#
# 1 82.8543 2.2782 78.7690 0.0000 0.0000 0.0000
# 2 2.2782 96.9696 6.1886 0.0000 0.0000 0.0000
# 3 78.7690 6.1886 201.4039 0.0000 0.0000 0.0000
# 4 0.0000 0.0000 0.0000 0.2152 0.0000 0.0000
# 5 0.0000 0.0000 0.0000 0.0000 170.1925 0.0000
# 6 0.0000 0.0000 0.0000 0.0000 0.0000 -11.7917
#
#
#
# Elastic Compliance Matrix: (Units=1/GPa)
#
#
# Indices 1 2 3 4 5 6 
#
# 1 0.019213 0.000028 -0.007515 0.000000 0.000000 0.000000
# 2 0.000028 0.010333 -0.000329 0.000000 0.000000 0.000000
# 3 -0.007515 -0.000329 0.007914 0.000000 0.000000 0.000000
# 4 0.000000 0.000000 0.000000 4.646156 0.000000 0.000000
# 5 0.000000 0.000000 0.000000 0.000000 0.005876 0.000000
# 6 0.000000 0.000000 0.000000 0.000000 0.000000 -0.084805
#
#
# Mechanical properties :
#
#
# Convention : Reuss Voigt Hill
#
# Bulk Modulus (GPa) = 45.80952 61.74436 53.77694
# Shear Modulus (GPa) = 1.08048 51.32267 26.20157
#
# Velocity S-wave (km/s) = 0.67788 4.67194 3.33816
# Velocity P-wave (km/s) = 4.48275 7.44057 6.14236
#
# Compressibility (1/GPa) = 0.02182952
#
# Stress axis : x y z
#
# Youngs Moduli (GPa) = 52.04757 96.77905 126.35182
#
# Poissons Ratio (x) = -0.00273 0.94955
# Poissons Ratio (y) = -0.00147 0.04151
# Poissons Ratio (z) = 0.39114 0.03180
#
# Static dielectric constant tensor:
#      x y z
#    x 1.871860 0.000000 0.000000 
#    y 0.000000 1.904610 0.000000 
#    z 0.000000 0.000000 1.886730 
# 
# From -- ./inp_files/31185.got.cif
#   From: 2010.05.17/outbox.cif.g08.bks.cpg/sg47_16_cif.got.tgz:31185.got - 2010.06.03 20:15:42.
