data_PCOD9383236
_publ_section_title
;
Structure prediction by ZEFSAII (Michael W. Deem and Ramdas Pophale) SiO2 
 PCOD9383236
Probable space group: P M M M
;
_chemical_formula_sum "Si O2"
_cell_formula_units_Z 64
_cell_length_a 24.884355
_cell_length_b 15.188293
_cell_length_c 8.090789
_cell_angle_alpha 90.000000
_cell_angle_beta 90.000000
_cell_angle_gamma 90.000000
_cell_volume 3057.920781
_symmetry_space_group_name_H-M "P M M M"
_symmetry_group_IT_number 47
_symmetry_cell_setting 'orthorhombic'
loop_
_space_group_symop_operation_xyz
x,y,z
-x,-y,z
x,-y,-z
-x,y,-z
-x,-y,-z
x,y,-z
-x,y,z
x,-y,z
loop_
_atom_site_type_symbol
_atom_site_label
_atom_site_fract_x
_atom_site_fract_y
_atom_site_fract_z
Si Si1 0.892508 0.100172 0.304877
Si Si2 0.845702 0.598947 0.302104
Si Si3 0.772744 0.101889 0.802819
Si Si4 0.276312 0.600061 0.701823
Si Si5 0.564548 0.595204 0.810280
Si Si6 0.941368 0.276277 0.194079
Si Si7 0.440226 0.786320 0.690951
Si Si8 0.326868 0.779034 0.700094
O O1 0.903104 0.100480 0.500000
O O2 0.830126 0.125322 0.276043
O O3 0.929075 0.173704 0.223174
O O4 0.899522 0.000000 0.242201
O O5 0.842313 0.595093 0.500000
O O6 0.858445 0.500000 0.241263
O O7 0.785123 0.621338 0.245708
O O8 0.891872 0.667261 0.260564
O O9 0.724087 0.162574 0.746670
O O10 0.761696 0.000000 0.758441
O O11 0.778821 0.107873 0.000000
O O12 0.277866 0.599730 0.500000
O O13 0.288391 0.500000 0.755894
O O14 0.314358 0.679172 0.758748
O O15 0.500000 0.587921 0.820568
O O16 0.584790 0.500000 0.748659
O O17 0.570755 0.681108 0.699471
O O18 0.583149 0.609031 0.000000
O O19 0.000000 0.298944 0.266481
O O20 0.943103 0.292912 0.000000
O O21 0.443368 0.814189 0.500000
O O22 0.500000 0.802492 0.765097
O O23 0.383592 0.818870 0.764184
O O24 0.330465 0.776917 0.500000
#
# Coordination Sequence:
#
# PCOD9383236 Si02
#       8
#     8   8   8   8   8   8   8   8
#     4  10  21  38  61  86 111 141 177 217 263 320
#     4   9  18  34  56  78 101 136 185 239 288 330
#     4  10  21  37  58  84 111 135 163 209 270 328
#     4   8  15  29  49  74 102 131 168 215 265 314
#     4   8  14  25  40  57  80 116 163 209 249 292
#     4  11  24  38  53  78 113 151 188 228 274 320
#     4   9  18  30  43  65  98 133 171 215 261 309
#     4  10  19  31  52  78 103 137 177 217 262 314
#
# _framework density 20.929252999999999
#
# number of rings (size 3 to 8) (size 9 to 14) (size 15 to 20)
#    0.000    2.625    0.000    3.000    0.000    5.500 
#    0.000    5.000    0.000    1.500    0.000    2.625 
#    0.000    0.000    0.000    0.000    0.000    0.000 
#
# Total GULP energy -356842.329823 kJ/mol
# GULP energy per Si atom -5575.661403 kJ/mol
# Density = 2.088162 g / cm^3
# Si number density = 20.929253 Si / 1000 Ang^3
#
#
#
# Elastic Constant Matrix: (Units=GPa)
#
#
# Indices 1 2 3 4 5 6 
#
# 1 114.9073 35.1473 2.2074 0.0000 0.0000 0.0000
# 2 35.1473 35.8621 -1.0676 0.0000 0.0000 0.0000
# 3 2.2074 -1.0676 16.2664 0.0000 0.0000 0.0000
# 4 0.0000 0.0000 0.0000 -1.7279 0.0000 0.0000
# 5 0.0000 0.0000 0.0000 0.0000 39.4500 0.0000
# 6 0.0000 0.0000 0.0000 0.0000 0.0000 -1.5636
#
#
#
# Elastic Compliance Matrix: (Units=1/GPa)
#
#
# Indices 1 2 3 4 5 6 
#
# 1 0.012530 -0.012355 -0.002511 0.000000 0.000000 0.000000
# 2 -0.012355 0.040122 0.004310 0.000000 0.000000 0.000000
# 3 -0.002511 0.004310 0.062100 0.000000 0.000000 0.000000
# 4 0.000000 0.000000 0.000000 -0.578754 0.000000 0.000000
# 5 0.000000 0.000000 0.000000 0.000000 0.025349 0.000000
# 6 0.000000 0.000000 0.000000 0.000000 0.000000 -0.639547
#
#
# Mechanical properties :
#
#
# Convention : Reuss Voigt Hill
#
# Bulk Modulus (GPa) = 10.67931 26.62333 18.65132
# Shear Modulus (GPa) = -4.87389 15.94829 5.53720
#
# Velocity S-wave (km/s) = -1.52768 2.76345 1.62832
# Velocity P-wave (km/s) = 1.41489 4.78857 3.53075
#
# Compressibility (1/GPa) = 0.09363897
#
# Stress axis : x y z
#
# Youngs Moduli (GPa) = 79.80840 24.92420 16.10305
#
# Poissons Ratio (x) = 0.30794 0.04044
# Poissons Ratio (y) = 0.98603 -0.06940
# Poissons Ratio (z) = 0.20042 -0.10742
#
# Static dielectric constant tensor:
#      x y z
#    x 1.815480 0.000000 0.000000 
#    y 0.000000 1.766980 0.000000 
#    z 0.000000 0.000000 1.744320 
# 
# From -- ./inp_files/12661.got.cif
#   From: 2010.05.17/outbox.cif.g08.bks.cpg/sg47_7_cif.got.tgz:12661.got - 2010.06.03 20:15:42.
