data_PCOD9383487
_publ_section_title
;
Structure prediction by ZEFSAII (Michael W. Deem and Ramdas Pophale) SiO2 
 PCOD9383487
Probable space group: P M M M
;
_chemical_formula_sum "Si O2"
_cell_formula_units_Z 56
_cell_length_a 14.802642
_cell_length_b 7.502741
_cell_length_c 22.104747
_cell_angle_alpha 90.000000
_cell_angle_beta 90.000000
_cell_angle_gamma 90.000000
_cell_volume 2454.961801
_symmetry_space_group_name_H-M "P M M M"
_symmetry_group_IT_number 47
_symmetry_cell_setting 'orthorhombic'
loop_
_space_group_symop_operation_xyz
x,y,z
-x,-y,z
x,-y,-z
-x,y,-z
-x,-y,-z
x,y,-z
-x,y,z
x,-y,z
loop_
_atom_site_type_symbol
_atom_site_label
_atom_site_fract_x
_atom_site_fract_y
_atom_site_fract_z
Si Si1 0.292545 0.286590 0.696875
Si Si2 0.395793 0.281761 0.816605
Si Si3 0.100828 0.213794 0.120187
Si Si4 0.710495 0.709066 0.933962
Si Si5 0.706495 0.213974 0.567422
Si Si6 0.899584 0.289982 0.261576
Si Si7 0.904934 0.205891 0.427308
O O1 0.286963 0.500000 0.701907
O O2 0.348881 0.221898 0.754516
O O3 0.338904 0.248563 0.632014
O O4 0.189143 0.216332 0.705009
O O5 0.500000 0.229863 0.819176
O O6 0.392265 0.500000 0.816291
O O7 0.341844 0.217705 0.875719
O O8 0.182942 0.277263 0.079443
O O9 0.116444 0.272452 0.189600
O O10 0.000000 0.274553 0.102498
O O11 0.101314 0.000000 0.119372
O O12 0.687231 0.500000 0.936276
O O13 0.689633 0.786454 0.000000
O O14 0.675724 0.274524 0.500000
O O15 0.807085 0.290619 0.580415
O O16 0.714080 0.000000 0.562728
O O17 0.904027 0.500000 0.275742
O O18 0.000000 0.212863 0.273117
O O19 0.910256 0.198278 0.500000
O O20 0.000000 0.287658 0.405883
O O21 0.903103 0.000000 0.406393
#
# Coordination Sequence:
#
# PCOD9383487 Si02
#       7
#     8   8   8   8   8   8   8
#     4  10  19  32  52  77 104 136 172 213 267 323
#     4   9  18  35  58  83 109 135 171 222 275 325
#     4  10  20  33  51  77 111 150 188 225 264 306
#     4  10  20  35  57  84 112 144 182 221 266 319
#     4   9  18  31  47  70 100 134 172 215 262 312
#     4   9  17  31  51  74 104 141 181 225 269 315
#     4   7  10  19  36  57  83 118 159 199 238 282
#
# _framework density 22.810945
#
# number of rings (size 3 to 8) (size 9 to 14) (size 15 to 20)
#    0.000    2.857    1.429    1.714    0.000    3.143 
#    0.000    2.857    0.000    2.143    0.000    8.000 
#    0.000    0.000    0.000    0.000    0.000    0.000 
#
# Total GULP energy -312225.412258 kJ/mol
# GULP energy per Si atom -5575.453790 kJ/mol
# Density = 2.275903 g / cm^3
# Si number density = 22.810945 Si / 1000 Ang^3
#
#
#
# Elastic Constant Matrix: (Units=GPa)
#
#
# Indices 1 2 3 4 5 6 
#
# 1 80.6523 3.2494 72.7274 0.0000 0.0000 0.0000
# 2 3.2494 67.3434 5.4286 0.0000 0.0000 0.0000
# 3 72.7274 5.4286 212.2285 0.0000 0.0000 0.0000
# 4 0.0000 0.0000 0.0000 21.6500 0.0000 0.0000
# 5 0.0000 0.0000 0.0000 0.0000 -0.0375 0.0000
# 6 0.0000 0.0000 0.0000 0.0000 0.0000 -22.3681
#
#
#
# Elastic Compliance Matrix: (Units=1/GPa)
#
#
# Indices 1 2 3 4 5 6 
#
# 1 0.017953 -0.000371 -0.006143 0.000000 0.000000 0.000000
# 2 -0.000371 0.014888 -0.000254 0.000000 0.000000 0.000000
# 3 -0.006143 -0.000254 0.006823 0.000000 0.000000 0.000000
# 4 0.000000 0.000000 0.000000 0.046189 0.000000 0.000000
# 5 0.000000 0.000000 0.000000 0.000000-26.650919 0.000000
# 6 0.000000 0.000000 0.000000 0.000000 0.000000 -0.044707
#
#
# Mechanical properties :
#
#
# Convention : Reuss Voigt Hill
#
# Bulk Modulus (GPa) = 38.27147 58.11499 48.19323
# Shear Modulus (GPa) = -0.18806 18.43681 9.12437
#
# Velocity S-wave (km/s) = -0.28744 2.84605 2.00217
# Velocity P-wave (km/s) = 4.08705 6.02761 5.14956
#
# Compressibility (1/GPa) = 0.02612912
#
# Stress axis : x y z
#
# Youngs Moduli (GPa) = 55.70107 67.16990 146.55447
#
# Poissons Ratio (x) = 0.02493 0.90024
# Poissons Ratio (y) = 0.02067 0.03717
# Poissons Ratio (z) = 0.34216 0.01704
#
# Static dielectric constant tensor:
#      x y z
#    x 1.897170 0.000000 0.000000 
#    y 0.000000 1.874300 0.000000 
#    z 0.000000 0.000000 1.884290 
# 
# From -- ./inp_files/11229.got.cif
#   From: 2010.05.17/outbox.cif.g08.bks.cpg/sg47_6_cif.got.tgz:11229.got - 2010.06.03 20:15:42.
