data_PCOD9383532
_publ_section_title
;
Structure prediction by ZEFSAII (Michael W. Deem and Ramdas Pophale) SiO2 
 PCOD9383532
Probable space group: P M M M
;
_chemical_formula_sum "Si O2"
_cell_formula_units_Z 64
_cell_length_a 20.580439
_cell_length_b 20.580395
_cell_length_c 8.750787
_cell_angle_alpha 90.000000
_cell_angle_beta 90.000000
_cell_angle_gamma 90.000000
_cell_volume 3706.427021
_symmetry_space_group_name_H-M "P M M M"
_symmetry_group_IT_number 47
_symmetry_cell_setting 'orthorhombic'
loop_
_space_group_symop_operation_xyz
x,y,z
-x,-y,z
x,-y,-z
-x,y,-z
-x,-y,-z
x,y,-z
-x,y,z
x,-y,z
loop_
_atom_site_type_symbol
_atom_site_label
_atom_site_fract_x
_atom_site_fract_y
_atom_site_fract_z
Si Si1 0.820642 0.820642 0.316097
Si Si2 0.073955 0.073955 0.313909
Si Si3 0.678508 0.175182 0.183195
Si Si4 0.574209 0.574209 0.684171
Si Si5 0.424852 0.075266 0.684180
Si Si6 0.075266 0.424852 0.315820
Si Si7 0.324509 0.675491 0.816693
Si Si8 0.175183 0.678508 0.816805
O O1 0.819198 0.819197 0.500000
O O2 0.873512 0.873512 0.264151
O O3 0.749239 0.838141 0.254304
O O4 0.838141 0.749239 0.254303
O O5 0.074236 0.074236 0.500000
O O6 0.000000 0.089224 0.266202
O O7 0.089223 0.000000 0.266202
O O8 0.625119 0.124743 0.240889
O O9 0.661408 0.249653 0.227267
O O10 0.683602 0.172954 0.000000
O O11 0.575436 0.575436 0.500000
O O12 0.500000 0.589059 0.732278
O O13 0.589058 0.500000 0.732278
O O14 0.625352 0.625352 0.746112
O O15 0.420120 0.079980 0.500000
O O16 0.500000 0.089119 0.725994
O O17 0.411188 0.000000 0.725492
O O18 0.079979 0.420120 0.500000
O O19 0.089118 0.500000 0.274006
O O20 0.124743 0.374881 0.240889
O O21 0.000000 0.411188 0.274507
O O22 0.249653 0.661408 0.772733
O O23 0.328550 0.671449 0.000000
O O24 0.172954 0.683602 0.000000
#
# Coordination Sequence:
#
# PCOD9383532 Si02
#       8
#     8   8   8   8   8   8   8   8
#     4  10  19  32  53  78 103 135 174 215 257 303
#     4   8  15  29  49  74 102 129 161 205 254 300
#     4  10  21  36  52  74 106 139 171 211 259 311
#     4   9  19  35  53  75 102 129 161 204 251 298
#     4   9  19  36  56  78 104 134 172 217 260 307
#     4   9  19  36  56  78 104 134 172 217 260 307
#     4   9  20  36  51  71 101 135 170 206 245 297
#     4  10  21  36  52  74 106 139 171 211 259 311
#
# _framework density 17.267302999999998
#
# number of rings (size 3 to 8) (size 9 to 14) (size 15 to 20)
#    0.000    2.750    0.000    3.375    0.000    6.500 
#    0.000    9.375    0.000    2.250    0.000    3.500 
#    0.000    0.000    0.000    0.000    0.000    0.000 
#
# Total GULP energy -356915.365063 kJ/mol
# GULP energy per Si atom -5576.802579 kJ/mol
# Density = 1.722800 g / cm^3
# Si number density = 17.267303 Si / 1000 Ang^3
#
#
#
# Elastic Constant Matrix: (Units=GPa)
#
#
# Indices 1 2 3 4 5 6 
#
# 1 156.2270 144.5474 49.2054 0.0000 0.0000 0.0000
# 2 144.5474 156.2228 49.2048 0.0000 0.0000 0.0000
# 3 49.2054 49.2048 33.2836 0.0000 0.0000 0.0000
# 4 0.0000 0.0000 0.0000 2.7476 0.0000 0.0000
# 5 0.0000 0.0000 0.0000 0.0000 2.7479 0.0000
# 6 0.0000 0.0000 0.0000 0.0000 0.0000 44.2027
#
#
#
# Elastic Compliance Matrix: (Units=1/GPa)
#
#
# Indices 1 2 3 4 5 6 
#
# 1 0.046037 -0.039598 -0.009520 0.000000 0.000000 0.000000
# 2 -0.039598 0.046038 -0.009520 0.000000 0.000000 0.000000
# 3 -0.009520 -0.009520 0.058193 0.000000 0.000000 0.000000
# 4 0.000000 0.000000 0.000000 0.363950 0.000000 0.000000
# 5 0.000000 0.000000 0.000000 0.000000 0.363917 0.000000
# 6 0.000000 0.000000 0.000000 0.000000 0.000000 0.022623
#
#
# Mechanical properties :
#
#
# Convention : Reuss Voigt Hill
#
# Bulk Modulus (GPa) = 30.31039 92.40540 61.35790
# Shear Modulus (GPa) = 4.85894 16.79136 10.82515
#
# Velocity S-wave (km/s) = 1.67930 3.12177 2.50655
# Velocity P-wave (km/s) = 4.62080 8.16240 6.63237
#
# Compressibility (1/GPa) = 0.03299198
#
# Stress axis : x y z
#
# Youngs Moduli (GPa) = 21.72180 21.72115 17.18411
#
# Poissons Ratio (x) = 0.86011 0.16359
# Poissons Ratio (y) = 0.86013 0.16360
# Poissons Ratio (z) = 0.20679 0.20680
#
# Static dielectric constant tensor:
#      x y z
#    x 1.567510 0.000000 0.000000 
#    y 0.000000 1.567500 0.000000 
#    z 0.000000 0.000000 1.582030 
# 
# From -- ./inp_files/11594.got.cif
#   From: 2010.05.17/outbox.cif.g08.bks.cpg/sg47_6_cif.got.tgz:11594.got - 2010.06.03 20:15:42.
