data_PCOD9383320
_publ_section_title
;
Structure prediction by ZEFSAII (Michael W. Deem and Ramdas Pophale) SiO2 
 PCOD9383320
Probable space group: P M M M
;
_chemical_formula_sum "Si O2"
_cell_formula_units_Z 32
_cell_length_a 7.348049
_cell_length_b 11.107291
_cell_length_c 17.473859
_cell_angle_alpha 90.000000
_cell_angle_beta 90.000000
_cell_angle_gamma 90.000000
_cell_volume 1426.162526
_symmetry_space_group_name_H-M "P M M M"
_symmetry_group_IT_number 47
_symmetry_cell_setting 'orthorhombic'
loop_
_space_group_symop_operation_xyz
x,y,z
-x,-y,z
x,-y,-z
-x,y,-z
-x,-y,-z
x,y,-z
-x,y,z
x,-y,z
loop_
_atom_site_type_symbol
_atom_site_label
_atom_site_fract_x
_atom_site_fract_y
_atom_site_fract_z
Si Si1 0.722348 0.636092 0.811813
Si Si2 0.208081 0.357779 0.500000
Si Si3 0.706171 0.755148 0.658082
Si Si4 0.724251 0.000000 0.589858
Si Si5 0.278938 0.866252 0.910787
O O1 0.500000 0.631854 0.814794
O O2 0.782684 0.500000 0.831070
O O3 0.781407 0.673585 0.725969
O O4 0.780768 0.747795 0.865060
O O5 0.208717 0.500000 0.500000
O O6 0.296661 0.313292 0.577729
O O7 0.000000 0.313643 0.500000
O O8 0.500000 0.782250 0.683162
O O9 0.788258 0.883009 0.635474
O O10 0.500000 0.000000 0.588148
O O11 0.777484 0.000000 0.500000
O O12 0.500000 0.866186 0.907802
O O13 0.221731 0.000000 0.882378
O O14 0.227447 0.857341 0.000000
#
# Coordination Sequence:
#
# PCOD9383320 Si02
#       5
#     8   4   8   4   8
#     4   9  17  26  39  62  87 116 156 195 231 275
#     4  11  23  36  49  66  92 127 162 195 240 293
#     4  10  19  32  50  70  94 121 157 202 242 283
#     4   9  16  28  46  70  89 111 151 194 241 289
#     4   8  14  24  37  56  86 122 153 183 228 282
#
# _framework density 22.437836999999998
#
# number of rings (size 3 to 8) (size 9 to 14) (size 15 to 20)
#    0.000    2.750    1.250    1.875    1.750    2.500 
#    0.000    3.750    0.000    0.000    0.000    0.000 
#    0.000    1.000    0.000    8.000    0.000    8.500 
#
# Total GULP energy -178519.955206 kJ/mol
# GULP energy per Si atom -5578.748600 kJ/mol
# Density = 2.238677 g / cm^3
# Si number density = 22.437837 Si / 1000 Ang^3
#
#
#
# Elastic Constant Matrix: (Units=GPa)
#
#
# Indices 1 2 3 4 5 6 
#
# 1 81.6812 9.0285 -4.9691 0.0000 0.0000 0.0000
# 2 9.0285 231.8871 97.6875 0.0000 0.0000 0.0000
# 3 -4.9691 97.6875 107.3801 0.0000 0.0000 0.0000
# 4 0.0000 0.0000 0.0000 21.4764 0.0000 0.0000
# 5 0.0000 0.0000 0.0000 0.0000 -16.1552 0.0000
# 6 0.0000 0.0000 0.0000 0.0000 0.0000 -18.5048
#
#
#
# Elastic Compliance Matrix: (Units=1/GPa)
#
#
# Indices 1 2 3 4 5 6 
#
# 1 0.012474 -0.001182 0.001652 0.000000 0.000000 0.000000
# 2 -0.001182 0.007104 -0.006518 0.000000 0.000000 0.000000
# 3 0.001652 -0.006518 0.015318 0.000000 0.000000 0.000000
# 4 0.000000 0.000000 0.000000 0.046563 0.000000 0.000000
# 5 0.000000 0.000000 0.000000 0.000000 -0.061900 0.000000
# 6 0.000000 0.000000 0.000000 0.000000 0.000000 -0.054040
#
#
# Mechanical properties :
#
#
# Convention : Reuss Voigt Hill
#
# Bulk Modulus (GPa) = 43.85500 69.38249 56.61874
# Shear Modulus (GPa) = -338.16661 18.64337 -159.76162
#
# Velocity S-wave (km/s) = -12.28983 2.88564 -8.44727
# Velocity P-wave (km/s) = 13.48328 6.48782 8.35784
#
# Compressibility (1/GPa) = 0.02280242
#
# Stress axis : x y z
#
# Youngs Moduli (GPa) = 80.16767 140.76346 65.28083
#
# Poissons Ratio (x) = 0.16635 -0.10786
# Poissons Ratio (y) = 0.09474 0.42547
# Poissons Ratio (z) = -0.13246 0.91743
#
# Static dielectric constant tensor:
#      x y z
#    x 1.899580 0.000000 0.000000 
#    y 0.000000 1.834770 0.000000 
#    z 0.000000 0.000000 1.798380 
# 
# From -- ./inp_files/8575.got.cif
#   From: 2010.05.17/outbox.cif.g08.bks.cpg/sg47_5_cif.got.tgz:8575.got - 2010.06.03 20:15:42.
