data_PCOD9383873
_publ_section_title
;
Structure prediction by ZEFSAII (Michael W. Deem and Ramdas Pophale) SiO2 
 PCOD9383873
Probable space group: P M M M
;
_chemical_formula_sum "Si O2"
_cell_formula_units_Z 52
_cell_length_a 12.103671
_cell_length_b 29.301671
_cell_length_c 9.113743
_cell_angle_alpha 90.000000
_cell_angle_beta 90.000000
_cell_angle_gamma 90.000000
_cell_volume 3232.259910
_symmetry_space_group_name_H-M "P M M M"
_symmetry_group_IT_number 47
_symmetry_cell_setting 'orthorhombic'
loop_
_space_group_symop_operation_xyz
x,y,z
-x,-y,z
x,-y,-z
-x,y,-z
-x,-y,-z
x,y,-z
-x,y,z
x,-y,z
loop_
_atom_site_type_symbol
_atom_site_label
_atom_site_fract_x
_atom_site_fract_y
_atom_site_fract_z
Si Si1 0.127776 0.500000 0.178986
Si Si2 0.128744 0.132612 0.176205
Si Si3 0.865519 0.599245 0.829817
Si Si4 0.500000 0.093059 0.676244
Si Si5 0.259028 0.224955 0.176529
Si Si6 0.500000 0.192191 0.823617
Si Si7 0.130112 0.307411 0.324985
Si Si8 0.263101 0.052046 0.323172
O O1 0.175709 0.549293 0.221957
O O2 0.000000 0.500000 0.228539
O O3 0.126342 0.500000 0.000000
O O4 0.195575 0.178239 0.217760
O O5 0.182400 0.088751 0.251486
O O6 0.000000 0.137457 0.214371
O O7 0.137484 0.127877 0.000000
O O8 0.834527 0.642987 0.735111
O O9 0.000000 0.596697 0.827625
O O10 0.833522 0.606025 0.000000
O O11 0.500000 0.098765 0.500000
O O12 0.500000 0.142450 0.750751
O O13 0.611269 0.066017 0.715844
O O14 0.387544 0.218360 0.215768
O O15 0.201449 0.267615 0.252713
O O16 0.250566 0.229997 0.000000
O O17 0.500000 0.185991 0.000000
O O18 0.138944 0.306080 0.500000
O O19 0.000000 0.301156 0.285770
O O20 0.253918 0.054455 0.500000
O O21 0.240375 0.000000 0.278102
#
# Coordination Sequence:
#
# PCOD9383873 Si02
#       8
#     4   8   8   4   8   4   8   8
#     4   7  10  18  35  59  85 118 163 206 239 277
#     4  10  21  36  54  75  98 126 160 196 235 281
#     4   8  13  23  40  61  88 125 166 204 241 280
#     4  10  19  34  56  78 100 124 153 191 235 282
#     4  10  20  35  54  73  94 121 155 195 242 290
#     4  10  20  35  57  79  96 115 149 198 243 288
#     4  10  20  31  44  67  99 132 166 201 235 277
#     4  10  21  36  54  76 101 129 159 191 230 279
#
# _framework density 16.087814000000002
#
# number of rings (size 3 to 8) (size 9 to 14) (size 15 to 20)
#    0.000    2.538    1.538    2.077    0.000    4.615 
#    0.000    1.923    0.000    3.692    0.000    0.000 
#    0.000    0.615    0.000    7.077    0.000    4.923 
#
# Total GULP energy -289832.444660 kJ/mol
# GULP energy per Si atom -5573.700859 kJ/mol
# Density = 1.605120 g / cm^3
# Si number density = 16.087814 Si / 1000 Ang^3
#
#
#
# Elastic Constant Matrix: (Units=GPa)
#
#
# Indices 1 2 3 4 5 6 
#
# 1 98.8497 72.6548 33.1865 0.0000 0.0000 0.0000
# 2 72.6548 177.9994 49.4045 0.0000 0.0000 0.0000
# 3 33.1865 49.4045 21.6833 0.0000 0.0000 0.0000
# 4 0.0000 0.0000 0.0000 -7.4855 0.0000 0.0000
# 5 0.0000 0.0000 0.0000 0.0000 19.8050 0.0000
# 6 0.0000 0.0000 0.0000 0.0000 0.0000 -0.5467
#
#
#
# Elastic Compliance Matrix: (Units=1/GPa)
#
#
# Indices 1 2 3 4 5 6 
#
# 1 0.020867 0.000944 -0.034087 0.000000 0.000000 0.000000
# 2 0.000944 0.015325 -0.036362 0.000000 0.000000 0.000000
# 3 -0.034087 -0.036362 0.181138 0.000000 0.000000 0.000000
# 4 0.000000 0.000000 0.000000 -0.133592 0.000000 0.000000
# 5 0.000000 0.000000 0.000000 0.000000 0.050492 0.000000
# 6 0.000000 0.000000 0.000000 0.000000 0.000000 -1.829196
#
#
# Mechanical properties :
#
#
# Convention : Reuss Voigt Hill
#
# Bulk Modulus (GPa) = 12.76818 67.66933 40.21876
# Shear Modulus (GPa) = -3.26830 11.90701 4.31935
#
# Velocity S-wave (km/s) = -1.42687 2.72348 1.64033
# Velocity P-wave (km/s) = 2.28893 7.21412 5.35176
#
# Compressibility (1/GPa) = 0.07831967
#
# Stress axis : x y z
#
# Youngs Moduli (GPa) = 47.92357 65.25128 5.52064
#
# Poissons Ratio (x) = -0.06158 0.18818
# Poissons Ratio (y) = -0.04522 0.20074
# Poissons Ratio (z) = 1.63355 2.37270
#
# Static dielectric constant tensor:
#      x y z
#    x 1.526440 0.000000 0.000000 
#    y 0.000000 1.537820 0.000000 
#    z 0.000000 0.000000 1.535090 
# 
# From -- ./inp_files/4614.got.cif
#   From: 2010.05.17/outbox.cif.g08.bks.cpg/sg47_3_cif.got.tgz:4614.got - 2010.06.03 20:15:42.
