data_PCOD9383709
_publ_section_title
;
Structure prediction by ZEFSAII (Michael W. Deem and Ramdas Pophale) SiO2 
 PCOD9383709
Probable space group: P M M M
;
_chemical_formula_sum "Si O2"
_cell_formula_units_Z 64
_cell_length_a 8.734910
_cell_length_b 21.268114
_cell_length_c 20.050670
_cell_angle_alpha 90.000000
_cell_angle_beta 90.000000
_cell_angle_gamma 90.000000
_cell_volume 3724.914456
_symmetry_space_group_name_H-M "P M M M"
_symmetry_group_IT_number 47
_symmetry_cell_setting 'orthorhombic'
loop_
_space_group_symop_operation_xyz
x,y,z
-x,-y,z
x,-y,-z
-x,y,-z
-x,-y,-z
x,y,-z
-x,y,z
x,-y,z
loop_
_atom_site_type_symbol
_atom_site_label
_atom_site_fract_x
_atom_site_fract_y
_atom_site_fract_z
Si Si1 0.183120 0.247403 0.425451
Si Si2 0.817658 0.429611 0.288522
Si Si3 0.682125 0.313187 0.792161
Si Si4 0.184718 0.806882 0.286117
Si Si5 0.682628 0.386797 0.575379
Si Si6 0.815213 0.069695 0.207375
Si Si7 0.316608 0.874806 0.075580
Si Si8 0.817152 0.265652 0.076148
O O1 0.214579 0.222682 0.500000
O O2 0.223107 0.202585 0.363947
O O3 0.270022 0.313543 0.418092
O O4 0.000000 0.260205 0.421334
O O5 0.778755 0.500000 0.265223
O O6 0.738418 0.374987 0.246232
O O7 0.765520 0.422452 0.365151
O O8 0.000000 0.421121 0.284724
O O9 0.500000 0.310730 0.792572
O O10 0.746126 0.251796 0.753900
O O11 0.746501 0.309173 0.867087
O O12 0.235936 0.872768 0.254360
O O13 0.000000 0.803450 0.279732
O O14 0.724977 0.406704 0.500000
O O15 0.500000 0.393045 0.582496
O O16 0.752912 0.082873 0.133457
O O17 0.000000 0.071486 0.205317
O O18 0.768270 0.000000 0.229893
O O19 0.500000 0.873182 0.081260
O O20 0.251765 0.804281 0.084643
O O21 0.277095 0.895003 0.000000
O O22 0.000000 0.261981 0.084553
O O23 0.784151 0.285512 0.000000
#
# Coordination Sequence:
#
# PCOD9383709 Si02
#       8
#     8   8   8   8   8   8   8   8
#     4   9  17  30  51  77 104 137 178 224 272 323
#     4  11  24  40  57  78 108 148 190 228 269 321
#     4  12  23  35  57  85 112 142 178 224 275 323
#     4  10  19  33  54  77 105 141 183 227 269 324
#     4  10  20  33  51  78 112 146 180 222 272 325
#     4  10  21  35  51  73 104 145 187 227 274 328
#     4  10  20  33  50  75 107 141 178 222 271 320
#     4  10  20  35  57  83 111 143 179 220 266 319
#
# _framework density 17.181602000000002
#
# number of rings (size 3 to 8) (size 9 to 14) (size 15 to 20)
#    0.000    1.750    2.500    2.625    0.000    4.000 
#    0.000    2.500    0.000    0.750    0.000    5.250 
#    0.000    0.000    0.000    5.375    0.000    5.750 
#
# Total GULP energy -357308.455086 kJ/mol
# GULP energy per Si atom -5582.944611 kJ/mol
# Density = 1.714250 g / cm^3
# Si number density = 17.181602 Si / 1000 Ang^3
#
#
#
# Elastic Constant Matrix: (Units=GPa)
#
#
# Indices 1 2 3 4 5 6 
#
# 1 31.2996 30.5569 30.7309 0.0000 0.0000 0.0000
# 2 30.5569 103.4307 60.9145 0.0000 0.0000 0.0000
# 3 30.7309 60.9145 106.1363 0.0000 0.0000 0.0000
# 4 0.0000 0.0000 0.0000 21.0948 0.0000 0.0000
# 5 0.0000 0.0000 0.0000 0.0000 23.0458 0.0000
# 6 0.0000 0.0000 0.0000 0.0000 0.0000 -32.0146
#
#
#
# Elastic Compliance Matrix: (Units=1/GPa)
#
#
# Indices 1 2 3 4 5 6 
#
# 1 0.050090 -0.009451 -0.009079 0.000000 0.000000 0.000000
# 2 -0.009451 0.016388 -0.006669 0.000000 0.000000 0.000000
# 3 -0.009079 -0.006669 0.015878 0.000000 0.000000 0.000000
# 4 0.000000 0.000000 0.000000 0.047405 0.000000 0.000000
# 5 0.000000 0.000000 0.000000 0.000000 0.043392 0.000000
# 6 0.000000 0.000000 0.000000 0.000000 0.000000 -0.031236
#
#
# Mechanical properties :
#
#
# Convention : Reuss Voigt Hill
#
# Bulk Modulus (GPa) = 31.29106 53.91901 42.60503
# Shear Modulus (GPa) = 24.63430 10.33617 17.48523
#
# Velocity S-wave (km/s) = 3.79061 2.45538 3.19356
# Velocity P-wave (km/s) = 6.11635 6.28399 6.20074
#
# Compressibility (1/GPa) = 0.03195801
#
# Stress axis : x y z
#
# Youngs Moduli (GPa) = 19.96394 61.01929 62.97985
#
# Poissons Ratio (x) = 0.57672 0.57178
# Poissons Ratio (y) = 0.18869 0.42002
# Poissons Ratio (z) = 0.18125 0.40694
#
# Static dielectric constant tensor:
#      x y z
#    x 1.572100 0.000000 0.000000 
#    y 0.000000 1.567500 0.000000 
#    z 0.000000 0.000000 1.598300 
# 
# From -- ./inp_files/30022.got.cif
#   From: 2010.05.17/outbox.cif.g08.bks.cpg/sg47_16_cif.got.tgz:30022.got - 2010.06.03 20:15:42.
