data_PCOD9383906
_publ_section_title
;
Structure prediction by ZEFSAII (Michael W. Deem and Ramdas Pophale) SiO2 
 PCOD9383906
Probable space group: P M M M
;
_chemical_formula_sum "Si O2"
_cell_formula_units_Z 48
_cell_length_a 7.753195
_cell_length_b 17.306629
_cell_length_c 16.608059
_cell_angle_alpha 90.000000
_cell_angle_beta 90.000000
_cell_angle_gamma 90.000000
_cell_volume 2228.497083
_symmetry_space_group_name_H-M "P M M M"
_symmetry_group_IT_number 47
_symmetry_cell_setting 'orthorhombic'
loop_
_space_group_symop_operation_xyz
x,y,z
-x,-y,z
x,-y,-z
-x,y,-z
-x,-y,-z
x,y,-z
-x,y,z
x,-y,z
loop_
_atom_site_type_symbol
_atom_site_label
_atom_site_fract_x
_atom_site_fract_y
_atom_site_fract_z
Si Si1 0.793503 0.334209 0.660938
Si Si2 0.790739 0.664967 0.158165
Si Si3 0.789635 0.500000 0.092845
Si Si4 0.792017 0.822186 0.587860
Si Si5 0.707544 0.911866 0.248237
Si Si6 0.294923 0.500000 0.409430
Si Si7 0.704934 0.174744 0.911806
O O1 0.729190 0.319112 0.751178
O O2 0.730648 0.266000 0.603014
O O3 0.755925 0.421066 0.634254
O O4 0.000000 0.327460 0.663473
O O5 0.732038 0.579575 0.133206
O O6 0.731671 0.733918 0.101243
O O7 0.000000 0.664944 0.157137
O O8 0.000000 0.500000 0.096347
O O9 0.739003 0.500000 0.000000
O O10 0.729718 0.850019 0.500000
O O11 0.747229 0.870547 0.667237
O O12 0.000000 0.821564 0.584557
O O13 0.500000 0.913178 0.242031
O O14 0.774544 0.867233 0.168594
O O15 0.770528 0.000000 0.248948
O O16 0.500000 0.500000 0.414210
O O17 0.221851 0.500000 0.500000
O O18 0.500000 0.159738 0.913590
O O19 0.775019 0.151824 0.000000
#
# Coordination Sequence:
#
# PCOD9383906 Si02
#       7
#     8   8   4   8   8   4   8
#     4  10  20  36  58  81 109 150 197 240 285 338
#     4  10  19  34  57  81 108 147 193 236 279 332
#     4   9  17  28  45  75 110 141 178 223 267 316
#     4  10  21  38  61  88 116 149 190 238 292 345
#     4  10  22  40  61  85 115 151 190 234 285 345
#     4  11  24  37  51  79 116 153 196 242 287 335
#     4  10  21  37  58  85 117 151 188 233 286 341
#
# _framework density 21.539180999999999
#
# number of rings (size 3 to 8) (size 9 to 14) (size 15 to 20)
#    0.000    2.000    1.667    1.750    0.000    6.333 
#    0.000    3.750    0.000    1.500    0.000    2.333 
#    0.000    0.000    0.000    0.000    0.000    0.000 
#
# Total GULP energy -268044.221276 kJ/mol
# GULP energy per Si atom -5584.254610 kJ/mol
# Density = 2.149016 g / cm^3
# Si number density = 21.539181 Si / 1000 Ang^3
#
#
#
# Elastic Constant Matrix: (Units=GPa)
#
#
# Indices 1 2 3 4 5 6 
#
# 1 29.6520 -0.1282 11.5807 0.0000 0.0000 0.0000
# 2 -0.1282 135.4983 78.3464 0.0000 0.0000 0.0000
# 3 11.5807 78.3464 196.5729 0.0000 0.0000 0.0000
# 4 0.0000 0.0000 0.0000 14.8295 0.0000 0.0000
# 5 0.0000 0.0000 0.0000 0.0000 -1.0106 0.0000
# 6 0.0000 0.0000 0.0000 0.0000 0.0000 14.4743
#
#
#
# Elastic Compliance Matrix: (Units=1/GPa)
#
#
# Indices 1 2 3 4 5 6 
#
# 1 0.034778 0.001582 -0.002679 0.000000 0.000000 0.000000
# 2 0.001582 0.009662 -0.003944 0.000000 0.000000 0.000000
# 3 -0.002679 -0.003944 0.006817 0.000000 0.000000 0.000000
# 4 0.000000 0.000000 0.000000 0.067433 0.000000 0.000000
# 5 0.000000 0.000000 0.000000 0.000000 -0.989524 0.000000
# 6 0.000000 0.000000 0.000000 0.000000 0.000000 0.069088
#
#
# Mechanical properties :
#
#
# Convention : Reuss Voigt Hill
#
# Bulk Modulus (GPa) = 24.28710 60.14680 42.21695
# Shear Modulus (GPa) = -6.42725 23.78691 8.67983
#
# Velocity S-wave (km/s) = -1.72929 3.32679 2.00961
# Velocity P-wave (km/s) = 2.70425 6.53771 5.00273
#
# Compressibility (1/GPa) = 0.04117413
#
# Stress axis : x y z
#
# Youngs Moduli (GPa) = 28.75395 103.49558 146.69126
#
# Poissons Ratio (x) = -0.16375 0.39305
# Poissons Ratio (y) = -0.04549 0.57858
# Poissons Ratio (z) = 0.07705 0.40821
#
# Static dielectric constant tensor:
#      x y z
#    x 1.796750 0.000000 0.000000 
#    y 0.000000 1.797680 0.000000 
#    z 0.000000 0.000000 1.800370 
# 
# From -- ./inp_files/21075.got.cif
#   From: 2010.05.17/outbox.cif.g08.bks.cpg/sg47_11_cif.got.tgz:21075.got - 2010.06.03 20:15:42.
