data_PCOD9383627
_publ_section_title
;
Structure prediction by ZEFSAII (Michael W. Deem and Ramdas Pophale) SiO2 
 PCOD9383627
Probable space group: P M M M
;
_chemical_formula_sum "Si O2"
_cell_formula_units_Z 56
_cell_length_a 23.692405
_cell_length_b 8.528520
_cell_length_c 14.521975
_cell_angle_alpha 90.000000
_cell_angle_beta 90.000000
_cell_angle_gamma 90.000000
_cell_volume 2934.326967
_symmetry_space_group_name_H-M "P M M M"
_symmetry_group_IT_number 47
_symmetry_cell_setting 'orthorhombic'
loop_
_space_group_symop_operation_xyz
x,y,z
-x,-y,z
x,-y,-z
-x,y,-z
-x,-y,-z
x,y,-z
-x,y,z
x,-y,z
loop_
_atom_site_type_symbol
_atom_site_label
_atom_site_fract_x
_atom_site_fract_y
_atom_site_fract_z
Si Si1 0.110919 0.815559 0.390047
Si Si2 0.861169 0.500000 0.899269
Si Si3 0.235592 0.830465 0.313007
Si Si4 0.436337 0.187922 0.729352
Si Si5 0.767335 0.767094 0.896570
Si Si6 0.358464 0.187785 0.896461
Si Si7 0.933316 0.500000 0.287804
Si Si8 0.658581 0.683362 0.604191
O O1 0.102450 0.804278 0.500000
O O2 0.177071 0.798387 0.364432
O O3 0.082195 0.663819 0.341219
O O4 0.095547 0.000000 0.363841
O O5 0.817418 0.642913 0.897012
O O6 0.900495 0.500000 0.809944
O O7 0.890554 0.500000 0.000000
O O8 0.224405 0.840387 0.204055
O O9 0.285322 0.712226 0.336134
O O10 0.257224 0.000000 0.344502
O O11 0.500000 0.249867 0.721953
O O12 0.403158 0.240249 0.821155
O O13 0.395241 0.230964 0.646317
O O14 0.439736 0.000000 0.735345
O O15 0.701021 0.721718 0.891342
O O16 0.770605 0.839669 0.000000
O O17 0.344988 0.000000 0.881242
O O18 0.380774 0.200843 0.000000
O O19 0.000000 0.500000 0.272822
O O20 0.670441 0.734709 0.500000
O O21 0.645972 0.500000 0.604369
#
# Coordination Sequence:
#
# PCOD9383627 Si02
#       8
#     8   4   8   8   8   8   4   8
#     4  10  23  42  65  97 134 171 213 264 322 381
#     4  10  22  40  61  92 129 167 209 256 309 371
#     4  11  21  36  61  91 123 156 190 244 311 372
#     4  10  21  37  57  80 108 147 194 241 290 349
#     4  10  19  32  56  88 122 154 190 238 299 364
#     4   9  17  31  53  83 116 146 180 229 292 360
#     4  12  25  43  70  97 129 177 225 268 312 364
#     4  11  25  40  57  81 109 147 193 245 304 368
#
# _framework density 19.084446
#
# number of rings (size 3 to 8) (size 9 to 14) (size 15 to 20)
#    0.000    1.714    2.857    1.500    2.000    4.429 
#    0.000    3.571    0.000    0.429    0.000    2.000 
#    0.000    0.000    0.000    0.000    0.000    0.000 
#
# Total GULP energy -311776.783239 kJ/mol
# GULP energy per Si atom -5567.442558 kJ/mol
# Density = 1.904101 g / cm^3
# Si number density = 19.084446 Si / 1000 Ang^3
#
#
#
# Elastic Constant Matrix: (Units=GPa)
#
#
# Indices 1 2 3 4 5 6 
#
# 1 97.1829 50.4823 50.7671 0.0000 0.0000 0.0000
# 2 50.4823 57.9689 44.2448 0.0000 0.0000 0.0000
# 3 50.7671 44.2448 130.6899 0.0000 0.0000 0.0000
# 4 0.0000 0.0000 0.0000 20.1477 0.0000 0.0000
# 5 0.0000 0.0000 0.0000 0.0000 3.4303 0.0000
# 6 0.0000 0.0000 0.0000 0.0000 0.0000 33.4206
#
#
#
# Elastic Compliance Matrix: (Units=1/GPa)
#
#
# Indices 1 2 3 4 5 6 
#
# 1 0.019352 -0.014988 -0.002443 0.000000 0.000000 0.000000
# 2 -0.014988 0.034869 -0.005983 0.000000 0.000000 0.000000
# 3 -0.002443 -0.005983 0.010626 0.000000 0.000000 0.000000
# 4 0.000000 0.000000 0.000000 0.049634 0.000000 0.000000
# 5 0.000000 0.000000 0.000000 0.000000 0.291517 0.000000
# 6 0.000000 0.000000 0.000000 0.000000 0.000000 0.029922
#
#
# Mechanical properties :
#
#
# Convention : Reuss Voigt Hill
#
# Bulk Modulus (GPa) = 55.49513 64.09223 59.79368
# Shear Modulus (GPa) = 10.23012 20.75622 15.49317
#
# Velocity S-wave (km/s) = 2.31778 3.30145 2.85234
# Velocity P-wave (km/s) = 6.02533 6.94184 6.49976
#
# Compressibility (1/GPa) = 0.01801960
#
# Stress axis : x y z
#
# Youngs Moduli (GPa) = 51.67541 28.67877 94.10661
#
# Poissons Ratio (x) = 0.42983 0.22992
# Poissons Ratio (y) = 0.77449 0.56302
# Poissons Ratio (z) = 0.12625 0.17158
#
# Static dielectric constant tensor:
#      x y z
#    x 1.616310 0.000000 0.000000 
#    y 0.000000 1.647100 0.000000 
#    z 0.000000 0.000000 1.690090 
# 
# From -- ./inp_files/25204.got.cif
#   From: 2010.05.17/outbox.cif.g08.bks.cpg/sg47_13_cif.got.tgz:25204.got - 2010.06.03 20:15:42.
