data_PCOD9383404
_publ_section_title
;
Structure prediction by ZEFSAII (Michael W. Deem and Ramdas Pophale) SiO2 
 PCOD9383404
Probable space group: P M M M
;
_chemical_formula_sum "Si O2"
_cell_formula_units_Z 40
_cell_length_a 7.525117
_cell_length_b 29.192831
_cell_length_c 8.242317
_cell_angle_alpha 90.000000
_cell_angle_beta 90.000000
_cell_angle_gamma 90.000000
_cell_volume 1810.667821
_symmetry_space_group_name_H-M "P M M M"
_symmetry_group_IT_number 47
_symmetry_cell_setting 'orthorhombic'
loop_
_space_group_symop_operation_xyz
x,y,z
-x,-y,z
x,-y,-z
-x,y,-z
-x,-y,-z
x,y,-z
-x,y,z
x,-y,z
loop_
_atom_site_type_symbol
_atom_site_label
_atom_site_fract_x
_atom_site_fract_y
_atom_site_fract_z
Si Si1 0.785887 0.204984 0.185515
Si Si2 0.206095 0.398918 0.175319
Si Si3 0.709527 0.694513 0.682767
Si Si4 0.782891 0.052861 0.000000
Si Si5 0.217117 0.891702 0.680240
Si Si6 0.217202 0.446691 0.500000
O O1 0.736236 0.253835 0.258295
O O2 0.727254 0.160793 0.286884
O O3 0.000000 0.203241 0.182264
O O4 0.722802 0.201135 0.000000
O O5 0.210522 0.344325 0.203323
O O6 0.282770 0.422119 0.336484
O O7 0.000000 0.413238 0.169377
O O8 0.286516 0.410041 0.000000
O O9 0.781041 0.689424 0.500000
O O10 0.500000 0.685721 0.679765
O O11 0.725583 0.078386 0.164976
O O12 0.000000 0.054281 0.000000
O O13 0.728862 0.000000 0.000000
O O14 0.273891 0.906650 0.500000
O O15 0.000000 0.892736 0.680689
O O16 0.262368 0.500000 0.500000
O O17 0.000000 0.442907 0.500000
#
# Coordination Sequence:
#
# PCOD9383404 Si02
#       6
#     8   8   8   4   8   4
#     4  10  19  32  51  74 101 135 176 219 262 314
#     4  10  20  35  57  83 110 143 181 217 260 316
#     4  11  23  36  51  75 108 143 178 219 267 316
#     4   9  16  26  40  62  95 131 169 213 258 309
#     4   9  16  27  43  64  93 129 168 210 256 306
#     4   9  18  34  57  85 115 143 175 223 270 305
#
# _framework density 22.091296
#
# number of rings (size 3 to 8) (size 9 to 14) (size 15 to 20)
#    0.000    2.200    2.000    1.800    0.000    6.000 
#    0.000    4.000    0.000    1.200    0.000    1.400 
#    0.000    1.600    0.000    4.200    0.000    4.000 
#
# Total GULP energy -223469.875297 kJ/mol
# GULP energy per Si atom -5586.746882 kJ/mol
# Density = 2.204102 g / cm^3
# Si number density = 22.091296 Si / 1000 Ang^3
#
#
#
# Elastic Constant Matrix: (Units=GPa)
#
#
# Indices 1 2 3 4 5 6 
#
# 1 58.0741 -4.9210 9.4556 0.0000 0.0000 0.0000
# 2 -4.9210 132.7613 86.6842 0.0000 0.0000 0.0000
# 3 9.4556 86.6842 231.8647 0.0000 0.0000 0.0000
# 4 0.0000 0.0000 0.0000 -192.2199 0.0000 0.0000
# 5 0.0000 0.0000 0.0000 0.0000 -6.8033 0.0000
# 6 0.0000 0.0000 0.0000 0.0000 0.0000 -96.9507
#
#
#
# Elastic Compliance Matrix: (Units=1/GPa)
#
#
# Indices 1 2 3 4 5 6 
#
# 1 0.017551 0.001479 -0.001269 0.000000 0.000000 0.000000
# 2 0.001479 0.010089 -0.003832 0.000000 0.000000 0.000000
# 3 -0.001269 -0.003832 0.005797 0.000000 0.000000 0.000000
# 4 0.000000 0.000000 0.000000 -0.005202 0.000000 0.000000
# 5 0.000000 0.000000 0.000000 0.000000 -0.146987 0.000000
# 6 0.000000 0.000000 0.000000 0.000000 0.000000 -0.010315
#
#
# Mechanical properties :
#
#
# Convention : Reuss Voigt Hill
#
# Bulk Modulus (GPa) = 38.17686 67.23753 52.70719
# Shear Modulus (GPa) = -44.21253 -37.09603 -40.65428
#
# Velocity S-wave (km/s) = -4.47850 -4.10227 -4.29451
# Velocity P-wave (km/s) = 3.06981 2.83974 0.82450
#
# Compressibility (1/GPa) = 0.02619388
#
# Stress axis : x y z
#
# Youngs Moduli (GPa) = 56.97598 99.11433 172.49337
#
# Poissons Ratio (x) = -0.14658 0.21884
# Poissons Ratio (y) = -0.08426 0.66104
# Poissons Ratio (z) = 0.07228 0.37983
#
# Static dielectric constant tensor:
#      x y z
#    x 1.820110 0.000000 0.000000 
#    y 0.000000 1.754870 0.000000 
#    z 0.000000 0.000000 1.818060 
# 
# From -- ./inp_files/1888.got.cif
#   From: 2010.05.17/outbox.cif.g08.bks.cpg/sg47_1_cif.got.tgz:1888.got - 2010.06.03 20:15:42.
