data_PCOD9383328
_publ_section_title
;
Structure prediction by ZEFSAII (Michael W. Deem and Ramdas Pophale) SiO2 
 PCOD9383328
Probable space group: P M M M
;
_chemical_formula_sum "Si O2"
_cell_formula_units_Z 52
_cell_length_a 14.023153
_cell_length_b 23.258520
_cell_length_c 7.617864
_cell_angle_alpha 90.000000
_cell_angle_beta 90.000000
_cell_angle_gamma 90.000000
_cell_volume 2484.625645
_symmetry_space_group_name_H-M "P M M M"
_symmetry_group_IT_number 47
_symmetry_cell_setting 'orthorhombic'
loop_
_space_group_symop_operation_xyz
x,y,z
-x,-y,z
x,-y,-z
-x,y,-z
-x,-y,-z
x,y,-z
-x,y,z
x,-y,z
loop_
_atom_site_type_symbol
_atom_site_label
_atom_site_fract_x
_atom_site_fract_y
_atom_site_fract_z
Si Si1 0.105597 0.263439 0.208991
Si Si2 0.607659 0.253133 0.708730
Si Si3 0.106247 0.934419 0.289571
Si Si4 0.306441 0.628371 0.715288
Si Si5 0.755198 0.832906 0.792095
Si Si6 0.104477 0.394894 0.700631
Si Si7 0.500000 0.434512 0.286050
O O1 0.176910 0.216896 0.284017
O O2 0.106219 0.325206 0.299263
O O3 0.000000 0.238672 0.227265
O O4 0.120895 0.273649 0.000000
O O5 0.602340 0.261805 0.500000
O O6 0.500000 0.258884 0.778597
O O7 0.676118 0.305252 0.773789
O O8 0.651306 0.189901 0.738970
O O9 0.101027 0.936240 0.500000
O O10 0.194614 0.892997 0.248665
O O11 0.000000 0.915070 0.226491
O O12 0.120539 0.000000 0.226876
O O13 0.299941 0.627932 0.500000
O O14 0.210190 0.596106 0.778732
O O15 0.403147 0.596669 0.767955
O O16 0.758465 0.827879 0.000000
O O17 0.104061 0.416464 0.500000
O O18 0.000000 0.411133 0.778537
O O19 0.500000 0.500000 0.228815
O O20 0.500000 0.433112 0.500000
#
# Coordination Sequence:
#
# PCOD9383328 Si02
#       7
#     8   8   8   8   8   8   4
#     4   9  17  27  38  59  94 127 154 186 226 279
#     4  10  19  32  50  70  95 129 167 211 262 311
#     4   9  19  36  56  77 102 135 176 216 250 292
#     4   9  15  26  43  65  95 126 163 209 252 301
#     4  11  21  31  47  72 103 134 165 203 255 311
#     4   9  16  25  40  62  89 123 158 193 239 295
#     4   9  16  26  44  70  97 129 168 211 258 301
#
# _framework density 20.928706999999999
#
# number of rings (size 3 to 8) (size 9 to 14) (size 15 to 20)
#    0.000    2.538    2.308    1.385    0.000    2.154 
#    0.000    2.308    0.000    0.923    0.000    6.462 
#    0.000    4.923    0.000    3.846    0.000    4.000 
#
# Total GULP energy -289639.369577 kJ/mol
# GULP energy per Si atom -5569.987876 kJ/mol
# Density = 2.088107 g / cm^3
# Si number density = 20.928707 Si / 1000 Ang^3
#
#
#
# Elastic Constant Matrix: (Units=GPa)
#
#
# Indices 1 2 3 4 5 6 
#
# 1 167.4126 36.7835 5.7823 0.0000 0.0000 0.0000
# 2 36.7835 59.2202 -6.9939 0.0000 0.0000 0.0000
# 3 5.7823 -6.9939 45.0844 0.0000 0.0000 0.0000
# 4 0.0000 0.0000 0.0000 41.6944 0.0000 0.0000
# 5 0.0000 0.0000 0.0000 0.0000 -2.8613 0.0000
# 6 0.0000 0.0000 0.0000 0.0000 0.0000 -3.3108
#
#
#
# Elastic Compliance Matrix: (Units=1/GPa)
#
#
# Indices 1 2 3 4 5 6 
#
# 1 0.007030 -0.004556 -0.001608 0.000000 0.000000 0.000000
# 2 -0.004556 0.020155 0.003711 0.000000 0.000000 0.000000
# 3 -0.001608 0.003711 0.022963 0.000000 0.000000 0.000000
# 4 0.000000 0.000000 0.000000 0.023984 0.000000 0.000000
# 5 0.000000 0.000000 0.000000 0.000000 -0.349490 0.000000
# 6 0.000000 0.000000 0.000000 0.000000 0.000000 -0.302040
#
#
# Mechanical properties :
#
#
# Convention : Reuss Voigt Hill
#
# Bulk Modulus (GPa) = 22.10476 38.09566 30.10021
# Shear Modulus (GPa) = -8.97004 22.84746 6.93871
#
# Velocity S-wave (km/s) = -2.07251 3.30764 1.82280
# Velocity P-wave (km/s) = 2.20404 5.72970 4.34092
#
# Compressibility (1/GPa) = 0.04523912
#
# Stress axis : x y z
#
# Youngs Moduli (GPa) = 142.24822 49.61649 43.54908
#
# Poissons Ratio (x) = 0.22608 0.07005
# Poissons Ratio (y) = 0.64815 -0.16161
# Poissons Ratio (z) = 0.22880 -0.18412
#
# Static dielectric constant tensor:
#      x y z
#    x 1.859710 0.000000 0.000000 
#    y 0.000000 1.744050 0.000000 
#    z 0.000000 0.000000 1.767620 
# 
# From -- ./inp_files/7002.got.cif
#   From: 2010.05.17/outbox.cif.g08.bks.cpg/sg47_4_cif.got.tgz:7002.got - 2010.06.03 20:15:42.
