data_PCOD9383580
_publ_section_title
;
Structure prediction by ZEFSAII (Michael W. Deem and Ramdas Pophale) SiO2 
 PCOD9383580
Probable space group: P M M M
;
_chemical_formula_sum "Si O2"
_cell_formula_units_Z 52
_cell_length_a 14.948419
_cell_length_b 8.223004
_cell_length_c 21.289198
_cell_angle_alpha 90.000000
_cell_angle_beta 90.000000
_cell_angle_gamma 90.000000
_cell_volume 2616.887575
_symmetry_space_group_name_H-M "P M M M"
_symmetry_group_IT_number 47
_symmetry_cell_setting 'orthorhombic'
loop_
_space_group_symop_operation_xyz
x,y,z
-x,-y,z
x,-y,-z
-x,y,-z
-x,-y,-z
x,y,-z
-x,y,z
x,-y,z
loop_
_atom_site_type_symbol
_atom_site_label
_atom_site_fract_x
_atom_site_fract_y
_atom_site_fract_z
Si Si1 0.196805 0.306999 0.570962
Si Si2 0.901714 0.308188 0.095554
Si Si3 0.097206 0.803889 0.761718
Si Si4 0.000000 0.816136 0.576374
Si Si5 0.396796 0.199112 0.192305
Si Si6 0.293620 0.193881 0.932302
Si Si7 0.276909 0.195594 0.307288
O O1 0.209683 0.240916 0.500000
O O2 0.199842 0.500000 0.567986
O O3 0.095983 0.259769 0.592395
O O4 0.270413 0.250010 0.620910
O O5 0.896678 0.500000 0.082077
O O6 0.899865 0.277859 0.170287
O O7 0.812447 0.225336 0.070736
O O8 0.000000 0.248719 0.074058
O O9 0.182451 0.751362 0.722751
O O10 0.000000 0.768296 0.732755
O O11 0.103085 0.000000 0.770714
O O12 0.000000 0.816521 0.500000
O O13 0.000000 0.000000 0.600589
O O14 0.500000 0.247270 0.187648
O O15 0.340973 0.256215 0.131166
O O16 0.352145 0.252152 0.258105
O O17 0.393353 0.000000 0.192126
O O18 0.308022 0.000000 0.932167
O O19 0.326933 0.257948 0.000000
O O20 0.279342 0.000000 0.307408
#
# Coordination Sequence:
#
# PCOD9383580 Si02
#       7
#     8   8   8   4   8   8   8
#     4  10  21  35  50  74 111 149 184 224 268 315
#     4  10  20  33  50  74 107 146 183 219 261 311
#     4   9  17  30  49  74 105 138 175 221 266 310
#     4   9  17  31  51  75 107 149 192 225 258 309
#     4   9  18  35  58  84 111 135 169 224 283 331
#     4  10  20  35  56  81 108 140 179 220 266 322
#     4  10  19  32  54  80 105 139 180 221 270 324
#
# _framework density 19.870933999999998
#
# number of rings (size 3 to 8) (size 9 to 14) (size 15 to 20)
#    0.000    2.385    1.538    1.154    1.077    4.308 
#    0.000    3.077    0.000    2.308    0.000    4.308 
#    0.000    0.000    0.000    0.000    0.000    0.000 
#
# Total GULP energy -290015.416814 kJ/mol
# GULP energy per Si atom -5577.219554 kJ/mol
# Density = 1.982571 g / cm^3
# Si number density = 19.870934 Si / 1000 Ang^3
#
#
#
# Elastic Constant Matrix: (Units=GPa)
#
#
# Indices 1 2 3 4 5 6 
#
# 1 108.8322 10.1643 70.4882 0.0000 0.0000 0.0000
# 2 10.1643 5.1902 11.3660 0.0000 0.0000 0.0000
# 3 70.4882 11.3660 147.1851 0.0000 0.0000 0.0000
# 4 0.0000 0.0000 0.0000 -33.7328 0.0000 0.0000
# 5 0.0000 0.0000 0.0000 0.0000 -12.9837 0.0000
# 6 0.0000 0.0000 0.0000 0.0000 0.0000 5.6710
#
#
#
# Elastic Compliance Matrix: (Units=1/GPa)
#
#
# Indices 1 2 3 4 5 6 
#
# 1 0.014305 -0.015660 -0.005641 0.000000 0.000000 0.000000
# 2 -0.015660 0.249026 -0.011731 0.000000 0.000000 0.000000
# 3 -0.005641 -0.011731 0.010402 0.000000 0.000000 0.000000
# 4 0.000000 0.000000 0.000000 -0.029645 0.000000 0.000000
# 5 0.000000 0.000000 0.000000 0.000000 -0.077020 0.000000
# 6 0.000000 0.000000 0.000000 0.000000 0.000000 0.176336
#
#
# Mechanical properties :
#
#
# Convention : Reuss Voigt Hill
#
# Bulk Modulus (GPa) = 4.81536 49.47162 27.14349
# Shear Modulus (GPa) = 10.44515 3.07017 6.75766
#
# Velocity S-wave (km/s) = 2.29519 1.24435 1.84612
# Velocity P-wave (km/s) = 3.07449 5.19760 4.27010
#
# Compressibility (1/GPa) = 0.20766869
#
# Stress axis : x y z
#
# Youngs Moduli (GPa) = 69.90661 4.01564 96.13761
#
# Poissons Ratio (x) = 0.06288 0.54235
# Poissons Ratio (y) = 1.09473 1.12777
# Poissons Ratio (z) = 0.39437 0.04711
#
# Static dielectric constant tensor:
#      x y z
#    x 1.692610 0.000000 0.000000 
#    y 0.000000 1.698020 0.000000 
#    z 0.000000 0.000000 1.765970 
# 
# From -- ./inp_files/10968.got.cif
#   From: 2010.05.17/outbox.cif.g08.bks.cpg/sg47_6_cif.got.tgz:10968.got - 2010.06.03 20:15:42.
