data_PCOD9383608
_publ_section_title
;
Structure prediction by ZEFSAII (Michael W. Deem and Ramdas Pophale) SiO2 
 PCOD9383608
Probable space group: P M M M
;
_chemical_formula_sum "Si O2"
_cell_formula_units_Z 40
_cell_length_a 26.350771
_cell_length_b 11.214725
_cell_length_c 7.848008
_cell_angle_alpha 90.000000
_cell_angle_beta 90.000000
_cell_angle_gamma 90.000000
_cell_volume 2319.217036
_symmetry_space_group_name_H-M "P M M M"
_symmetry_group_IT_number 47
_symmetry_cell_setting 'orthorhombic'
loop_
_space_group_symop_operation_xyz
x,y,z
-x,-y,z
x,-y,-z
-x,y,-z
-x,-y,-z
x,y,-z
-x,y,z
x,-y,z
loop_
_atom_site_type_symbol
_atom_site_label
_atom_site_fract_x
_atom_site_fract_y
_atom_site_fract_z
Si Si1 0.366219 0.853813 0.500000
Si Si2 0.205777 0.638569 0.189674
Si Si3 0.897354 0.749015 0.300715
Si Si4 0.283017 0.642409 0.500000
Si Si5 0.059907 0.000000 0.794127
Si Si6 0.442618 0.144013 0.192775
Si Si7 0.000000 0.359371 0.697272
O O1 0.322717 0.752336 0.500000
O O2 0.401080 0.829056 0.665621
O O3 0.353299 0.000000 0.500000
O O4 0.189796 0.500000 0.203998
O O5 0.155353 0.715616 0.215097
O O6 0.247333 0.658387 0.334531
O O7 0.226692 0.658024 0.000000
O O8 0.892074 0.715333 0.500000
O O9 0.947137 0.683745 0.225606
O O10 0.912037 0.885682 0.279518
O O11 0.300285 0.500000 0.500000
O O12 0.000000 0.000000 0.747788
O O13 0.062693 0.000000 0.000000
O O14 0.500000 0.184723 0.236576
O O15 0.444753 0.000000 0.187645
O O16 0.430577 0.184883 0.000000
O O17 0.000000 0.500000 0.692991
O O18 0.000000 0.313471 0.500000
#
# Coordination Sequence:
#
# PCOD9383608 Si02
#       7
#     4   8   8   4   4   8   4
#     4  10  19  32  54  84 113 143 188 237 277 319
#     4  10  21  39  61  80 101 134 179 228 274 322
#     4  11  20  35  57  78 103 133 170 212 261 324
#     4  10  22  41  59  78 107 146 189 233 282 335
#     4  11  23  37  51  73 111 145 171 202 249 327
#     4   8  14  26  48  81 119 155 188 225 271 320
#     4   9  18  29  49  80 106 126 156 203 259 318
#
# _framework density 17.247199999999999
#
# number of rings (size 3 to 8) (size 9 to 14) (size 15 to 20)
#    0.000    2.200    2.000    2.400    0.000    3.200 
#    1.800    0.000    0.000    3.600    0.000    1.400 
#    0.000    0.000    0.000    0.000    0.000    0.000 
#
# Total GULP energy -222839.719313 kJ/mol
# GULP energy per Si atom -5570.992983 kJ/mol
# Density = 1.720795 g / cm^3
# Si number density = 17.247200 Si / 1000 Ang^3
#
#
#
# Elastic Constant Matrix: (Units=GPa)
#
#
# Indices 1 2 3 4 5 6 
#
# 1 107.9322 63.7415 57.3654 0.0000 0.0000 0.0000
# 2 63.7415 76.8706 32.1248 0.0000 0.0000 0.0000
# 3 57.3654 32.1248 97.4282 0.0000 0.0000 0.0000
# 4 0.0000 0.0000 0.0000 2.3273 0.0000 0.0000
# 5 0.0000 0.0000 0.0000 0.0000 5.2928 0.0000
# 6 0.0000 0.0000 0.0000 0.0000 0.0000 186.1909
#
#
#
# Elastic Compliance Matrix: (Units=1/GPa)
#
#
# Indices 1 2 3 4 5 6 
#
# 1 0.022811 -0.015428 -0.008344 0.000000 0.000000 0.000000
# 2 -0.015428 0.025523 0.000669 0.000000 0.000000 0.000000
# 3 -0.008344 0.000669 0.014957 0.000000 0.000000 0.000000
# 4 0.000000 0.000000 0.000000 0.429687 0.000000 0.000000
# 5 0.000000 0.000000 0.000000 0.000000 0.188937 0.000000
# 6 0.000000 0.000000 0.000000 0.000000 0.000000 0.005371
#
#
# Mechanical properties :
#
#
# Convention : Reuss Voigt Hill
#
# Bulk Modulus (GPa) = 58.53796 65.41048 61.97422
# Shear Modulus (GPa) = 6.76418 47.36213 27.06316
#
# Velocity S-wave (km/s) = 1.98253 5.24599 3.96553
# Velocity P-wave (km/s) = 6.26536 8.64300 7.54839
#
# Compressibility (1/GPa) = 0.01708293
#
# Stress axis : x y z
#
# Youngs Moduli (GPa) = 43.83768 39.18083 66.86039
#
# Poissons Ratio (x) = 0.60449 0.55789
# Poissons Ratio (y) = 0.67634 -0.04470
# Poissons Ratio (z) = 0.36579 -0.02620
#
# Static dielectric constant tensor:
#      x y z
#    x 1.573120 0.000000 0.000000 
#    y 0.000000 1.566620 0.000000 
#    z 0.000000 0.000000 1.629110 
# 
# From -- ./inp_files/10774.got.cif
#   From: 2010.05.17/outbox.cif.g08.bks.cpg/sg47_6_cif.got.tgz:10774.got - 2010.06.03 20:15:42.
