data_PCOD9383457
_publ_section_title
;
Structure prediction by ZEFSAII (Michael W. Deem and Ramdas Pophale) SiO2 
 PCOD9383457
Probable space group: P M M M
;
_chemical_formula_sum "Si O2"
_cell_formula_units_Z 64
_cell_length_a 32.058251
_cell_length_b 14.496636
_cell_length_c 9.190993
_cell_angle_alpha 90.000000
_cell_angle_beta 90.000000
_cell_angle_gamma 90.000000
_cell_volume 4271.392635
_symmetry_space_group_name_H-M "P M M M"
_symmetry_group_IT_number 47
_symmetry_cell_setting 'orthorhombic'
loop_
_space_group_symop_operation_xyz
x,y,z
-x,-y,z
x,-y,-z
-x,y,-z
-x,-y,-z
x,y,-z
-x,y,z
x,-y,z
loop_
_atom_site_type_symbol
_atom_site_label
_atom_site_fract_x
_atom_site_fract_y
_atom_site_fract_z
Si Si1 0.921439 0.605711 0.173415
Si Si2 0.168461 0.394037 0.328207
Si Si3 0.286100 0.892390 0.825455
Si Si4 0.453864 0.887945 0.170147
Si Si5 0.370879 0.112324 0.332649
Si Si6 0.879246 0.108411 0.826510
Si Si7 0.046837 0.782587 0.672900
Si Si8 0.204410 0.776006 0.825421
O O1 0.935444 0.500000 0.197724
O O2 0.875259 0.614741 0.242087
O O3 0.948680 0.682952 0.251286
O O4 0.919653 0.621667 0.000000
O O5 0.161592 0.377242 0.500000
O O6 0.182620 0.500000 0.310974
O O7 0.199158 0.319166 0.260059
O O8 0.328986 0.860557 0.751745
O O9 0.246139 0.831456 0.786137
O O10 0.278753 0.000000 0.786047
O O11 0.290967 0.889136 0.000000
O O12 0.500000 0.857928 0.221364
O O13 0.413779 0.855223 0.258696
O O14 0.453787 0.000000 0.177300
O O15 0.449642 0.863999 0.000000
O O16 0.368971 0.140439 0.500000
O O17 0.371728 0.000000 0.327721
O O18 0.917543 0.153319 0.740911
O O19 0.836402 0.161991 0.792559
O O20 0.875020 0.000000 0.794909
O O21 0.886529 0.118824 0.000000
O O22 0.053041 0.773344 0.500000
O O23 0.000000 0.818654 0.698590
O O24 0.204678 0.760112 0.000000
#
# Coordination Sequence:
#
# PCOD9383457 Si02
#       8
#     8   8   8   8   8   8   8   8
#     4  10  20  35  56  79 100 122 149 181 217 260
#     4  10  20  33  51  75 101 125 146 173 215 266
#     4   9  17  29  44  62  87 119 152 186 226 269
#     4   8  13  21  33  48  67  97 140 187 233 278
#     4   9  16  24  34  51  77 108 144 187 231 271
#     4  10  21  37  56  76  96 120 153 191 227 263
#     4  11  24  39  54  74 100 127 153 182 220 267
#     4  10  19  32  52  75  95 118 150 187 224 264
#
# _framework density 14.983404
#
# number of rings (size 3 to 8) (size 9 to 14) (size 15 to 20)
#    0.000    2.375    1.250    2.250    0.000    7.000 
#    0.000    3.750    0.000    2.250    0.000    0.000 
#    0.000    0.000    0.000    0.000    0.000    0.625 
#
# Total GULP energy -356835.864304 kJ/mol
# GULP energy per Si atom -5575.560380 kJ/mol
# Density = 1.494930 g / cm^3
# Si number density = 14.983404 Si / 1000 Ang^3
#
#
#
# Elastic Constant Matrix: (Units=GPa)
#
#
# Indices 1 2 3 4 5 6 
#
# 1 129.4331 44.6689 59.0956 0.0000 0.0000 0.0000
# 2 44.6689 58.1236 35.7659 0.0000 0.0000 0.0000
# 3 59.0956 35.7659 56.5006 0.0000 0.0000 0.0000
# 4 0.0000 0.0000 0.0000 17.1111 0.0000 0.0000
# 5 0.0000 0.0000 0.0000 0.0000 -21.2905 0.0000
# 6 0.0000 0.0000 0.0000 0.0000 0.0000 4.5492
#
#
#
# Elastic Compliance Matrix: (Units=1/GPa)
#
#
# Indices 1 2 3 4 5 6 
#
# 1 0.015120 -0.003094 -0.013856 0.000000 0.000000 0.000000
# 2 -0.003094 0.028815 -0.015005 0.000000 0.000000 0.000000
# 3 -0.013856 -0.015005 0.041690 0.000000 0.000000 0.000000
# 4 0.000000 0.000000 0.000000 0.058442 0.000000 0.000000
# 5 0.000000 0.000000 0.000000 0.000000 -0.046969 0.000000
# 6 0.000000 0.000000 0.000000 0.000000 0.000000 0.219817
#
#
# Mechanical properties :
#
#
# Convention : Reuss Voigt Hill
#
# Bulk Modulus (GPa) = 46.04934 58.12423 52.08679
# Shear Modulus (GPa) = 12.88452 7.04243 9.96348
#
# Velocity S-wave (km/s) = 2.93562 2.17034 2.58149
# Velocity P-wave (km/s) = 6.50314 6.71990 6.61241
#
# Compressibility (1/GPa) = 0.02171584
#
# Stress axis : x y z
#
# Youngs Moduli (GPa) = 66.13784 34.70362 23.98678
#
# Poissons Ratio (x) = 0.10736 0.33236
# Poissons Ratio (y) = 0.20461 0.35992
# Poissons Ratio (z) = 0.91640 0.52072
#
# Static dielectric constant tensor:
#      x y z
#    x 1.494170 0.000000 0.000000 
#    y 0.000000 1.485030 0.000000 
#    z 0.000000 0.000000 1.497240 
# 
# From -- ./inp_files/8278.got.cif
#   From: 2010.05.17/outbox.cif.g08.bks.cpg/sg47_5_cif.got.tgz:8278.got - 2010.06.03 20:15:42.
