data_PCOD9383986
_publ_section_title
;
Structure prediction by ZEFSAII (Michael W. Deem and Ramdas Pophale) SiO2 
 PCOD9383986
Probable space group: P M M M
;
_chemical_formula_sum "Si O2"
_cell_formula_units_Z 44
_cell_length_a 8.181331
_cell_length_b 19.538135
_cell_length_c 15.154868
_cell_angle_alpha 90.000000
_cell_angle_beta 90.000000
_cell_angle_gamma 90.000000
_cell_volume 2422.474576
_symmetry_space_group_name_H-M "P M M M"
_symmetry_group_IT_number 47
_symmetry_cell_setting 'orthorhombic'
loop_
_space_group_symop_operation_xyz
x,y,z
-x,-y,z
x,-y,-z
-x,y,-z
-x,-y,-z
x,y,-z
-x,y,z
x,-y,z
loop_
_atom_site_type_symbol
_atom_site_label
_atom_site_fract_x
_atom_site_fract_y
_atom_site_fract_z
Si Si1 0.685130 0.239984 0.759783
Si Si2 0.196253 0.849684 0.598421
Si Si3 0.695166 0.350235 0.898032
Si Si4 0.308014 0.000000 0.868829
Si Si5 0.810742 0.852604 0.902694
Si Si6 0.813864 0.500000 0.106437
Si Si7 0.800457 0.000000 0.668434
O O1 0.500000 0.260070 0.739055
O O2 0.758434 0.207017 0.671408
O O3 0.761946 0.300532 0.820697
O O4 0.693697 0.178359 0.829924
O O5 0.257024 0.833102 0.500000
O O6 0.000000 0.851767 0.596399
O O7 0.246765 0.927848 0.623034
O O8 0.500000 0.338450 0.902318
O O9 0.727901 0.428696 0.870975
O O10 0.757582 0.340452 0.000000
O O11 0.221028 0.067241 0.904169
O O12 0.279806 0.000000 0.764132
O O13 0.500000 0.000000 0.890134
O O14 0.000000 0.839414 0.878945
O O15 0.778587 0.823793 0.000000
O O16 0.000000 0.500000 0.139126
O O17 0.817864 0.500000 0.000000
O O18 0.000000 0.000000 0.676696
#
# Coordination Sequence:
#
# PCOD9383986 Si02
#       7
#     8   8   8   4   8   4   4
#     4  11  22  35  53  78 107 137 172 216 262 308
#     4  10  21  37  57  78 101 134 174 218 272 328
#     4   9  18  33  52  75 108 148 180 206 246 301
#     4  12  23  34  51  73  97 128 169 217 265 309
#     4  11  23  37  52  70  97 136 176 213 257 310
#     4   9  17  29  49  79 110 139 176 217 249 284
#     4  10  19  35  57  75  97 129 169 217 271 328
#
# _framework density 18.163245
#
# number of rings (size 3 to 8) (size 9 to 14) (size 15 to 20)
#    0.000    1.727    1.818    3.273    0.000    7.273 
#    0.000    1.818    0.000    1.636    0.000    0.636 
#    0.000    5.091    0.000    0.000    0.000    0.000 
#
# Total GULP energy -245291.974062 kJ/mol
# GULP energy per Si atom -5574.817592 kJ/mol
# Density = 1.812190 g / cm^3
# Si number density = 18.163245 Si / 1000 Ang^3
#
#
#
# Elastic Constant Matrix: (Units=GPa)
#
#
# Indices 1 2 3 4 5 6 
#
# 1 24.2307 -2.4892 22.2039 0.0000 0.0000 0.0000
# 2 -2.4892 119.3117 57.2975 0.0000 0.0000 0.0000
# 3 22.2039 57.2975 127.9792 0.0000 0.0000 0.0000
# 4 0.0000 0.0000 0.0000 9.3768 0.0000 0.0000
# 5 0.0000 0.0000 0.0000 0.0000 54.6366 0.0000
# 6 0.0000 0.0000 0.0000 0.0000 0.0000 5.8647
#
#
#
# Elastic Compliance Matrix: (Units=1/GPa)
#
#
# Indices 1 2 3 4 5 6 
#
# 1 0.053394 0.007086 -0.012436 0.000000 0.000000 0.000000
# 2 0.007086 0.011617 -0.006431 0.000000 0.000000 0.000000
# 3 -0.012436 -0.006431 0.012850 0.000000 0.000000 0.000000
# 4 0.000000 0.000000 0.000000 0.106646 0.000000 0.000000
# 5 0.000000 0.000000 0.000000 0.000000 0.018303 0.000000
# 6 0.000000 0.000000 0.000000 0.000000 0.000000 0.170512
#
#
# Mechanical properties :
#
#
# Convention : Reuss Voigt Hill
#
# Bulk Modulus (GPa) = 18.41603 47.28289 32.84946
# Shear Modulus (GPa) = 12.04865 26.94291 19.49578
#
# Velocity S-wave (km/s) = 2.57836 3.85564 3.27978
# Velocity P-wave (km/s) = 4.36178 6.77569 5.69803
#
# Compressibility (1/GPa) = 0.05430051
#
# Stress axis : x y z
#
# Youngs Moduli (GPa) = 18.72874 86.07721 77.81814
#
# Poissons Ratio (x) = -0.60996 0.96776
# Poissons Ratio (y) = -0.13272 0.50042
# Poissons Ratio (z) = 0.23291 0.55354
#
# Static dielectric constant tensor:
#      x y z
#    x 1.648150 0.000000 0.000000 
#    y 0.000000 1.651710 0.000000 
#    z 0.000000 0.000000 1.641910 
# 
# From -- ./inp_files/9044.got.cif
#   From: 2010.05.17/outbox.cif.g08.bks.cpg/sg47_5_cif.got.tgz:9044.got - 2010.06.03 20:15:42.
