data_PCOD9383992
_publ_section_title
;
Structure prediction by ZEFSAII (Michael W. Deem and Ramdas Pophale) SiO2 
 PCOD9383992
Probable space group: P M M M
;
_chemical_formula_sum "Si O2"
_cell_formula_units_Z 48
_cell_length_a 29.678142
_cell_length_b 8.735838
_cell_length_c 10.151673
_cell_angle_alpha 90.000000
_cell_angle_beta 90.000000
_cell_angle_gamma 90.000000
_cell_volume 2631.957670
_symmetry_space_group_name_H-M "P M M M"
_symmetry_group_IT_number 47
_symmetry_cell_setting 'orthorhombic'
loop_
_space_group_symop_operation_xyz
x,y,z
-x,-y,z
x,-y,-z
-x,y,-z
-x,-y,-z
x,y,-z
-x,y,z
x,-y,z
loop_
_atom_site_type_symbol
_atom_site_label
_atom_site_fract_x
_atom_site_fract_y
_atom_site_fract_z
Si Si1 0.052118 0.816708 0.000000
Si Si2 0.203093 0.680475 0.844202
Si Si3 0.893441 0.314707 0.756026
Si Si4 0.948322 0.313580 0.500000
Si Si5 0.553289 0.183782 0.149211
Si Si6 0.625194 0.683389 0.653457
Si Si7 0.300440 0.817495 0.847873
O O1 0.078490 0.752484 0.875570
O O2 0.000000 0.766437 0.000000
O O3 0.053126 0.000000 0.000000
O O4 0.211370 0.500000 0.818528
O O5 0.158888 0.731674 0.765385
O O6 0.248818 0.771732 0.819585
O O7 0.192162 0.695065 0.000000
O O8 0.893592 0.500000 0.764910
O O9 0.919846 0.266689 0.626264
O O10 0.950019 0.500000 0.500000
O O11 0.000000 0.259332 0.500000
O O12 0.500000 0.215077 0.161981
O O13 0.581819 0.259816 0.264566
O O14 0.559429 0.000000 0.155865
O O15 0.567247 0.231397 0.000000
O O16 0.625636 0.735247 0.500000
O O17 0.626027 0.500000 0.652859
O O18 0.667062 0.743972 0.739819
O O19 0.305903 0.000000 0.844363
O O20 0.310170 0.766960 0.000000
#
# Coordination Sequence:
#
# PCOD9383992 Si02
#       7
#     4   8   8   4   8   8   8
#     4  11  23  35  51  79 111 143 181 227 276 323
#     4   9  17  32  54  81 109 138 177 223 274 329
#     4  10  19  35  57  81 108 141 181 224 271 328
#     4   9  18  32  53  81 109 139 179 223 266 319
#     4   9  19  37  61  88 117 151 193 238 283 335
#     4  11  24  39  55  81 117 154 192 236 284 329
#     4  10  21  37  59  84 109 142 183 228 279 336
#
# _framework density 18.237375
#
# number of rings (size 3 to 8) (size 9 to 14) (size 15 to 20)
#    0.000    2.167    0.833    2.750    0.000    7.333 
#    1.500    2.917    0.000    1.500    0.000    0.000 
#    0.000    0.000    0.000    0.000    0.000    0.000 
#
# Total GULP energy -267872.276089 kJ/mol
# GULP energy per Si atom -5580.672419 kJ/mol
# Density = 1.819587 g / cm^3
# Si number density = 18.237375 Si / 1000 Ang^3
#
#
#
# Elastic Constant Matrix: (Units=GPa)
#
#
# Indices 1 2 3 4 5 6 
#
# 1 131.5984 38.0823 96.3390 0.0000 0.0000 0.0000
# 2 38.0823 26.9705 42.5438 0.0000 0.0000 0.0000
# 3 96.3390 42.5438 175.2124 0.0000 0.0000 0.0000
# 4 0.0000 0.0000 0.0000 30.8911 0.0000 0.0000
# 5 0.0000 0.0000 0.0000 0.0000 35.2724 0.0000
# 6 0.0000 0.0000 0.0000 0.0000 0.0000 44.8685
#
#
#
# Elastic Compliance Matrix: (Units=1/GPa)
#
#
# Indices 1 2 3 4 5 6 
#
# 1 0.015230 -0.013445 -0.005110 0.000000 0.000000 0.000000
# 2 -0.013445 0.071964 -0.010081 0.000000 0.000000 0.000000
# 3 -0.005110 -0.010081 0.010965 0.000000 0.000000 0.000000
# 4 0.000000 0.000000 0.000000 0.032372 0.000000 0.000000
# 5 0.000000 0.000000 0.000000 0.000000 0.028351 0.000000
# 6 0.000000 0.000000 0.000000 0.000000 0.000000 0.022287
#
#
# Mechanical properties :
#
#
# Convention : Reuss Voigt Hill
#
# Bulk Modulus (GPa) = 24.45743 76.41237 50.43490
# Shear Modulus (GPa) = 19.83581 32.66080 26.24831
#
# Velocity S-wave (km/s) = 3.30153 4.23646 3.79787
# Velocity P-wave (km/s) = 5.28897 8.11910 6.85175
#
# Compressibility (1/GPa) = 0.04088737
#
# Stress axis : x y z
#
# Youngs Moduli (GPa) = 65.65916 13.89583 91.20237
#
# Poissons Ratio (x) = 0.18683 0.46600
# Poissons Ratio (y) = 0.88279 0.91942
# Poissons Ratio (z) = 0.33549 0.14009
#
# Static dielectric constant tensor:
#      x y z
#    x 1.621090 0.000000 0.000000 
#    y 0.000000 1.614580 0.000000 
#    z 0.000000 0.000000 1.597420 
# 
# From -- ./inp_files/2644.got.cif
#   From: 2010.05.17/outbox.cif.g08.bks.cpg/sg47_2_cif.got.tgz:2644.got - 2010.06.03 20:15:42.
