data_PCOD9383770
_publ_section_title
;
Structure prediction by ZEFSAII (Michael W. Deem and Ramdas Pophale) SiO2 
 PCOD9383770
Probable space group: P M M M
;
_chemical_formula_sum "Si O2"
_cell_formula_units_Z 48
_cell_length_a 18.450469
_cell_length_b 15.947418
_cell_length_c 8.160678
_cell_angle_alpha 90.000000
_cell_angle_beta 90.000000
_cell_angle_gamma 90.000000
_cell_volume 2401.176199
_symmetry_space_group_name_H-M "P M M M"
_symmetry_group_IT_number 47
_symmetry_cell_setting 'orthorhombic'
loop_
_space_group_symop_operation_xyz
x,y,z
-x,-y,z
x,-y,-z
-x,y,-z
-x,-y,-z
x,y,-z
-x,y,z
x,-y,z
loop_
_atom_site_type_symbol
_atom_site_label
_atom_site_fract_x
_atom_site_fract_y
_atom_site_fract_z
Si Si1 0.333748 0.000000 0.801960
Si Si2 0.083668 0.167170 0.299551
Si Si3 0.082957 0.500000 0.196050
Si Si4 0.167437 0.666120 0.697922
Si Si5 0.417115 0.500000 0.196121
Si Si6 0.416927 0.166668 0.197770
Si Si7 0.832918 0.000000 0.301978
Si Si8 0.666587 0.666594 0.303969
O O1 0.374576 0.916094 0.743634
O O2 0.250320 0.000000 0.750590
O O3 0.336660 0.000000 0.000000
O O4 0.083782 0.167134 0.500000
O O5 0.125190 0.250852 0.245165
O O6 0.000000 0.166949 0.247358
O O7 0.125687 0.083713 0.245785
O O8 0.125073 0.417301 0.252709
O O9 0.000000 0.500000 0.258110
O O10 0.080998 0.500000 0.000000
O O11 0.169274 0.668952 0.500000
O O12 0.250426 0.665276 0.757505
O O13 0.500000 0.500000 0.258193
O O14 0.375352 0.416913 0.251551
O O15 0.419421 0.500000 0.000000
O O16 0.500000 0.168018 0.256949
O O17 0.375046 0.250784 0.245328
O O18 0.419089 0.162830 0.000000
O O19 0.834985 0.000000 0.500000
O O20 0.668880 0.668545 0.500000
#
# Coordination Sequence:
#
# PCOD9383770 Si02
#       8
#     4   8   4   8   4   8   4   8
#     4  10  21  37  57  81 111 148 188 230 276 328
#     4   9  17  31  54  82 109 141 182 223 263 314
#     4  11  24  39  56  82 112 141 180 231 280 322
#     4  10  21  37  57  81 110 146 185 222 267 330
#     4  11  24  41  60  82 110 149 194 231 270 332
#     4  10  21  38  59  82 110 148 192 232 274 332
#     4  10  19  33  55  83 113 142 178 226 274 322
#     4  11  23  38  58  87 118 145 181 233 287 333
#
# _framework density 19.990203000000001
#
# number of rings (size 3 to 8) (size 9 to 14) (size 15 to 20)
#    0.000    1.833    0.000    4.000    0.000   11.667 
#    0.000    0.833    0.000    3.500    0.000    0.000 
#    0.000    0.000    0.000    0.000    0.000    0.000 
#
# Total GULP energy -268320.692661 kJ/mol
# GULP energy per Si atom -5590.014430 kJ/mol
# Density = 1.994470 g / cm^3
# Si number density = 19.990203 Si / 1000 Ang^3
#
#
#
# Elastic Constant Matrix: (Units=GPa)
#
#
# Indices 1 2 3 4 5 6 
#
# 1 253.2504 154.8849 17.3219 0.0000 0.0000 0.0000
# 2 154.8849 249.0296 14.2886 0.0000 0.0000 0.0000
# 3 17.3219 14.2886 13.6964 0.0000 0.0000 0.0000
# 4 0.0000 0.0000 0.0000 -247.6961 0.0000 0.0000
# 5 0.0000 0.0000 0.0000 0.0000 35.7911 0.0000
# 6 0.0000 0.0000 0.0000 0.0000 0.0000 46.8160
#
#
#
# Elastic Compliance Matrix: (Units=1/GPa)
#
#
# Indices 1 2 3 4 5 6 
#
# 1 0.006605 -0.003860 -0.004327 0.000000 0.000000 0.000000
# 2 -0.003860 0.006527 -0.001927 0.000000 0.000000 0.000000
# 3 -0.004327 -0.001927 0.080495 0.000000 0.000000 0.000000
# 4 0.000000 0.000000 0.000000 -0.004037 0.000000 0.000000
# 5 0.000000 0.000000 0.000000 0.000000 0.027940 0.000000
# 6 0.000000 0.000000 0.000000 0.000000 0.000000 0.021360
#
#
# Mechanical properties :
#
#
# Convention : Reuss Voigt Hill
#
# Bulk Modulus (GPa) = 13.62428 98.77413 56.19920
# Shear Modulus (GPa) = 27.23543 -11.05239 8.09152
#
# Velocity S-wave (km/s) = 3.69513 -2.35391 2.01408
# Velocity P-wave (km/s) = 5.00355 6.49081 5.79509
#
# Compressibility (1/GPa) = 0.07339838
#
# Stress axis : x y z
#
# Youngs Moduli (GPa) = 151.39368 153.21279 12.42318
#
# Poissons Ratio (x) = 0.59139 0.05375
# Poissons Ratio (y) = 0.58437 0.02394
# Poissons Ratio (z) = 0.65507 0.29531
#
# Static dielectric constant tensor:
#      x y z
#    x 1.684980 0.000000 0.000000 
#    y 0.000000 1.645950 0.000000 
#    z 0.000000 0.000000 1.709930 
# 
# From -- ./inp_files/9265.got.cif
#   From: 2010.05.17/outbox.cif.g08.bks.cpg/sg47_5_cif.got.tgz:9265.got - 2010.06.03 20:15:42.
