data_PCOD9383743
_publ_section_title
;
Structure prediction by ZEFSAII (Michael W. Deem and Ramdas Pophale) SiO2 
 PCOD9383743
Probable space group: P M M M
;
_chemical_formula_sum "Si O2"
_cell_formula_units_Z 52
_cell_length_a 8.788419
_cell_length_b 28.728902
_cell_length_c 11.943866
_cell_angle_alpha 90.000000
_cell_angle_beta 90.000000
_cell_angle_gamma 90.000000
_cell_volume 3015.606735
_symmetry_space_group_name_H-M "P M M M"
_symmetry_group_IT_number 47
_symmetry_cell_setting 'orthorhombic'
loop_
_space_group_symop_operation_xyz
x,y,z
-x,-y,z
x,-y,-z
-x,y,-z
-x,-y,-z
x,y,-z
-x,y,z
x,-y,z
loop_
_atom_site_type_symbol
_atom_site_label
_atom_site_fract_x
_atom_site_fract_y
_atom_site_fract_z
Si Si1 0.185361 0.447062 0.871760
Si Si2 0.818331 0.216798 0.500000
Si Si3 0.819722 0.267894 0.131597
Si Si4 0.674910 0.000000 0.135722
Si Si5 0.319617 0.816159 0.731210
Si Si6 0.181998 0.901591 0.132155
Si Si7 0.319302 0.320897 0.500000
Si Si8 0.817735 0.360396 0.725045
O O1 0.231975 0.500000 0.844807
O O2 0.234671 0.407818 0.784825
O O3 0.000000 0.446253 0.871756
O O4 0.232132 0.436612 0.000000
O O5 0.757933 0.191722 0.611172
O O6 0.757017 0.269815 0.500000
O O7 0.000000 0.218119 0.500000
O O8 0.725014 0.228399 0.193713
O O9 0.793662 0.317542 0.189679
O O10 0.000000 0.256843 0.144673
O O11 0.786180 0.269638 0.000000
O O12 0.758995 0.952484 0.168110
O O13 0.500000 0.000000 0.173722
O O14 0.674590 0.000000 0.000000
O O15 0.500000 0.818905 0.717866
O O16 0.257300 0.861494 0.794433
O O17 0.000000 0.899425 0.141436
O O18 0.220860 0.895016 0.000000
O O19 0.500000 0.315030 0.500000
O O20 0.264998 0.348035 0.389722
O O21 0.000000 0.363338 0.704481
#
# Coordination Sequence:
#
# PCOD9383743 Si02
#       8
#     8   4   8   4   8   8   4   8
#     4   8  14  27  51  84 115 139 172 223 276 323
#     4  12  24  42  62  78 102 142 188 231 275 332
#     4  10  20  33  51  77 109 144 181 221 269 328
#     4   9  17  31  53  82 115 150 189 235 286 333
#     4  12  24  37  55  81 112 145 183 229 278 328
#     4  10  20  35  56  83 116 154 193 231 275 330
#     4  12  24  38  55  77 105 140 182 230 275 324
#     4  10  19  33  55  79 106 143 183 224 272 326
#
# _framework density 17.243628000000001
#
# number of rings (size 3 to 8) (size 9 to 14) (size 15 to 20)
#    0.000    1.769    1.538    4.846    0.000    5.846 
#    0.000    0.385    0.000    4.615    0.000    4.308 
#    0.000    0.000    0.000    0.000    0.000    0.000 
#
# Total GULP energy -290405.381472 kJ/mol
# GULP energy per Si atom -5584.718874 kJ/mol
# Density = 1.720438 g / cm^3
# Si number density = 17.243628 Si / 1000 Ang^3
#
#
#
# Elastic Constant Matrix: (Units=GPa)
#
#
# Indices 1 2 3 4 5 6 
#
# 1 96.5766 71.3233 72.8014 0.0000 0.0000 0.0000
# 2 71.3233 143.6886 82.4881 0.0000 0.0000 0.0000
# 3 72.8014 82.4881 132.0893 0.0000 0.0000 0.0000
# 4 0.0000 0.0000 0.0000 -3.0668 0.0000 0.0000
# 5 0.0000 0.0000 0.0000 0.0000 7.8191 0.0000
# 6 0.0000 0.0000 0.0000 0.0000 0.0000 -30.3120
#
#
#
# Elastic Compliance Matrix: (Units=1/GPa)
#
#
# Indices 1 2 3 4 5 6 
#
# 1 0.020326 -0.005703 -0.007642 0.000000 0.000000 0.000000
# 2 -0.005703 0.012449 -0.004631 0.000000 0.000000 0.000000
# 3 -0.007642 -0.004631 0.014674 0.000000 0.000000 0.000000
# 4 0.000000 0.000000 0.000000 -0.326074 0.000000 0.000000
# 5 0.000000 0.000000 0.000000 0.000000 0.127892 0.000000
# 6 0.000000 0.000000 0.000000 0.000000 0.000000 -0.032990
#
#
# Mechanical properties :
#
#
# Convention : Reuss Voigt Hill
#
# Bulk Modulus (GPa) = 86.96594 91.73114 89.34854
# Shear Modulus (GPa) = -34.73693 4.60417 -15.06638
#
# Velocity S-wave (km/s) = -4.49316 1.63581 -2.95911
# Velocity P-wave (km/s) = 4.86057 7.54191 6.34451
#
# Compressibility (1/GPa) = 0.01149875
#
# Stress axis : x y z
#
# Youngs Moduli (GPa) = 49.19699 80.32986 68.14550
#
# Poissons Ratio (x) = 0.45809 0.52076
# Poissons Ratio (y) = 0.28055 0.31559
# Poissons Ratio (z) = 0.37595 0.37201
#
# Static dielectric constant tensor:
#      x y z
#    x 1.580310 0.000000 0.000000 
#    y 0.000000 1.570000 0.000000 
#    z 0.000000 0.000000 1.561620 
# 
# From -- ./inp_files/15564.got.cif
#   From: 2010.05.17/outbox.cif.g08.bks.cpg/sg47_8_cif.got.tgz:15564.got - 2010.06.03 20:15:42.
