data_PCOD9383247
_publ_section_title
;
Structure prediction by ZEFSAII (Michael W. Deem and Ramdas Pophale) SiO2 
 PCOD9383247
Probable space group: P M M M
;
_chemical_formula_sum "Si O2"
_cell_formula_units_Z 25
_cell_length_a 7.309937
_cell_length_b 8.305241
_cell_length_c 19.399857
_cell_angle_alpha 90.000000
_cell_angle_beta 90.000000
_cell_angle_gamma 90.000000
_cell_volume 1177.780615
_symmetry_space_group_name_H-M "P M M M"
_symmetry_group_IT_number 47
_symmetry_cell_setting 'orthorhombic'
loop_
_space_group_symop_operation_xyz
x,y,z
-x,-y,z
x,-y,-z
-x,y,-z
-x,-y,-z
x,y,-z
-x,y,z
x,-y,z
loop_
_atom_site_type_symbol
_atom_site_label
_atom_site_fract_x
_atom_site_fract_y
_atom_site_fract_z
Si Si1 0.279415 0.819162 0.146789
Si Si2 0.775025 0.000000 0.630403
Si Si3 0.500000 0.000000 0.500000
Si Si4 0.787054 0.324425 0.709189
Si Si5 0.722896 0.313851 0.000000
O O1 0.500000 0.819953 0.145025
O O2 0.226389 0.703048 0.208832
O O3 0.216557 0.767729 0.070953
O O4 0.216499 0.000000 0.162760
O O5 0.720177 0.162035 0.672357
O O6 0.661546 0.000000 0.560271
O O7 0.000000 0.000000 0.622488
O O8 0.707005 0.500000 0.691161
O O9 0.000000 0.331476 0.690951
O O10 0.775396 0.500000 0.000000
O O11 0.500000 0.306832 0.000000
#
# Coordination Sequence:
#
# PCOD9383247 Si02
#       5
#     8   4   1   8   4
#     4  10  19  31  52  80 114 154 205 258 309 363
#     4  10  23  45  67  95 134 164 197 253 304 358
#     4  12  26  44  78 102 128 164 210 232 298 390
#     4  10  21  38  61  87 119 161 203 247 305 363
#     4   9  17  29  44  71 112 157 202 255 315 362
#
# _framework density 21.226362999999999
#
# number of rings (size 3 to 8) (size 9 to 14) (size 15 to 20)
#    0.000    2.080    1.600    1.680    2.240    3.840 
#    0.000    2.400    0.000    8.640    0.000    0.000 
#    0.000    0.000    0.000    0.000    0.000    0.000 
#
# Total GULP energy -139306.000112 kJ/mol
# GULP energy per Si atom -5572.240004 kJ/mol
# Density = 2.117805 g / cm^3
# Si number density = 21.226363 Si / 1000 Ang^3
#
#
#
# Elastic Constant Matrix: (Units=GPa)
#
#
# Indices 1 2 3 4 5 6 
#
# 1 98.5385 19.8386 12.1045 0.0000 0.0000 0.0000
# 2 19.8386 187.4286 71.7336 0.0000 0.0000 0.0000
# 3 12.1045 71.7336 145.0723 0.0000 0.0000 0.0000
# 4 0.0000 0.0000 0.0000 -3.9214 0.0000 0.0000
# 5 0.0000 0.0000 0.0000 0.0000 30.2603 0.0000
# 6 0.0000 0.0000 0.0000 0.0000 0.0000 -0.4961
#
#
#
# Elastic Compliance Matrix: (Units=1/GPa)
#
#
# Indices 1 2 3 4 5 6 
#
# 1 0.010388 -0.000947 -0.000398 0.000000 0.000000 0.000000
# 2 -0.000947 0.006667 -0.003218 0.000000 0.000000 0.000000
# 3 -0.000398 -0.003218 0.008517 0.000000 0.000000 0.000000
# 4 0.000000 0.000000 0.000000 -0.255010 0.000000 0.000000
# 5 0.000000 0.000000 0.000000 0.000000 0.033047 0.000000
# 6 0.000000 0.000000 0.000000 0.000000 0.000000 -2.015645
#
#
# Mechanical properties :
#
#
# Convention : Reuss Voigt Hill
#
# Bulk Modulus (GPa) = 60.80460 70.93254 65.86857
# Shear Modulus (GPa) = -2.27539 26.99273 12.35867
#
# Velocity S-wave (km/s) = -1.03648 3.56990 2.41557
# Velocity P-wave (km/s) = 5.22260 7.10507 6.23529
#
# Compressibility (1/GPa) = 0.01644612
#
# Stress axis : x y z
#
# Youngs Moduli (GPa) = 96.26556 149.99077 117.40692
#
# Poissons Ratio (x) = 0.14204 0.04678
# Poissons Ratio (y) = 0.09117 0.37777
# Poissons Ratio (z) = 0.03836 0.48262
#
# Static dielectric constant tensor:
#      x y z
#    x 1.831800 0.000000 0.000000 
#    y 0.000000 1.784160 0.000000 
#    z 0.000000 0.000000 1.707730 
# 
# From -- ./inp_files/707.got.cif
#   From: 2010.05.17/outbox.cif.g08.bks.cpg/sg47_1_cif.got.tgz:707.got - 2010.06.03 20:15:42.
