data_PCOD9383271
_publ_section_title
;
Structure prediction by ZEFSAII (Michael W. Deem and Ramdas Pophale) SiO2 
 PCOD9383271
Probable space group: P M M M
;
_chemical_formula_sum "Si O2"
_cell_formula_units_Z 48
_cell_length_a 18.648022
_cell_length_b 22.419659
_cell_length_c 9.434923
_cell_angle_alpha 90.000000
_cell_angle_beta 90.000000
_cell_angle_gamma 90.000000
_cell_volume 3944.574254
_symmetry_space_group_name_H-M "P M M M"
_symmetry_group_IT_number 47
_symmetry_cell_setting 'orthorhombic'
loop_
_space_group_symop_operation_xyz
x,y,z
-x,-y,z
x,-y,-z
-x,y,-z
-x,-y,-z
x,y,-z
-x,y,z
x,-y,z
loop_
_atom_site_type_symbol
_atom_site_label
_atom_site_fract_x
_atom_site_fract_y
_atom_site_fract_z
Si Si1 0.579263 0.927634 0.334303
Si Si2 0.087319 0.617020 0.336714
Si Si3 0.914314 0.265849 0.166266
Si Si4 0.000000 0.928597 0.332323
Si Si5 0.720009 0.929858 0.830873
Si Si6 0.087431 0.500000 0.163679
Si Si7 0.130939 0.132868 0.169830
O O1 0.586798 0.912244 0.500000
O O2 0.500000 0.907516 0.285299
O O3 0.648161 0.907888 0.246296
O O4 0.578773 0.000000 0.325821
O O5 0.110242 0.613447 0.500000
O O6 0.108852 0.678704 0.262091
O O7 0.110314 0.559458 0.246702
O O8 0.000000 0.616588 0.335815
O O9 0.876116 0.203391 0.197730
O O10 0.000000 0.256342 0.186601
O O11 0.904049 0.280461 0.000000
O O12 0.930478 0.901026 0.256285
O O13 0.000000 0.914624 0.500000
O O14 0.000000 0.000000 0.316078
O O15 0.791281 0.893372 0.793932
O O16 0.731240 0.000000 0.795310
O O17 0.709874 0.926247 0.000000
O O18 0.000000 0.500000 0.163464
O O19 0.110298 0.500000 0.000000
O O20 0.119128 0.124255 0.000000
#
# Coordination Sequence:
#
# PCOD9383271 Si02
#       7
#     8   8   8   4   8   4   8
#     4   8  14  25  40  56  74  95 114 133 167 218
#     4   9  16  24  35  51  70  89 109 139 179 216
#     4   9  16  27  40  52  65  87 120 151 180 217
#     4  11  23  33  41  55  71  88 117 158 199 233
#     4   9  17  27  40  58  75  91 115 149 187 224
#     4   9  15  23  35  51  69  89 111 137 170 211
#     4  10  19  32  45  55  69  94 124 154 189 230
#
# _framework density 12.168613000000001
#
# number of rings (size 3 to 8) (size 9 to 14) (size 15 to 20)
#    0.000    2.833    0.833    2.000    0.000    6.000 
#    0.000    3.333    0.000    0.000    0.000    0.000 
#    0.000    0.000    0.000    0.000    0.000    0.000 
#
# Total GULP energy -267288.258112 kJ/mol
# GULP energy per Si atom -5568.505377 kJ/mol
# Density = 1.214092 g / cm^3
# Si number density = 12.168613 Si / 1000 Ang^3
#
#
#
# Elastic Constant Matrix: (Units=GPa)
#
#
# Indices 1 2 3 4 5 6 
#
# 1 83.3010 42.5040 46.8215 0.0000 0.0000 0.0000
# 2 42.5040 80.1340 55.7595 0.0000 0.0000 0.0000
# 3 46.8215 55.7595 69.0056 0.0000 0.0000 0.0000
# 4 0.0000 0.0000 0.0000 15.2734 0.0000 0.0000
# 5 0.0000 0.0000 0.0000 0.0000 11.9011 0.0000
# 6 0.0000 0.0000 0.0000 0.0000 0.0000 1.7683
#
#
#
# Elastic Compliance Matrix: (Units=1/GPa)
#
#
# Indices 1 2 3 4 5 6 
#
# 1 0.019643 -0.002615 -0.011215 0.000000 0.000000 0.000000
# 2 -0.002615 0.028856 -0.021542 0.000000 0.000000 0.000000
# 3 -0.011215 -0.021542 0.039508 0.000000 0.000000 0.000000
# 4 0.000000 0.000000 0.000000 0.065473 0.000000 0.000000
# 5 0.000000 0.000000 0.000000 0.000000 0.084026 0.000000
# 6 0.000000 0.000000 0.000000 0.000000 0.000000 0.565528
#
#
# Mechanical properties :
#
#
# Convention : Reuss Voigt Hill
#
# Bulk Modulus (GPa) = 57.93018 58.06784 57.99901
# Shear Modulus (GPa) = 5.68484 11.61224 8.64854
#
# Velocity S-wave (km/s) = 2.16376 3.09249 2.66884
# Velocity P-wave (km/s) = 7.34521 7.78295 7.56724
#
# Compressibility (1/GPa) = 0.01726216
#
# Stress axis : x y z
#
# Youngs Moduli (GPa) = 50.91000 34.65475 25.31129
#
# Poissons Ratio (x) = 0.09063 0.28386
# Poissons Ratio (y) = 0.13314 0.54527
# Poissons Ratio (z) = 0.57093 0.74655
#
# Static dielectric constant tensor:
#      x y z
#    x 1.374250 0.000000 0.000000 
#    y 0.000000 1.384190 0.000000 
#    z 0.000000 0.000000 1.407520 
# 
# From -- ./inp_files/9720.got.cif
#   From: 2010.05.17/outbox.cif.g08.bks.cpg/sg47_5_cif.got.tgz:9720.got - 2010.06.03 20:15:42.
