data_PCOD9383106
_publ_section_title
;
Structure prediction by ZEFSAII (Michael W. Deem and Ramdas Pophale) SiO2 
 PCOD9383106
Probable space group: P M M M
;
_chemical_formula_sum "Si O2"
_cell_formula_units_Z 64
_cell_length_a 19.060276
_cell_length_b 21.201786
_cell_length_c 7.578227
_cell_angle_alpha 90.000000
_cell_angle_beta 90.000000
_cell_angle_gamma 90.000000
_cell_volume 3062.451657
_symmetry_space_group_name_H-M "P M M M"
_symmetry_group_IT_number 47
_symmetry_cell_setting 'orthorhombic'
loop_
_space_group_symop_operation_xyz
x,y,z
-x,-y,z
x,-y,-z
-x,y,-z
-x,-y,-z
x,y,-z
-x,y,z
x,-y,z
loop_
_atom_site_type_symbol
_atom_site_label
_atom_site_fract_x
_atom_site_fract_y
_atom_site_fract_z
Si Si1 0.325430 0.691824 0.792884
Si Si2 0.919064 0.812143 0.716354
Si Si3 0.836232 0.689816 0.293277
Si Si4 0.578863 0.194868 0.209671
Si Si5 0.419657 0.571667 0.286890
Si Si6 0.918963 0.570422 0.715346
Si Si7 0.334368 0.071103 0.712798
Si Si8 0.173807 0.928786 0.715263
O O1 0.247279 0.690939 0.718627
O O2 0.372044 0.749264 0.717845
O O3 0.366781 0.626212 0.769330
O O4 0.316473 0.703011 0.000000
O O5 0.918536 0.812833 0.500000
O O6 0.873969 0.752163 0.778286
O O7 0.880091 0.875774 0.774445
O O8 0.000000 0.808390 0.770732
O O9 0.854689 0.689481 0.500000
O O10 0.868760 0.625507 0.218899
O O11 0.500000 0.196609 0.282535
O O12 0.614330 0.126884 0.233367
O O13 0.573755 0.206008 0.000000
O O14 0.419838 0.571227 0.500000
O O15 0.500000 0.585198 0.229189
O O16 0.401813 0.500000 0.229428
O O17 0.916418 0.569008 0.500000
O O18 0.900047 0.500000 0.775334
O O19 0.000000 0.583102 0.762583
O O20 0.333953 0.069867 0.500000
O O21 0.254180 0.084598 0.770083
O O22 0.353179 0.000000 0.772675
O O23 0.173895 0.928295 0.500000
O O24 0.155991 0.000000 0.770228
#
# Coordination Sequence:
#
# PCOD9383106 Si02
#       8
#     8   8   8   8   8   8   8   8
#     4  11  23  37  53  75 105 140 177 215 255 303
#     4   9  16  25  41  67  95 124 163 209 252 296
#     4  10  19  31  49  72  98 129 166 210 257 301
#     4  10  22  38  53  71  98 132 170 212 255 299
#     4   9  19  37  60  84 108 134 167 208 254 306
#     4   8  14  26  46  72  99 126 159 201 248 297
#     4   9  18  33  53  77 104 133 166 205 251 305
#     4   8  14  25  41  63  94 128 157 191 241 298
#
# _framework density 20.898288999999998
#
# number of rings (size 3 to 8) (size 9 to 14) (size 15 to 20)
#    0.000    2.750    0.000    3.375    0.000    6.000 
#    0.000    4.375    0.000    1.500    0.000    0.875 
#    0.000    0.000    0.000   10.750    0.000    8.750 
#
# Total GULP energy -357259.345704 kJ/mol
# GULP energy per Si atom -5582.177277 kJ/mol
# Density = 2.085072 g / cm^3
# Si number density = 20.898289 Si / 1000 Ang^3
#
#
#
# Elastic Constant Matrix: (Units=GPa)
#
#
# Indices 1 2 3 4 5 6 
#
# 1 153.5502 130.3244 -8.8570 0.0000 0.0000 0.0000
# 2 130.3244 180.5663 -4.8559 0.0000 0.0000 0.0000
# 3 -8.8570 -4.8559 42.0144 0.0000 0.0000 0.0000
# 4 0.0000 0.0000 0.0000 14.0723 0.0000 0.0000
# 5 0.0000 0.0000 0.0000 0.0000 113.9285 0.0000
# 6 0.0000 0.0000 0.0000 0.0000 0.0000 41.3198
#
#
#
# Elastic Compliance Matrix: (Units=1/GPa)
#
#
# Indices 1 2 3 4 5 6 
#
# 1 0.017006 -0.012215 0.002173 0.000000 0.000000 0.000000
# 2 -0.012215 0.014330 -0.000919 0.000000 0.000000 0.000000
# 3 0.002173 -0.000919 0.024153 0.000000 0.000000 0.000000
# 4 0.000000 0.000000 0.000000 0.071062 0.000000 0.000000
# 5 0.000000 0.000000 0.000000 0.000000 0.008777 0.000000
# 6 0.000000 0.000000 0.000000 0.000000 0.000000 0.024201
#
#
# Mechanical properties :
#
#
# Convention : Reuss Voigt Hill
#
# Bulk Modulus (GPa) = 29.79170 67.70597 48.74884
# Shear Modulus (GPa) = 25.95506 51.16542 38.56024
#
# Velocity S-wave (km/s) = 3.52798 4.95340 4.30017
# Velocity P-wave (km/s) = 5.55716 8.07361 6.93056
#
# Compressibility (1/GPa) = 0.03356639
#
# Stress axis : x y z
#
# Youngs Moduli (GPa) = 58.80420 69.78403 41.40228
#
# Poissons Ratio (x) = 0.85244 -0.08997
# Poissons Ratio (y) = 0.71832 0.03805
# Poissons Ratio (z) = -0.12779 0.06413
#
# Static dielectric constant tensor:
#      x y z
#    x 1.707110 0.000000 0.000000 
#    y 0.000000 1.743620 0.000000 
#    z 0.000000 0.000000 1.803120 
# 
# From -- ./inp_files/9909.got.cif
#   From: 2010.05.17/outbox.cif.g08.bks.cpg/sg47_5_cif.got.tgz:9909.got - 2010.06.03 20:15:42.
