data_PCOD9383191
_publ_section_title
;
Structure prediction by ZEFSAII (Michael W. Deem and Ramdas Pophale) SiO2 
 PCOD9383191
Probable space group: P M M M
;
_chemical_formula_sum "Si O2"
_cell_formula_units_Z 52
_cell_length_a 9.039449
_cell_length_b 24.432750
_cell_length_c 13.974052
_cell_angle_alpha 90.000000
_cell_angle_beta 90.000000
_cell_angle_gamma 90.000000
_cell_volume 3086.289527
_symmetry_space_group_name_H-M "P M M M"
_symmetry_group_IT_number 47
_symmetry_cell_setting 'orthorhombic'
loop_
_space_group_symop_operation_xyz
x,y,z
-x,-y,z
x,-y,-z
-x,y,-z
-x,-y,-z
x,y,-z
-x,y,z
x,-y,z
loop_
_atom_site_type_symbol
_atom_site_label
_atom_site_fract_x
_atom_site_fract_y
_atom_site_fract_z
Si Si1 0.178157 0.273695 0.890667
Si Si2 0.673845 0.226786 0.610647
Si Si3 0.667631 0.066211 0.500000
Si Si4 0.822033 0.563080 0.388878
Si Si5 0.321047 0.063302 0.712072
Si Si6 0.824616 0.834625 0.216998
Si Si7 0.674095 0.661872 0.718249
O O1 0.216790 0.211083 0.861683
O O2 0.252927 0.313754 0.814140
O O3 0.000000 0.278326 0.881722
O O4 0.219881 0.285038 0.000000
O O5 0.707782 0.216573 0.500000
O O6 0.500000 0.213221 0.627359
O O7 0.773886 0.193420 0.683727
O O8 0.692684 0.290491 0.638240
O O9 0.500000 0.088811 0.500000
O O10 0.733100 0.078955 0.396076
O O11 0.656716 0.000000 0.500000
O O12 0.780693 0.573660 0.500000
O O13 0.782475 0.500000 0.367066
O O14 0.747971 0.606843 0.319891
O O15 0.000000 0.567562 0.382737
O O16 0.500000 0.065902 0.710183
O O17 0.256431 0.107188 0.785083
O O18 0.280486 0.000000 0.730388
O O19 0.000000 0.842524 0.214383
O O20 0.500000 0.654082 0.733247
#
# Coordination Sequence:
#
# PCOD9383191 Si02
#       7
#     8   8   4   8   8   8   8
#     4   9  19  37  57  73  93 126 165 203 250 309
#     4   9  18  31  45  63  93 132 164 189 227 287
#     4   7  12  24  41  59  79 113 159 189 206 251
#     4   9  18  32  50  74 107 148 186 211 234 275
#     4   9  17  30  47  65  89 125 163 192 227 284
#     4  10  20  31  46  71  96 117 151 201 248 286
#     4  10  19  31  50  77 104 129 164 210 257 297
#
# _framework density 16.848711999999999
#
# number of rings (size 3 to 8) (size 9 to 14) (size 15 to 20)
#    0.000    2.846    0.000    2.769    1.077    3.385 
#    0.000    0.769    0.000    2.308    0.000    6.462 
#    0.000    0.000    0.000    0.000    0.000    0.000 
#
# Total GULP energy -289818.045531 kJ/mol
# GULP energy per Si atom -5573.423953 kJ/mol
# Density = 1.681036 g / cm^3
# Si number density = 16.848712 Si / 1000 Ang^3
#
#
#
# Elastic Constant Matrix: (Units=GPa)
#
#
# Indices 1 2 3 4 5 6 
#
# 1 27.6129 40.5540 24.7369 0.0000 0.0000 0.0000
# 2 40.5540 119.1922 43.2397 0.0000 0.0000 0.0000
# 3 24.7369 43.2397 66.6874 0.0000 0.0000 0.0000
# 4 0.0000 0.0000 0.0000 18.5421 0.0000 0.0000
# 5 0.0000 0.0000 0.0000 0.0000 16.6797 0.0000
# 6 0.0000 0.0000 0.0000 0.0000 0.0000 30.9379
#
#
#
# Elastic Compliance Matrix: (Units=1/GPa)
#
#
# Indices 1 2 3 4 5 6 
#
# 1 0.084429 -0.022706 -0.016596 0.000000 0.000000 0.000000
# 2 -0.022706 0.017077 -0.002650 0.000000 0.000000 0.000000
# 3 -0.016596 -0.002650 0.022870 0.000000 0.000000 0.000000
# 4 0.000000 0.000000 0.000000 0.053931 0.000000 0.000000
# 5 0.000000 0.000000 0.000000 0.000000 0.059953 0.000000
# 6 0.000000 0.000000 0.000000 0.000000 0.000000 0.032323
#
#
# Mechanical properties :
#
#
# Convention : Reuss Voigt Hill
#
# Bulk Modulus (GPa) = 24.70809 47.83928 36.27369
# Shear Modulus (GPa) = 13.58782 20.22939 16.90860
#
# Velocity S-wave (km/s) = 2.84291 3.46880 3.17133
# Velocity P-wave (km/s) = 5.04704 6.67072 5.91486
#
# Compressibility (1/GPa) = 0.04047257
#
# Stress axis : x y z
#
# Youngs Moduli (GPa) = 11.84421 58.55982 43.72636
#
# Poissons Ratio (x) = 1.32965 0.72567
# Poissons Ratio (y) = 0.26893 0.11587
# Poissons Ratio (z) = 0.19656 0.15518
#
# Static dielectric constant tensor:
#      x y z
#    x 1.565030 0.000000 0.000000 
#    y 0.000000 1.584210 0.000000 
#    z 0.000000 0.000000 1.558550 
# 
# From -- ./inp_files/21808.got.cif
#   From: 2010.05.17/outbox.cif.g08.bks.cpg/sg47_11_cif.got.tgz:21808.got - 2010.06.03 20:15:42.
