data_PCOD9383057
_publ_section_title
;
Structure prediction by ZEFSAII (Michael W. Deem and Ramdas Pophale) SiO2 
 PCOD9383057
Probable space group: P M M M
;
_chemical_formula_sum "Si O2"
_cell_formula_units_Z 52
_cell_length_a 12.882449
_cell_length_b 25.707168
_cell_length_c 7.842417
_cell_angle_alpha 90.000000
_cell_angle_beta 90.000000
_cell_angle_gamma 90.000000
_cell_volume 2597.183282
_symmetry_space_group_name_H-M "P M M M"
_symmetry_group_IT_number 47
_symmetry_cell_setting 'orthorhombic'
loop_
_space_group_symop_operation_xyz
x,y,z
-x,-y,z
x,-y,-z
-x,y,-z
-x,-y,-z
x,y,-z
-x,y,z
x,-y,z
loop_
_atom_site_type_symbol
_atom_site_label
_atom_site_fract_x
_atom_site_fract_y
_atom_site_fract_z
Si Si1 0.831666 0.387529 0.196758
Si Si2 0.614740 0.653507 0.294599
Si Si3 0.217645 0.142856 0.801059
Si Si4 0.383222 0.060521 0.208188
Si Si5 0.385034 0.776067 0.294726
Si Si6 0.000000 0.696193 0.304806
Si Si7 0.876543 0.500000 0.804847
Si Si8 0.000000 0.815102 0.201940
O O1 0.711358 0.374154 0.210755
O O2 0.847607 0.444680 0.276265
O O3 0.900851 0.340830 0.270891
O O4 0.865387 0.391247 0.000000
O O5 0.622471 0.648035 0.500000
O O6 0.500000 0.635373 0.242205
O O7 0.621864 0.714946 0.257174
O O8 0.289571 0.096631 0.727347
O O9 0.292577 0.192648 0.788614
O O10 0.105933 0.159207 0.726880
O O11 0.201069 0.129861 0.000000
O O12 0.500000 0.076229 0.264557
O O13 0.368611 0.000000 0.252770
O O14 0.383803 0.063655 0.000000
O O15 0.378499 0.781931 0.500000
O O16 0.500000 0.794200 0.239881
O O17 0.000000 0.752165 0.214464
O O18 0.000000 0.711114 0.500000
O O19 0.000000 0.500000 0.815591
O O20 0.832890 0.500000 0.000000
O O21 0.000000 0.825594 0.000000
#
# Coordination Sequence:
#
# PCOD9383057 Si02
#       8
#     8   8   8   8   8   4   4   4
#     4  11  21  36  59  82 105 135 173 217 262 308
#     4   9  19  36  54  75 108 145 177 211 256 313
#     4  10  19  31  48  71 100 133 170 211 252 296
#     4   8  14  26  46  72  99 127 163 209 259 305
#     4   9  18  32  50  72  99 131 165 204 253 305
#     4  12  24  37  55  79 106 137 174 213 262 319
#     4   9  18  36  57  78 105 135 166 209 267 318
#     4  10  22  36  48  71 106 138 171 213 252 293
#
# _framework density 20.021691000000001
#
# number of rings (size 3 to 8) (size 9 to 14) (size 15 to 20)
#    0.000    2.385    0.769    3.923    0.000    4.923 
#    0.000    4.231    0.000    5.077    0.000    2.154 
#    0.000    1.846    0.000    0.000    0.000    0.000 
#
# Total GULP energy -290021.028415 kJ/mol
# GULP energy per Si atom -5577.327470 kJ/mol
# Density = 1.997612 g / cm^3
# Si number density = 20.021691 Si / 1000 Ang^3
#
#
#
# Elastic Constant Matrix: (Units=GPa)
#
#
# Indices 1 2 3 4 5 6 
#
# 1 174.2887 79.2460 6.1706 0.0000 0.0000 0.0000
# 2 79.2460 104.0383 2.4130 0.0000 0.0000 0.0000
# 3 6.1706 2.4130 21.1557 0.0000 0.0000 0.0000
# 4 0.0000 0.0000 0.0000 22.1852 0.0000 0.0000
# 5 0.0000 0.0000 0.0000 0.0000 13.9895 0.0000
# 6 0.0000 0.0000 0.0000 0.0000 0.0000 26.2102
#
#
#
# Elastic Compliance Matrix: (Units=1/GPa)
#
#
# Indices 1 2 3 4 5 6 
#
# 1 0.008847 -0.006696 -0.001817 0.000000 0.000000 0.000000
# 2 -0.006696 0.014706 0.000276 0.000000 0.000000 0.000000
# 3 -0.001817 0.000276 0.047767 0.000000 0.000000 0.000000
# 4 0.000000 0.000000 0.000000 0.045075 0.000000 0.000000
# 5 0.000000 0.000000 0.000000 0.000000 0.071482 0.000000
# 6 0.000000 0.000000 0.000000 0.000000 0.000000 0.038153
#
#
# Mechanical properties :
#
#
# Convention : Reuss Voigt Hill
#
# Bulk Modulus (GPa) = 18.23305 52.79357 35.51331
# Shear Modulus (GPa) = 19.17281 26.58719 22.88000
#
# Velocity S-wave (km/s) = 3.09787 3.64802 3.38414
# Velocity P-wave (km/s) = 4.68211 6.64601 5.74855
#
# Compressibility (1/GPa) = 0.05484545
#
# Stress axis : x y z
#
# Youngs Moduli (GPa) = 113.03732 67.99918 20.93494
#
# Poissons Ratio (x) = 0.45535 0.03803
# Poissons Ratio (y) = 0.75694 -0.00577
# Poissons Ratio (z) = 0.20534 -0.01875
#
# Static dielectric constant tensor:
#      x y z
#    x 1.712960 0.000000 0.000000 
#    y 0.000000 1.715970 0.000000 
#    z 0.000000 0.000000 1.736870 
# 
# From -- ./inp_files/4631.got.cif
#   From: 2010.05.17/outbox.cif.g08.bks.cpg/sg47_3_cif.got.tgz:4631.got - 2010.06.03 20:15:42.
