data_PCOD9383423
_publ_section_title
;
Structure prediction by ZEFSAII (Michael W. Deem and Ramdas Pophale) SiO2 
 PCOD9383423
Probable space group: P M M M
;
_chemical_formula_sum "Si O2"
_cell_formula_units_Z 64
_cell_length_a 7.686175
_cell_length_b 15.980246
_cell_length_c 25.656605
_cell_angle_alpha 90.000000
_cell_angle_beta 90.000000
_cell_angle_gamma 90.000000
_cell_volume 3151.322983
_symmetry_space_group_name_H-M "P M M M"
_symmetry_group_IT_number 47
_symmetry_cell_setting 'orthorhombic'
loop_
_space_group_symop_operation_xyz
x,y,z
-x,-y,z
x,-y,-z
-x,y,-z
-x,-y,-z
x,y,-z
-x,y,z
x,-y,z
loop_
_atom_site_type_symbol
_atom_site_label
_atom_site_fract_x
_atom_site_fract_y
_atom_site_fract_z
Si Si1 0.289641 0.365813 0.287348
Si Si2 0.710247 0.409964 0.597470
Si Si3 0.794827 0.773712 0.855822
Si Si4 0.207639 0.772611 0.557496
Si Si5 0.205778 0.590200 0.828813
Si Si6 0.706963 0.180944 0.258686
Si Si7 0.208458 0.091882 0.360463
Si Si8 0.212646 0.094735 0.939927
O O1 0.500000 0.370551 0.286258
O O2 0.231944 0.403259 0.342101
O O3 0.225397 0.405562 0.233797
O O4 0.234669 0.268894 0.284226
O O5 0.500000 0.409998 0.597300
O O6 0.768572 0.500000 0.575864
O O7 0.763618 0.324956 0.569559
O O8 0.721512 0.678969 0.849890
O O9 0.777789 0.818967 0.799812
O O10 0.723158 0.833923 0.900689
O O11 0.000000 0.763807 0.866190
O O12 0.277420 0.792794 0.500000
O O13 0.277818 0.833534 0.602779
O O14 0.000000 0.784813 0.556227
O O15 0.278434 0.500000 0.846582
O O16 0.000000 0.589875 0.840428
O O17 0.500000 0.183542 0.253995
O O18 0.755299 0.110656 0.299928
O O19 0.000000 0.090915 0.366087
O O20 0.275177 0.000000 0.375101
O O21 0.000000 0.095106 0.938383
O O22 0.266623 0.000000 0.925479
O O23 0.262747 0.109791 0.000000
#
# Coordination Sequence:
#
# PCOD9383423 Si02
#       8
#     8   8   8   8   8   8   8   8
#     4   9  17  30  48  69  95 127 162 199 237 282
#     4  10  20  34  53  76 101 131 166 202 244 296
#     4   9  17  29  47  71 100 132 165 203 245 291
#     4  10  22  39  57  76  99 127 162 208 254 296
#     4   9  17  27  40  63  96 131 163 195 235 284
#     4  10  19  32  51  75 104 133 161 198 245 295
#     4  10  21  37  57  78 100 129 164 201 246 302
#     4   8  14  26  46  71  95 122 163 211 250 285
#
# _framework density 20.308931000000001
#
# number of rings (size 3 to 8) (size 9 to 14) (size 15 to 20)
#    0.000    2.625    1.250    1.125    0.000    3.500 
#    0.000    3.750    0.000    0.750    0.000    5.250 
#    0.000    0.000    0.000    6.250    0.000    6.500 
#
# Total GULP energy -356897.970353 kJ/mol
# GULP energy per Si atom -5576.530787 kJ/mol
# Density = 2.026271 g / cm^3
# Si number density = 20.308931 Si / 1000 Ang^3
#
#
#
# Elastic Constant Matrix: (Units=GPa)
#
#
# Indices 1 2 3 4 5 6 
#
# 1 31.6013 1.8476 -1.8272 0.0000 0.0000 0.0000
# 2 1.8476 139.3718 73.6794 0.0000 0.0000 0.0000
# 3 -1.8272 73.6794 94.7864 0.0000 0.0000 0.0000
# 4 0.0000 0.0000 0.0000 -69.3626 0.0000 0.0000
# 5 0.0000 0.0000 0.0000 0.0000 -151.8239 0.0000
# 6 0.0000 0.0000 0.0000 0.0000 0.0000 -5.0004
#
#
#
# Elastic Compliance Matrix: (Units=1/GPa)
#
#
# Indices 1 2 3 4 5 6 
#
# 1 0.031811 -0.001266 0.001597 0.000000 0.000000 0.000000
# 2 -0.001266 0.012231 -0.009532 0.000000 0.000000 0.000000
# 3 0.001597 -0.009532 0.017990 0.000000 0.000000 0.000000
# 4 0.000000 0.000000 0.000000 -0.014417 0.000000 0.000000
# 5 0.000000 0.000000 0.000000 0.000000 -0.006587 0.000000
# 6 0.000000 0.000000 0.000000 0.000000 0.000000 -0.199984
#
#
# Mechanical properties :
#
#
# Convention : Reuss Voigt Hill
#
# Bulk Modulus (GPa) = 22.91965 45.90655 34.41310
# Shear Modulus (GPa) = -39.67882 -32.43340 -36.05611
#
# Velocity S-wave (km/s) = -4.42493 -4.00059 -4.21810
# Velocity P-wave (km/s) = 3.84665 1.14613 2.59645
#
# Compressibility (1/GPa) = 0.04363068
#
# Stress axis : x y z
#
# Youngs Moduli (GPa) = 31.43598 81.76103 55.58657
#
# Poissons Ratio (x) = 0.10353 -0.08880
# Poissons Ratio (y) = 0.03980 0.52983
# Poissons Ratio (z) = -0.05022 0.77932
#
# Static dielectric constant tensor:
#      x y z
#    x 1.744910 0.000000 0.000000 
#    y 0.000000 1.768600 0.000000 
#    z 0.000000 0.000000 1.696370 
# 
# From -- ./inp_files/32149.got.cif
#   From: 2010.05.17/outbox.cif.g08.bks.cpg/sg47_17_cif.got.tgz:32149.got - 2010.06.03 20:15:42.
