data_PCOD9383513
_publ_section_title
;
Structure prediction by ZEFSAII (Michael W. Deem and Ramdas Pophale) SiO2 
 PCOD9383513
Probable space group: P M M M
;
_chemical_formula_sum "Si O2"
_cell_formula_units_Z 40
_cell_length_a 8.507745
_cell_length_b 7.799199
_cell_length_c 30.906759
_cell_angle_alpha 90.000000
_cell_angle_beta 90.000000
_cell_angle_gamma 90.000000
_cell_volume 2050.774610
_symmetry_space_group_name_H-M "P M M M"
_symmetry_group_IT_number 47
_symmetry_cell_setting 'orthorhombic'
loop_
_space_group_symop_operation_xyz
x,y,z
-x,-y,z
x,-y,-z
-x,y,-z
-x,-y,-z
x,y,-z
-x,y,z
x,-y,z
loop_
_atom_site_type_symbol
_atom_site_label
_atom_site_fract_x
_atom_site_fract_y
_atom_site_fract_z
Si Si1 0.686259 0.000000 0.291395
Si Si2 0.812741 0.699115 0.768505
Si Si3 0.679098 0.295029 0.860530
Si Si4 0.191556 0.304462 0.549231
Si Si5 0.809483 0.000000 0.388711
Si Si6 0.683388 0.794139 0.953500
O O1 0.742853 0.168659 0.265661
O O2 0.500000 0.000000 0.292617
O O3 0.752169 0.000000 0.339848
O O4 0.759323 0.500000 0.762726
O O5 0.766489 0.758267 0.817006
O O6 0.000000 0.700377 0.764634
O O7 0.500000 0.225159 0.859659
O O8 0.670296 0.500000 0.858710
O O9 0.753725 0.254118 0.907191
O O10 0.238872 0.259467 0.500000
O O11 0.240994 0.500000 0.558231
O O12 0.000000 0.303259 0.549446
O O13 0.243778 0.166980 0.584383
O O14 0.000000 0.000000 0.388419
O O15 0.500000 0.735368 0.952415
O O16 0.681905 0.000000 0.954626
O O17 0.750082 0.734537 0.000000
#
# Coordination Sequence:
#
# PCOD9383513 Si02
#       6
#     4   8   8   8   4   8
#     4  12  26  41  59  83 113 151 192 234 287 345
#     4  10  22  41  62  83 109 141 183 235 287 342
#     4   9  17  29  48  75 102 131 172 219 269 323
#     4   8  14  26  48  80 114 147 185 229 274 317
#     4  10  19  32  52  80 112 145 187 234 279 326
#     4   8  14  24  39  64  99 135 170 208 252 307
#
# _framework density 19.504825
#
# number of rings (size 3 to 8) (size 9 to 14) (size 15 to 20)
#    0.000    2.800    0.000    3.000    1.400    3.600 
#    0.000    4.000    0.000    1.800    0.000    5.600 
#    0.000    0.000    0.000    0.000    0.000    0.000 
#
# Total GULP energy -222943.330632 kJ/mol
# GULP energy per Si atom -5573.583266 kJ/mol
# Density = 1.946043 g / cm^3
# Si number density = 19.504825 Si / 1000 Ang^3
#
#
#
# Elastic Constant Matrix: (Units=GPa)
#
#
# Indices 1 2 3 4 5 6 
#
# 1 25.3336 24.9990 32.2409 0.0000 0.0000 0.0000
# 2 24.9990 93.5063 101.2742 0.0000 0.0000 0.0000
# 3 32.2409 101.2742 219.8327 0.0000 0.0000 0.0000
# 4 0.0000 0.0000 0.0000 12.9211 0.0000 0.0000
# 5 0.0000 0.0000 0.0000 0.0000 24.6158 0.0000
# 6 0.0000 0.0000 0.0000 0.0000 0.0000 11.4236
#
#
#
# Elastic Compliance Matrix: (Units=1/GPa)
#
#
# Indices 1 2 3 4 5 6 
#
# 1 0.054325 -0.011765 -0.002547 0.000000 0.000000 0.000000
# 2 -0.011765 0.023892 -0.009281 0.000000 0.000000 0.000000
# 3 -0.002547 -0.009281 0.009198 0.000000 0.000000 0.000000
# 4 0.000000 0.000000 0.000000 0.077393 0.000000 0.000000
# 5 0.000000 0.000000 0.000000 0.000000 0.040624 0.000000
# 6 0.000000 0.000000 0.000000 0.000000 0.000000 0.087538
#
#
# Mechanical properties :
#
#
# Convention : Reuss Voigt Hill
#
# Bulk Modulus (GPa) = 24.85823 72.85565 48.85694
# Shear Modulus (GPa) = 14.14161 21.80268 17.97214
#
# Velocity S-wave (km/s) = 2.69556 3.34699 3.03878
# Velocity P-wave (km/s) = 4.73924 7.23673 6.11680
#
# Compressibility (1/GPa) = 0.04022813
#
# Stress axis : x y z
#
# Youngs Moduli (GPa) = 18.40783 41.85456 108.71484
#
# Poissons Ratio (x) = 0.49241 0.27695
# Poissons Ratio (y) = 0.21656 1.00903
# Poissons Ratio (z) = 0.04689 0.38847
#
# Static dielectric constant tensor:
#      x y z
#    x 1.689860 0.000000 0.000000 
#    y 0.000000 1.692750 0.000000 
#    z 0.000000 0.000000 1.693750 
# 
# From -- ./inp_files/33052.got.cif
#   From: 2010.05.17/outbox.cif.g08.bks.cpg/sg47_17_cif.got.tgz:33052.got - 2010.06.03 20:15:42.
