data_PCOD9383166
_publ_section_title
;
Structure prediction by ZEFSAII (Michael W. Deem and Ramdas Pophale) SiO2 
 PCOD9383166
Probable space group: P M M M
;
_chemical_formula_sum "Si O2"
_cell_formula_units_Z 64
_cell_length_a 20.459824
_cell_length_b 20.179997
_cell_length_c 8.651210
_cell_angle_alpha 90.000000
_cell_angle_beta 90.000000
_cell_angle_gamma 90.000000
_cell_volume 3571.904551
_symmetry_space_group_name_H-M "P M M M"
_symmetry_group_IT_number 47
_symmetry_cell_setting 'orthorhombic'
loop_
_space_group_symop_operation_xyz
x,y,z
-x,-y,z
x,-y,-z
-x,y,-z
-x,-y,-z
x,y,-z
-x,y,z
x,-y,z
loop_
_atom_site_type_symbol
_atom_site_label
_atom_site_fract_x
_atom_site_fract_y
_atom_site_fract_z
Si Si1 0.674169 0.715757 0.315362
Si Si2 0.680152 0.924763 0.813759
Si Si3 0.072262 0.648961 0.177074
Si Si4 0.677047 0.574170 0.180901
Si Si5 0.185610 0.574595 0.673011
Si Si6 0.218157 0.810125 0.812458
Si Si7 0.425210 0.168741 0.686550
Si Si8 0.071411 0.191862 0.820267
O O1 0.679208 0.717137 0.500000
O O2 0.655070 0.641914 0.262060
O O3 0.742671 0.745253 0.248426
O O4 0.618132 0.767766 0.265123
O O5 0.737084 0.873088 0.769052
O O6 0.613027 0.895071 0.748658
O O7 0.691896 0.000000 0.762564
O O8 0.677287 0.924116 0.000000
O O9 0.128472 0.623893 0.286663
O O10 0.070374 0.728291 0.177802
O O11 0.000000 0.624736 0.220715
O O12 0.085660 0.627915 0.000000
O O13 0.656985 0.500000 0.238680
O O14 0.755041 0.577557 0.208227
O O15 0.661612 0.577273 0.000000
O O16 0.212251 0.586291 0.500000
O O17 0.158816 0.500000 0.677800
O O18 0.143861 0.822269 0.755138
O O19 0.215501 0.804234 0.000000
O O20 0.424847 0.167120 0.500000
O O21 0.500000 0.172491 0.739186
O O22 0.000000 0.170584 0.753789
O O23 0.071769 0.169289 0.000000
#
# Coordination Sequence:
#
# PCOD9383166 Si02
#       8
#     8   8   8   8   8   8   8   8
#     4  10  19  31  50  74  98 123 155 199 244 285
#     4   9  18  31  47  72 105 136 166 200 238 280
#     4   9  17  28  41  57  78 106 143 189 241 297
#     4  10  20  33  49  68  91 120 154 192 235 286
#     4  10  20  31  42  58  81 109 144 189 239 287
#     4   9  16  28  48  69  92 127 165 200 242 291
#     4   9  19  35  53  75 103 133 164 196 232 278
#     4   8  14  25  42  63  83 107 147 196 239 280
#
# _framework density 17.917611000000001
#
# number of rings (size 3 to 8) (size 9 to 14) (size 15 to 20)
#    0.000    2.750    0.000    2.625    0.000    4.250 
#    0.000    2.500    0.000    1.875    0.000    5.250 
#    0.000    0.000    0.000    6.250    0.000    6.500 
#
# Total GULP energy -356312.339598 kJ/mol
# GULP energy per Si atom -5567.380306 kJ/mol
# Density = 1.787683 g / cm^3
# Si number density = 17.917611 Si / 1000 Ang^3
#
#
#
# Elastic Constant Matrix: (Units=GPa)
#
#
# Indices 1 2 3 4 5 6 
#
# 1 101.7095 26.7144 8.5888 0.0000 0.0000 0.0000
# 2 26.7144 91.3333 12.6877 0.0000 0.0000 0.0000
# 3 8.5888 12.6877 12.7756 0.0000 0.0000 0.0000
# 4 0.0000 0.0000 0.0000 18.7257 0.0000 0.0000
# 5 0.0000 0.0000 0.0000 0.0000 6.4199 0.0000
# 6 0.0000 0.0000 0.0000 0.0000 0.0000 11.0820
#
#
#
# Elastic Compliance Matrix: (Units=1/GPa)
#
#
# Indices 1 2 3 4 5 6 
#
# 1 0.010901 -0.002518 -0.004828 0.000000 0.000000 0.000000
# 2 -0.002518 0.013283 -0.011499 0.000000 0.000000 0.000000
# 3 -0.004828 -0.011499 0.092939 0.000000 0.000000 0.000000
# 4 0.000000 0.000000 0.000000 0.053403 0.000000 0.000000
# 5 0.000000 0.000000 0.000000 0.000000 0.155764 0.000000
# 6 0.000000 0.000000 0.000000 0.000000 0.000000 0.090237
#
#
# Mechanical properties :
#
#
# Convention : Reuss Voigt Hill
#
# Bulk Modulus (GPa) = 12.58905 33.53337 23.06121
# Shear Modulus (GPa) = 10.40163 17.76735 14.08449
#
# Velocity S-wave (km/s) = 2.41202 3.15241 2.80674
# Velocity P-wave (km/s) = 3.84688 5.65740 4.83759
#
# Compressibility (1/GPa) = 0.07943408
#
# Stress axis : x y z
#
# Youngs Moduli (GPa) = 91.73533 75.28599 10.75970
#
# Poissons Ratio (x) = 0.18955 0.05195
# Poissons Ratio (y) = 0.23097 0.12372
# Poissons Ratio (z) = 0.44291 0.86569
#
# Static dielectric constant tensor:
#      x y z
#    x 1.628120 0.000000 0.000000 
#    y 0.000000 1.629140 0.000000 
#    z 0.000000 0.000000 1.625380 
# 
# From -- ./inp_files/11660.got.cif
#   From: 2010.05.17/outbox.cif.g08.bks.cpg/sg47_6_cif.got.tgz:11660.got - 2010.06.03 20:15:42.
