data_PCOD9383829
_publ_section_title
;
Structure prediction by ZEFSAII (Michael W. Deem and Ramdas Pophale) SiO2 
 PCOD9383829
Probable space group: P M M M
;
_chemical_formula_sum "Si O2"
_cell_formula_units_Z 37
_cell_length_a 18.623673
_cell_length_b 7.509968
_cell_length_c 12.421398
_cell_angle_alpha 90.000000
_cell_angle_beta 90.000000
_cell_angle_gamma 90.000000
_cell_volume 1737.296327
_symmetry_space_group_name_H-M "P M M M"
_symmetry_group_IT_number 47
_symmetry_cell_setting 'orthorhombic'
loop_
_space_group_symop_operation_xyz
x,y,z
-x,-y,z
x,-y,-z
-x,y,-z
-x,-y,-z
x,y,-z
-x,y,z
x,-y,z
loop_
_atom_site_type_symbol
_atom_site_label
_atom_site_fract_x
_atom_site_fract_y
_atom_site_fract_z
Si Si1 0.690458 0.200422 0.000000
Si Si2 0.500000 0.299044 0.191182
Si Si3 0.652841 0.784302 0.764574
Si Si4 0.500000 0.000000 0.000000
Si Si5 0.851883 0.293728 0.000000
Si Si6 0.080257 0.786012 0.770687
Si Si7 0.212102 0.782013 0.376250
O O1 0.667809 0.281423 0.886723
O O2 0.776595 0.190724 0.000000
O O3 0.657213 0.000000 0.000000
O O4 0.500000 0.500000 0.148952
O O5 0.572123 0.270214 0.260145
O O6 0.500000 0.155797 0.095128
O O7 0.715916 0.724277 0.685685
O O8 0.657151 0.000000 0.767305
O O9 0.896361 0.254031 0.107260
O O10 0.831809 0.500000 0.000000
O O11 0.142315 0.721905 0.690449
O O12 0.000000 0.718373 0.749121
O O13 0.078373 0.000000 0.760428
O O14 0.210467 0.725900 0.500000
O O15 0.211697 0.000000 0.375085
#
# Coordination Sequence:
#
# PCOD9383829 Si02
#       7
#     4   4   8   1   4   8   8
#     4  10  19  33  59  84 112 154 191 233 295 361
#     4  12  25  39  62  91 128 168 206 255 306 370
#     4  10  19  36  61  84 123 161 198 250 304 360
#     4  12  22  44  60  94 138 164 204 244 316 380
#     4  12  23  34  52  82 119 153 194 243 291 363
#     4  10  20  36  58  83 115 153 194 243 300 361
#     4   9  18  34  60  91 118 153 202 251 303 359
#
# _framework density 21.297460000000001
#
# number of rings (size 3 to 8) (size 9 to 14) (size 15 to 20)
#    0.000    1.730    3.243    2.108    1.514    3.027 
#    0.000    2.703    0.000    5.838    0.000    1.514 
#    0.000    0.000    0.000    0.000    0.000    0.000 
#
# Total GULP energy -206551.321869 kJ/mol
# GULP energy per Si atom -5582.468159 kJ/mol
# Density = 2.124899 g / cm^3
# Si number density = 21.297460 Si / 1000 Ang^3
#
#
#
# Elastic Constant Matrix: (Units=GPa)
#
#
# Indices 1 2 3 4 5 6 
#
# 1 210.0593 5.3590 111.9101 0.0000 0.0000 0.0000
# 2 5.3590 87.9881 6.1941 0.0000 0.0000 0.0000
# 3 111.9101 6.1941 167.3365 0.0000 0.0000 0.0000
# 4 0.0000 0.0000 0.0000 72.8015 0.0000 0.0000
# 5 0.0000 0.0000 0.0000 0.0000 -23.3197 0.0000
# 6 0.0000 0.0000 0.0000 0.0000 0.0000 -30.7393
#
#
#
# Elastic Compliance Matrix: (Units=1/GPa)
#
#
# Indices 1 2 3 4 5 6 
#
# 1 0.007396 -0.000103 -0.004943 0.000000 0.000000 0.000000
# 2 -0.000103 0.011396 -0.000353 0.000000 0.000000 0.000000
# 3 -0.004943 -0.000353 0.009295 0.000000 0.000000 0.000000
# 4 0.000000 0.000000 0.000000 0.013736 0.000000 0.000000
# 5 0.000000 0.000000 0.000000 0.000000 -0.042882 0.000000
# 6 0.000000 0.000000 0.000000 0.000000 0.000000 -0.032532
#
#
# Mechanical properties :
#
#
# Convention : Reuss Voigt Hill
#
# Bulk Modulus (GPa) = 57.83600 79.14559 68.49080
# Shear Modulus (GPa) = -293.59997 26.54321 -133.52838
#
# Velocity S-wave (km/s) = -11.75398 3.53414 -7.92672
# Velocity P-wave (km/s) = 12.52968 7.34140 7.17972
#
# Compressibility (1/GPa) = 0.01729027
#
# Stress axis : x y z
#
# Youngs Moduli (GPa) = 135.20005 87.74785 107.58900
#
# Poissons Ratio (x) = 0.00900 0.53179
# Poissons Ratio (y) = 0.01386 0.03801
# Poissons Ratio (z) = 0.66826 0.03100
#
# Static dielectric constant tensor:
#      x y z
#    x 1.835100 0.000000 0.000000 
#    y 0.000000 1.790650 0.000000 
#    z 0.000000 0.000000 1.715900 
# 
# From -- ./inp_files/18252.got.cif
#   From: 2010.05.17/outbox.cif.g08.bks.cpg/sg47_10_cif.got.tgz:18252.got - 2010.06.03 20:15:42.
