data_PCOD9383746
_publ_section_title
;
Structure prediction by ZEFSAII (Michael W. Deem and Ramdas Pophale) SiO2 
 PCOD9383746
Probable space group: P M M M
;
_chemical_formula_sum "Si O2"
_cell_formula_units_Z 44
_cell_length_a 14.091855
_cell_length_b 9.534156
_cell_length_c 16.864770
_cell_angle_alpha 90.000000
_cell_angle_beta 90.000000
_cell_angle_gamma 90.000000
_cell_volume 2265.848362
_symmetry_space_group_name_H-M "P M M M"
_symmetry_group_IT_number 47
_symmetry_cell_setting 'orthorhombic'
loop_
_space_group_symop_operation_xyz
x,y,z
-x,-y,z
x,-y,-z
-x,y,-z
-x,-y,-z
x,y,-z
-x,y,z
x,-y,z
loop_
_atom_site_type_symbol
_atom_site_label
_atom_site_fract_x
_atom_site_fract_y
_atom_site_fract_z
Si Si1 0.604955 0.333245 0.802571
Si Si2 0.890566 0.840735 0.676825
Si Si3 0.307483 0.655231 0.500000
Si Si4 0.106321 0.253876 0.500000
Si Si5 0.000000 0.328956 0.091227
Si Si6 0.390244 0.160755 0.639682
Si Si7 0.812530 0.332610 0.813210
O O1 0.500000 0.308544 0.840093
O O2 0.607106 0.500000 0.782045
O O3 0.609087 0.237663 0.724277
O O4 0.705843 0.304646 0.845441
O O5 0.883317 0.831030 0.581870
O O6 0.825018 0.738117 0.727141
O O7 0.000000 0.803196 0.695245
O O8 0.873380 0.000000 0.701928
O O9 0.350891 0.500000 0.500000
O O10 0.194363 0.643912 0.500000
O O11 0.336693 0.744894 0.423730
O O12 0.000000 0.314792 0.500000
O O13 0.902310 0.284179 0.134310
O O14 0.000000 0.500000 0.092291
O O15 0.000000 0.283944 0.000000
O O16 0.500000 0.154204 0.613555
O O17 0.354361 0.000000 0.644098
O O18 0.821402 0.500000 0.804664
#
# Coordination Sequence:
#
# PCOD9383746 Si02
#       7
#     8   8   4   4   4   8   8
#     4   9  18  32  50  74 104 135 168 210 260 311
#     4  10  20  34  52  74 102 137 177 222 271 319
#     4  12  24  35  49  69  92 127 175 226 279 320
#     4  10  23  38  49  67 100 142 184 222 263 315
#     4   9  18  34  57  84 111 140 176 217 261 313
#     4  10  21  36  53  73  97 128 169 217 266 316
#     4  10  19  33  55  80 106 139 179 220 263 314
#
# _framework density 19.418773999999999
#
# number of rings (size 3 to 8) (size 9 to 14) (size 15 to 20)
#    0.000    2.091    0.909    2.455    0.000    9.273 
#    0.000    1.818    0.000    1.636    0.000    3.818 
#    0.000    0.000    0.000    6.182    0.000    6.545 
#
# Total GULP energy -245208.999944 kJ/mol
# GULP energy per Si atom -5572.931817 kJ/mol
# Density = 1.937458 g / cm^3
# Si number density = 19.418774 Si / 1000 Ang^3
#
#
#
# Elastic Constant Matrix: (Units=GPa)
#
#
# Indices 1 2 3 4 5 6 
#
# 1 172.5448 27.7516 36.5173 0.0000 0.0000 0.0000
# 2 27.7516 47.6892 2.7065 0.0000 0.0000 0.0000
# 3 36.5173 2.7065 55.1014 0.0000 0.0000 0.0000
# 4 0.0000 0.0000 0.0000 2.1148 0.0000 0.0000
# 5 0.0000 0.0000 0.0000 0.0000 10.7297 0.0000
# 6 0.0000 0.0000 0.0000 0.0000 0.0000 8.9934
#
#
#
# Elastic Compliance Matrix: (Units=1/GPa)
#
#
# Indices 1 2 3 4 5 6 
#
# 1 0.007453 -0.004068 -0.004739 0.000000 0.000000 0.000000
# 2 -0.004068 0.023248 0.001554 0.000000 0.000000 0.000000
# 3 -0.004739 0.001554 0.021213 0.000000 0.000000 0.000000
# 4 0.000000 0.000000 0.000000 0.472861 0.000000 0.000000
# 5 0.000000 0.000000 0.000000 0.000000 0.093199 0.000000
# 6 0.000000 0.000000 0.000000 0.000000 0.000000 0.111193
#
#
# Mechanical properties :
#
#
# Convention : Reuss Voigt Hill
#
# Bulk Modulus (GPa) = 26.73277 45.47624 36.10451
# Shear Modulus (GPa) = 6.61250 18.25824 12.43537
#
# Velocity S-wave (km/s) = 1.84732 3.06965 2.53332
# Velocity P-wave (km/s) = 4.28328 6.00277 5.21439
#
# Compressibility (1/GPa) = 0.03740727
#
# Stress axis : x y z
#
# Youngs Moduli (GPa) = 134.17502 43.01406 47.14090
#
# Poissons Ratio (x) = 0.17498 0.22342
# Poissons Ratio (y) = 0.54583 -0.07326
# Poissons Ratio (z) = 0.63592 -0.06685
#
# Static dielectric constant tensor:
#      x y z
#    x 1.777350 0.000000 0.000000 
#    y 0.000000 1.653940 0.000000 
#    z 0.000000 0.000000 1.633890 
# 
# From -- ./inp_files/27937.got.cif
#   From: 2010.05.17/outbox.cif.g08.bks.cpg/sg47_14_cif.got.tgz:27937.got - 2010.06.03 20:15:42.
