data_PCOD9383620
_publ_section_title
;
Structure prediction by ZEFSAII (Michael W. Deem and Ramdas Pophale) SiO2 
 PCOD9383620
Probable space group: P M M M
;
_chemical_formula_sum "Si O2"
_cell_formula_units_Z 64
_cell_length_a 15.297316
_cell_length_b 7.769879
_cell_length_c 24.918044
_cell_angle_alpha 90.000000
_cell_angle_beta 90.000000
_cell_angle_gamma 90.000000
_cell_volume 2961.716208
_symmetry_space_group_name_H-M "P M M M"
_symmetry_group_IT_number 47
_symmetry_cell_setting 'orthorhombic'
loop_
_space_group_symop_operation_xyz
x,y,z
-x,-y,z
x,-y,-z
-x,y,-z
-x,-y,-z
x,y,-z
-x,y,z
x,-y,z
loop_
_atom_site_type_symbol
_atom_site_label
_atom_site_fract_x
_atom_site_fract_y
_atom_site_fract_z
Si Si1 0.231829 0.202219 0.560080
Si Si2 0.755084 0.206719 0.060719
Si Si3 0.099524 0.293388 0.142763
Si Si4 0.597214 0.791387 0.862849
Si Si5 0.399753 0.759870 0.743550
Si Si6 0.100623 0.209444 0.350967
Si Si7 0.790514 0.294946 0.246565
Si Si8 0.594747 0.305038 0.381478
O O1 0.237098 0.275462 0.500000
O O2 0.156159 0.274109 0.598224
O O3 0.322866 0.216915 0.591884
O O4 0.213086 0.000000 0.554913
O O5 0.845827 0.249164 0.089846
O O6 0.674634 0.265407 0.098209
O O7 0.747361 0.000000 0.058558
O O8 0.750578 0.273238 0.000000
O O9 0.094959 0.500000 0.146883
O O10 0.157308 0.236651 0.193725
O O11 0.000000 0.227071 0.143366
O O12 0.500000 0.768248 0.886218
O O13 0.600085 0.696484 0.805502
O O14 0.606448 0.000000 0.851632
O O15 0.500000 0.832588 0.743059
O O16 0.297576 0.814226 0.744536
O O17 0.398913 0.684324 0.683280
O O18 0.146966 0.274761 0.297349
O O19 0.000000 0.261701 0.353294
O O20 0.103773 0.000000 0.349739
O O21 0.767004 0.500000 0.241972
O O22 0.500000 0.225194 0.393912
O O23 0.595253 0.500000 0.401785
#
# Coordination Sequence:
#
# PCOD9383620 Si02
#       8
#     8   8   8   8   8   8   8   8
#     4  10  22  39  58  81 110 146 188 232 277 326
#     4  10  21  37  58  83 110 143 187 236 279 322
#     4  10  22  39  57  80 111 147 185 226 279 338
#     4   9  18  33  54  83 117 150 183 222 273 332
#     4  10  19  32  55  86 116 146 179 218 268 329
#     4  10  22  39  59  84 112 144 184 230 281 333
#     4  11  21  36  60  87 116 147 180 224 275 332
#     4  10  21  37  57  83 115 149 185 225 273 330
#
# _framework density 21.609093000000001
#
# number of rings (size 3 to 8) (size 9 to 14) (size 15 to 20)
#    0.000    2.000    2.500    0.750    0.000    5.000 
#    0.000    6.250    0.000    0.375    0.000    2.625 
#    0.000    0.000    0.000    0.000    0.000    0.000 
#
# Total GULP energy -356358.917315 kJ/mol
# GULP energy per Si atom -5568.108083 kJ/mol
# Density = 2.155991 g / cm^3
# Si number density = 21.609093 Si / 1000 Ang^3
#
#
#
# Elastic Constant Matrix: (Units=GPa)
#
#
# Indices 1 2 3 4 5 6 
#
# 1 199.0085 11.9312 77.3059 0.0000 0.0000 0.0000
# 2 11.9312 42.7296 8.1622 0.0000 0.0000 0.0000
# 3 77.3059 8.1622 149.2346 0.0000 0.0000 0.0000
# 4 0.0000 0.0000 0.0000 -36.6004 0.0000 0.0000
# 5 0.0000 0.0000 0.0000 0.0000 2.7619 0.0000
# 6 0.0000 0.0000 0.0000 0.0000 0.0000 -6.8319
#
#
#
# Elastic Compliance Matrix: (Units=1/GPa)
#
#
# Indices 1 2 3 4 5 6 
#
# 1 0.006347 -0.001156 -0.003225 0.000000 0.000000 0.000000
# 2 -0.001156 0.023861 -0.000706 0.000000 0.000000 0.000000
# 3 -0.003225 -0.000706 0.008410 0.000000 0.000000 0.000000
# 4 0.000000 0.000000 0.000000 -0.027322 0.000000 0.000000
# 5 0.000000 0.000000 0.000000 0.000000 0.362070 0.000000
# 6 0.000000 0.000000 0.000000 0.000000 0.000000 -0.146372
#
#
# Mechanical properties :
#
#
# Convention : Reuss Voigt Hill
#
# Bulk Modulus (GPa) = 35.15717 65.08568 50.12142
# Shear Modulus (GPa) = 20.27175 11.43748 15.85462
#
# Velocity S-wave (km/s) = 3.06618 2.30313 2.71163
# Velocity P-wave (km/s) = 5.37031 6.10389 5.74881
#
# Compressibility (1/GPa) = 0.02844370
#
# Stress axis : x y z
#
# Youngs Moduli (GPa) = 157.55954 41.90987 118.90858
#
# Poissons Ratio (x) = 0.04846 0.38342
# Poissons Ratio (y) = 0.18218 0.08396
# Poissons Ratio (z) = 0.50805 0.02959
#
# Static dielectric constant tensor:
#      x y z
#    x 1.770180 0.000000 0.000000 
#    y 0.000000 1.884340 0.000000 
#    z 0.000000 0.000000 1.753220 
# 
# From -- ./inp_files/12678.got.cif
#   From: 2010.05.17/outbox.cif.g08.bks.cpg/sg47_7_cif.got.tgz:12678.got - 2010.06.03 20:15:42.
