data_PCOD9383823
_publ_section_title
;
Structure prediction by ZEFSAII (Michael W. Deem and Ramdas Pophale) SiO2 
 PCOD9383823
Probable space group: P M M M
;
_chemical_formula_sum "Si O2"
_cell_formula_units_Z 45
_cell_length_a 22.461493
_cell_length_b 7.475290
_cell_length_c 14.617371
_cell_angle_alpha 90.000000
_cell_angle_beta 90.000000
_cell_angle_gamma 90.000000
_cell_volume 2454.346839
_symmetry_space_group_name_H-M "P M M M"
_symmetry_group_IT_number 47
_symmetry_cell_setting 'orthorhombic'
loop_
_space_group_symop_operation_xyz
x,y,z
-x,-y,z
x,-y,-z
-x,y,-z
-x,-y,-z
x,y,-z
-x,y,z
x,-y,z
loop_
_atom_site_type_symbol
_atom_site_label
_atom_site_fract_x
_atom_site_fract_y
_atom_site_fract_z
Si Si1 0.387411 0.709477 0.898026
Si Si2 0.123108 0.500000 0.398160
Si Si3 0.195727 0.784046 0.708450
Si Si4 0.000000 0.500000 0.500000
Si Si5 0.564877 0.792830 0.704695
Si Si6 0.317702 0.781954 0.605089
Si Si7 0.247798 0.215790 0.101894
O O1 0.401704 0.500000 0.898699
O O2 0.421843 0.790396 0.812898
O O3 0.316397 0.729260 0.882191
O O4 0.399848 0.782058 0.000000
O O5 0.152488 0.500000 0.500000
O O6 0.144843 0.326933 0.342246
O O7 0.053395 0.500000 0.421612
O O8 0.257904 0.734830 0.658876
O O9 0.205830 0.731495 0.814343
O O10 0.187450 0.000000 0.702003
O O11 0.500000 0.712332 0.686127
O O12 0.622518 0.714922 0.654341
O O13 0.562144 0.000000 0.675816
O O14 0.315368 0.725787 0.500000
O O15 0.319092 0.000000 0.607140
O O16 0.248322 0.000000 0.101872
O O17 0.230762 0.277622 0.000000
#
# Coordination Sequence:
#
# PCOD9383823 Si02
#       7
#     8   4   8   1   8   8   8
#     4  10  20  32  47  67  94 131 175 224 285 346
#     4  10  22  40  61  85 122 157 183 228 269 316
#     4  10  19  33  57  88 115 149 194 232 280 334
#     4   8  24  48  58  92 134 154 194 228 262 316
#     4  10  20  33  48  65  88 127 177 225 281 343
#     4   9  17  30  48  72 102 130 169 228 275 325
#     4   9  17  30  50  79 116 147 176 229 289 336
#
# _framework density 18.334817000000001
#
# number of rings (size 3 to 8) (size 9 to 14) (size 15 to 20)
#    0.267    2.133    1.778    1.067    1.244    3.200 
#    0.000    4.444    0.000    0.000    0.000    2.489 
#    0.000    2.844    0.000    0.000    0.000    0.000 
#
# Total GULP energy -250704.098085 kJ/mol
# GULP energy per Si atom -5571.202180 kJ/mol
# Density = 1.829309 g / cm^3
# Si number density = 18.334817 Si / 1000 Ang^3
#
#
#
# Elastic Constant Matrix: (Units=GPa)
#
#
# Indices 1 2 3 4 5 6 
#
# 1 121.7830 25.8876 60.2588 0.0000 0.0000 0.0000
# 2 25.8876 63.7072 16.9595 0.0000 0.0000 0.0000
# 3 60.2588 16.9595 109.9681 0.0000 0.0000 0.0000
# 4 0.0000 0.0000 0.0000 -5.1185 0.0000 0.0000
# 5 0.0000 0.0000 0.0000 0.0000 22.5703 0.0000
# 6 0.0000 0.0000 0.0000 0.0000 0.0000 5.5067
#
#
#
# Elastic Compliance Matrix: (Units=1/GPa)
#
#
# Indices 1 2 3 4 5 6 
#
# 1 0.011869 -0.003224 -0.006006 0.000000 0.000000 0.000000
# 2 -0.003224 0.017245 -0.000893 0.000000 0.000000 0.000000
# 3 -0.006006 -0.000893 0.012523 0.000000 0.000000 0.000000
# 4 0.000000 0.000000 0.000000 -0.195370 0.000000 0.000000
# 5 0.000000 0.000000 0.000000 0.000000 0.044306 0.000000
# 6 0.000000 0.000000 0.000000 0.000000 0.000000 0.181596
#
#
# Mechanical properties :
#
#
# Convention : Reuss Voigt Hill
#
# Bulk Modulus (GPa) = 46.75229 55.74112 51.24671
# Shear Modulus (GPa) = 50.22911 17.41521 33.82216
#
# Velocity S-wave (km/s) = 5.23975 3.08530 4.29965
# Velocity P-wave (km/s) = 7.88423 6.56962 7.25676
#
# Compressibility (1/GPa) = 0.02138933
#
# Stress axis : x y z
#
# Youngs Moduli (GPa) = 84.25579 57.98933 79.85589
#
# Poissons Ratio (x) = 0.18695 0.47965
# Poissons Ratio (y) = 0.27163 0.07131
# Poissons Ratio (z) = 0.50607 0.05178
#
# Static dielectric constant tensor:
#      x y z
#    x 1.590720 0.000000 0.000000 
#    y 0.000000 1.665300 0.000000 
#    z 0.000000 0.000000 1.656340 
# 
# From -- ./inp_files/24949.got.cif
#   From: 2010.05.17/outbox.cif.g08.bks.cpg/sg47_13_cif.got.tgz:24949.got - 2010.06.03 20:15:42.
