data_PCOD9383710
_publ_section_title
;
Structure prediction by ZEFSAII (Michael W. Deem and Ramdas Pophale) SiO2 
 PCOD9383710
Probable space group: P M M M
;
_chemical_formula_sum "Si O2"
_cell_formula_units_Z 52
_cell_length_a 15.807192
_cell_length_b 22.554258
_cell_length_c 7.884069
_cell_angle_alpha 90.000000
_cell_angle_beta 90.000000
_cell_angle_gamma 90.000000
_cell_volume 2810.824232
_symmetry_space_group_name_H-M "P M M M"
_symmetry_group_IT_number 47
_symmetry_cell_setting 'orthorhombic'
loop_
_space_group_symop_operation_xyz
x,y,z
-x,-y,z
x,-y,-z
-x,y,-z
-x,-y,-z
x,y,-z
-x,y,z
x,-y,z
loop_
_atom_site_type_symbol
_atom_site_label
_atom_site_fract_x
_atom_site_fract_y
_atom_site_fract_z
Si Si1 0.407602 0.634182 0.201834
Si Si2 0.093355 0.736867 0.801186
Si Si3 0.210699 0.500000 0.818064
Si Si4 0.382111 0.500000 0.312387
Si Si5 0.397535 0.932540 0.000000
Si Si6 0.600622 0.154716 0.303341
Si Si7 0.282740 0.735183 0.206088
Si Si8 0.095442 0.398341 0.697894
O O1 0.500000 0.654597 0.269515
O O2 0.403143 0.563512 0.230733
O O3 0.327136 0.673043 0.264253
O O4 0.408547 0.643564 0.000000
O O5 0.187470 0.751074 0.731200
O O6 0.094272 0.665860 0.781251
O O7 0.000000 0.755989 0.730130
O O8 0.092558 0.753197 0.000000
O O9 0.281556 0.500000 0.679979
O O10 0.154835 0.442354 0.796757
O O11 0.254673 0.500000 0.000000
O O12 0.416165 0.500000 0.500000
O O13 0.373799 0.895771 0.168240
O O14 0.500000 0.935183 0.000000
O O15 0.365797 0.000000 0.000000
O O16 0.613791 0.137754 0.500000
O O17 0.500000 0.165861 0.280313
O O18 0.653193 0.213410 0.260438
O O19 0.276950 0.732939 0.000000
O O20 0.120115 0.393293 0.500000
O O21 0.000000 0.422145 0.701757
#
# Coordination Sequence:
#
# PCOD9383710 Si02
#       8
#     8   8   4   4   4   8   8   8
#     4  10  21  36  54  73  95 129 173 218 267 326
#     4   9  18  32  50  73 101 134 172 212 257 314
#     4  12  23  34  49  65  83 111 151 195 246 315
#     4  12  25  38  51  67  91 121 160 215 272 326
#     4   9  18  34  56  82 119 162 196 228 266 312
#     4  10  20  33  53  83 118 154 193 234 271 315
#     4  10  19  33  54  77 105 142 181 225 276 325
#     4  10  20  33  48  67  91 116 147 196 257 317
#
# _framework density 18.499912999999999
#
# number of rings (size 3 to 8) (size 9 to 14) (size 15 to 20)
#    0.000    1.923    0.769    3.692    0.000    6.462 
#    0.000    1.538    0.000    0.000    0.000    0.000 
#    0.000    1.231    0.000    1.385    0.000    0.154 
#
# Total GULP energy -289803.241228 kJ/mol
# GULP energy per Si atom -5573.139254 kJ/mol
# Density = 1.845781 g / cm^3
# Si number density = 18.499913 Si / 1000 Ang^3
#
#
#
# Elastic Constant Matrix: (Units=GPa)
#
#
# Indices 1 2 3 4 5 6 
#
# 1 107.1828 36.7098 29.0356 0.0000 0.0000 0.0000
# 2 36.7098 80.6616 13.8764 0.0000 0.0000 0.0000
# 3 29.0356 13.8764 47.0263 0.0000 0.0000 0.0000
# 4 0.0000 0.0000 0.0000 90.9064 0.0000 0.0000
# 5 0.0000 0.0000 0.0000 0.0000 1.3187 0.0000
# 6 0.0000 0.0000 0.0000 0.0000 0.0000 6.7186
#
#
#
# Elastic Compliance Matrix: (Units=1/GPa)
#
#
# Indices 1 2 3 4 5 6 
#
# 1 0.012672 -0.004658 -0.006450 0.000000 0.000000 0.000000
# 2 -0.004658 0.014772 -0.001483 0.000000 0.000000 0.000000
# 3 -0.006450 -0.001483 0.025685 0.000000 0.000000 0.000000
# 4 0.000000 0.000000 0.000000 0.011000 0.000000 0.000000
# 5 0.000000 0.000000 0.000000 0.000000 0.758322 0.000000
# 6 0.000000 0.000000 0.000000 0.000000 0.000000 0.148841
#
#
# Mechanical properties :
#
#
# Convention : Reuss Voigt Hill
#
# Bulk Modulus (GPa) = 35.78090 43.79045 39.78568
# Shear Modulus (GPa) = 4.97122 30.13866 17.55494
#
# Velocity S-wave (km/s) = 1.64103 4.04062 3.08380
# Velocity P-wave (km/s) = 4.79309 6.74469 5.85084
#
# Compressibility (1/GPa) = 0.02794787
#
# Stress axis : x y z
#
# Youngs Moduli (GPa) = 78.91173 67.69381 38.93355
#
# Poissons Ratio (x) = 0.31530 0.25112
# Poissons Ratio (y) = 0.36755 0.05775
# Poissons Ratio (z) = 0.50898 0.10040
#
# Static dielectric constant tensor:
#      x y z
#    x 1.706230 0.000000 0.000000 
#    y 0.000000 1.599230 0.000000 
#    z 0.000000 0.000000 1.670400 
# 
# From -- ./inp_files/7107.got.cif
#   From: 2010.05.17/outbox.cif.g08.bks.cpg/sg47_4_cif.got.tgz:7107.got - 2010.06.03 20:15:42.
