data_PCOD9383127
_publ_section_title
;
Structure prediction by ZEFSAII (Michael W. Deem and Ramdas Pophale) SiO2 
 PCOD9383127
Probable space group: P M M M
;
_chemical_formula_sum "Si O2"
_cell_formula_units_Z 44
_cell_length_a 15.084713
_cell_length_b 18.077447
_cell_length_c 9.204127
_cell_angle_alpha 90.000000
_cell_angle_beta 90.000000
_cell_angle_gamma 90.000000
_cell_volume 2509.901922
_symmetry_space_group_name_H-M "P M M M"
_symmetry_group_IT_number 47
_symmetry_cell_setting 'orthorhombic'
loop_
_space_group_symop_operation_xyz
x,y,z
-x,-y,z
x,-y,-z
-x,y,-z
-x,-y,-z
x,y,-z
-x,y,z
x,-y,z
loop_
_atom_site_type_symbol
_atom_site_label
_atom_site_fract_x
_atom_site_fract_y
_atom_site_fract_z
Si Si1 0.000000 0.413654 0.159945
Si Si2 0.657015 0.698721 0.672054
Si Si3 0.097507 0.825958 0.174148
Si Si4 0.861170 0.327252 0.670275
Si Si5 0.297371 0.147680 0.175104
Si Si6 0.500000 0.587022 0.676839
Si Si7 0.601551 0.000000 0.177080
O O1 0.085833 0.390073 0.248527
O O2 0.000000 0.500000 0.144630
O O3 0.000000 0.377708 0.000000
O O4 0.641908 0.712977 0.500000
O O5 0.755940 0.666661 0.688863
O O6 0.662554 0.777631 0.754275
O O7 0.584879 0.637655 0.720026
O O8 0.105365 0.748372 0.256701
O O9 0.192373 0.863042 0.210050
O O10 0.000000 0.859540 0.208963
O O11 0.098707 0.814732 0.000000
O O12 0.881092 0.326207 0.500000
O O13 0.349671 0.074888 0.223076
O O14 0.304298 0.155025 0.000000
O O15 0.500000 0.500000 0.725142
O O16 0.500000 0.583871 0.500000
O O17 0.500000 0.000000 0.224184
O O18 0.603185 0.000000 0.000000
#
# Coordination Sequence:
#
# PCOD9383127 Si02
#       7
#     4   8   8   8   8   4   4
#     4  11  23  35  47  67  99 136 169 206 257 311
#     4   9  19  34  54  79 104 132 171 215 258 311
#     4   9  16  28  48  71  97 129 165 204 252 303
#     4  10  19  31  49  73  98 127 168 213 252 297
#     4   9  18  32  51  75 102 137 176 213 254 305
#     4   9  18  34  55  76 101 134 168 209 265 319
#     4   9  18  32  50  74 106 139 175 217 261 305
#
# _framework density 17.530564999999999
#
# number of rings (size 3 to 8) (size 9 to 14) (size 15 to 20)
#    0.000    2.636    0.909    0.818    1.273    2.182 
#    0.000    2.727    0.000    4.364    0.000    0.000 
#    0.000    5.818    0.000    0.000    0.000    0.000 
#
# Total GULP energy -244947.169366 kJ/mol
# GULP energy per Si atom -5566.981122 kJ/mol
# Density = 1.749066 g / cm^3
# Si number density = 17.530565 Si / 1000 Ang^3
#
#
#
# Elastic Constant Matrix: (Units=GPa)
#
#
# Indices 1 2 3 4 5 6 
#
# 1 151.2960 88.1018 37.8068 0.0000 0.0000 0.0000
# 2 88.1018 118.8993 32.6273 0.0000 0.0000 0.0000
# 3 37.8068 32.6273 18.3057 0.0000 0.0000 0.0000
# 4 0.0000 0.0000 0.0000 -4.3496 0.0000 0.0000
# 5 0.0000 0.0000 0.0000 0.0000 17.6242 0.0000
# 6 0.0000 0.0000 0.0000 0.0000 0.0000 32.6280
#
#
#
# Elastic Compliance Matrix: (Units=1/GPa)
#
#
# Indices 1 2 3 4 5 6 
#
# 1 0.015118 -0.005156 -0.022033 0.000000 0.000000 0.000000
# 2 -0.005156 0.018220 -0.021827 0.000000 0.000000 0.000000
# 3 -0.022033 -0.021827 0.139035 0.000000 0.000000 0.000000
# 4 0.000000 0.000000 0.000000 -0.229906 0.000000 0.000000
# 5 0.000000 0.000000 0.000000 0.000000 0.056740 0.000000
# 6 0.000000 0.000000 0.000000 0.000000 0.000000 0.030648
#
#
# Mechanical properties :
#
#
# Convention : Reuss Voigt Hill
#
# Bulk Modulus (GPa) = 13.45131 67.28585 40.36858
# Shear Modulus (GPa) = 32.75093 17.84487 25.29790
#
# Velocity S-wave (km/s) = 4.32698 3.19396 3.80290
# Velocity P-wave (km/s) = 5.71431 7.21576 6.50848
#
# Compressibility (1/GPa) = 0.07434222
#
# Stress axis : x y z
#
# Youngs Moduli (GPa) = 66.14847 54.88398 7.19241
#
# Poissons Ratio (x) = 0.28296 0.15847
# Poissons Ratio (y) = 0.34104 0.15699
# Poissons Ratio (z) = 1.45744 1.19795
#
# Static dielectric constant tensor:
#      x y z
#    x 1.647930 0.000000 0.000000 
#    y 0.000000 1.575250 0.000000 
#    z 0.000000 0.000000 1.603220 
# 
# From -- ./inp_files/6263.got.cif
#   From: 2010.05.17/outbox.cif.g08.bks.cpg/sg47_4_cif.got.tgz:6263.got - 2010.06.03 20:15:42.
