data_PCOD9383004
_publ_section_title
;
Structure prediction by ZEFSAII (Michael W. Deem and Ramdas Pophale) SiO2 
 PCOD9383004
Probable space group: P M M M
;
_chemical_formula_sum "Si O2"
_cell_formula_units_Z 52
_cell_length_a 12.949100
_cell_length_b 26.847851
_cell_length_c 8.892483
_cell_angle_alpha 90.000000
_cell_angle_beta 90.000000
_cell_angle_gamma 90.000000
_cell_volume 3091.520689
_symmetry_space_group_name_H-M "P M M M"
_symmetry_group_IT_number 47
_symmetry_cell_setting 'orthorhombic'
loop_
_space_group_symop_operation_xyz
x,y,z
-x,-y,z
x,-y,-z
-x,y,-z
-x,-y,-z
x,y,-z
-x,y,z
x,-y,z
loop_
_atom_site_type_symbol
_atom_site_label
_atom_site_fract_x
_atom_site_fract_y
_atom_site_fract_z
Si Si1 0.876572 0.604238 0.679062
Si Si2 0.000000 0.124412 0.181663
Si Si3 0.197545 0.942742 0.818980
Si Si4 0.000000 0.765992 0.319902
Si Si5 0.191058 0.705647 0.819588
Si Si6 0.619327 0.881810 0.320218
Si Si7 0.381312 0.774686 0.180100
Si Si8 0.125405 0.500000 0.173467
O O1 0.862746 0.605823 0.500000
O O2 0.819334 0.649913 0.757735
O O3 0.843329 0.550723 0.743601
O O4 0.000000 0.610058 0.709150
O O5 0.101139 0.092360 0.221602
O O6 0.000000 0.177354 0.262618
O O7 0.000000 0.132005 0.000000
O O8 0.301263 0.920919 0.748111
O O9 0.179422 0.000000 0.774374
O O10 0.206384 0.941346 0.000000
O O11 0.899981 0.737937 0.254705
O O12 0.000000 0.763435 0.500000
O O13 0.299464 0.732059 0.782031
O O14 0.178383 0.705789 0.000000
O O15 0.625829 0.882165 0.500000
O O16 0.500000 0.891853 0.276646
O O17 0.645633 0.826695 0.259490
O O18 0.500000 0.762107 0.218901
O O19 0.376228 0.782685 0.000000
O O20 0.000000 0.500000 0.175411
O O21 0.158580 0.500000 0.000000
#
# Coordination Sequence:
#
# PCOD9383004 Si02
#       8
#     8   4   8   4   8   8   8   4
#     4  10  19  31  47  71 105 141 176 215 257 302
#     4  10  21  38  56  74  99 131 166 205 248 297
#     4  10  21  37  57  78  99 127 165 206 248 297
#     4  12  24  35  49  74 107 138 168 205 250 303
#     4  11  21  33  52  76 104 137 173 213 255 303
#     4  10  21  36  54  77 104 132 162 202 253 305
#     4   9  19  36  56  77 101 132 171 213 255 301
#     4   9  17  29  47  69  98 139 182 219 254 302
#
# _framework density 16.820201999999998
#
# number of rings (size 3 to 8) (size 9 to 14) (size 15 to 20)
#    0.000    1.923    0.769    3.462    0.000    9.538 
#    0.000    1.538    0.000    1.385    0.000    0.538 
#    0.000    4.308    0.000    0.000    0.000    0.000 
#
# Total GULP energy -290369.520922 kJ/mol
# GULP energy per Si atom -5584.029249 kJ/mol
# Density = 1.678192 g / cm^3
# Si number density = 16.820202 Si / 1000 Ang^3
#
#
#
# Elastic Constant Matrix: (Units=GPa)
#
#
# Indices 1 2 3 4 5 6 
#
# 1 62.6780 59.2567 29.5521 0.0000 0.0000 0.0000
# 2 59.2567 151.3677 48.3588 0.0000 0.0000 0.0000
# 3 29.5521 48.3588 44.2199 0.0000 0.0000 0.0000
# 4 0.0000 0.0000 0.0000 -335.0730 0.0000 0.0000
# 5 0.0000 0.0000 0.0000 0.0000 12.8996 0.0000
# 6 0.0000 0.0000 0.0000 0.0000 0.0000 3.7228
#
#
#
# Elastic Compliance Matrix: (Units=1/GPa)
#
#
# Indices 1 2 3 4 5 6 
#
# 1 0.028122 -0.007692 -0.010381 0.000000 0.000000 0.000000
# 2 -0.007692 0.012258 -0.008265 0.000000 0.000000 0.000000
# 3 -0.010381 -0.008265 0.038591 0.000000 0.000000 0.000000
# 4 0.000000 0.000000 0.000000 -0.002984 0.000000 0.000000
# 5 0.000000 0.000000 0.000000 0.000000 0.077522 0.000000
# 6 0.000000 0.000000 0.000000 0.000000 0.000000 0.268615
#
#
# Mechanical properties :
#
#
# Convention : Reuss Voigt Hill
#
# Bulk Modulus (GPa) = 38.03236 59.17786 48.60511
# Shear Modulus (GPa) = 10.33988 -55.61692 -22.63852
#
# Velocity S-wave (km/s) = 2.48206 -5.75650 -3.67265
# Velocity P-wave (km/s) = 5.55647 2.98733 3.31288
#
# Compressibility (1/GPa) = 0.02629340
#
# Stress axis : x y z
#
# Youngs Moduli (GPa) = 35.55965 81.57803 25.91310
#
# Poissons Ratio (x) = 0.62752 0.26902
# Poissons Ratio (y) = 0.27354 0.21417
# Poissons Ratio (z) = 0.36916 0.67422
#
# Static dielectric constant tensor:
#      x y z
#    x 1.553160 0.000000 0.000000 
#    y 0.000000 1.547360 0.000000 
#    z 0.000000 0.000000 1.560460 
# 
# From -- ./inp_files/4679.got.cif
#   From: 2010.05.17/outbox.cif.g08.bks.cpg/sg47_3_cif.got.tgz:4679.got - 2010.06.03 20:15:42.
