data_PCOD9383678
_publ_section_title
;
Structure prediction by ZEFSAII (Michael W. Deem and Ramdas Pophale) SiO2 
 PCOD9383678
Probable space group: P M M M
;
_chemical_formula_sum "Si O2"
_cell_formula_units_Z 58
_cell_length_a 26.681174
_cell_length_b 7.678619
_cell_length_c 15.247754
_cell_angle_alpha 90.000000
_cell_angle_beta 90.000000
_cell_angle_gamma 90.000000
_cell_volume 3123.877038
_symmetry_space_group_name_H-M "P M M M"
_symmetry_group_IT_number 47
_symmetry_cell_setting 'orthorhombic'
loop_
_space_group_symop_operation_xyz
x,y,z
-x,-y,z
x,-y,-z
-x,y,-z
-x,-y,-z
x,y,-z
-x,y,z
x,-y,z
loop_
_atom_site_type_symbol
_atom_site_label
_atom_site_fract_x
_atom_site_fract_y
_atom_site_fract_z
Si Si1 0.556192 0.710843 0.396785
Si Si2 0.846478 0.286984 0.397885
Si Si3 0.945746 0.295174 0.294821
Si Si4 0.810843 0.710359 0.904978
Si Si5 0.679053 0.500000 0.500000
Si Si6 0.337919 0.807558 0.639261
Si Si7 0.073430 0.798464 0.903550
Si Si8 0.756470 0.288764 0.270197
O O1 0.563733 0.757800 0.500000
O O2 0.500000 0.765183 0.371761
O O3 0.558170 0.500000 0.394416
O O4 0.602902 0.782919 0.343432
O O5 0.847473 0.233379 0.500000
O O6 0.846541 0.500000 0.397066
O O7 0.895711 0.226861 0.343229
O O8 0.795529 0.235684 0.347248
O O9 0.946451 0.500000 0.316137
O O10 0.942761 0.281136 0.189051
O O11 0.000000 0.220299 0.322168
O O12 0.816482 0.500000 0.899771
O O13 0.866496 0.785746 0.901602
O O14 0.779885 0.767487 0.821632
O O15 0.788617 0.753058 0.000000
O O16 0.676884 0.347625 0.574780
O O17 0.298594 0.786104 0.717100
O O18 0.331374 0.000000 0.601868
O O19 0.058307 0.000000 0.901935
O O20 0.058279 0.725694 0.000000
O O21 0.754306 0.500000 0.271236
#
# Coordination Sequence:
#
# PCOD9383678 Si02
#       8
#     8   8   8   8   2   8   8   8
#     4   9  16  30  50  71 102 144 188 233 276 316
#     4   9  18  31  51  75  99 133 166 202 260 309
#     4  10  20  35  53  73  96 124 165 212 252 302
#     4   9  17  32  56  81 104 134 170 207 257 317
#     4  12  22  40  49  72 114 146 191 240 272 314
#     4  12  23  34  53  77 106 147 190 231 277 320
#     4  10  20  33  51  75 102 128 155 197 255 317
#     4  10  19  33  53  75 109 142 170 218 268 317
#
# _framework density 18.566670999999999
#
# number of rings (size 3 to 8) (size 9 to 14) (size 15 to 20)
#    0.000    2.069    3.448    1.034    0.966    2.483 
#    0.000    3.448    0.000    1.241    0.000    0.966 
#    0.000    0.552    0.000    6.345    0.000    1.793 
#
# Total GULP energy -322940.200858 kJ/mol
# GULP energy per Si atom -5567.934498 kJ/mol
# Density = 1.852441 g / cm^3
# Si number density = 18.566671 Si / 1000 Ang^3
#
#
#
# Elastic Constant Matrix: (Units=GPa)
#
#
# Indices 1 2 3 4 5 6 
#
# 1 153.7978 9.6181 65.3080 0.0000 0.0000 0.0000
# 2 9.6181 64.1398 9.9963 0.0000 0.0000 0.0000
# 3 65.3080 9.9963 99.3361 0.0000 0.0000 0.0000
# 4 0.0000 0.0000 0.0000 12.7319 0.0000 0.0000
# 5 0.0000 0.0000 0.0000 0.0000 93.9507 0.0000
# 6 0.0000 0.0000 0.0000 0.0000 0.0000 237.4903
#
#
#
# Elastic Compliance Matrix: (Units=1/GPa)
#
#
# Indices 1 2 3 4 5 6 
#
# 1 0.009032 -0.000436 -0.005894 0.000000 0.000000 0.000000
# 2 -0.000436 0.015860 -0.001310 0.000000 0.000000 0.000000
# 3 -0.005894 -0.001310 0.014074 0.000000 0.000000 0.000000
# 4 0.000000 0.000000 0.000000 0.078543 0.000000 0.000000
# 5 0.000000 0.000000 0.000000 0.000000 0.010644 0.000000
# 6 0.000000 0.000000 0.000000 0.000000 0.000000 0.004211
#
#
# Mechanical properties :
#
#
# Convention : Reuss Voigt Hill
#
# Bulk Modulus (GPa) = 42.21706 54.12426 48.17066
# Shear Modulus (GPa) = 32.14635 84.32467 58.23551
#
# Velocity S-wave (km/s) = 4.16552 6.74654 5.60658
# Velocity P-wave (km/s) = 6.77664 9.48168 8.24091
#
# Compressibility (1/GPa) = 0.02368710
#
# Stress axis : x y z
#
# Youngs Moduli (GPa) = 110.71453 63.05014 71.05390
#
# Poissons Ratio (x) = 0.02748 0.41882
# Poissons Ratio (y) = 0.04825 0.09305
# Poissons Ratio (z) = 0.65259 0.08257
#
# Static dielectric constant tensor:
#      x y z
#    x 1.682170 0.000000 0.000000 
#    y 0.000000 1.678870 0.000000 
#    z 0.000000 0.000000 1.647420 
# 
# From -- ./inp_files/25766.got.cif
#   From: 2010.05.17/outbox.cif.g08.bks.cpg/sg47_13_cif.got.tgz:25766.got - 2010.06.03 20:15:42.
