data_PCOD9383752
_publ_section_title
;
Structure prediction by ZEFSAII (Michael W. Deem and Ramdas Pophale) SiO2 
 PCOD9383752
Probable space group: P M M M
;
_chemical_formula_sum "Si O2"
_cell_formula_units_Z 48
_cell_length_a 15.165395
_cell_length_b 9.054487
_cell_length_c 19.154756
_cell_angle_alpha 90.000000
_cell_angle_beta 90.000000
_cell_angle_gamma 90.000000
_cell_volume 2630.232866
_symmetry_space_group_name_H-M "P M M M"
_symmetry_group_IT_number 47
_symmetry_cell_setting 'orthorhombic'
loop_
_space_group_symop_operation_xyz
x,y,z
-x,-y,z
x,-y,-z
-x,y,-z
-x,-y,-z
x,y,-z
-x,y,z
x,-y,z
loop_
_atom_site_type_symbol
_atom_site_label
_atom_site_fract_x
_atom_site_fract_y
_atom_site_fract_z
Si Si1 0.331014 0.832023 0.076599
Si Si2 0.899617 0.174606 0.774572
Si Si3 0.254801 0.328333 0.689831
Si Si4 0.400404 0.678888 0.582328
Si Si5 0.854908 0.323849 0.921204
Si Si6 0.594707 0.336829 0.805225
O O1 0.247569 0.723450 0.080240
O O2 0.395999 0.786738 0.137058
O O3 0.298904 0.000000 0.085239
O O4 0.371451 0.819486 0.000000
O O5 0.829522 0.243292 0.720342
O O6 0.892973 0.247414 0.851919
O O7 0.000000 0.196012 0.749847
O O8 0.882393 0.000000 0.781790
O O9 0.230616 0.500000 0.675853
O O10 0.315049 0.268534 0.625908
O O11 0.325505 0.326665 0.752449
O O12 0.389815 0.708256 0.500000
O O13 0.500000 0.730824 0.602143
O O14 0.401373 0.500000 0.591846
O O15 0.865144 0.500000 0.915070
O O16 0.887264 0.281101 0.000000
O O17 0.500000 0.327200 0.768814
O O18 0.599141 0.500000 0.838678
#
# Coordination Sequence:
#
# PCOD9383752 Si02
#       6
#     8   8   8   8   8   8
#     4  10  20  33  49  69  97 135 177 220 265 313
#     4  11  24  39  55  77 106 141 181 225 275 329
#     4  10  19  33  55  81 109 142 178 219 265 315
#     4   8  14  27  52  88 124 151 176 211 258 312
#     4  10  20  35  56  79 102 131 172 225 283 335
#     4  10  20  32  48  73 103 136 175 217 262 314
#
# _framework density 18.249334000000001
#
# number of rings (size 3 to 8) (size 9 to 14) (size 15 to 20)
#    0.000    2.167    1.667    2.500    0.000    6.333 
#    0.000    3.333    0.000    2.500    0.000    4.667 
#    0.000    0.000    0.000    0.000    0.000    0.000 
#
# Total GULP energy -267413.318843 kJ/mol
# GULP energy per Si atom -5571.110809 kJ/mol
# Density = 1.820780 g / cm^3
# Si number density = 18.249334 Si / 1000 Ang^3
#
#
#
# Elastic Constant Matrix: (Units=GPa)
#
#
# Indices 1 2 3 4 5 6 
#
# 1 112.6401 40.7849 51.2184 0.0000 0.0000 0.0000
# 2 40.7849 53.5894 34.8588 0.0000 0.0000 0.0000
# 3 51.2184 34.8588 88.0411 0.0000 0.0000 0.0000
# 4 0.0000 0.0000 0.0000 3.7608 0.0000 0.0000
# 5 0.0000 0.0000 0.0000 0.0000 47.1155 0.0000
# 6 0.0000 0.0000 0.0000 0.0000 0.0000 28.5016
#
#
#
# Elastic Compliance Matrix: (Units=1/GPa)
#
#
# Indices 1 2 3 4 5 6 
#
# 1 0.013836 -0.007131 -0.005226 0.000000 0.000000 0.000000
# 2 -0.007131 0.028809 -0.007258 0.000000 0.000000 0.000000
# 3 -0.005226 -0.007258 0.017272 0.000000 0.000000 0.000000
# 4 0.000000 0.000000 0.000000 0.265897 0.000000 0.000000
# 5 0.000000 0.000000 0.000000 0.000000 0.021224 0.000000
# 6 0.000000 0.000000 0.000000 0.000000 0.000000 0.035086
#
#
# Mechanical properties :
#
#
# Convention : Reuss Voigt Hill
#
# Bulk Modulus (GPa) = 48.33832 56.44385 52.39109
# Shear Modulus (GPa) = 11.67544 24.36950 18.02247
#
# Velocity S-wave (km/s) = 2.53212 3.65823 3.14597
# Velocity P-wave (km/s) = 5.92402 6.98856 6.47819
#
# Compressibility (1/GPa) = 0.02068752
#
# Stress axis : x y z
#
# Youngs Moduli (GPa) = 72.27545 34.71190 57.89647
#
# Poissons Ratio (x) = 0.24752 0.30256
# Poissons Ratio (y) = 0.51538 0.42022
# Poissons Ratio (z) = 0.37770 0.25194
#
# Static dielectric constant tensor:
#      x y z
#    x 1.647520 0.000000 0.000000 
#    y 0.000000 1.631230 0.000000 
#    z 0.000000 0.000000 1.647000 
# 
# From -- ./inp_files/9119.got.cif
#   From: 2010.05.17/outbox.cif.g08.bks.cpg/sg47_5_cif.got.tgz:9119.got - 2010.06.03 20:15:42.
