data_PCOD9383954
_publ_section_title
;
Structure prediction by ZEFSAII (Michael W. Deem and Ramdas Pophale) SiO2 
 PCOD9383954
Probable space group: P M M M
;
_chemical_formula_sum "Si O2"
_cell_formula_units_Z 31
_cell_length_a 12.421411
_cell_length_b 15.156271
_cell_length_c 7.345852
_cell_angle_alpha 90.000000
_cell_angle_beta 90.000000
_cell_angle_gamma 90.000000
_cell_volume 1382.946782
_symmetry_space_group_name_H-M "P M M M"
_symmetry_group_IT_number 47
_symmetry_cell_setting 'orthorhombic'
loop_
_space_group_symop_operation_xyz
x,y,z
-x,-y,z
x,-y,-z
-x,y,-z
-x,-y,-z
x,y,-z
-x,y,z
x,-y,z
loop_
_atom_site_type_symbol
_atom_site_label
_atom_site_fract_x
_atom_site_fract_y
_atom_site_fract_z
Si Si1 0.787956 0.689353 0.279806
Si Si2 0.768189 0.000000 0.794503
Si Si3 0.704332 0.500000 0.277850
Si Si4 0.000000 0.202441 0.276518
Si Si5 0.500000 0.500000 0.000000
Si Si6 0.000000 0.000000 0.746790
Si Si7 0.378374 0.168513 0.280778
O O1 0.789933 0.692645 0.500000
O O2 0.772240 0.587804 0.231879
O O3 0.894680 0.741747 0.223064
O O4 0.683645 0.744422 0.218150
O O5 0.876183 0.000000 0.678646
O O6 0.694159 0.915243 0.766465
O O7 0.810701 0.000000 0.000000
O O8 0.684117 0.500000 0.500000
O O9 0.595389 0.500000 0.160660
O O10 0.000000 0.191770 0.500000
O O11 0.000000 0.104245 0.195600
O O12 0.383503 0.171419 0.500000
O O13 0.500000 0.161041 0.212621
#
# Coordination Sequence:
#
# PCOD9383954 Si02
#       7
#     8   4   4   4   1   2   8
#     4   9  19  37  63  95 127 166 211 265 330 385
#     4  12  25  40  56  83 122 165 211 259 325 390
#     4  10  23  44  67  98 140 175 216 279 334 387
#     4  10  19  34  65 100 123 161 221 269 322 391
#     4  12  26  44  72 104 132 174 238 268 326 410
#     4  12  22  38  58  82 127 168 209 280 323 374
#     4  10  21  38  61  88 120 160 208 258 317 386
#
# _framework density 22.415904000000001
#
# number of rings (size 3 to 8) (size 9 to 14) (size 15 to 20)
#    0.000    1.806    2.581    1.355    1.806    3.613 
#    2.323    2.581    0.000    0.774    0.000    0.000 
#    0.000    0.000    0.000    0.000    0.000    0.000 
#
# Total GULP energy -172752.183600 kJ/mol
# GULP energy per Si atom -5572.651084 kJ/mol
# Density = 2.236488 g / cm^3
# Si number density = 22.415904 Si / 1000 Ang^3
#
#
#
# Elastic Constant Matrix: (Units=GPa)
#
#
# Indices 1 2 3 4 5 6 
#
# 1 214.9592 116.0113 27.3825 0.0000 0.0000 0.0000
# 2 116.0113 239.5089 18.8520 0.0000 0.0000 0.0000
# 3 27.3825 18.8520 120.9184 0.0000 0.0000 0.0000
# 4 0.0000 0.0000 0.0000 8.5543 0.0000 0.0000
# 5 0.0000 0.0000 0.0000 0.0000 -9.3144 0.0000
# 6 0.0000 0.0000 0.0000 0.0000 0.0000 4.9298
#
#
#
# Elastic Compliance Matrix: (Units=1/GPa)
#
#
# Indices 1 2 3 4 5 6 
#
# 1 0.006411 -0.003028 -0.000980 0.000000 0.000000 0.000000
# 2 -0.003028 0.005657 -0.000196 0.000000 0.000000 0.000000
# 3 -0.000980 -0.000196 0.008523 0.000000 0.000000 0.000000
# 4 0.000000 0.000000 0.000000 0.116900 0.000000 0.000000
# 5 0.000000 0.000000 0.000000 0.000000 -0.107361 0.000000
# 6 0.000000 0.000000 0.000000 0.000000 0.000000 0.202847
#
#
# Mechanical properties :
#
#
# Convention : Reuss Voigt Hill
#
# Bulk Modulus (GPa) = 82.08409 99.98646 91.03527
# Shear Modulus (GPa) = 20.37109 28.37667 24.37388
#
# Velocity S-wave (km/s) = 3.01787 3.56183 3.30107
# Velocity P-wave (km/s) = 6.98867 7.84968 7.43166
#
# Compressibility (1/GPa) = 0.01218263
#
# Stress axis : x y z
#
# Youngs Moduli (GPa) = 155.97755 176.75742 117.33644
#
# Poissons Ratio (x) = 0.53527 0.11496
# Poissons Ratio (y) = 0.47234 0.02303
# Poissons Ratio (z) = 0.15281 0.03469
#
# Static dielectric constant tensor:
#      x y z
#    x 1.790360 0.000000 0.000000 
#    y 0.000000 1.773150 0.000000 
#    z 0.000000 0.000000 2.150070 
# 
# From -- ./inp_files/3477.got.cif
#   From: 2010.05.17/outbox.cif.g08.bks.cpg/sg47_2_cif.got.tgz:3477.got - 2010.06.03 20:15:42.
