data_PCOD9383613
_publ_section_title
;
Structure prediction by ZEFSAII (Michael W. Deem and Ramdas Pophale) SiO2 
 PCOD9383613
Probable space group: P M M M
;
_chemical_formula_sum "Si O2"
_cell_formula_units_Z 48
_cell_length_a 9.765710
_cell_length_b 15.564511
_cell_length_c 17.667282
_cell_angle_alpha 90.000000
_cell_angle_beta 90.000000
_cell_angle_gamma 90.000000
_cell_volume 2685.400376
_symmetry_space_group_name_H-M "P M M M"
_symmetry_group_IT_number 47
_symmetry_cell_setting 'orthorhombic'
loop_
_space_group_symop_operation_xyz
x,y,z
-x,-y,z
x,-y,-z
-x,y,-z
-x,-y,-z
x,y,-z
-x,y,z
x,-y,z
loop_
_atom_site_type_symbol
_atom_site_label
_atom_site_fract_x
_atom_site_fract_y
_atom_site_fract_z
Si Si1 0.148523 0.098561 0.114444
Si Si2 0.838622 0.597398 0.150312
Si Si3 0.165935 0.288588 0.296136
Si Si4 0.657947 0.621227 0.000000
Si Si5 0.159949 0.905457 0.704416
Si Si6 0.349613 0.175720 0.000000
Si Si7 0.658626 0.397389 0.588593
O O1 0.161066 0.095820 0.204313
O O2 0.267576 0.146990 0.073380
O O3 0.000000 0.137191 0.095725
O O4 0.149686 0.000000 0.088388
O O5 0.826269 0.500000 0.183196
O O6 0.802543 0.669979 0.213086
O O7 0.000000 0.609248 0.130194
O O8 0.743932 0.599283 0.075700
O O9 0.214138 0.190245 0.312684
O O10 0.237310 0.348593 0.357578
O O11 0.000000 0.289584 0.301327
O O12 0.500000 0.589496 0.000000
O O13 0.645787 0.723128 0.000000
O O14 0.000000 0.906280 0.680667
O O15 0.218058 0.000000 0.680938
O O16 0.500000 0.137192 0.000000
O O17 0.681155 0.376988 0.500000
O O18 0.500000 0.375899 0.606980
O O19 0.673376 0.500000 0.597076
#
# Coordination Sequence:
#
# PCOD9383613 Si02
#       7
#     8   8   8   4   8   4   8
#     4   9  17  30  48  66  84 115 161 205 247 302
#     4  10  21  36  53  74 100 130 167 214 268 316
#     4  10  19  32  55  84 108 133 170 215 259 304
#     4  11  24  37  48  66  94 133 179 216 249 300
#     4   8  15  29  49  73 100 129 163 204 248 295
#     4  11  22  31  40  60  90 119 152 202 259 305
#     4   9  19  36  56  79 110 145 174 203 249 308
#
# _framework density 17.874428999999999
#
# number of rings (size 3 to 8) (size 9 to 14) (size 15 to 20)
#    0.000    2.500    0.000    4.000    0.000    7.333 
#    0.000    1.667    0.000    2.000    0.000    3.500 
#    0.000    0.000    0.000    0.000    0.000    0.000 
#
# Total GULP energy -267276.426987 kJ/mol
# GULP energy per Si atom -5568.258896 kJ/mol
# Density = 1.783375 g / cm^3
# Si number density = 17.874429 Si / 1000 Ang^3
#
#
#
# Elastic Constant Matrix: (Units=GPa)
#
#
# Indices 1 2 3 4 5 6 
#
# 1 68.7136 35.9579 32.0886 0.0000 0.0000 0.0000
# 2 35.9579 96.4380 31.7541 0.0000 0.0000 0.0000
# 3 32.0886 31.7541 54.8813 0.0000 0.0000 0.0000
# 4 0.0000 0.0000 0.0000 25.6772 0.0000 0.0000
# 5 0.0000 0.0000 0.0000 0.0000 29.0692 0.0000
# 6 0.0000 0.0000 0.0000 0.0000 0.0000 2.5811
#
#
#
# Elastic Compliance Matrix: (Units=1/GPa)
#
#
# Indices 1 2 3 4 5 6 
#
# 1 0.021703 -0.004835 -0.009892 0.000000 0.000000 0.000000
# 2 -0.004835 0.013887 -0.005208 0.000000 0.000000 0.000000
# 3 -0.009892 -0.005208 0.027018 0.000000 0.000000 0.000000
# 4 0.000000 0.000000 0.000000 0.038945 0.000000 0.000000
# 5 0.000000 0.000000 0.000000 0.000000 0.034401 0.000000
# 6 0.000000 0.000000 0.000000 0.000000 0.000000 0.387425
#
#
# Mechanical properties :
#
#
# Convention : Reuss Voigt Hill
#
# Bulk Modulus (GPa) = 43.97894 46.62602 45.30248
# Shear Modulus (GPa) = 8.75922 19.48100 14.12011
#
# Velocity S-wave (km/s) = 2.21609 3.30492 2.81367
# Velocity P-wave (km/s) = 5.58622 6.38007 5.99630
#
# Compressibility (1/GPa) = 0.02273815
#
# Stress axis : x y z
#
# Youngs Moduli (GPa) = 46.07710 72.01003 37.01209
#
# Poissons Ratio (x) = 0.34817 0.36612
# Poissons Ratio (y) = 0.22278 0.19276
# Poissons Ratio (z) = 0.45579 0.37503
#
# Static dielectric constant tensor:
#      x y z
#    x 1.607670 0.000000 0.000000 
#    y 0.000000 1.671470 0.000000 
#    z 0.000000 0.000000 1.585100 
# 
# From -- ./inp_files/26514.got.cif
#   From: 2010.05.17/outbox.cif.g08.bks.cpg/sg47_14_cif.got.tgz:26514.got - 2010.06.03 20:15:42.
