data_PCOD9383436
_publ_section_title
;
Structure prediction by ZEFSAII (Michael W. Deem and Ramdas Pophale) SiO2 
 PCOD9383436
Probable space group: P M M M
;
_chemical_formula_sum "Si O2"
_cell_formula_units_Z 36
_cell_length_a 11.965004
_cell_length_b 9.150305
_cell_length_c 21.185683
_cell_angle_alpha 90.000000
_cell_angle_beta 90.000000
_cell_angle_gamma 90.000000
_cell_volume 2319.481367
_symmetry_space_group_name_H-M "P M M M"
_symmetry_group_IT_number 47
_symmetry_cell_setting 'orthorhombic'
loop_
_space_group_symop_operation_xyz
x,y,z
-x,-y,z
x,-y,-z
-x,y,-z
-x,-y,-z
x,y,-z
-x,y,z
x,-y,z
loop_
_atom_site_type_symbol
_atom_site_label
_atom_site_fract_x
_atom_site_fract_y
_atom_site_fract_z
Si Si1 0.369405 0.824602 0.743179
Si Si2 0.225687 0.176693 0.379723
Si Si3 0.373701 0.822705 0.500000
Si Si4 0.364157 0.667735 0.873084
Si Si5 0.363651 0.831417 0.000000
Si Si6 0.000000 0.675427 0.575252
O O1 0.500000 0.786417 0.729639
O O2 0.288835 0.786212 0.685219
O O3 0.334270 0.748466 0.808267
O O4 0.366140 0.000000 0.751228
O O5 0.306674 0.218881 0.437567
O O6 0.109091 0.255964 0.392170
O O7 0.210153 0.000000 0.381388
O O8 0.500000 0.767246 0.500000
O O9 0.378679 0.000000 0.500000
O O10 0.500000 0.668093 0.874841
O O11 0.327104 0.500000 0.873187
O O12 0.326677 0.750610 0.936237
O O13 0.500000 0.828860 0.000000
O O14 0.329391 0.000000 0.000000
O O15 0.000000 0.500000 0.580407
O O16 0.000000 0.712698 0.500000
#
# Coordination Sequence:
#
# PCOD9383436 Si02
#       6
#     8   8   4   8   4   4
#     4   9  17  29  45  68  96 123 152 190 236 282
#     4  10  19  32  52  72  91 118 155 195 234 281
#     4   9  16  27  47  74  96 115 146 189 232 275
#     4   9  16  25  38  58  87 124 160 190 224 273
#     4   9  15  23  37  57  83 118 159 200 233 263
#     4  11  23  37  51  67  91 120 153 196 243 285
#
# _framework density 15.520712
#
# number of rings (size 3 to 8) (size 9 to 14) (size 15 to 20)
#    0.000    2.556    1.111    2.000    0.000    8.000 
#    0.000    0.000    0.000    2.667    0.000    0.000 
#    0.000    0.889    0.000    9.333    0.000    7.111 
#
# Total GULP energy -200636.144156 kJ/mol
# GULP energy per Si atom -5573.226227 kJ/mol
# Density = 1.548539 g / cm^3
# Si number density = 15.520712 Si / 1000 Ang^3
#
#
#
# Elastic Constant Matrix: (Units=GPa)
#
#
# Indices 1 2 3 4 5 6 
#
# 1 92.2891 42.0246 69.3946 0.0000 0.0000 0.0000
# 2 42.0246 63.2166 76.5429 0.0000 0.0000 0.0000
# 3 69.3946 76.5429 181.2168 0.0000 0.0000 0.0000
# 4 0.0000 0.0000 0.0000 19.2259 0.0000 0.0000
# 5 0.0000 0.0000 0.0000 0.0000 1.2048 0.0000
# 6 0.0000 0.0000 0.0000 0.0000 0.0000 9.8354
#
#
#
# Elastic Compliance Matrix: (Units=1/GPa)
#
#
# Indices 1 2 3 4 5 6 
#
# 1 0.016534 -0.006806 -0.003457 0.000000 0.000000 0.000000
# 2 -0.006806 0.035178 -0.012253 0.000000 0.000000 0.000000
# 3 -0.003457 -0.012253 0.012017 0.000000 0.000000 0.000000
# 4 0.000000 0.000000 0.000000 0.052013 0.000000 0.000000
# 5 0.000000 0.000000 0.000000 0.000000 0.829995 0.000000
# 6 0.000000 0.000000 0.000000 0.000000 0.000000 0.101673
#
#
# Mechanical properties :
#
#
# Convention : Reuss Voigt Hill
#
# Bulk Modulus (GPa) = 53.47804 79.18296 66.33050
# Shear Modulus (GPa) = 4.55094 15.97059 10.26077
#
# Velocity S-wave (km/s) = 1.71422 3.21126 2.57398
# Velocity P-wave (km/s) = 6.20071 8.05469 7.18772
#
# Compressibility (1/GPa) = 0.01869927
#
# Stress axis : x y z
#
# Youngs Moduli (GPa) = 60.48216 28.42653 83.21355
#
# Poissons Ratio (x) = 0.19346 0.28765
# Poissons Ratio (y) = 0.41162 1.01958
# Poissons Ratio (z) = 0.20907 0.34830
#
# Static dielectric constant tensor:
#      x y z
#    x 1.489330 0.000000 0.000000 
#    y 0.000000 1.516970 0.000000 
#    z 0.000000 0.000000 1.508360 
# 
# From -- ./inp_files/10607.got.cif
#   From: 2010.05.17/outbox.cif.g08.bks.cpg/sg47_6_cif.got.tgz:10607.got - 2010.06.03 20:15:42.
