data_PCOD9383341
_publ_section_title
;
Structure prediction by ZEFSAII (Michael W. Deem and Ramdas Pophale) SiO2 
 PCOD9383341
Probable space group: P M M M
;
_chemical_formula_sum "Si O2"
_cell_formula_units_Z 56
_cell_length_a 19.184173
_cell_length_b 19.344745
_cell_length_c 9.101473
_cell_angle_alpha 90.000000
_cell_angle_beta 90.000000
_cell_angle_gamma 90.000000
_cell_volume 3377.674355
_symmetry_space_group_name_H-M "P M M M"
_symmetry_group_IT_number 47
_symmetry_cell_setting 'orthorhombic'
loop_
_space_group_symop_operation_xyz
x,y,z
-x,-y,z
x,-y,-z
-x,y,-z
-x,-y,-z
x,y,-z
-x,y,z
x,-y,z
loop_
_atom_site_type_symbol
_atom_site_label
_atom_site_fract_x
_atom_site_fract_y
_atom_site_fract_z
Si Si1 0.210671 0.349632 0.674804
Si Si2 0.920830 0.582399 0.174839
Si Si3 0.422498 0.917289 0.163591
Si Si4 0.723574 0.217567 0.175224
Si Si5 0.284807 0.079489 0.327423
Si Si6 0.421442 0.711309 0.176543
Si Si7 0.643891 0.421262 0.323976
O O1 0.206938 0.340580 0.500000
O O2 0.139097 0.379010 0.737611
O O3 0.231511 0.278007 0.751448
O O4 0.275199 0.401882 0.705532
O O5 0.914701 0.500000 0.199182
O O6 0.000000 0.602747 0.215357
O O7 0.912481 0.594205 0.000000
O O8 0.500000 0.889911 0.190474
O O9 0.366526 0.909578 0.290381
O O10 0.428319 0.000000 0.150007
O O11 0.399166 0.892011 0.000000
O O12 0.746570 0.142959 0.236411
O O13 0.642500 0.237087 0.214510
O O14 0.729901 0.219964 0.000000
O O15 0.271397 0.086165 0.500000
O O16 0.267549 0.000000 0.282723
O O17 0.500000 0.730861 0.222704
O O18 0.401554 0.637164 0.244994
O O19 0.421129 0.706000 0.000000
O O20 0.633509 0.416244 0.500000
O O21 0.629082 0.500000 0.278474
#
# Coordination Sequence:
#
# PCOD9383341 Si02
#       7
#     8   8   8   8   8   8   8
#     4  10  19  32  50  71  98 130 164 201 239 282
#     4   9  18  32  50  75 108 142 172 201 233 271
#     4   8  14  25  40  57  78 106 140 177 221 278
#     4  10  20  34  51  68  89 122 161 198 241 294
#     4  10  20  32  46  66  91 115 143 187 241 292
#     4   9  19  34  48  63  84 112 151 199 246 289
#     4   9  18  31  46  66  91 119 153 193 238 286
#
# _framework density 16.579454999999999
#
# number of rings (size 3 to 8) (size 9 to 14) (size 15 to 20)
#    0.000    2.714    0.000    2.571    0.000    4.857 
#    0.000    5.000    0.000    0.000    0.000    0.000 
#    0.000    0.571    0.000    6.000    0.000    2.571 
#
# Total GULP energy -312052.468233 kJ/mol
# GULP energy per Si atom -5572.365504 kJ/mol
# Density = 1.654172 g / cm^3
# Si number density = 16.579455 Si / 1000 Ang^3
#
#
#
# Elastic Constant Matrix: (Units=GPa)
#
#
# Indices 1 2 3 4 5 6 
#
# 1 70.8643 31.2286 32.3157 0.0000 0.0000 0.0000
# 2 31.2286 122.1298 42.4452 0.0000 0.0000 0.0000
# 3 32.3157 42.4452 41.7115 0.0000 0.0000 0.0000
# 4 0.0000 0.0000 0.0000 27.2896 0.0000 0.0000
# 5 0.0000 0.0000 0.0000 0.0000 17.0629 0.0000
# 6 0.0000 0.0000 0.0000 0.0000 0.0000 8.0575
#
#
#
# Elastic Compliance Matrix: (Units=1/GPa)
#
#
# Indices 1 2 3 4 5 6 
#
# 1 0.021837 0.000458 -0.017384 0.000000 0.000000 0.000000
# 2 0.000458 0.012678 -0.013256 0.000000 0.000000 0.000000
# 3 -0.017384 -0.013256 0.050931 0.000000 0.000000 0.000000
# 4 0.000000 0.000000 0.000000 0.036644 0.000000 0.000000
# 5 0.000000 0.000000 0.000000 0.000000 0.058607 0.000000
# 6 0.000000 0.000000 0.000000 0.000000 0.000000 0.124108
#
#
# Mechanical properties :
#
#
# Convention : Reuss Voigt Hill
#
# Bulk Modulus (GPa) = 39.86838 49.63163 44.75001
# Shear Modulus (GPa) = 13.38580 19.06306 16.22443
#
# Velocity S-wave (km/s) = 2.84451 3.39455 3.13163
# Velocity P-wave (km/s) = 5.90656 6.73532 6.33451
#
# Compressibility (1/GPa) = 0.02508253
#
# Stress axis : x y z
#
# Youngs Moduli (GPa) = 45.79323 78.87817 19.63429
#
# Poissons Ratio (x) = -0.03612 0.34133
# Poissons Ratio (y) = -0.02097 0.26026
# Poissons Ratio (z) = 0.79608 1.04558
#
# Static dielectric constant tensor:
#      x y z
#    x 1.554490 0.000000 0.000000 
#    y 0.000000 1.593550 0.000000 
#    z 0.000000 0.000000 1.553790 
# 
# From -- ./inp_files/9821.got.cif
#   From: 2010.05.17/outbox.cif.g08.bks.cpg/sg47_5_cif.got.tgz:9821.got - 2010.06.03 20:15:42.
