data_PCOD9383653
_publ_section_title
;
Structure prediction by ZEFSAII (Michael W. Deem and Ramdas Pophale) SiO2 
 PCOD9383653
Probable space group: P M M M
;
_chemical_formula_sum "Si O2"
_cell_formula_units_Z 49
_cell_length_a 20.935686
_cell_length_b 7.565778
_cell_length_c 15.140831
_cell_angle_alpha 90.000000
_cell_angle_beta 90.000000
_cell_angle_gamma 90.000000
_cell_volume 2398.228180
_symmetry_space_group_name_H-M "P M M M"
_symmetry_group_IT_number 47
_symmetry_cell_setting 'orthorhombic'
loop_
_space_group_symop_operation_xyz
x,y,z
-x,-y,z
x,-y,-z
-x,y,-z
-x,-y,-z
x,y,-z
-x,y,z
x,-y,z
loop_
_atom_site_type_symbol
_atom_site_label
_atom_site_fract_x
_atom_site_fract_y
_atom_site_fract_z
Si Si1 0.646974 0.207170 0.903180
Si Si2 0.000000 0.500000 0.500000
Si Si3 0.500000 0.783539 0.398638
Si Si4 0.000000 0.804795 0.351068
Si Si5 0.203649 0.713890 0.902820
Si Si6 0.622765 0.212545 0.289533
Si Si7 0.750776 0.287936 0.399458
Si Si8 0.134425 0.284979 0.725396
O O1 0.723757 0.220110 0.895212
O O2 0.621285 0.282599 0.810955
O O3 0.629490 0.000000 0.905665
O O4 0.629693 0.283128 0.000000
O O5 0.000000 0.653338 0.423647
O O6 0.500000 0.726210 0.500000
O O7 0.436575 0.724686 0.347753
O O8 0.500000 0.000000 0.398932
O O9 0.935822 0.782435 0.294247
O O10 0.000000 0.000000 0.390571
O O11 0.206905 0.500000 0.899958
O O12 0.162028 0.771791 0.820014
O O13 0.179397 0.765703 0.000000
O O14 0.689146 0.249837 0.339352
O O15 0.618096 0.000000 0.283668
O O16 0.744402 0.220304 0.500000
O O17 0.755582 0.500000 0.404824
O O18 0.814795 0.226854 0.349583
O O19 0.132792 0.500000 0.723873
#
# Coordination Sequence:
#
# PCOD9383653 Si02
#       8
#     8   1   4   4   8   8   8   8
#     4   9  17  29  47  75 109 139 172 229 294 342
#     4  12  26  52  68  86 130 168 206 262 312 354
#     4   9  18  32  50  70 100 143 187 233 290 341
#     4  12  27  43  68  93 120 166 214 250 306 376
#     4   9  17  31  56  86 112 149 195 231 286 360
#     4  10  19  33  52  75 103 140 186 233 279 345
#     4  10  21  34  54  80 110 144 180 227 296 346
#     4  10  20  38  59  82 121 159 188 248 306 349
#
# _framework density 20.431750000000001
#
# number of rings (size 3 to 8) (size 9 to 14) (size 15 to 20)
#    0.000    2.204    2.449    0.612    1.143    2.286 
#    0.000    1.224    0.000    6.367    0.000    0.000 
#    0.000    3.918    0.000    0.000    0.000    0.000 
#
# Total GULP energy -273280.092040 kJ/mol
# GULP energy per Si atom -5577.144736 kJ/mol
# Density = 2.038525 g / cm^3
# Si number density = 20.431750 Si / 1000 Ang^3
#
#
#
# Elastic Constant Matrix: (Units=GPa)
#
#
# Indices 1 2 3 4 5 6 
#
# 1 115.2810 -1.1399 76.7946 0.0000 0.0000 0.0000
# 2 -1.1399 67.9811 18.7662 0.0000 0.0000 0.0000
# 3 76.7946 18.7662 219.0447 0.0000 0.0000 0.0000
# 4 0.0000 0.0000 0.0000 -203.3424 0.0000 0.0000
# 5 0.0000 0.0000 0.0000 0.0000 2354.4463 0.0000
# 6 0.0000 0.0000 0.0000 0.0000 0.0000 41.3803
#
#
#
# Elastic Compliance Matrix: (Units=1/GPa)
#
#
# Indices 1 2 3 4 5 6 
#
# 1 0.011434 0.001330 -0.004122 0.000000 0.000000 0.000000
# 2 0.001330 0.015221 -0.001770 0.000000 0.000000 0.000000
# 3 -0.004122 -0.001770 0.006162 0.000000 0.000000 0.000000
# 4 0.000000 0.000000 0.000000 -0.004918 0.000000 0.000000
# 5 0.000000 0.000000 0.000000 0.000000 0.000425 0.000000
# 6 0.000000 0.000000 0.000000 0.000000 0.000000 0.024166
#
#
# Mechanical properties :
#
#
# Convention : Reuss Voigt Hill
#
# Bulk Modulus (GPa) = 42.21006 65.68318 53.94662
# Shear Modulus (GPa) = 71.92911 459.02257 265.47584
#
# Velocity S-wave (km/s) = 5.93978 15.00497 11.41118
# Velocity P-wave (km/s) = 8.23075 18.23229 14.14499
#
# Compressibility (1/GPa) = 0.02369103
#
# Stress axis : x y z
#
# Youngs Moduli (GPa) = 87.46000 65.69904 162.27886
#
# Poissons Ratio (x) = -0.08736 0.66899
# Poissons Ratio (y) = -0.11630 0.28727
# Poissons Ratio (z) = 0.36055 0.11630
#
# Static dielectric constant tensor:
#      x y z
#    x 1.674110 0.000000 0.000000 
#    y 0.000000 1.774360 0.000000 
#    z 0.000000 0.000000 1.743970 
# 
# From -- ./inp_files/24541.got.cif
#   From: 2010.05.17/outbox.cif.g08.bks.cpg/sg47_13_cif.got.tgz:24541.got - 2010.06.03 20:15:42.
