data_PCOD9383787
_publ_section_title
;
Structure prediction by ZEFSAII (Michael W. Deem and Ramdas Pophale) SiO2 
 PCOD9383787
Probable space group: P M M M
;
_chemical_formula_sum "Si O2"
_cell_formula_units_Z 56
_cell_length_a 9.234767
_cell_length_b 15.577174
_cell_length_c 21.480438
_cell_angle_alpha 90.000000
_cell_angle_beta 90.000000
_cell_angle_gamma 90.000000
_cell_volume 3089.994782
_symmetry_space_group_name_H-M "P M M M"
_symmetry_group_IT_number 47
_symmetry_cell_setting 'orthorhombic'
loop_
_space_group_symop_operation_xyz
x,y,z
-x,-y,z
x,-y,-z
-x,y,-z
-x,-y,-z
x,y,-z
-x,y,z
x,-y,z
loop_
_atom_site_type_symbol
_atom_site_label
_atom_site_fract_x
_atom_site_fract_y
_atom_site_fract_z
Si Si1 0.663986 0.500000 0.925915
Si Si2 0.171644 0.848902 0.070811
Si Si3 0.169966 0.095845 0.424759
Si Si4 0.326740 0.907413 0.806294
Si Si5 0.170607 0.338511 0.872300
Si Si6 0.673509 0.726260 0.751620
Si Si7 0.323693 0.400070 0.500000
Si Si8 0.674259 0.271824 0.610596
O O1 0.500000 0.500000 0.901215
O O2 0.748247 0.583436 0.903751
O O3 0.658539 0.500000 0.000000
O O4 0.255390 0.896266 0.125935
O O5 0.190627 0.748131 0.087120
O O6 0.000000 0.867917 0.074996
O O7 0.218846 0.867190 0.000000
O O8 0.178812 0.097132 0.500000
O O9 0.256440 0.178581 0.401456
O O10 0.000000 0.103753 0.408173
O O11 0.220253 0.000000 0.404573
O O12 0.500000 0.905229 0.813874
O O13 0.288623 0.826569 0.763483
O O14 0.284733 0.000000 0.779860
O O15 0.239990 0.323121 0.804691
O O16 0.000000 0.354389 0.867398
O O17 0.500000 0.716472 0.761043
O O18 0.708364 0.701180 0.681223
O O19 0.275116 0.500000 0.500000
O O20 0.500000 0.402667 0.500000
O O21 0.279713 0.343354 0.439850
O O22 0.500000 0.262875 0.605770
#
# Coordination Sequence:
#
# PCOD9383787 Si02
#       8
#     4   8   8   8   8   8   4   8
#     4  11  23  37  57  85 113 140 173 218 273 331
#     4   9  18  32  50  72  98 130 168 213 263 307
#     4   9  18  32  50  75 109 145 176 216 278 339
#     4   9  18  32  48  67  97 136 173 211 257 310
#     4  10  20  36  56  77 105 140 178 220 265 320
#     4   9  19  35  53  76 106 140 179 222 270 319
#     4   9  18  34  54  79 110 138 173 221 274 327
#     4  10  19  33  56  82 107 141 185 229 273 326
#
# _framework density 18.123007999999999
#
# number of rings (size 3 to 8) (size 9 to 14) (size 15 to 20)
#    0.000    2.571    0.714    1.500    0.000    4.000 
#    1.286    3.571    0.000    0.857    0.000    0.000 
#    0.000    0.000    0.000    0.000    0.000    0.000 
#
# Total GULP energy -312251.364863 kJ/mol
# GULP energy per Si atom -5575.917230 kJ/mol
# Density = 1.808176 g / cm^3
# Si number density = 18.123008 Si / 1000 Ang^3
#
#
#
# Elastic Constant Matrix: (Units=GPa)
#
#
# Indices 1 2 3 4 5 6 
#
# 1 27.6077 33.1257 22.0934 0.0000 0.0000 0.0000
# 2 33.1257 97.5980 33.5088 0.0000 0.0000 0.0000
# 3 22.0934 33.5088 97.9118 0.0000 0.0000 0.0000
# 4 0.0000 0.0000 0.0000 -21.3466 0.0000 0.0000
# 5 0.0000 0.0000 0.0000 0.0000 17.9528 0.0000
# 6 0.0000 0.0000 0.0000 0.0000 0.0000 25.0130
#
#
#
# Elastic Compliance Matrix: (Units=1/GPa)
#
#
# Indices 1 2 3 4 5 6 
#
# 1 0.066514 -0.019742 -0.008252 0.000000 0.000000 0.000000
# 2 -0.019742 0.017470 -0.001524 0.000000 0.000000 0.000000
# 3 -0.008252 -0.001524 0.012597 0.000000 0.000000 0.000000
# 4 0.000000 0.000000 0.000000 -0.046846 0.000000 0.000000
# 5 0.000000 0.000000 0.000000 0.000000 0.055702 0.000000
# 6 0.000000 0.000000 0.000000 0.000000 0.000000 0.039979
#
#
# Mechanical properties :
#
#
# Convention : Reuss Voigt Hill
#
# Bulk Modulus (GPa) = 26.63551 44.50815 35.57183
# Shear Modulus (GPa) = 23.04497 13.28312 18.16405
#
# Velocity S-wave (km/s) = 3.56980 2.71023 3.16929
# Velocity P-wave (km/s) = 5.63207 5.86566 5.75006
#
# Compressibility (1/GPa) = 0.03754387
#
# Stress axis : x y z
#
# Youngs Moduli (GPa) = 15.03453 57.24079 79.38434
#
# Poissons Ratio (x) = 1.13005 0.65509
# Poissons Ratio (y) = 0.29681 0.12099
# Poissons Ratio (z) = 0.12407 0.08724
#
# Static dielectric constant tensor:
#      x y z
#    x 1.606740 0.000000 0.000000 
#    y 0.000000 1.641800 0.000000 
#    z 0.000000 0.000000 1.606730 
# 
# From -- ./inp_files/7439.got.cif
#   From: 2010.05.17/outbox.cif.g08.bks.cpg/sg47_4_cif.got.tgz:7439.got - 2010.06.03 20:15:42.
