data_PCOD9383403
_publ_section_title
;
Structure prediction by ZEFSAII (Michael W. Deem and Ramdas Pophale) SiO2 
 PCOD9383403
Probable space group: P M M M
;
_chemical_formula_sum "Si O2"
_cell_formula_units_Z 48
_cell_length_a 33.629167
_cell_length_b 9.270542
_cell_length_c 7.970313
_cell_angle_alpha 90.000000
_cell_angle_beta 90.000000
_cell_angle_gamma 90.000000
_cell_volume 2484.829604
_symmetry_space_group_name_H-M "P M M M"
_symmetry_group_IT_number 47
_symmetry_cell_setting 'orthorhombic'
loop_
_space_group_symop_operation_xyz
x,y,z
-x,-y,z
x,-y,-z
-x,y,-z
-x,-y,-z
x,y,-z
-x,y,z
x,-y,z
loop_
_atom_site_type_symbol
_atom_site_label
_atom_site_fract_x
_atom_site_fract_y
_atom_site_fract_z
Si Si1 0.078678 0.335234 0.702415
Si Si2 0.157871 0.835504 0.202478
Si Si3 0.000000 0.833655 0.705407
Si Si4 0.545817 0.176369 0.500000
Si Si5 0.314948 0.833588 0.699599
Si Si6 0.235977 0.334633 0.203091
Si Si7 0.598451 0.824287 0.185626
O O1 0.076618 0.339816 0.500000
O O2 0.079036 0.500000 0.764245
O O3 0.118716 0.252518 0.749873
O O4 0.039670 0.249206 0.761066
O O5 0.197746 0.755608 0.262558
O O6 0.155881 0.000000 0.264421
O O7 0.159772 0.839803 0.000000
O O8 0.000000 0.833308 0.500000
O O9 0.000000 0.000000 0.759156
O O10 0.500000 0.222012 0.500000
O O11 0.569750 0.223830 0.665192
O O12 0.546043 0.000000 0.500000
O O13 0.321626 0.834323 0.500000
O O14 0.276775 0.739250 0.741486
O O15 0.355854 0.780985 0.782787
O O16 0.307724 0.000000 0.753181
O O17 0.233544 0.500000 0.260240
O O18 0.235280 0.334496 0.000000
O O19 0.598750 0.000000 0.191152
O O20 0.585413 0.780063 0.000000
#
# Coordination Sequence:
#
# PCOD9383403 Si02
#       7
#     8   8   4   4   8   8   8
#     4  10  20  34  54  79 106 136 171 213 263 318
#     4  10  21  37  56  77 103 137 176 216 261 315
#     4   9  17  31  52  77 104 135 172 216 264 315
#     4   9  16  26  40  64 101 139 179 227 275 330
#     4  10  19  32  51  74 101 134 175 221 265 315
#     4  10  21  36  53  74 101 133 170 212 260 316
#     4   9  16  27  44  66  96 136 179 223 273 327
#
# _framework density 19.317221
#
# number of rings (size 3 to 8) (size 9 to 14) (size 15 to 20)
#    0.000    2.333    0.833    2.250    0.000    6.000 
#    0.000    2.083    0.000    2.500    0.000    0.000 
#    0.000    1.333    0.000    3.500    0.000    3.333 
#
# Total GULP energy -268004.483848 kJ/mol
# GULP energy per Si atom -5583.426747 kJ/mol
# Density = 1.927325 g / cm^3
# Si number density = 19.317221 Si / 1000 Ang^3
#
#
#
# Elastic Constant Matrix: (Units=GPa)
#
#
# Indices 1 2 3 4 5 6 
#
# 1 186.6248 77.1614 52.6483 0.0000 0.0000 0.0000
# 2 77.1614 120.3358 27.7810 0.0000 0.0000 0.0000
# 3 52.6483 27.7810 62.2579 0.0000 0.0000 0.0000
# 4 0.0000 0.0000 0.0000 15.6254 0.0000 0.0000
# 5 0.0000 0.0000 0.0000 0.0000 59.9380 0.0000
# 6 0.0000 0.0000 0.0000 0.0000 0.0000 -20.4046
#
#
#
# Elastic Compliance Matrix: (Units=1/GPa)
#
#
# Indices 1 2 3 4 5 6 
#
# 1 0.008664 -0.004308 -0.005405 0.000000 0.000000 0.000000
# 2 -0.004308 0.011406 -0.001447 0.000000 0.000000 0.000000
# 3 -0.005405 -0.001447 0.021278 0.000000 0.000000 0.000000
# 4 0.000000 0.000000 0.000000 0.063998 0.000000 0.000000
# 5 0.000000 0.000000 0.000000 0.000000 0.016684 0.000000
# 6 0.000000 0.000000 0.000000 0.000000 0.000000 -0.049009
#
#
# Mechanical properties :
#
#
# Convention : Reuss Voigt Hill
#
# Bulk Modulus (GPa) = 52.54812 76.04443 64.29628
# Shear Modulus (GPa) = 49.17189 25.14028 37.15609
#
# Velocity S-wave (km/s) = 5.05076 3.61147 4.39050
# Velocity P-wave (km/s) = 7.82786 7.53935 7.68496
#
# Compressibility (1/GPa) = 0.01903018
#
# Stress axis : x y z
#
# Youngs Moduli (GPa) = 115.41832 87.67005 46.99650
#
# Poissons Ratio (x) = 0.37767 0.25399
# Poissons Ratio (y) = 0.49721 0.06800
# Poissons Ratio (z) = 0.62378 0.12684
#
# Static dielectric constant tensor:
#      x y z
#    x 1.632040 0.000000 0.000000 
#    y 0.000000 1.653170 0.000000 
#    z 0.000000 0.000000 1.702710 
# 
# From -- ./inp_files/13810.got.cif
#   From: 2010.05.17/outbox.cif.g08.bks.cpg/sg47_7_cif.got.tgz:13810.got - 2010.06.03 20:15:42.
