data_PCOD9383497
_publ_section_title
;
Structure prediction by ZEFSAII (Michael W. Deem and Ramdas Pophale) SiO2 
 PCOD9383497
Probable space group: P M M M
;
_chemical_formula_sum "Si O2"
_cell_formula_units_Z 48
_cell_length_a 29.831231
_cell_length_b 7.732014
_cell_length_c 9.943868
_cell_angle_alpha 90.000000
_cell_angle_beta 90.000000
_cell_angle_gamma 90.000000
_cell_volume 2293.607803
_symmetry_space_group_name_H-M "P M M M"
_symmetry_group_IT_number 47
_symmetry_cell_setting 'orthorhombic'
loop_
_space_group_symop_operation_xyz
x,y,z
-x,-y,z
x,-y,-z
-x,y,-z
-x,-y,-z
x,y,-z
-x,y,z
x,-y,z
loop_
_atom_site_type_symbol
_atom_site_label
_atom_site_fract_x
_atom_site_fract_y
_atom_site_fract_z
Si Si1 0.447954 0.211826 0.000000
Si Si2 0.290828 0.705625 0.654391
Si Si3 0.051789 0.709018 0.151194
Si Si4 0.130838 0.796317 0.345829
Si Si5 0.787527 0.295121 0.153812
Si Si6 0.550654 0.211377 0.500000
Si Si7 0.389618 0.790785 0.252552
O O1 0.417642 0.266834 0.124521
O O2 0.500000 0.269128 0.000000
O O3 0.449958 0.000000 0.000000
O O4 0.290061 0.774666 0.500000
O O5 0.282937 0.500000 0.643196
O O6 0.252906 0.778138 0.754577
O O7 0.339287 0.730790 0.721530
O O8 0.052824 0.500000 0.151004
O O9 0.083549 0.769092 0.270983
O O10 0.000000 0.762632 0.168413
O O11 0.066534 0.764961 0.000000
O O12 0.132331 0.727110 0.500000
O O13 0.167932 0.723641 0.243522
O O14 0.139283 0.000000 0.354502
O O15 0.779327 0.500000 0.139960
O O16 0.790984 0.226240 0.000000
O O17 0.500000 0.273032 0.500000
O O18 0.579258 0.266403 0.374044
O O19 0.549097 0.000000 0.500000
O O20 0.387750 0.000000 0.249956
#
# Coordination Sequence:
#
# PCOD9383497 Si02
#       7
#     4   8   8   8   8   4   8
#     4   9  18  32  51  77 107 137 173 219 266 313
#     4  10  21  37  56  79 109 142 175 217 272 330
#     4   9  19  37  61  88 118 155 200 245 285 331
#     4  11  24  39  56  84 121 156 190 234 287 338
#     4  10  22  40  62  85 107 140 188 235 280 336
#     4   9  16  28  49  75 101 133 175 217 256 305
#     4  10  19  32  52  78 105 136 175 218 263 315
#
# _framework density 20.927727999999998
#
# number of rings (size 3 to 8) (size 9 to 14) (size 15 to 20)
#    0.000    2.167    0.833    2.500    1.167    8.000 
#    0.000    2.500    0.000    3.000    0.000    0.000 
#    0.000    0.000    0.000    0.000    0.000    0.000 
#
# Total GULP energy -267833.538305 kJ/mol
# GULP energy per Si atom -5579.865381 kJ/mol
# Density = 2.088010 g / cm^3
# Si number density = 20.927728 Si / 1000 Ang^3
#
#
#
# Elastic Constant Matrix: (Units=GPa)
#
#
# Indices 1 2 3 4 5 6 
#
# 1 137.0015 -6.0804 100.7244 0.0000 0.0000 0.0000
# 2 -6.0804 31.2606 7.7129 0.0000 0.0000 0.0000
# 3 100.7244 7.7129 229.5571 0.0000 0.0000 0.0000
# 4 0.0000 0.0000 0.0000 26.9015 0.0000 0.0000
# 5 0.0000 0.0000 0.0000 0.0000 36.7555 0.0000
# 6 0.0000 0.0000 0.0000 0.0000 0.0000 26.1727
#
#
#
# Elastic Compliance Matrix: (Units=1/GPa)
#
#
# Indices 1 2 3 4 5 6 
#
# 1 0.011121 0.003395 -0.004994 0.000000 0.000000 0.000000
# 2 0.003395 0.033293 -0.002608 0.000000 0.000000 0.000000
# 3 -0.004994 -0.002608 0.006635 0.000000 0.000000 0.000000
# 4 0.000000 0.000000 0.000000 0.037173 0.000000 0.000000
# 5 0.000000 0.000000 0.000000 0.000000 0.027207 0.000000
# 6 0.000000 0.000000 0.000000 0.000000 0.000000 0.038208
#
#
# Mechanical properties :
#
#
# Convention : Reuss Voigt Hill
#
# Bulk Modulus (GPa) = 23.45457 66.94813 45.20135
# Shear Modulus (GPa) = 28.36674 37.66341 33.01508
#
# Velocity S-wave (km/s) = 3.68565 4.24688 3.97618
# Velocity P-wave (km/s) = 5.41699 7.49050 6.53649
#
# Compressibility (1/GPa) = 0.04263562
#
# Stress axis : x y z
#
# Youngs Moduli (GPa) = 89.91647 30.03625 150.71437
#
# Poissons Ratio (x) = -0.10198 0.75265
# Poissons Ratio (y) = -0.30530 0.39312
# Poissons Ratio (z) = 0.44903 0.07835
#
# Static dielectric constant tensor:
#      x y z
#    x 1.728260 0.000000 0.000000 
#    y 0.000000 1.794800 0.000000 
#    z 0.000000 0.000000 1.713500 
# 
# From -- ./inp_files/13954.got.cif
#   From: 2010.05.17/outbox.cif.g08.bks.cpg/sg47_7_cif.got.tgz:13954.got - 2010.06.03 20:15:42.
