data_PCOD9383935
_publ_section_title
;
Structure prediction by ZEFSAII (Michael W. Deem and Ramdas Pophale) SiO2 
 PCOD9383935
Probable space group: P M M M
;
_chemical_formula_sum "Si O2"
_cell_formula_units_Z 64
_cell_length_a 24.543464
_cell_length_b 8.364252
_cell_length_c 15.984311
_cell_angle_alpha 90.000000
_cell_angle_beta 90.000000
_cell_angle_gamma 90.000000
_cell_volume 3281.382727
_symmetry_space_group_name_H-M "P M M M"
_symmetry_group_IT_number 47
_symmetry_cell_setting 'orthorhombic'
loop_
_space_group_symop_operation_xyz
x,y,z
-x,-y,z
x,-y,-z
-x,y,-z
-x,-y,-z
x,y,-z
-x,y,z
x,-y,z
loop_
_atom_site_type_symbol
_atom_site_label
_atom_site_fract_x
_atom_site_fract_y
_atom_site_fract_z
Si Si1 0.750979 0.306379 0.336651
Si Si2 0.938029 0.809286 0.250924
Si Si3 0.129647 0.690162 0.907582
Si Si4 0.132174 0.692865 0.407028
Si Si5 0.633219 0.693103 0.406066
Si Si6 0.753877 0.809589 0.146521
Si Si7 0.437557 0.193201 0.250648
Si Si8 0.633610 0.804892 0.907276
O O1 0.751282 0.500000 0.328222
O O2 0.805656 0.259829 0.385629
O O3 0.695192 0.260474 0.382692
O O4 0.752463 0.231161 0.244747
O O5 0.904946 0.760812 0.168283
O O6 0.906704 0.749653 0.333085
O O7 0.000000 0.747395 0.248085
O O8 0.939534 0.000000 0.254358
O O9 0.122876 0.500000 0.905434
O O10 0.193079 0.729782 0.892855
O O11 0.113407 0.749521 0.000000
O O12 0.116904 0.749582 0.500000
O O13 0.130987 0.500000 0.407420
O O14 0.619601 0.747668 0.500000
O O15 0.631269 0.500000 0.405266
O O16 0.593312 0.755378 0.334528
O O17 0.696218 0.756329 0.108199
O O18 0.758562 0.000000 0.134942
O O19 0.500000 0.248835 0.249372
O O20 0.404007 0.250231 0.169220
O O21 0.437825 0.000000 0.247938
O O22 0.633044 0.000000 0.905562
O O23 0.615647 0.754839 0.000000
#
# Coordination Sequence:
#
# PCOD9383935 Si02
#       8
#     8   8   8   8   8   8   8   8
#     4  10  19  34  58  86 117 150 186 231 285 343
#     4  11  25  43  62  86 118 156 198 245 292 339
#     4  11  24  41  62  89 120 154 193 238 290 349
#     4  10  21  38  62  90 119 153 193 236 285 346
#     4  10  21  37  58  83 113 150 189 231 283 344
#     4  11  20  33  58  88 120 153 185 228 285 347
#     4  10  21  37  56  79 109 146 192 244 290 334
#     4   9  18  33  54  82 114 146 182 227 281 340
#
# _framework density 19.503972000000001
#
# number of rings (size 3 to 8) (size 9 to 14) (size 15 to 20)
#    0.000    1.750    2.500    1.875    0.000    5.750 
#    0.000    5.000    0.000    3.375    0.000    0.875 
#    0.000    0.000    0.000    0.000    0.000    0.000 
#
# Total GULP energy -357544.197518 kJ/mol
# GULP energy per Si atom -5586.628086 kJ/mol
# Density = 1.945958 g / cm^3
# Si number density = 19.503972 Si / 1000 Ang^3
#
#
#
# Elastic Constant Matrix: (Units=GPa)
#
#
# Indices 1 2 3 4 5 6 
#
# 1 156.8946 15.5748 90.6382 0.0000 0.0000 0.0000
# 2 15.5748 9.7881 16.5607 0.0000 0.0000 0.0000
# 3 90.6382 16.5607 198.3565 0.0000 0.0000 0.0000
# 4 0.0000 0.0000 0.0000 -3.3146 0.0000 0.0000
# 5 0.0000 0.0000 0.0000 0.0000 -1.4474 0.0000
# 6 0.0000 0.0000 0.0000 0.0000 0.0000 20.2545
#
#
#
# Elastic Compliance Matrix: (Units=1/GPa)
#
#
# Indices 1 2 3 4 5 6 
#
# 1 0.009272 -0.008833 -0.003499 0.000000 0.000000 0.000000
# 2 -0.008833 0.127385 -0.006599 0.000000 0.000000 0.000000
# 3 -0.003499 -0.006599 0.007191 0.000000 0.000000 0.000000
# 4 0.000000 0.000000 0.000000 -0.301696 0.000000 0.000000
# 5 0.000000 0.000000 0.000000 0.000000 -0.690897 0.000000
# 6 0.000000 0.000000 0.000000 0.000000 0.000000 0.049372
#
#
# Mechanical properties :
#
#
# Convention : Reuss Voigt Hill
#
# Bulk Modulus (GPa) = 9.43523 67.84296 38.63909
# Shear Modulus (GPa) = -6.88535 19.24953 6.18209
#
# Velocity S-wave (km/s) = -1.88093 3.14499 1.78229
# Velocity P-wave (km/s) = 0.36181 6.93164 4.90808
#
# Compressibility (1/GPa) = 0.10598577
#
# Stress axis : x y z
#
# Youngs Moduli (GPa) = 107.84950 7.85019 139.05449
#
# Poissons Ratio (x) = 0.06934 0.48661
# Poissons Ratio (y) = 0.95265 0.91764
# Poissons Ratio (z) = 0.37741 0.05180
#
# Static dielectric constant tensor:
#      x y z
#    x 1.666610 0.000000 0.000000 
#    y 0.000000 1.681010 0.000000 
#    z 0.000000 0.000000 1.677520 
# 
# From -- ./inp_files/7792.got.cif
#   From: 2010.05.17/outbox.cif.g08.bks.cpg/sg47_4_cif.got.tgz:7792.got - 2010.06.03 20:15:42.
