data_PCOD9383877
_publ_section_title
;
Structure prediction by ZEFSAII (Michael W. Deem and Ramdas Pophale) SiO2 
 PCOD9383877
Probable space group: P M M M
;
_chemical_formula_sum "Si O2"
_cell_formula_units_Z 40
_cell_length_a 7.601317
_cell_length_b 12.469518
_cell_length_c 20.769341
_cell_angle_alpha 90.000000
_cell_angle_beta 90.000000
_cell_angle_gamma 90.000000
_cell_volume 1968.616984
_symmetry_space_group_name_H-M "P M M M"
_symmetry_group_IT_number 47
_symmetry_cell_setting 'orthorhombic'
loop_
_space_group_symop_operation_xyz
x,y,z
-x,-y,z
x,-y,-z
-x,y,-z
-x,-y,-z
x,y,-z
-x,y,z
x,-y,z
loop_
_atom_site_type_symbol
_atom_site_label
_atom_site_fract_x
_atom_site_fract_y
_atom_site_fract_z
Si Si1 0.287964 0.775516 0.072627
Si Si2 0.791923 0.233330 0.693477
Si Si3 0.712478 0.621920 0.426971
Si Si4 0.204691 0.000000 0.285137
Si Si5 0.714055 0.000000 0.864831
Si Si6 0.210097 0.378557 0.810311
O O1 0.500000 0.779620 0.070526
O O2 0.239740 0.683519 0.123095
O O3 0.229105 0.891461 0.099308
O O4 0.223962 0.756998 0.000000
O O5 0.771996 0.295894 0.626946
O O6 0.716562 0.113144 0.692183
O O7 0.718415 0.305642 0.751822
O O8 0.000000 0.221290 0.707075
O O9 0.769861 0.647148 0.500000
O O10 0.500000 0.621619 0.426945
O O11 0.770319 0.500000 0.411685
O O12 0.216744 0.000000 0.207759
O O13 0.000000 0.000000 0.305632
O O14 0.500000 0.000000 0.862231
O O15 0.280211 0.500000 0.810114
O O16 0.000000 0.386239 0.801068
#
# Coordination Sequence:
#
# PCOD9383877 Si02
#       6
#     8   8   8   4   4   8
#     4  10  21  36  54  77 105 137 175 220 269 320
#     4  10  20  35  56  81 108 139 177 219 264 313
#     4   9  19  36  57  82 112 144 178 217 259 304
#     4  10  20  35  56  80 108 138 172 219 266 312
#     4  10  19  34  56  79 103 133 174 222 267 314
#     4  10  21  36  54  77 105 138 178 222 266 315
#
# _framework density 20.318833000000001
#
# number of rings (size 3 to 8) (size 9 to 14) (size 15 to 20)
#    0.000    2.200    2.000    1.500    0.000    5.600 
#    0.000    3.500    0.000    4.800    0.000    0.000 
#    0.000    0.000    0.000    0.000    0.000    0.000 
#
# Total GULP energy -223359.626534 kJ/mol
# GULP energy per Si atom -5583.990663 kJ/mol
# Density = 2.027259 g / cm^3
# Si number density = 20.318833 Si / 1000 Ang^3
#
#
#
# Elastic Constant Matrix: (Units=GPa)
#
#
# Indices 1 2 3 4 5 6 
#
# 1 38.7158 3.2711 -15.6953 0.0000 0.0000 0.0000
# 2 3.2711 219.6049 108.2522 0.0000 0.0000 0.0000
# 3 -15.6953 108.2522 128.1413 0.0000 0.0000 0.0000
# 4 0.0000 0.0000 0.0000 30.1394 0.0000 0.0000
# 5 0.0000 0.0000 0.0000 0.0000 27.4384 0.0000
# 6 0.0000 0.0000 0.0000 0.0000 0.0000 18.6570
#
#
#
# Elastic Compliance Matrix: (Units=1/GPa)
#
#
# Indices 1 2 3 4 5 6 
#
# 1 0.028851 -0.003721 0.006678 0.000000 0.000000 0.000000
# 2 -0.003721 0.008283 -0.007453 0.000000 0.000000 0.000000
# 3 0.006678 -0.007453 0.014918 0.000000 0.000000 0.000000
# 4 0.000000 0.000000 0.000000 0.033179 0.000000 0.000000
# 5 0.000000 0.000000 0.000000 0.000000 0.036445 0.000000
# 6 0.000000 0.000000 0.000000 0.000000 0.000000 0.053599
#
#
# Mechanical properties :
#
#
# Convention : Reuss Voigt Hill
#
# Bulk Modulus (GPa) = 23.22461 64.23534 43.72998
# Shear Modulus (GPa) = 25.17342 34.62258 29.89800
#
# Velocity S-wave (km/s) = 3.52365 4.13239 3.84010
# Velocity P-wave (km/s) = 5.29242 7.37910 6.42109
#
# Compressibility (1/GPa) = 0.04305777
#
# Stress axis : x y z
#
# Youngs Moduli (GPa) = 34.66121 120.72818 67.03229
#
# Poissons Ratio (x) = 0.44927 -0.44761
# Poissons Ratio (y) = 0.12899 0.49961
# Poissons Ratio (z) = -0.23145 0.89982
#
# Static dielectric constant tensor:
#      x y z
#    x 1.780060 0.000000 0.000000 
#    y 0.000000 1.725490 0.000000 
#    z 0.000000 0.000000 1.675310 
# 
# From -- ./inp_files/4079.got.cif
#   From: 2010.05.17/outbox.cif.g08.bks.cpg/sg47_3_cif.got.tgz:4079.got - 2010.06.03 20:15:42.
