data_PCOD9383939
_publ_section_title
;
Structure prediction by ZEFSAII (Michael W. Deem and Ramdas Pophale) SiO2 
 PCOD9383939
Probable space group: P M M M
;
_chemical_formula_sum "Si O2"
_cell_formula_units_Z 52
_cell_length_a 25.776436
_cell_length_b 9.032175
_cell_length_c 11.909504
_cell_angle_alpha 90.000000
_cell_angle_beta 90.000000
_cell_angle_gamma 90.000000
_cell_volume 2772.738337
_symmetry_space_group_name_H-M "P M M M"
_symmetry_group_IT_number 47
_symmetry_cell_setting 'orthorhombic'
loop_
_space_group_symop_operation_xyz
x,y,z
-x,-y,z
x,-y,-z
-x,y,-z
-x,-y,-z
x,y,-z
-x,y,z
x,-y,z
loop_
_atom_site_type_symbol
_atom_site_label
_atom_site_fract_x
_atom_site_fract_y
_atom_site_fract_z
Si Si1 0.351400 0.323063 0.869842
Si Si2 0.805199 0.825939 0.000000
Si Si3 0.560650 0.823296 0.267438
Si Si4 0.089360 0.330171 0.000000
Si Si5 0.942803 0.674604 0.252504
Si Si6 0.156407 0.174501 0.633268
Si Si7 0.437048 0.669190 0.500000
Si Si8 0.758341 0.322516 0.221401
O O1 0.359515 0.500000 0.863781
O O2 0.402346 0.240191 0.828187
O O3 0.302652 0.286615 0.789644
O O4 0.338886 0.287286 0.000000
O O5 0.865981 0.791319 0.000000
O O6 0.782863 0.746831 0.890496
O O7 0.794161 0.000000 0.000000
O O8 0.500000 0.784430 0.248891
O O9 0.577756 0.752588 0.386147
O O10 0.564269 0.000000 0.273706
O O11 0.059527 0.314884 0.882992
O O12 0.111259 0.500000 0.000000
O O13 0.937653 0.500000 0.279935
O O14 0.894178 0.759267 0.305183
O O15 0.000000 0.725544 0.290722
O O16 0.151018 0.193968 0.500000
O O17 0.208127 0.254993 0.678093
O O18 0.160323 0.000000 0.658762
O O19 0.418398 0.500000 0.500000
O O20 0.500000 0.666866 0.500000
O O21 0.763758 0.500000 0.220093
#
# Coordination Sequence:
#
# PCOD9383939 Si02
#       8
#     8   4   8   4   8   8   4   8
#     4  10  22  40  61  87 119 155 197 242 292 352
#     4  12  22  33  59  93 120 152 192 235 296 359
#     4  10  21  37  58  87 123 160 199 245 298 351
#     4  10  19  34  58  88 121 154 189 237 292 347
#     4  10  21  37  60  89 120 156 198 242 291 351
#     4  11  25  43  61  85 119 157 197 245 301 355
#     4   9  17  33  59  85 111 151 201 245 286 337
#     4  11  22  41  65  88 116 152 197 246 294 349
#
# _framework density 18.754024000000001
#
# number of rings (size 3 to 8) (size 9 to 14) (size 15 to 20)
#    0.000    1.615    2.308    2.538    0.000    6.462 
#    1.385    3.077    0.000    1.385    0.000    0.000 
#    0.000    0.000    0.000    0.000    0.000    0.000 
#
# Total GULP energy -290322.450706 kJ/mol
# GULP energy per Si atom -5583.124052 kJ/mol
# Density = 1.871134 g / cm^3
# Si number density = 18.754024 Si / 1000 Ang^3
#
#
#
# Elastic Constant Matrix: (Units=GPa)
#
#
# Indices 1 2 3 4 5 6 
#
# 1 114.7131 60.5128 44.2143 0.0000 0.0000 0.0000
# 2 60.5128 74.7759 44.7457 0.0000 0.0000 0.0000
# 3 44.2143 44.7457 68.7072 0.0000 0.0000 0.0000
# 4 0.0000 0.0000 0.0000 31.4301 0.0000 0.0000
# 5 0.0000 0.0000 0.0000 0.0000 5.5272 0.0000
# 6 0.0000 0.0000 0.0000 0.0000 0.0000 7.2046
#
#
#
# Elastic Compliance Matrix: (Units=1/GPa)
#
#
# Indices 1 2 3 4 5 6 
#
# 1 0.015573 -0.010824 -0.002972 0.000000 0.000000 0.000000
# 2 -0.010824 0.029436 -0.012205 0.000000 0.000000 0.000000
# 3 -0.002972 -0.012205 0.024416 0.000000 0.000000 0.000000
# 4 0.000000 0.000000 0.000000 0.031817 0.000000 0.000000
# 5 0.000000 0.000000 0.000000 0.000000 0.180925 0.000000
# 6 0.000000 0.000000 0.000000 0.000000 0.000000 0.138801
#
#
# Mechanical properties :
#
#
# Convention : Reuss Voigt Hill
#
# Bulk Modulus (GPa) = 57.39747 61.90466 59.65106
# Shear Modulus (GPa) = 10.44330 16.08060 13.26195
#
# Velocity S-wave (km/s) = 2.36234 2.93140 2.66212
# Velocity P-wave (km/s) = 6.17355 6.67367 6.42848
#
# Compressibility (1/GPa) = 0.01742237
#
# Stress axis : x y z
#
# Youngs Moduli (GPa) = 64.21518 33.97236 40.95709
#
# Poissons Ratio (x) = 0.36770 0.12174
# Poissons Ratio (y) = 0.69504 0.49988
# Poissons Ratio (z) = 0.19087 0.41463
#
# Static dielectric constant tensor:
#      x y z
#    x 1.653920 0.000000 0.000000 
#    y 0.000000 1.628400 0.000000 
#    z 0.000000 0.000000 1.651480 
# 
# From -- ./inp_files/19882.got.cif
#   From: 2010.05.17/outbox.cif.g08.bks.cpg/sg47_10_cif.got.tgz:19882.got - 2010.06.03 20:15:42.
