data_PCOD9383827
_publ_section_title
;
Structure prediction by ZEFSAII (Michael W. Deem and Ramdas Pophale) SiO2 
 PCOD9383827
Probable space group: P M M M
;
_chemical_formula_sum "Si O2"
_cell_formula_units_Z 52
_cell_length_a 21.842915
_cell_length_b 14.834388
_cell_length_c 7.909054
_cell_angle_alpha 90.000000
_cell_angle_beta 90.000000
_cell_angle_gamma 90.000000
_cell_volume 2562.741316
_symmetry_space_group_name_H-M "P M M M"
_symmetry_group_IT_number 47
_symmetry_cell_setting 'orthorhombic'
loop_
_space_group_symop_operation_xyz
x,y,z
-x,-y,z
x,-y,-z
-x,y,-z
-x,-y,-z
x,y,-z
-x,y,z
x,-y,z
loop_
_atom_site_type_symbol
_atom_site_label
_atom_site_fract_x
_atom_site_fract_y
_atom_site_fract_z
Si Si1 0.696376 0.899898 0.296334
Si Si2 0.747928 0.711385 0.814776
Si Si3 0.304614 0.397919 0.500000
Si Si4 0.000000 0.603938 0.797096
Si Si5 0.430836 0.177529 0.803210
Si Si6 0.878903 0.711544 0.308497
Si Si7 0.926933 0.900049 0.797125
Si Si8 0.568180 0.678536 0.500000
O O1 0.698331 0.891937 0.500000
O O2 0.734258 0.816983 0.219668
O O3 0.625973 0.887174 0.237636
O O4 0.718044 0.000000 0.248411
O O5 0.717573 0.655251 0.665232
O O6 0.820312 0.693514 0.805844
O O7 0.723757 0.688013 0.000000
O O8 0.282165 0.500000 0.500000
O O9 0.377821 0.392213 0.500000
O O10 0.939373 0.655692 0.737073
O O11 0.000000 0.500000 0.739862
O O12 0.000000 0.605655 0.000000
O O13 0.500000 0.139470 0.781964
O O14 0.425391 0.257668 0.666003
O O15 0.425602 0.206263 0.000000
O O16 0.860874 0.690884 0.500000
O O17 0.895094 0.816869 0.291262
O O18 0.000000 0.894370 0.766559
O O19 0.906290 0.000000 0.744891
O O20 0.918487 0.891713 0.000000
O O21 0.500000 0.640444 0.500000
#
# Coordination Sequence:
#
# PCOD9383827 Si02
#       8
#     8   8   4   4   8   8   8   4
#     4  11  22  39  64  95 134 176 220 270 324 385
#     4  12  25  46  70  94 131 177 222 269 328 392
#     4  12  26  47  70  99 134 165 218 277 327 394
#     4  11  25  45  68  95 124 159 209 265 328 395
#     4  10  19  33  58  90 128 174 220 265 315 377
#     4  12  24  41  66  95 130 167 209 264 324 386
#     4   9  18  34  58  88 123 164 210 257 307 371
#     4  10  20  39  66  97 129 167 213 265 332 392
#
# _framework density 20.290773000000002
#
# number of rings (size 3 to 8) (size 9 to 14) (size 15 to 20)
#    0.000    1.154    4.615    2.538    0.000    4.154 
#    0.000    2.308    0.000    0.000    0.000    3.231 
#    0.000    0.000    0.000    0.000    0.000    0.000 
#
# Total GULP energy -290603.207861 kJ/mol
# GULP energy per Si atom -5588.523228 kJ/mol
# Density = 2.024459 g / cm^3
# Si number density = 20.290773 Si / 1000 Ang^3
#
#
#
# Elastic Constant Matrix: (Units=GPa)
#
#
# Indices 1 2 3 4 5 6 
#
# 1 90.3150 34.4018 17.4312 0.0000 0.0000 0.0000
# 2 34.4018 101.6395 36.6086 0.0000 0.0000 0.0000
# 3 17.4312 36.6086 125.2523 0.0000 0.0000 0.0000
# 4 0.0000 0.0000 0.0000 17.0908 0.0000 0.0000
# 5 0.0000 0.0000 0.0000 0.0000 6.2009 0.0000
# 6 0.0000 0.0000 0.0000 0.0000 0.0000 -5.3390
#
#
#
# Elastic Compliance Matrix: (Units=1/GPa)
#
#
# Indices 1 2 3 4 5 6 
#
# 1 0.012748 -0.004108 -0.000573 0.000000 0.000000 0.000000
# 2 -0.004108 0.012320 -0.003029 0.000000 0.000000 0.000000
# 3 -0.000573 -0.003029 0.008949 0.000000 0.000000 0.000000
# 4 0.000000 0.000000 0.000000 0.058511 0.000000 0.000000
# 5 0.000000 0.000000 0.000000 0.000000 0.161266 0.000000
# 6 0.000000 0.000000 0.000000 0.000000 0.000000 -0.187303
#
#
# Mechanical properties :
#
#
# Convention : Reuss Voigt Hill
#
# Bulk Modulus (GPa) = 53.77622 54.89888 54.33755
# Shear Modulus (GPa) = 56.74615 18.84157 37.79386
#
# Velocity S-wave (km/s) = 5.29407 3.05056 4.32048
# Velocity P-wave (km/s) = 7.99562 6.28671 7.19210
#
# Compressibility (1/GPa) = 0.01859558
#
# Stress axis : x y z
#
# Youngs Moduli (GPa) = 78.44435 81.16700 111.74367
#
# Poissons Ratio (x) = 0.33345 0.06407
# Poissons Ratio (y) = 0.32227 0.33850
# Poissons Ratio (z) = 0.04498 0.24587
#
# Static dielectric constant tensor:
#      x y z
#    x 1.736540 0.000000 0.000000 
#    y 0.000000 1.695400 0.000000 
#    z 0.000000 0.000000 1.718770 
# 
# From -- ./inp_files/11174.got.cif
#   From: 2010.05.17/outbox.cif.g08.bks.cpg/sg47_6_cif.got.tgz:11174.got - 2010.06.03 20:15:42.
