data_PCOD9383045
_publ_section_title
;
Structure prediction by ZEFSAII (Michael W. Deem and Ramdas Pophale) SiO2 
 PCOD9383045
Probable space group: P M M M
;
_chemical_formula_sum "Si O2"
_cell_formula_units_Z 44
_cell_length_a 14.251041
_cell_length_b 7.556737
_cell_length_c 19.162082
_cell_angle_alpha 90.000000
_cell_angle_beta 90.000000
_cell_angle_gamma 90.000000
_cell_volume 2063.590840
_symmetry_space_group_name_H-M "P M M M"
_symmetry_group_IT_number 47
_symmetry_cell_setting 'orthorhombic'
loop_
_space_group_symop_operation_xyz
x,y,z
-x,-y,z
x,-y,-z
-x,y,-z
-x,-y,-z
x,y,-z
-x,y,z
x,-y,z
loop_
_atom_site_type_symbol
_atom_site_label
_atom_site_fract_x
_atom_site_fract_y
_atom_site_fract_z
Si Si1 0.394392 0.714328 0.212530
Si Si2 0.104201 0.715823 0.164112
Si Si3 0.897012 0.289115 0.324724
Si Si4 0.500000 0.212742 0.417475
Si Si5 0.284946 0.283797 0.078897
Si Si6 0.306711 0.200984 0.645152
O O1 0.500000 0.771732 0.228191
O O2 0.390363 0.500000 0.215634
O O3 0.363058 0.768023 0.135336
O O4 0.325995 0.783663 0.272118
O O5 0.108541 0.500000 0.165622
O O6 0.114546 0.775745 0.244534
O O7 0.186605 0.773770 0.113131
O O8 0.000000 0.765691 0.140265
O O9 0.903742 0.500000 0.319956
O O10 0.800612 0.258384 0.366273
O O11 0.000000 0.224890 0.350290
O O12 0.500000 0.236226 0.500000
O O13 0.598722 0.286099 0.387399
O O14 0.500000 0.000000 0.401928
O O15 0.284759 0.500000 0.077006
O O16 0.298217 0.222220 0.000000
O O17 0.308438 0.000000 0.621160
#
# Coordination Sequence:
#
# PCOD9383045 Si02
#       6
#     8   8   8   4   8   8
#     4  10  19  31  48  69  97 133 171 214 262 313
#     4   8  13  22  38  61  89 121 158 203 253 298
#     4   9  17  31  52  77 107 141 175 213 259 308
#     4   9  20  38  57  81 112 141 168 206 259 307
#     4   9  16  25  39  62  92 126 167 215 261 303
#     4  11  20  32  55  82 106 134 171 215 257 309
#
# _framework density 21.322056
#
# number of rings (size 3 to 8) (size 9 to 14) (size 15 to 20)
#    0.000    2.636    2.727    1.636    0.000    1.091 
#    0.000    3.636    0.000    5.455    0.000    5.091 
#    0.000    2.909    0.000    0.000    0.000    0.000 
#
# Total GULP energy -245241.556162 kJ/mol
# GULP energy per Si atom -5573.671731 kJ/mol
# Density = 2.127353 g / cm^3
# Si number density = 21.322056 Si / 1000 Ang^3
#
#
#
# Elastic Constant Matrix: (Units=GPa)
#
#
# Indices 1 2 3 4 5 6 
#
# 1 181.5819 6.8126 29.7087 0.0000 0.0000 0.0000
# 2 6.8126 42.7769 -3.9855 0.0000 0.0000 0.0000
# 3 29.7087 -3.9855 29.2458 0.0000 0.0000 0.0000
# 4 0.0000 0.0000 0.0000 6.6756 0.0000 0.0000
# 5 0.0000 0.0000 0.0000 0.0000 18.8111 0.0000
# 6 0.0000 0.0000 0.0000 0.0000 0.0000 8.2280
#
#
#
# Elastic Compliance Matrix: (Units=1/GPa)
#
#
# Indices 1 2 3 4 5 6 
#
# 1 0.006729 -0.001731 -0.007071 0.000000 0.000000 0.000000
# 2 -0.001731 0.024123 0.005045 0.000000 0.000000 0.000000
# 3 -0.007071 0.005045 0.042064 0.000000 0.000000 0.000000
# 4 0.000000 0.000000 0.000000 0.149800 0.000000 0.000000
# 5 0.000000 0.000000 0.000000 0.000000 0.053160 0.000000
# 6 0.000000 0.000000 0.000000 0.000000 0.000000 0.121536
#
#
# Mechanical properties :
#
#
# Convention : Reuss Voigt Hill
#
# Bulk Modulus (GPa) = 15.28996 35.40846 25.34921
# Shear Modulus (GPa) = 11.71713 21.48086 16.59899
#
# Velocity S-wave (km/s) = 2.34675 3.17747 2.79317
# Velocity P-wave (km/s) = 3.81176 5.48674 4.72408
#
# Compressibility (1/GPa) = 0.06540241
#
# Stress axis : x y z
#
# Youngs Moduli (GPa) = 148.60980 41.45464 23.77340
#
# Poissons Ratio (x) = 0.07174 0.16811
# Poissons Ratio (y) = 0.25717 -0.11994
# Poissons Ratio (z) = 1.05087 -0.20915
#
# Static dielectric constant tensor:
#      x y z
#    x 1.822850 0.000000 0.000000 
#    y 0.000000 1.842230 0.000000 
#    z 0.000000 0.000000 1.728950 
# 
# From -- ./inp_files/27868.got.cif
#   From: 2010.05.17/outbox.cif.g08.bks.cpg/sg47_14_cif.got.tgz:27868.got - 2010.06.03 20:15:42.
