data_PCOD9383182
_publ_section_title
;
Structure prediction by ZEFSAII (Michael W. Deem and Ramdas Pophale) SiO2 
 PCOD9383182
Probable space group: P M M M
;
_chemical_formula_sum "Si O2"
_cell_formula_units_Z 52
_cell_length_a 8.088855
_cell_length_b 28.390477
_cell_length_c 13.041224
_cell_angle_alpha 90.000000
_cell_angle_beta 90.000000
_cell_angle_gamma 90.000000
_cell_volume 2994.870819
_symmetry_space_group_name_H-M "P M M M"
_symmetry_group_IT_number 47
_symmetry_cell_setting 'orthorhombic'
loop_
_space_group_symop_operation_xyz
x,y,z
-x,-y,z
x,-y,-z
-x,y,-z
-x,-y,-z
x,y,-z
-x,y,z
x,-y,z
loop_
_atom_site_type_symbol
_atom_site_label
_atom_site_fract_x
_atom_site_fract_y
_atom_site_fract_z
Si Si1 0.299639 0.379102 0.616841
Si Si2 0.814579 0.116269 0.123633
Si Si3 0.197076 0.727707 0.382399
Si Si4 0.305338 0.783190 0.186739
Si Si5 0.301408 0.446558 0.203157
Si Si6 0.300277 0.283924 0.000000
Si Si7 0.805046 0.392273 0.000000
Si Si8 0.500000 0.945911 0.875268
O O1 0.249377 0.390090 0.500000
O O2 0.500000 0.377869 0.619747
O O3 0.237858 0.326715 0.642052
O O4 0.239969 0.417106 0.698960
O O5 0.787103 0.167675 0.171425
O O6 0.665868 0.081879 0.156044
O O7 0.000000 0.098852 0.146792
O O8 0.802338 0.121715 0.000000
O O9 0.252683 0.736140 0.500000
O O10 0.278617 0.760830 0.297994
O O11 0.000000 0.734110 0.378319
O O12 0.500000 0.792067 0.168627
O O13 0.249371 0.745536 0.100596
O O14 0.500000 0.449298 0.212776
O O15 0.237084 0.500000 0.198203
O O16 0.264238 0.417697 0.100697
O O17 0.236128 0.336958 0.000000
O O18 0.500000 0.286654 0.000000
O O19 0.000000 0.398189 0.000000
O O20 0.500000 0.000000 0.840536
O O21 0.500000 0.946448 0.000000
#
# Coordination Sequence:
#
# PCOD9383182 Si02
#       8
#     8   8   8   8   8   4   4   4
#     4   9  18  34  55  77  99 123 157 202 254 312
#     4  10  19  31  50  75 109 147 186 232 278 324
#     4  10  21  35  50  72 104 139 174 213 259 314
#     4  11  20  33  53  76 106 140 179 221 266 320
#     4  10  21  37  56  74  95 125 159 200 253 309
#     4  10  22  35  53  76 102 136 169 210 259 312
#     4  12  25  37  50  71 100 128 165 209 246 299
#     4   9  18  32  50  72 107 151 195 237 274 320
#
# _framework density 17.363019000000001
#
# number of rings (size 3 to 8) (size 9 to 14) (size 15 to 20)
#    0.000    1.923    1.538    2.769    0.000    8.308 
#    0.000    3.077    0.000    0.000    0.000    3.231 
#    0.000    1.231    0.000    3.231    0.000    0.154 
#
# Total GULP energy -290321.453188 kJ/mol
# GULP energy per Si atom -5583.104869 kJ/mol
# Density = 1.732350 g / cm^3
# Si number density = 17.363019 Si / 1000 Ang^3
#
#
#
# Elastic Constant Matrix: (Units=GPa)
#
#
# Indices 1 2 3 4 5 6 
#
# 1 59.3024 37.0459 20.8195 0.0000 0.0000 0.0000
# 2 37.0459 114.6700 50.8071 0.0000 0.0000 0.0000
# 3 20.8195 50.8071 68.5042 0.0000 0.0000 0.0000
# 4 0.0000 0.0000 0.0000 -9.0520 0.0000 0.0000
# 5 0.0000 0.0000 0.0000 0.0000 10.1179 0.0000
# 6 0.0000 0.0000 0.0000 0.0000 0.0000 -9.2007
#
#
#
# Elastic Compliance Matrix: (Units=1/GPa)
#
#
# Indices 1 2 3 4 5 6 
#
# 1 0.021316 -0.005982 -0.002042 0.000000 0.000000 0.000000
# 2 -0.005982 0.014668 -0.009060 0.000000 0.000000 0.000000
# 3 -0.002042 -0.009060 0.021938 0.000000 0.000000 0.000000
# 4 0.000000 0.000000 0.000000 -0.110473 0.000000 0.000000
# 5 0.000000 0.000000 0.000000 0.000000 0.098835 0.000000
# 6 0.000000 0.000000 0.000000 0.000000 0.000000 -0.108688
#
#
# Mechanical properties :
#
#
# Convention : Reuss Voigt Hill
#
# Bulk Modulus (GPa) = 42.09876 51.09128 46.59502
# Shear Modulus (GPa) = -246.09768 7.29331 -119.40218
#
# Velocity S-wave (km/s) = -11.91824 2.05173 -8.30165
# Velocity P-wave (km/s) = 12.84888 5.92470 8.06200
#
# Compressibility (1/GPa) = 0.02375367
#
# Stress axis : x y z
#
# Youngs Moduli (GPa) = 46.91212 68.17716 45.58292
#
# Poissons Ratio (x) = 0.40783 0.09307
# Poissons Ratio (y) = 0.28062 0.41300
# Poissons Ratio (z) = 0.09579 0.61772
#
# Static dielectric constant tensor:
#      x y z
#    x 1.618290 0.000000 0.000000 
#    y 0.000000 1.560440 0.000000 
#    z 0.000000 0.000000 1.584000 
# 
# From -- ./inp_files/15523.got.cif
#   From: 2010.05.17/outbox.cif.g08.bks.cpg/sg47_8_cif.got.tgz:15523.got - 2010.06.03 20:15:42.
