data_PCOD9383925
_publ_section_title
;
Structure prediction by ZEFSAII (Michael W. Deem and Ramdas Pophale) SiO2 
 PCOD9383925
Probable space group: P M M M
;
_chemical_formula_sum "Si O2"
_cell_formula_units_Z 40
_cell_length_a 25.613601
_cell_length_b 7.654180
_cell_length_c 10.224650
_cell_angle_alpha 90.000000
_cell_angle_beta 90.000000
_cell_angle_gamma 90.000000
_cell_volume 2004.554007
_symmetry_space_group_name_H-M "P M M M"
_symmetry_group_IT_number 47
_symmetry_cell_setting 'orthorhombic'
loop_
_space_group_symop_operation_xyz
x,y,z
-x,-y,z
x,-y,-z
-x,y,-z
-x,-y,-z
x,y,-z
-x,y,z
x,-y,z
loop_
_atom_site_type_symbol
_atom_site_label
_atom_site_fract_x
_atom_site_fract_y
_atom_site_fract_z
Si Si1 0.056113 0.210377 0.846840
Si Si2 0.374135 0.708873 0.256335
Si Si3 0.559257 0.714446 0.500000
Si Si4 0.171323 0.293113 0.849546
Si Si5 0.559872 0.207080 0.000000
Si Si6 0.739191 0.285722 0.346982
O O1 0.112270 0.269602 0.797149
O O2 0.000000 0.269893 0.790452
O O3 0.056192 0.000000 0.842427
O O4 0.055943 0.263010 0.000000
O O5 0.370627 0.500000 0.269071
O O6 0.409967 0.775030 0.373527
O O7 0.315110 0.771627 0.279297
O O8 0.405204 0.743765 0.124331
O O9 0.559057 0.500000 0.500000
O O10 0.500000 0.772339 0.500000
O O11 0.180621 0.500000 0.860430
O O12 0.213322 0.225158 0.745400
O O13 0.174898 0.222190 0.000000
O O14 0.500000 0.279718 0.000000
O O15 0.554718 0.000000 0.000000
O O16 0.741576 0.231995 0.500000
O O17 0.740121 0.500000 0.348920
#
# Coordination Sequence:
#
# PCOD9383925 Si02
#       6
#     8   8   4   8   4   8
#     4   8  14  26  44  66  94 127 162 202 248 292
#     4  10  19  34  58  82 102 131 171 213 254 300
#     4   9  16  28  51  83 107 121 158 217 258 290
#     4   9  17  27  44  72 101 128 161 200 242 292
#     4  11  25  41  53  73 109 143 168 203 256 311
#     4   9  17  31  51  76 104 132 162 203 255 301
#
# _framework density 19.954563
#
# number of rings (size 3 to 8) (size 9 to 14) (size 15 to 20)
#    0.000    2.800    1.000    1.500    1.400    2.000 
#    0.000    3.500    0.000    4.200    0.000    4.200 
#    0.000    0.000    0.000    0.000    0.000    0.000 
#
# Total GULP energy -222868.709908 kJ/mol
# GULP energy per Si atom -5571.717748 kJ/mol
# Density = 1.990915 g / cm^3
# Si number density = 19.954563 Si / 1000 Ang^3
#
#
#
# Elastic Constant Matrix: (Units=GPa)
#
#
# Indices 1 2 3 4 5 6 
#
# 1 245.1147 5.6372 110.3946 0.0000 0.0000 0.0000
# 2 5.6372 30.9422 -1.2891 0.0000 0.0000 0.0000
# 3 110.3946 -1.2891 141.2170 0.0000 0.0000 0.0000
# 4 0.0000 0.0000 0.0000 4.4786 0.0000 0.0000
# 5 0.0000 0.0000 0.0000 0.0000 31.8266 0.0000
# 6 0.0000 0.0000 0.0000 0.0000 0.0000 56.7524
#
#
#
# Elastic Compliance Matrix: (Units=1/GPa)
#
#
# Indices 1 2 3 4 5 6 
#
# 1 0.006354 -0.001365 -0.004979 0.000000 0.000000 0.000000
# 2 -0.001365 0.032624 0.001365 0.000000 0.000000 0.000000
# 3 -0.004979 0.001365 0.010986 0.000000 0.000000 0.000000
# 4 0.000000 0.000000 0.000000 0.223283 0.000000 0.000000
# 5 0.000000 0.000000 0.000000 0.000000 0.031420 0.000000
# 6 0.000000 0.000000 0.000000 0.000000 0.000000 0.017620
#
#
# Mechanical properties :
#
#
# Convention : Reuss Voigt Hill
#
# Bulk Modulus (GPa) = 24.99696 71.86214 48.42955
# Shear Modulus (GPa) = 14.46836 38.78027 26.62432
#
# Velocity S-wave (km/s) = 2.69562 4.41322 3.65670
# Velocity P-wave (km/s) = 4.71621 7.87780 6.49239
#
# Compressibility (1/GPa) = 0.04000486
#
# Stress axis : x y z
#
# Youngs Moduli (GPa) = 157.38747 30.65245 91.02192
#
# Poissons Ratio (x) = 0.04184 0.45324
# Poissons Ratio (y) = 0.21484 -0.12424
# Poissons Ratio (z) = 0.78370 -0.04184
#
# Static dielectric constant tensor:
#      x y z
#    x 1.730300 0.000000 0.000000 
#    y 0.000000 1.752740 0.000000 
#    z 0.000000 0.000000 1.453050 
# 
# From -- ./inp_files/12985.got.cif
#   From: 2010.05.17/outbox.cif.g08.bks.cpg/sg47_7_cif.got.tgz:12985.got - 2010.06.03 20:15:42.
