data_PCOD9383027
_publ_section_title
;
Structure prediction by ZEFSAII (Michael W. Deem and Ramdas Pophale) SiO2 
 PCOD9383027
Probable space group: P M M M
;
_chemical_formula_sum "Si O2"
_cell_formula_units_Z 52
_cell_length_a 18.748721
_cell_length_b 19.414466
_cell_length_c 7.785229
_cell_angle_alpha 90.000000
_cell_angle_beta 90.000000
_cell_angle_gamma 90.000000
_cell_volume 2833.795379
_symmetry_space_group_name_H-M "P M M M"
_symmetry_group_IT_number 47
_symmetry_cell_setting 'orthorhombic'
loop_
_space_group_symop_operation_xyz
x,y,z
-x,-y,z
x,-y,-z
-x,y,-z
-x,-y,-z
x,y,-z
-x,y,z
x,-y,z
loop_
_atom_site_type_symbol
_atom_site_label
_atom_site_fract_x
_atom_site_fract_y
_atom_site_fract_z
Si Si1 0.913457 0.078062 0.000000
Si Si2 0.350634 0.780536 0.702777
Si Si3 0.726590 0.576399 0.702841
Si Si4 0.578725 0.356545 0.200209
Si Si5 0.417585 0.076463 0.207261
Si Si6 0.795972 0.713460 0.291107
Si Si7 0.084721 0.817090 0.702891
O O1 0.893939 0.120791 0.170688
O O2 0.000000 0.074734 0.000000
O O3 0.886055 0.000000 0.000000
O O4 0.353835 0.767010 0.500000
O O5 0.403904 0.724858 0.785067
O O6 0.371847 0.858791 0.734857
O O7 0.270926 0.761228 0.761763
O O8 0.741637 0.571903 0.500000
O O9 0.734240 0.500000 0.777540
O O10 0.645416 0.603506 0.719533
O O11 0.777250 0.637013 0.773763
O O12 0.500000 0.370755 0.272784
O O13 0.578232 0.375015 0.000000
O O14 0.500000 0.085815 0.262888
O O15 0.394112 0.000000 0.264485
O O16 0.417452 0.076350 0.000000
O O17 0.795435 0.710372 0.500000
O O18 0.869229 0.750513 0.244648
O O19 0.098191 0.831947 0.500000
O O20 0.000000 0.805436 0.721951
#
# Coordination Sequence:
#
# PCOD9383027 Si02
#       7
#     4   8   8   8   8   8   8
#     4   9  18  32  50  78 111 135 168 213 249 297
#     4  10  19  31  48  68  92 121 157 205 251 293
#     4   9  18  33  52  72  97 129 161 200 251 300
#     4  10  20  32  46  66  94 126 160 202 248 295
#     4   9  18  32  47  63  88 122 158 199 246 294
#     4   8  16  32  50  71  98 126 160 200 244 296
#     4   9  17  32  55  78 104 141 177 211 254 300
#
# _framework density 18.349948999999999
#
# number of rings (size 3 to 8) (size 9 to 14) (size 15 to 20)
#    0.000    2.846    0.000    2.769    0.000    4.615 
#    6.923    4.615    0.000    3.231    0.000    3.231 
#    0.000    1.846    0.000    0.154    0.000    0.000 
#
# Total GULP energy -289766.599667 kJ/mol
# GULP energy per Si atom -5572.434609 kJ/mol
# Density = 1.830818 g / cm^3
# Si number density = 18.349949 Si / 1000 Ang^3
#
#
#
# Elastic Constant Matrix: (Units=GPa)
#
#
# Indices 1 2 3 4 5 6 
#
# 1 62.4806 61.1782 21.2443 0.0000 0.0000 0.0000
# 2 61.1782 168.8237 24.2504 0.0000 0.0000 0.0000
# 3 21.2443 24.2504 44.1463 0.0000 0.0000 0.0000
# 4 0.0000 0.0000 0.0000 272.8440 0.0000 0.0000
# 5 0.0000 0.0000 0.0000 0.0000 20.0572 0.0000
# 6 0.0000 0.0000 0.0000 0.0000 0.0000 12.7312
#
#
#
# Elastic Compliance Matrix: (Units=1/GPa)
#
#
# Indices 1 2 3 4 5 6 
#
# 1 0.027401 -0.008724 -0.008394 0.000000 0.000000 0.000000
# 2 -0.008724 0.009208 -0.000860 0.000000 0.000000 0.000000
# 3 -0.008394 -0.000860 0.027164 0.000000 0.000000 0.000000
# 4 0.000000 0.000000 0.000000 0.003665 0.000000 0.000000
# 5 0.000000 0.000000 0.000000 0.000000 0.049857 0.000000
# 6 0.000000 0.000000 0.000000 0.000000 0.000000 0.078547
#
#
# Mechanical properties :
#
#
# Convention : Reuss Voigt Hill
#
# Bulk Modulus (GPa) = 35.94878 54.31071 45.12975
# Shear Modulus (GPa) = 20.74080 72.37832 46.55956
#
# Velocity S-wave (km/s) = 3.36563 6.28721 5.04264
# Velocity P-wave (km/s) = 5.89377 9.07561 7.65190
#
# Compressibility (1/GPa) = 0.02781735
#
# Stress axis : x y z
#
# Youngs Moduli (GPa) = 36.49502 108.59847 36.81368
#
# Poissons Ratio (x) = 0.94740 0.30901
# Poissons Ratio (y) = 0.31838 0.03167
# Poissons Ratio (z) = 0.30633 0.09341
#
# Static dielectric constant tensor:
#      x y z
#    x 1.621940 0.000000 0.000000 
#    y 0.000000 1.646730 0.000000 
#    z 0.000000 0.000000 1.669190 
# 
# From -- ./inp_files/9581.got.cif
#   From: 2010.05.17/outbox.cif.g08.bks.cpg/sg47_5_cif.got.tgz:9581.got - 2010.06.03 20:15:42.
