data_PCOD9383910
_publ_section_title
;
Structure prediction by ZEFSAII (Michael W. Deem and Ramdas Pophale) SiO2 
 PCOD9383910
Probable space group: P M M M
;
_chemical_formula_sum "Si O2"
_cell_formula_units_Z 42
_cell_length_a 17.273265
_cell_length_b 12.494214
_cell_length_c 11.713747
_cell_angle_alpha 90.000000
_cell_angle_beta 90.000000
_cell_angle_gamma 90.000000
_cell_volume 2528.012493
_symmetry_space_group_name_H-M "P M M M"
_symmetry_group_IT_number 47
_symmetry_cell_setting 'orthorhombic'
loop_
_space_group_symop_operation_xyz
x,y,z
-x,-y,z
x,-y,-z
-x,y,-z
-x,-y,-z
x,y,-z
-x,y,z
x,-y,z
loop_
_atom_site_type_symbol
_atom_site_label
_atom_site_fract_x
_atom_site_fract_y
_atom_site_fract_z
Si Si1 0.713963 0.189548 0.000000
Si Si2 0.500000 0.129840 0.368937
Si Si3 0.091183 0.000000 0.750326
Si Si4 0.183241 0.805635 0.635600
Si Si5 0.839787 0.000000 0.000000
Si Si6 0.165650 0.626998 0.000000
Si Si7 0.341205 0.129745 0.244462
Si Si8 0.089984 0.627710 0.756366
O O1 0.665792 0.168761 0.885570
O O2 0.783645 0.102795 0.000000
O O3 0.756557 0.303549 0.000000
O O4 0.500000 0.167437 0.500000
O O5 0.421926 0.160654 0.303049
O O6 0.500000 0.000000 0.371967
O O7 0.130504 0.896995 0.693060
O O8 0.111029 0.000000 0.884625
O O9 0.000000 0.000000 0.732172
O O10 0.184633 0.817809 0.500000
O O11 0.268707 0.822033 0.686971
O O12 0.145296 0.693947 0.673443
O O13 0.116915 0.651871 0.113997
O O14 0.181404 0.500000 0.000000
O O15 0.333987 0.000000 0.246085
O O16 0.096609 0.500000 0.739674
O O17 0.000000 0.657674 0.741018
#
# Coordination Sequence:
#
# PCOD9383910 Si02
#       8
#     4   4   4   8   2   4   8   8
#     4  12  18  33  58  82 112 141 178 226 280 332
#     4   9  20  35  55  83 115 149 186 220 261 327
#     4  12  24  36  53  77 106 146 190 229 272 329
#     4  12  23  36  54  76 109 151 187 224 275 332
#     4  12  19  38  54  77 108 142 182 227 280 330
#     4  10  19  34  57  82 107 138 185 238 283 328
#     4  11  20  36  57  83 114 148 182 222 275 331
#     4  10  21  37  56  79 106 141 189 241 286 324
#
# _framework density 16.613841000000001
#
# number of rings (size 3 to 8) (size 9 to 14) (size 15 to 20)
#    0.000    1.048    5.714    1.857    0.000    4.571 
#    0.000    5.238    0.000    0.000    0.000    3.333 
#    0.000    4.571    0.000    0.000    0.000    0.000 
#
# Total GULP energy -234650.030605 kJ/mol
# GULP energy per Si atom -5586.905491 kJ/mol
# Density = 1.657603 g / cm^3
# Si number density = 16.613841 Si / 1000 Ang^3
#
#
#
# Elastic Constant Matrix: (Units=GPa)
#
#
# Indices 1 2 3 4 5 6 
#
# 1 163.4325 38.4801 86.8728 0.0000 0.0000 0.0000
# 2 38.4801 35.7135 34.5596 0.0000 0.0000 0.0000
# 3 86.8728 34.5596 163.7960 0.0000 0.0000 0.0000
# 4 0.0000 0.0000 0.0000 3.0592 0.0000 0.0000
# 5 0.0000 0.0000 0.0000 0.0000 -6.6738 0.0000
# 6 0.0000 0.0000 0.0000 0.0000 0.0000 21.6332
#
#
#
# Elastic Compliance Matrix: (Units=1/GPa)
#
#
# Indices 1 2 3 4 5 6 
#
# 1 0.009702 -0.006879 -0.003694 0.000000 0.000000 0.000000
# 2 -0.006879 0.040061 -0.004804 0.000000 0.000000 0.000000
# 3 -0.003694 -0.004804 0.009078 0.000000 0.000000 0.000000
# 4 0.000000 0.000000 0.000000 0.326884 0.000000 0.000000
# 5 0.000000 0.000000 0.000000 0.000000 -0.149839 0.000000
# 6 0.000000 0.000000 0.000000 0.000000 0.000000 0.046225
#
#
# Mechanical properties :
#
#
# Convention : Reuss Voigt Hill
#
# Bulk Modulus (GPa) = 35.60391 75.86301 55.73346
# Shear Modulus (GPa) = 15.51693 17.13902 16.32798
#
# Velocity S-wave (km/s) = 3.05942 3.21535 3.13835
# Velocity P-wave (km/s) = 5.82725 7.71663 6.83751
#
# Compressibility (1/GPa) = 0.02808680
#
# Stress axis : x y z
#
# Youngs Moduli (GPa) = 103.07092 24.96179 110.15375
#
# Poissons Ratio (x) = 0.17170 0.40695
# Poissons Ratio (y) = 0.70899 0.52922
# Poissons Ratio (z) = 0.38078 0.11993
#
# Static dielectric constant tensor:
#      x y z
#    x 1.533150 0.000000 0.000000 
#    y 0.000000 1.557390 0.000000 
#    z 0.000000 0.000000 1.556080 
# 
# From -- ./inp_files/18392.got.cif
#   From: 2010.05.17/outbox.cif.g08.bks.cpg/sg47_10_cif.got.tgz:18392.got - 2010.06.03 20:15:42.
