data_PCOD9383419
_publ_section_title
;
Structure prediction by ZEFSAII (Michael W. Deem and Ramdas Pophale) SiO2 
 PCOD9383419
Probable space group: P M M M
;
_chemical_formula_sum "Si O2"
_cell_formula_units_Z 64
_cell_length_a 20.244985
_cell_length_b 21.599621
_cell_length_c 7.668035
_cell_angle_alpha 90.000000
_cell_angle_beta 90.000000
_cell_angle_gamma 90.000000
_cell_volume 3353.109041
_symmetry_space_group_name_H-M "P M M M"
_symmetry_group_IT_number 47
_symmetry_cell_setting 'orthorhombic'
loop_
_space_group_symop_operation_xyz
x,y,z
-x,-y,z
x,-y,-z
-x,y,-z
-x,-y,-z
x,y,-z
-x,y,z
x,-y,z
loop_
_atom_site_type_symbol
_atom_site_label
_atom_site_fract_x
_atom_site_fract_y
_atom_site_fract_z
Si Si1 0.785240 0.932757 0.295659
Si Si2 0.291312 0.431753 0.790846
Si Si3 0.426820 0.770510 0.210361
Si Si4 0.926499 0.887543 0.793668
Si Si5 0.573283 0.626635 0.787155
Si Si6 0.073065 0.257684 0.711020
Si Si7 0.209584 0.689337 0.710013
Si Si8 0.714631 0.810937 0.706364
O O1 0.767253 0.934992 0.500000
O O2 0.863752 0.921523 0.285061
O O3 0.748763 0.872514 0.219223
O O4 0.769232 0.000000 0.218311
O O5 0.272513 0.500000 0.725729
O O6 0.364099 0.412074 0.725207
O O7 0.240987 0.376341 0.754328
O O8 0.296378 0.435162 0.000000
O O9 0.500000 0.790898 0.268272
O O10 0.418414 0.698596 0.264891
O O11 0.363863 0.808721 0.270928
O O12 0.426501 0.770930 0.000000
O O13 0.917421 0.813927 0.763621
O O14 0.000000 0.903788 0.726586
O O15 0.925839 0.899413 0.000000
O O16 0.500000 0.605834 0.732151
O O17 0.573554 0.625558 0.000000
O O18 0.072932 0.258848 0.500000
O O19 0.134955 0.298038 0.771909
O O20 0.000000 0.277049 0.771558
O O21 0.208933 0.692449 0.500000
O O22 0.254308 0.746802 0.776488
O O23 0.729485 0.810544 0.500000
#
# Coordination Sequence:
#
# PCOD9383419 Si02
#       8
#     8   8   8   8   8   8   8   8
#     4  10  21  37  54  72  99 136 175 212 250 297
#     4  10  20  32  48  72 100 132 169 203 242 297
#     4   9  17  30  50  75 100 129 165 202 245 297
#     4  10  20  32  48  74 107 138 167 203 249 299
#     4   8  14  26  44  67  95 125 160 199 234 275
#     4   9  17  32  54  76  99 128 166 210 251 295
#     4  10  19  32  51  75 100 127 162 206 252 295
#     4  10  19  32  51  77 101 125 164 209 253 297
#
# _framework density 19.086763999999999
#
# number of rings (size 3 to 8) (size 9 to 14) (size 15 to 20)
#    0.000    2.500    2.500    1.125    0.000    3.000 
#    0.000    2.500    0.000    1.125    0.000    6.125 
#    0.000    0.000    0.000    0.000    0.000    0.000 
#
# Total GULP energy -356970.241179 kJ/mol
# GULP energy per Si atom -5577.660018 kJ/mol
# Density = 1.904332 g / cm^3
# Si number density = 19.086764 Si / 1000 Ang^3
#
#
#
# Elastic Constant Matrix: (Units=GPa)
#
#
# Indices 1 2 3 4 5 6 
#
# 1 115.0652 73.3007 -1.2272 0.0000 0.0000 0.0000
# 2 73.3007 126.9287 4.8848 0.0000 0.0000 0.0000
# 3 -1.2272 4.8848 32.5922 0.0000 0.0000 0.0000
# 4 0.0000 0.0000 0.0000 18.4976 0.0000 0.0000
# 5 0.0000 0.0000 0.0000 0.0000 17.6334 0.0000
# 6 0.0000 0.0000 0.0000 0.0000 0.0000 13.5831
#
#
#
# Elastic Compliance Matrix: (Units=1/GPa)
#
#
# Indices 1 2 3 4 5 6 
#
# 1 0.013845 -0.008062 0.001730 0.000000 0.000000 0.000000
# 2 -0.008062 0.012619 -0.002195 0.000000 0.000000 0.000000
# 3 0.001730 -0.002195 0.031076 0.000000 0.000000 0.000000
# 4 0.000000 0.000000 0.000000 0.054061 0.000000 0.000000
# 5 0.000000 0.000000 0.000000 0.000000 0.056710 0.000000
# 6 0.000000 0.000000 0.000000 0.000000 0.000000 0.073621
#
#
# Mechanical properties :
#
#
# Convention : Reuss Voigt Hill
#
# Bulk Modulus (GPa) = 24.70020 47.61142 36.15581
# Shear Modulus (GPa) = 18.34987 23.11802 20.73394
#
# Velocity S-wave (km/s) = 3.10400 3.48402 3.29948
# Velocity P-wave (km/s) = 5.08090 6.41743 5.78787
#
# Compressibility (1/GPa) = 0.04048549
#
# Stress axis : x y z
#
# Youngs Moduli (GPa) = 72.22859 79.24780 32.17896
#
# Poissons Ratio (x) = 0.63889 -0.05566
# Poissons Ratio (y) = 0.58230 0.07063
# Poissons Ratio (z) = -0.12493 0.17393
#
# Static dielectric constant tensor:
#      x y z
#    x 1.678060 0.000000 0.000000 
#    y 0.000000 1.663020 0.000000 
#    z 0.000000 0.000000 1.722440 
# 
# From -- ./inp_files/11609.got.cif
#   From: 2010.05.17/outbox.cif.g08.bks.cpg/sg47_6_cif.got.tgz:11609.got - 2010.06.03 20:15:42.
