data_PCOD9383372
_publ_section_title
;
Structure prediction by ZEFSAII (Michael W. Deem and Ramdas Pophale) SiO2 
 PCOD9383372
Probable space group: P M M M
;
_chemical_formula_sum "Si O2"
_cell_formula_units_Z 64
_cell_length_a 14.692046
_cell_length_b 8.680142
_cell_length_c 32.693942
_cell_angle_alpha 90.000000
_cell_angle_beta 90.000000
_cell_angle_gamma 90.000000
_cell_volume 4169.427219
_symmetry_space_group_name_H-M "P M M M"
_symmetry_group_IT_number 47
_symmetry_cell_setting 'orthorhombic'
loop_
_space_group_symop_operation_xyz
x,y,z
-x,-y,z
x,-y,-z
-x,y,-z
-x,-y,-z
x,y,-z
-x,y,z
x,-y,z
loop_
_atom_site_type_symbol
_atom_site_label
_atom_site_fract_x
_atom_site_fract_y
_atom_site_fract_z
Si Si1 0.395170 0.814097 0.377450
Si Si2 0.719338 0.813398 0.297246
Si Si3 0.103179 0.815866 0.424137
Si Si4 0.604880 0.814765 0.781232
Si Si5 0.287811 0.316038 0.454729
Si Si6 0.103614 0.316977 0.333009
Si Si7 0.607813 0.687292 0.044106
Si Si8 0.389491 0.680619 0.132624
O O1 0.500000 0.763037 0.375340
O O2 0.339527 0.766518 0.337062
O O3 0.346189 0.754617 0.418076
O O4 0.394231 0.000000 0.378208
O O5 0.667775 0.762819 0.256170
O O6 0.819290 0.744589 0.302970
O O7 0.724684 0.000000 0.297163
O O8 0.183575 0.736553 0.448853
O O9 0.114852 0.766757 0.376763
O O10 0.000000 0.772319 0.436376
O O11 0.111775 0.000000 0.427425
O O12 0.500000 0.760245 0.775973
O O13 0.638838 0.763736 0.825872
O O14 0.602460 0.000000 0.780068
O O15 0.319560 0.267889 0.500000
O O16 0.292425 0.500000 0.452010
O O17 0.114182 0.500000 0.339395
O O18 0.000000 0.287903 0.319060
O O19 0.500000 0.724184 0.043431
O O20 0.613400 0.500000 0.044912
O O21 0.644010 0.740768 0.088288
O O22 0.646162 0.739145 0.000000
O O23 0.500000 0.691774 0.131233
O O24 0.366936 0.500000 0.135875
#
# Coordination Sequence:
#
# PCOD9383372 Si02
#       8
#     8   8   8   8   8   8   8   8
#     4  10  21  37  56  75  93 117 152 190 222 254
#     4  10  19  32  51  72  92 117 149 182 215 256
#     4  10  20  35  56  79 100 122 148 177 210 253
#     4   9  17  28  41  59  86 118 148 180 221 262
#     4  11  24  39  54  74 100 126 150 179 218 262
#     4  10  20  33  51  75 100 121 140 169 213 261
#     4   7   9  14  26  44  65  92 131 180 227 263
#     4   8  13  21  33  50  73 102 140 184 224 262
#
# _framework density 15.349830000000001
#
# number of rings (size 3 to 8) (size 9 to 14) (size 15 to 20)
#    0.000    2.625    1.250    2.625    0.000    5.250 
#    0.000    2.500    0.000    2.625    0.000    2.625 
#    0.000    0.000    0.000    0.000    0.000    0.625 
#
# Total GULP energy -356542.268253 kJ/mol
# GULP energy per Si atom -5570.972941 kJ/mol
# Density = 1.531489 g / cm^3
# Si number density = 15.349830 Si / 1000 Ang^3
#
#
#
# Elastic Constant Matrix: (Units=GPa)
#
#
# Indices 1 2 3 4 5 6 
#
# 1 61.2687 11.4330 44.3251 0.0000 0.0000 0.0000
# 2 11.4330 6.4316 17.3141 0.0000 0.0000 0.0000
# 3 44.3251 17.3141 135.0004 0.0000 0.0000 0.0000
# 4 0.0000 0.0000 0.0000 21.7402 0.0000 0.0000
# 5 0.0000 0.0000 0.0000 0.0000 4.4214 0.0000
# 6 0.0000 0.0000 0.0000 0.0000 0.0000 13.4355
#
#
#
# Elastic Compliance Matrix: (Units=1/GPa)
#
#
# Indices 1 2 3 4 5 6 
#
# 1 0.025728 -0.035119 -0.003943 0.000000 0.000000 0.000000
# 2 -0.035119 0.285410 -0.025074 0.000000 0.000000 0.000000
# 3 -0.003943 -0.025074 0.011918 0.000000 0.000000 0.000000
# 4 0.000000 0.000000 0.000000 0.045998 0.000000 0.000000
# 5 0.000000 0.000000 0.000000 0.000000 0.226174 0.000000
# 6 0.000000 0.000000 0.000000 0.000000 0.000000 0.074430
#
#
# Mechanical properties :
#
#
# Convention : Reuss Voigt Hill
#
# Bulk Modulus (GPa) = 5.13390 38.76057 21.94723
# Shear Modulus (GPa) = 5.79471 16.56131 11.17801
#
# Velocity S-wave (km/s) = 1.94507 3.28826 2.70148
# Velocity P-wave (km/s) = 2.89763 6.30263 4.90507
#
# Compressibility (1/GPa) = 0.19478385
#
# Stress axis : x y z
#
# Youngs Moduli (GPa) = 38.86880 3.50373 83.90818
#
# Poissons Ratio (x) = 0.12305 0.33086
# Poissons Ratio (y) = 1.36504 2.10388
# Poissons Ratio (z) = 0.15327 0.08785
#
# Static dielectric constant tensor:
#      x y z
#    x 1.498010 0.000000 0.000000 
#    y 0.000000 1.521310 0.000000 
#    z 0.000000 0.000000 1.538460 
# 
# From -- ./inp_files/8266.got.cif
#   From: 2010.05.17/outbox.cif.g08.bks.cpg/sg47_5_cif.got.tgz:8266.got - 2010.06.03 20:15:42.
