data_PCOD9383366
_publ_section_title
;
Structure prediction by ZEFSAII (Michael W. Deem and Ramdas Pophale) SiO2 
 PCOD9383366
Probable space group: P M M M
;
_chemical_formula_sum "Si O2"
_cell_formula_units_Z 52
_cell_length_a 7.818189
_cell_length_b 17.038734
_cell_length_c 20.286588
_cell_angle_alpha 90.000000
_cell_angle_beta 90.000000
_cell_angle_gamma 90.000000
_cell_volume 2702.417828
_symmetry_space_group_name_H-M "P M M M"
_symmetry_group_IT_number 47
_symmetry_cell_setting 'orthorhombic'
loop_
_space_group_symop_operation_xyz
x,y,z
-x,-y,z
x,-y,-z
-x,y,-z
-x,-y,-z
x,y,-z
-x,y,z
x,-y,z
loop_
_atom_site_type_symbol
_atom_site_label
_atom_site_fract_x
_atom_site_fract_y
_atom_site_fract_z
Si Si1 0.206635 0.408059 0.209810
Si Si2 0.000000 0.913726 0.646186
Si Si3 0.799129 0.334714 0.927422
Si Si4 0.309788 0.857366 0.728272
Si Si5 0.293841 0.833039 0.879719
Si Si6 0.313160 0.688303 0.338980
Si Si7 0.000000 0.740430 0.578342
Si Si8 0.304995 0.000000 0.077894
O O1 0.246476 0.500000 0.212629
O O2 0.271800 0.373201 0.139855
O O3 0.274405 0.364331 0.274664
O O4 0.000000 0.398424 0.210616
O O5 0.833853 0.908138 0.693078
O O6 0.000000 0.832485 0.603437
O O7 0.000000 0.000000 0.612567
O O8 0.782314 0.241422 0.916488
O O9 0.000000 0.355712 0.929156
O O10 0.726862 0.355415 0.000000
O O11 0.500000 0.893672 0.730883
O O12 0.261376 0.831086 0.801856
O O13 0.320657 0.777045 0.687897
O O14 0.500000 0.830035 0.890941
O O15 0.226066 0.917630 0.901832
O O16 0.500000 0.666663 0.365809
O O17 0.162673 0.694075 0.391885
O O18 0.000000 0.740991 0.500000
O O19 0.500000 0.000000 0.106105
O O20 0.317295 0.000000 0.000000
#
# Coordination Sequence:
#
# PCOD9383366 Si02
#       8
#     8   4   8   8   8   8   4   4
#     4  10  20  35  58  85 117 157 199 247 302 356
#     4  10  22  35  56  89 120 155 191 237 289 344
#     4  10  21  34  51  77 112 154 198 248 303 359
#     4   9  19  33  53  81 110 147 195 243 292 344
#     4  10  19  32  51  70  96 140 189 242 301 354
#     4  10  19  36  62  90 119 154 197 242 287 344
#     4  10  22  41  65  92 126 161 193 237 287 348
#     4   9  18  30  43  63  91 129 181 236 290 348
#
# _framework density 19.242028000000001
#
# number of rings (size 3 to 8) (size 9 to 14) (size 15 to 20)
#    0.000    2.231    2.308    0.462    2.154    2.308 
#    0.000    1.923    0.000    2.308    0.000    7.538 
#    0.000    0.000    0.000    0.000    0.000    0.000 
#
# Total GULP energy -289882.322381 kJ/mol
# GULP energy per Si atom -5574.660046 kJ/mol
# Density = 1.919823 g / cm^3
# Si number density = 19.242028 Si / 1000 Ang^3
#
#
#
# Elastic Constant Matrix: (Units=GPa)
#
#
# Indices 1 2 3 4 5 6 
#
# 1 77.6170 29.5136 56.7953 0.0000 0.0000 0.0000
# 2 29.5136 64.5644 20.2119 0.0000 0.0000 0.0000
# 3 56.7953 20.2119 120.3898 0.0000 0.0000 0.0000
# 4 0.0000 0.0000 0.0000 0.1534 0.0000 0.0000
# 5 0.0000 0.0000 0.0000 0.0000 0.6686 0.0000
# 6 0.0000 0.0000 0.0000 0.0000 0.0000 190.5157
#
#
#
# Elastic Compliance Matrix: (Units=1/GPa)
#
#
# Indices 1 2 3 4 5 6 
#
# 1 0.022574 -0.007373 -0.009412 0.000000 0.000000 0.000000
# 2 -0.007373 0.018756 0.000329 0.000000 0.000000 0.000000
# 3 -0.009412 0.000329 0.012691 0.000000 0.000000 0.000000
# 4 0.000000 0.000000 0.000000 6.517875 0.000000 0.000000
# 5 0.000000 0.000000 0.000000 0.000000 1.495593 0.000000
# 6 0.000000 0.000000 0.000000 0.000000 0.000000 0.005249
#
#
# Mechanical properties :
#
#
# Convention : Reuss Voigt Hill
#
# Bulk Modulus (GPa) = 47.36977 52.84585 50.10781
# Shear Modulus (GPa) = 0.61632 48.67091 24.64361
#
# Velocity S-wave (km/s) = 0.56656 5.03478 3.58259
# Velocity P-wave (km/s) = 5.00992 7.83084 6.57348
#
# Compressibility (1/GPa) = 0.02111051
#
# Stress axis : x y z
#
# Youngs Moduli (GPa) = 44.29829 53.31764 78.79459
#
# Poissons Ratio (x) = 0.39309 0.74161
# Poissons Ratio (y) = 0.32660 -0.02595
# Poissons Ratio (z) = 0.41693 -0.01756
#
# Static dielectric constant tensor:
#      x y z
#    x 1.742300 0.000000 0.000000 
#    y 0.000000 1.646230 0.000000 
#    z 0.000000 0.000000 1.645930 
# 
# From -- ./inp_files/26796.got.cif
#   From: 2010.05.17/outbox.cif.g08.bks.cpg/sg47_14_cif.got.tgz:26796.got - 2010.06.03 20:15:42.
