data_PCOD9383501
_publ_section_title
;
Structure prediction by ZEFSAII (Michael W. Deem and Ramdas Pophale) SiO2 
 PCOD9383501
Probable space group: P M M M
;
_chemical_formula_sum "Si O2"
_cell_formula_units_Z 52
_cell_length_a 14.248423
_cell_length_b 8.576250
_cell_length_c 22.145889
_cell_angle_alpha 90.000000
_cell_angle_beta 90.000000
_cell_angle_gamma 90.000000
_cell_volume 2706.184180
_symmetry_space_group_name_H-M "P M M M"
_symmetry_group_IT_number 47
_symmetry_cell_setting 'orthorhombic'
loop_
_space_group_symop_operation_xyz
x,y,z
-x,-y,z
x,-y,-z
-x,y,-z
-x,-y,-z
x,y,-z
-x,y,z
x,-y,z
loop_
_atom_site_type_symbol
_atom_site_label
_atom_site_fract_x
_atom_site_fract_y
_atom_site_fract_z
Si Si1 0.388096 0.321180 0.433507
Si Si2 0.390357 0.188335 0.195224
Si Si3 0.100269 0.317103 0.681028
Si Si4 0.240438 0.323026 0.107174
Si Si5 0.293801 0.182864 0.322626
Si Si6 0.104731 0.175206 0.189346
Si Si7 0.888582 0.813769 0.000000
O O1 0.352907 0.270266 0.500000
O O2 0.500000 0.327114 0.437097
O O3 0.355531 0.500000 0.422946
O O4 0.364196 0.214272 0.377042
O O5 0.500000 0.237980 0.196339
O O6 0.334483 0.247784 0.135776
O O7 0.336635 0.236656 0.257620
O O8 0.389103 0.000000 0.194355
O O9 0.102767 0.500000 0.697414
O O10 0.200028 0.270528 0.655120
O O11 0.097617 0.208961 0.740315
O O12 0.000000 0.291974 0.648358
O O13 0.258640 0.500000 0.088796
O O14 0.169380 0.307927 0.163043
O O15 0.176761 0.239535 0.056225
O O16 0.274263 0.000000 0.315875
O O17 0.000000 0.181236 0.162897
O O18 0.142579 0.000000 0.178302
O O19 0.000000 0.757963 0.000000
O O20 0.894202 0.000000 0.000000
#
# Coordination Sequence:
#
# PCOD9383501 Si02
#       7
#     8   8   8   8   8   8   4
#     4   9  19  36  57  82 115 156 199 243 294 351
#     4  10  22  40  60  84 117 157 199 241 289 347
#     4  10  20  33  51  79 113 148 188 233 283 340
#     4  12  24  38  59  87 119 152 189 237 290 344
#     4  11  21  34  57  87 119 155 195 241 295 350
#     4  10  19  32  52  78 110 148 186 224 273 333
#     4  11  25  45  68  91 118 155 195 236 288 349
#
# _framework density 19.215247999999999
#
# number of rings (size 3 to 8) (size 9 to 14) (size 15 to 20)
#    0.000    1.615    1.538    4.385    0.000    6.462 
#    0.000    1.154    0.000    2.769    0.000    3.231 
#    0.000    0.000    0.000    0.000    0.000    0.000 
#
# Total GULP energy -289505.991521 kJ/mol
# GULP energy per Si atom -5567.422914 kJ/mol
# Density = 1.917151 g / cm^3
# Si number density = 19.215248 Si / 1000 Ang^3
#
#
#
# Elastic Constant Matrix: (Units=GPa)
#
#
# Indices 1 2 3 4 5 6 
#
# 1 118.6104 33.0976 33.6380 0.0000 0.0000 0.0000
# 2 33.0976 59.9090 18.0274 0.0000 0.0000 0.0000
# 3 33.6380 18.0274 68.8669 0.0000 0.0000 0.0000
# 4 0.0000 0.0000 0.0000 24.8731 0.0000 0.0000
# 5 0.0000 0.0000 0.0000 0.0000 18.1820 0.0000
# 6 0.0000 0.0000 0.0000 0.0000 0.0000 25.3169
#
#
#
# Elastic Compliance Matrix: (Units=1/GPa)
#
#
# Indices 1 2 3 4 5 6 
#
# 1 0.010930 -0.004811 -0.004080 0.000000 0.000000 0.000000
# 2 -0.004811 0.020237 -0.002947 0.000000 0.000000 0.000000
# 3 -0.004080 -0.002947 0.017285 0.000000 0.000000 0.000000
# 4 0.000000 0.000000 0.000000 0.040204 0.000000 0.000000
# 5 0.000000 0.000000 0.000000 0.000000 0.054999 0.000000
# 6 0.000000 0.000000 0.000000 0.000000 0.000000 0.039499
#
#
# Mechanical properties :
#
#
# Convention : Reuss Voigt Hill
#
# Bulk Modulus (GPa) = 40.36153 46.32360 43.34257
# Shear Modulus (GPa) = 23.24610 24.51597 23.88103
#
# Velocity S-wave (km/s) = 3.48195 3.57579 3.52919
# Velocity P-wave (km/s) = 6.10048 6.41938 6.26196
#
# Compressibility (1/GPa) = 0.02477607
#
# Stress axis : x y z
#
# Youngs Moduli (GPa) = 91.48759 49.41476 57.85366
#
# Poissons Ratio (x) = 0.23774 0.23602
# Poissons Ratio (y) = 0.44016 0.17052
# Poissons Ratio (z) = 0.37323 0.14565
#
# Static dielectric constant tensor:
#      x y z
#    x 1.764030 0.000000 0.000000 
#    y 0.000000 1.676740 0.000000 
#    z 0.000000 0.000000 1.688400 
# 
# From -- ./inp_files/30881.got.cif
#   From: 2010.05.17/outbox.cif.g08.bks.cpg/sg47_16_cif.got.tgz:30881.got - 2010.06.03 20:15:42.
