data_PCOD9383801
_publ_section_title
;
Structure prediction by ZEFSAII (Michael W. Deem and Ramdas Pophale) SiO2 
 PCOD9383801
Probable space group: P M M M
;
_chemical_formula_sum "Si O2"
_cell_formula_units_Z 52
_cell_length_a 15.566745
_cell_length_b 20.854517
_cell_length_c 7.691877
_cell_angle_alpha 90.000000
_cell_angle_beta 90.000000
_cell_angle_gamma 90.000000
_cell_volume 2497.067475
_symmetry_space_group_name_H-M "P M M M"
_symmetry_group_IT_number 47
_symmetry_cell_setting 'orthorhombic'
loop_
_space_group_symop_operation_xyz
x,y,z
-x,-y,z
x,-y,-z
-x,y,-z
-x,-y,-z
x,y,-z
-x,y,z
x,-y,z
loop_
_atom_site_type_symbol
_atom_site_label
_atom_site_fract_x
_atom_site_fract_y
_atom_site_fract_z
Si Si1 0.096272 0.073352 0.290323
Si Si2 0.156405 0.427860 0.797613
Si Si3 0.402364 0.225134 0.203419
Si Si4 0.500000 0.575155 0.803860
Si Si5 0.670133 0.362434 0.697919
Si Si6 0.773959 0.185340 0.792630
Si Si7 0.905599 0.706939 0.787068
O O1 0.094631 0.073093 0.500000
O O2 0.169038 0.122653 0.235543
O O3 0.000000 0.092311 0.230258
O O4 0.111760 0.000000 0.233082
O O5 0.148198 0.500000 0.722932
O O6 0.254250 0.402130 0.788147
O O7 0.105610 0.366401 0.725097
O O8 0.131679 0.432814 0.000000
O O9 0.500000 0.223867 0.277669
O O10 0.360454 0.295830 0.218521
O O11 0.323648 0.182712 0.277675
O O12 0.411597 0.209590 0.000000
O O13 0.500000 0.500000 0.820801
O O14 0.415383 0.596056 0.706081
O O15 0.500000 0.604072 0.000000
O O16 0.696447 0.350517 0.500000
O O17 0.829946 0.246035 0.726040
O O18 0.766428 0.194822 0.000000
O O19 0.000000 0.731307 0.738213
O O20 0.901530 0.705755 0.000000
#
# Coordination Sequence:
#
# PCOD9383801 Si02
#       7
#     8   8   8   4   8   8   8
#     4   9  19  36  57  84 120 157 187 216 260 323
#     4  10  20  35  53  70  96 139 183 220 272 339
#     4  10  20  36  58  79 106 144 182 219 268 329
#     4  11  23  37  53  71  95 131 172 217 278 347
#     4  12  23  34  51  75 102 130 170 227 281 328
#     4  10  19  33  56  84 113 143 181 229 273 317
#     4   9  17  30  50  78 107 133 173 230 279 320
#
# _framework density 20.824428000000001
#
# number of rings (size 3 to 8) (size 9 to 14) (size 15 to 20)
#    0.000    1.923    2.308    3.000    0.000    4.923 
#    0.000    2.308    0.000    0.923    0.000    4.308 
#    0.000    0.000    0.000    0.000    0.000    0.000 
#
# Total GULP energy -290069.445377 kJ/mol
# GULP energy per Si atom -5578.258565 kJ/mol
# Density = 2.077703 g / cm^3
# Si number density = 20.824428 Si / 1000 Ang^3
#
#
#
# Elastic Constant Matrix: (Units=GPa)
#
#
# Indices 1 2 3 4 5 6 
#
# 1 140.6960 68.0036 5.5266 0.0000 0.0000 0.0000
# 2 68.0036 102.9850 0.5185 0.0000 0.0000 0.0000
# 3 5.5266 0.5185 46.4492 0.0000 0.0000 0.0000
# 4 0.0000 0.0000 0.0000 41.6832 0.0000 0.0000
# 5 0.0000 0.0000 0.0000 0.0000 2.7711 0.0000
# 6 0.0000 0.0000 0.0000 0.0000 0.0000 33.7939
#
#
#
# Elastic Compliance Matrix: (Units=1/GPa)
#
#
# Indices 1 2 3 4 5 6 
#
# 1 0.010503 -0.006929 -0.001172 0.000000 0.000000 0.000000
# 2 -0.006929 0.014282 0.000665 0.000000 0.000000 0.000000
# 3 -0.001172 0.000665 0.021661 0.000000 0.000000 0.000000
# 4 0.000000 0.000000 0.000000 0.023991 0.000000 0.000000
# 5 0.000000 0.000000 0.000000 0.000000 0.360862 0.000000
# 6 0.000000 0.000000 0.000000 0.000000 0.000000 0.029591
#
#
# Mechanical properties :
#
#
# Convention : Reuss Voigt Hill
#
# Bulk Modulus (GPa) = 31.67270 48.69197 40.18233
# Shear Modulus (GPa) = 10.28198 30.05507 20.16853
#
# Velocity S-wave (km/s) = 2.22445 3.80315 3.11545
# Velocity P-wave (km/s) = 4.67333 6.53591 5.68147
#
# Compressibility (1/GPa) = 0.03157293
#
# Stress axis : x y z
#
# Youngs Moduli (GPa) = 95.21281 70.01611 46.16605
#
# Poissons Ratio (x) = 0.48517 0.05412
# Poissons Ratio (y) = 0.65976 -0.03070
# Poissons Ratio (z) = 0.11162 -0.04656
#
# Static dielectric constant tensor:
#      x y z
#    x 1.782600 0.000000 0.000000 
#    y 0.000000 1.742370 0.000000 
#    z 0.000000 0.000000 1.799170 
# 
# From -- ./inp_files/7045.got.cif
#   From: 2010.05.17/outbox.cif.g08.bks.cpg/sg47_4_cif.got.tgz:7045.got - 2010.06.03 20:15:42.
