data_PCOD9383466
_publ_section_title
;
Structure prediction by ZEFSAII (Michael W. Deem and Ramdas Pophale) SiO2 
 PCOD9383466
Probable space group: P M M M
;
_chemical_formula_sum "Si O2"
_cell_formula_units_Z 52
_cell_length_a 21.851033
_cell_length_b 7.465110
_cell_length_c 13.501331
_cell_angle_alpha 90.000000
_cell_angle_beta 90.000000
_cell_angle_gamma 90.000000
_cell_volume 2202.342040
_symmetry_space_group_name_H-M "P M M M"
_symmetry_group_IT_number 47
_symmetry_cell_setting 'orthorhombic'
loop_
_space_group_symop_operation_xyz
x,y,z
-x,-y,z
x,-y,-z
-x,y,-z
-x,-y,-z
x,y,-z
-x,y,z
x,-y,z
loop_
_atom_site_type_symbol
_atom_site_label
_atom_site_fract_x
_atom_site_fract_y
_atom_site_fract_z
Si Si1 0.928948 0.783683 0.612716
Si Si2 0.303042 0.718706 0.607131
Si Si3 0.741292 0.282308 0.820146
Si Si4 0.566347 0.707318 0.674302
Si Si5 0.873467 0.707230 0.812857
Si Si6 0.607805 0.791653 0.891747
Si Si7 0.000000 0.292476 0.883010
O O1 0.915831 0.727418 0.500000
O O2 0.882007 0.712228 0.694059
O O3 0.000000 0.731475 0.635223
O O4 0.927081 0.000000 0.615676
O O5 0.279494 0.775959 0.500000
O O6 0.303460 0.500000 0.608517
O O7 0.268055 0.773819 0.705767
O O8 0.373094 0.781954 0.622932
O O9 0.740695 0.500000 0.823915
O O10 0.808793 0.218722 0.849014
O O11 0.681441 0.221895 0.878921
O O12 0.500000 0.788526 0.653780
O O13 0.563822 0.500000 0.643494
O O14 0.579107 0.709767 0.792699
O O15 0.873763 0.500000 0.846319
O O16 0.936501 0.792457 0.849227
O O17 0.590647 0.000000 0.889923
O O18 0.590800 0.717813 0.000000
O O19 0.000000 0.500000 0.845468
O O20 0.000000 0.298051 0.000000
#
# Coordination Sequence:
#
# PCOD9383466 Si02
#       7
#     8   8   8   8   8   8   4
#     4   9  18  32  49  70  99 135 168 198 242 302
#     4   8  14  27  47  71 101 133 164 201 241 284
#     4   9  19  33  51  76 101 129 168 211 255 304
#     4   9  18  32  51  77 105 133 169 209 249 298
#     4  10  19  32  52  76 100 129 167 213 262 308
#     4  10  21  36  53  73  99 133 171 211 255 303
#     4   9  18  32  48  69  98 128 161 205 260 319
#
# _framework density 23.611228000000001
#
# number of rings (size 3 to 8) (size 9 to 14) (size 15 to 20)
#    0.000    2.846    0.769    1.846    0.000    4.308 
#    0.000    6.923    0.000    8.308    0.000    4.308 
#    0.000    0.000    0.000    0.000    0.000    0.000 
#
# Total GULP energy -290248.248693 kJ/mol
# GULP energy per Si atom -5581.697090 kJ/mol
# Density = 2.355749 g / cm^3
# Si number density = 23.611228 Si / 1000 Ang^3
#
#
#
# Elastic Constant Matrix: (Units=GPa)
#
#
# Indices 1 2 3 4 5 6 
#
# 1 83.5572 -0.6197 -28.5012 0.0000 0.0000 0.0000
# 2 -0.6197 75.0287 -7.0723 0.0000 0.0000 0.0000
# 3 -28.5012 -7.0723 52.6637 0.0000 0.0000 0.0000
# 4 0.0000 0.0000 0.0000 29.4116 0.0000 0.0000
# 5 0.0000 0.0000 0.0000 0.0000 -4.2392 0.0000
# 6 0.0000 0.0000 0.0000 0.0000 0.0000 -52.8737
#
#
#
# Elastic Compliance Matrix: (Units=1/GPa)
#
#
# Indices 1 2 3 4 5 6 
#
# 1 0.014735 0.000885 0.008093 0.000000 0.000000 0.000000
# 2 0.000885 0.013552 0.002299 0.000000 0.000000 0.000000
# 3 0.008093 0.002299 0.023677 0.000000 0.000000 0.000000
# 4 0.000000 0.000000 0.000000 0.034000 0.000000 0.000000
# 5 0.000000 0.000000 0.000000 0.000000 -0.235893 0.000000
# 6 0.000000 0.000000 0.000000 0.000000 0.000000 -0.018913
#
#
# Mechanical properties :
#
#
# Convention : Reuss Voigt Hill
#
# Bulk Modulus (GPa) = 13.41969 15.42926 14.42447
# Shear Modulus (GPa) = -30.02013 10.95592 -9.53210
#
# Velocity S-wave (km/s) = -3.56959 2.15643 -2.01144
# Velocity P-wave (km/s) = 3.36055 3.57060 0.85319
#
# Compressibility (1/GPa) = 0.07451739
#
# Stress axis : x y z
#
# Youngs Moduli (GPa) = 67.86557 73.78872 42.23484
#
# Poissons Ratio (x) = -0.06527 -0.34182
# Poissons Ratio (y) = -0.06003 -0.09708
# Poissons Ratio (z) = -0.54925 -0.16962
#
# Static dielectric constant tensor:
#      x y z
#    x 1.912340 0.000000 0.000000 
#    y 0.000000 1.891660 0.000000 
#    z 0.000000 0.000000 1.882720 
# 
# From -- ./inp_files/25046.got.cif
#   From: 2010.05.17/outbox.cif.g08.bks.cpg/sg47_13_cif.got.tgz:25046.got - 2010.06.03 20:15:42.
