data_PCOD9383424
_publ_section_title
;
Structure prediction by ZEFSAII (Michael W. Deem and Ramdas Pophale) SiO2 
 PCOD9383424
Probable space group: P M M M
;
_chemical_formula_sum "Si O2"
_cell_formula_units_Z 64
_cell_length_a 19.602247
_cell_length_b 10.043978
_cell_length_c 19.470915
_cell_angle_alpha 90.000000
_cell_angle_beta 90.000000
_cell_angle_gamma 90.000000
_cell_volume 3833.522097
_symmetry_space_group_name_H-M "P M M M"
_symmetry_group_IT_number 47
_symmetry_cell_setting 'orthorhombic'
loop_
_space_group_symop_operation_xyz
x,y,z
-x,-y,z
x,-y,-z
-x,y,-z
-x,-y,-z
x,y,-z
-x,y,z
x,-y,z
loop_
_atom_site_type_symbol
_atom_site_label
_atom_site_fract_x
_atom_site_fract_y
_atom_site_fract_z
Si Si1 0.670659 0.843058 0.919037
Si Si2 0.323893 0.659169 0.301825
Si Si3 0.423243 0.661618 0.577045
Si Si4 0.078435 0.161486 0.421040
Si Si5 0.183127 0.848319 0.147121
Si Si6 0.923699 0.652181 0.082510
Si Si7 0.419767 0.342811 0.168730
Si Si8 0.191660 0.844304 0.692016
O O1 0.738974 0.816135 0.874399
O O2 0.610626 0.750221 0.890666
O O3 0.654297 0.000000 0.910496
O O4 0.683980 0.819743 0.000000
O O5 0.308993 0.500000 0.304540
O O6 0.369418 0.700325 0.366686
O O7 0.371625 0.680567 0.235107
O O8 0.256249 0.746689 0.306685
O O9 0.406293 0.705267 0.500000
O O10 0.500000 0.705763 0.593808
O O11 0.424599 0.500000 0.576839
O O12 0.095393 0.202354 0.500000
O O13 0.133843 0.198871 0.363044
O O14 0.000000 0.204495 0.406403
O O15 0.077526 0.000000 0.420878
O O16 0.133051 0.748311 0.110410
O O17 0.168987 0.842477 0.228391
O O18 0.171596 0.000000 0.123703
O O19 0.911893 0.500000 0.104716
O O20 0.000000 0.691847 0.104582
O O21 0.922594 0.653494 0.000000
O O22 0.500000 0.316439 0.182674
O O23 0.413974 0.500000 0.151418
O O24 0.209630 0.000000 0.676808
#
# Coordination Sequence:
#
# PCOD9383424 Si02
#       8
#     8   8   8   8   8   8   8   8
#     4  10  21  37  55  75 101 134 171 211 262 321
#     4  10  19  32  51  75 104 136 168 208 256 307
#     4   8  14  26  46  72 100 131 169 209 246 290
#     4   8  15  30  52  77 105 138 176 214 250 291
#     4  10  20  34  52  75 104 136 172 215 257 304
#     4   9  19  35  53  75 104 136 169 206 252 308
#     4  10  21  36  54  76 101 132 172 216 261 311
#     4  10  20  33  52  77 104 133 169 211 252 297
#
# _framework density 16.694828999999999
#
# number of rings (size 3 to 8) (size 9 to 14) (size 15 to 20)
#    0.000    2.625    1.250    1.875    0.000    5.250 
#    0.000    3.125    0.000    1.500    0.000    1.750 
#    0.000    0.000    0.000    0.000    0.000    0.000 
#
# Total GULP energy -356406.949283 kJ/mol
# GULP energy per Si atom -5568.858583 kJ/mol
# Density = 1.665683 g / cm^3
# Si number density = 16.694829 Si / 1000 Ang^3
#
#
#
# Elastic Constant Matrix: (Units=GPa)
#
#
# Indices 1 2 3 4 5 6 
#
# 1 109.4043 61.6414 61.5175 0.0000 0.0000 0.0000
# 2 61.6414 45.3012 35.5865 0.0000 0.0000 0.0000
# 3 61.5175 35.5865 70.6035 0.0000 0.0000 0.0000
# 4 0.0000 0.0000 0.0000 16.6977 0.0000 0.0000
# 5 0.0000 0.0000 0.0000 0.0000 33.8857 0.0000
# 6 0.0000 0.0000 0.0000 0.0000 0.0000 17.8900
#
#
#
# Elastic Compliance Matrix: (Units=1/GPa)
#
#
# Indices 1 2 3 4 5 6 
#
# 1 0.046494 -0.052051 -0.014276 0.000000 0.000000 0.000000
# 2 -0.052051 0.094815 -0.002438 0.000000 0.000000 0.000000
# 3 -0.014276 -0.002438 0.027831 0.000000 0.000000 0.000000
# 4 0.000000 0.000000 0.000000 0.059889 0.000000 0.000000
# 5 0.000000 0.000000 0.000000 0.000000 0.029511 0.000000
# 6 0.000000 0.000000 0.000000 0.000000 0.000000 0.055897
#
#
# Mechanical properties :
#
#
# Convention : Reuss Voigt Hill
#
# Bulk Modulus (GPa) = 31.63358 60.31111 45.97234
# Shear Modulus (GPa) = 10.81078 18.13224 14.47151
#
# Velocity S-wave (km/s) = 2.54747 3.29918 2.94738
# Velocity P-wave (km/s) = 5.25757 7.12157 6.25935
#
# Compressibility (1/GPa) = 0.03161198
#
# Stress axis : x y z
#
# Youngs Moduli (GPa) = 21.50802 10.54690 35.93141
#
# Poissons Ratio (x) = 0.54897 0.51295
# Poissons Ratio (y) = 1.11950 0.08759
# Poissons Ratio (z) = 0.30704 0.02571
#
# Static dielectric constant tensor:
#      x y z
#    x 1.558780 0.000000 0.000000 
#    y 0.000000 1.548770 0.000000 
#    z 0.000000 0.000000 1.573170 
# 
# From -- ./inp_files/10032.got.cif
#   From: 2010.05.17/outbox.cif.g08.bks.cpg/sg47_6_cif.got.tgz:10032.got - 2010.06.03 20:15:42.
