data_PCOD9383676
_publ_section_title
;
Structure prediction by ZEFSAII (Michael W. Deem and Ramdas Pophale) SiO2 
 PCOD9383676
Probable space group: P M M M
;
_chemical_formula_sum "Si O2"
_cell_formula_units_Z 52
_cell_length_a 23.656501
_cell_length_b 8.798309
_cell_length_c 14.605387
_cell_angle_alpha 90.000000
_cell_angle_beta 90.000000
_cell_angle_gamma 90.000000
_cell_volume 3039.924438
_symmetry_space_group_name_H-M "P M M M"
_symmetry_group_IT_number 47
_symmetry_cell_setting 'orthorhombic'
loop_
_space_group_symop_operation_xyz
x,y,z
-x,-y,z
x,-y,-z
-x,y,-z
-x,-y,-z
x,y,-z
-x,y,z
x,-y,z
loop_
_atom_site_type_symbol
_atom_site_label
_atom_site_fract_x
_atom_site_fract_y
_atom_site_fract_z
Si Si1 0.168027 0.680560 0.216509
Si Si2 0.725657 0.181847 0.107969
Si Si3 0.660361 0.317115 0.397252
Si Si4 0.615044 0.683751 0.204743
Si Si5 0.214495 0.818598 0.604809
Si Si6 0.500000 0.314623 0.105863
Si Si7 0.065452 0.182519 0.893173
O O1 0.171945 0.500000 0.215909
O O2 0.220078 0.748713 0.158238
O O3 0.175697 0.742420 0.319142
O O4 0.110089 0.735655 0.170924
O O5 0.668841 0.247607 0.152750
O O6 0.726761 0.000000 0.118896
O O7 0.727132 0.217415 0.000000
O O8 0.640730 0.275815 0.500000
O O9 0.667747 0.500000 0.395164
O O10 0.620585 0.276012 0.312174
O O11 0.721550 0.241920 0.382261
O O12 0.618064 0.500000 0.197804
O O13 0.556760 0.734000 0.158056
O O14 0.198302 0.782739 0.500000
O O15 0.214254 0.000000 0.616320
O O16 0.500000 0.500000 0.105936
O O17 0.500000 0.265520 0.000000
O O18 0.000000 0.220369 0.873468
O O19 0.071663 0.000000 0.884130
O O20 0.076455 0.219884 0.000000
#
# Coordination Sequence:
#
# PCOD9383676 Si02
#       7
#     8   8   8   8   8   4   8
#     4  12  23  34  53  82 113 144 177 219 270 322
#     4  11  23  36  51  74 105 138 175 224 274 319
#     4   9  17  30  49  75 105 134 168 215 269 322
#     4  10  19  33  53  75 100 137 178 219 269 324
#     4  10  20  34  54  79 107 141 179 218 265 322
#     4   9  18  32  50  72 100 137 183 227 265 320
#     4   9  19  37  59  81 109 148 189 226 265 312
#
# _framework density 17.105689000000002
#
# number of rings (size 3 to 8) (size 9 to 14) (size 15 to 20)
#    0.000    1.923    1.538    3.692    0.000    5.231 
#    0.000    1.538    0.000    4.154    0.000    3.231 
#    0.000    3.692    0.000    0.000    0.000    0.000 
#
# Total GULP energy -290311.732320 kJ/mol
# GULP energy per Si atom -5582.917929 kJ/mol
# Density = 1.706676 g / cm^3
# Si number density = 17.105689 Si / 1000 Ang^3
#
#
#
# Elastic Constant Matrix: (Units=GPa)
#
#
# Indices 1 2 3 4 5 6 
#
# 1 111.0294 40.3736 94.1893 0.0000 0.0000 0.0000
# 2 40.3736 38.2198 59.2050 0.0000 0.0000 0.0000
# 3 94.1893 59.2050 166.1088 0.0000 0.0000 0.0000
# 4 0.0000 0.0000 0.0000 22.6704 0.0000 0.0000
# 5 0.0000 0.0000 0.0000 0.0000 30.1489 0.0000
# 6 0.0000 0.0000 0.0000 0.0000 0.0000 33.3749
#
#
#
# Elastic Compliance Matrix: (Units=1/GPa)
#
#
# Indices 1 2 3 4 5 6 
#
# 1 0.018209 -0.007236 -0.007746 0.000000 0.000000 0.000000
# 2 -0.007236 0.061294 -0.017744 0.000000 0.000000 0.000000
# 3 -0.007746 -0.017744 0.016737 0.000000 0.000000 0.000000
# 4 0.000000 0.000000 0.000000 0.044110 0.000000 0.000000
# 5 0.000000 0.000000 0.000000 0.000000 0.033169 0.000000
# 6 0.000000 0.000000 0.000000 0.000000 0.000000 0.029963
#
#
# Mechanical properties :
#
#
# Convention : Reuss Voigt Hill
#
# Bulk Modulus (GPa) = 32.47959 78.09930 55.28944
# Shear Modulus (GPa) = 17.90858 25.34485 21.62671
#
# Velocity S-wave (km/s) = 3.23915 3.85341 3.55956
# Velocity P-wave (km/s) = 5.74615 8.09657 7.02042
#
# Compressibility (1/GPa) = 0.03078857
#
# Stress axis : x y z
#
# Youngs Moduli (GPa) = 54.91778 16.31476 59.74910
#
# Poissons Ratio (x) = 0.11805 0.46282
# Poissons Ratio (y) = 0.39738 1.06016
# Poissons Ratio (z) = 0.42540 0.28948
#
# Static dielectric constant tensor:
#      x y z
#    x 1.542130 0.000000 0.000000 
#    y 0.000000 1.572700 0.000000 
#    z 0.000000 0.000000 1.593890 
# 
# From -- ./inp_files/6913.got.cif
#   From: 2010.05.17/outbox.cif.g08.bks.cpg/sg47_4_cif.got.tgz:6913.got - 2010.06.03 20:15:42.
