data_PCOD9383758
_publ_section_title
;
Structure prediction by ZEFSAII (Michael W. Deem and Ramdas Pophale) SiO2 
 PCOD9383758
Probable space group: P M M M
;
_chemical_formula_sum "Si O2"
_cell_formula_units_Z 33
_cell_length_a 7.963410
_cell_length_b 26.393766
_cell_length_c 8.979960
_cell_angle_alpha 90.000000
_cell_angle_beta 90.000000
_cell_angle_gamma 90.000000
_cell_volume 1887.447326
_symmetry_space_group_name_H-M "P M M M"
_symmetry_group_IT_number 47
_symmetry_cell_setting 'orthorhombic'
loop_
_space_group_symop_operation_xyz
x,y,z
-x,-y,z
x,-y,-z
-x,y,-z
-x,-y,-z
x,y,-z
-x,y,z
x,-y,z
loop_
_atom_site_type_symbol
_atom_site_label
_atom_site_fract_x
_atom_site_fract_y
_atom_site_fract_z
Si Si1 0.312324 0.126747 0.179560
Si Si2 0.000000 0.941784 0.181857
Si Si3 0.000000 0.500000 0.000000
Si Si4 0.200134 0.230917 0.677196
Si Si5 0.000000 0.395009 0.836291
Si Si6 0.689213 0.343418 0.679523
O O1 0.500000 0.110789 0.224449
O O2 0.275240 0.182764 0.239848
O O3 0.165511 0.088862 0.230209
O O4 0.306539 0.128145 0.000000
O O5 0.000000 0.000000 0.230898
O O6 0.000000 0.942046 0.000000
O O7 0.000000 0.454547 0.127286
O O8 0.227617 0.224758 0.500000
O O9 0.278754 0.284740 0.721641
O O10 0.000000 0.233197 0.703134
O O11 0.165880 0.377227 0.750730
O O12 0.000000 0.369400 0.000000
O O13 0.702814 0.345935 0.500000
O O14 0.500000 0.358399 0.722504
#
# Coordination Sequence:
#
# PCOD9383758 Si02
#       6
#     8   4   1   8   4   8
#     4  10  20  33  51  76 106 138 175 218 269 327
#     4   9  18  33  51  71  98 133 178 230 276 314
#     4   8  24  44  60  84 112 162 194 228 284 324
#     4  10  19  33  55  81 111 146 177 212 265 331
#     4  10  21  40  60  81 114 151 190 230 276 326
#     4  10  20  36  60  88 116 147 186 231 278 332
#
# _framework density 17.483934000000001
#
# number of rings (size 3 to 8) (size 9 to 14) (size 15 to 20)
#    0.364    1.818    2.424    1.091    0.000    3.394 
#    0.000    4.848    0.000    2.909    0.000    1.697 
#    0.000    0.000    0.000    0.000    0.000    0.000 
#
# Total GULP energy -183758.799024 kJ/mol
# GULP energy per Si atom -5568.448455 kJ/mol
# Density = 1.744414 g / cm^3
# Si number density = 17.483934 Si / 1000 Ang^3
#
#
#
# Elastic Constant Matrix: (Units=GPa)
#
#
# Indices 1 2 3 4 5 6 
#
# 1 173.5949 91.5524 43.7092 0.0000 0.0000 0.0000
# 2 91.5524 142.9602 28.5337 0.0000 0.0000 0.0000
# 3 43.7092 28.5337 15.7286 0.0000 0.0000 0.0000
# 4 0.0000 0.0000 0.0000 215.9665 0.0000 0.0000
# 5 0.0000 0.0000 0.0000 0.0000 16.6234 0.0000
# 6 0.0000 0.0000 0.0000 0.0000 0.0000 0.5828
#
#
#
# Elastic Compliance Matrix: (Units=1/GPa)
#
#
# Indices 1 2 3 4 5 6 
#
# 1 0.019810 -0.002663 -0.050220 0.000000 0.000000 0.000000
# 2 -0.002663 0.011323 -0.013142 0.000000 0.000000 0.000000
# 3 -0.050220 -0.013142 0.226980 0.000000 0.000000 0.000000
# 4 0.000000 0.000000 0.000000 0.004630 0.000000 0.000000
# 5 0.000000 0.000000 0.000000 0.000000 0.060156 0.000000
# 6 0.000000 0.000000 0.000000 0.000000 0.000000 1.715750
#
#
# Mechanical properties :
#
#
# Convention : Reuss Voigt Hill
#
# Bulk Modulus (GPa) = 7.93255 73.31936 40.62596
# Shear Modulus (GPa) = 2.25966 57.86709 30.06338
#
# Velocity S-wave (km/s) = 1.13808 5.75927 4.15117
# Velocity P-wave (km/s) = 2.50477 9.28719 6.80168
#
# Compressibility (1/GPa) = 0.12606285
#
# Stress axis : x y z
#
# Youngs Moduli (GPa) = 50.48072 88.31368 4.40568
#
# Poissons Ratio (x) = 0.23515 0.22125
# Poissons Ratio (y) = 0.13441 0.05790
# Poissons Ratio (z) = 2.53512 1.16066
#
# Static dielectric constant tensor:
#      x y z
#    x 1.610710 0.000000 0.000000 
#    y 0.000000 1.557170 0.000000 
#    z 0.000000 0.000000 1.597050 
# 
# From -- ./inp_files/1336.got.cif
#   From: 2010.05.17/outbox.cif.g08.bks.cpg/sg47_1_cif.got.tgz:1336.got - 2010.06.03 20:15:42.
