data_PCOD9383583
_publ_section_title
;
Structure prediction by ZEFSAII (Michael W. Deem and Ramdas Pophale) SiO2 
 PCOD9383583
Probable space group: P M M M
;
_chemical_formula_sum "Si O2"
_cell_formula_units_Z 56
_cell_length_a 15.994620
_cell_length_b 7.386775
_cell_length_c 19.565977
_cell_angle_alpha 90.000000
_cell_angle_beta 90.000000
_cell_angle_gamma 90.000000
_cell_volume 2311.693948
_symmetry_space_group_name_H-M "P M M M"
_symmetry_group_IT_number 47
_symmetry_cell_setting 'orthorhombic'
loop_
_space_group_symop_operation_xyz
x,y,z
-x,-y,z
x,-y,-z
-x,y,-z
-x,-y,-z
x,y,-z
-x,y,z
x,-y,z
loop_
_atom_site_type_symbol
_atom_site_label
_atom_site_fract_x
_atom_site_fract_y
_atom_site_fract_z
Si Si1 0.000000 0.718005 0.578788
Si Si2 0.094325 0.778327 0.839052
Si Si3 0.410238 0.281575 0.612721
Si Si4 0.592723 0.718166 0.228802
Si Si5 0.235335 0.209749 0.428516
Si Si6 0.858633 0.792086 0.688512
Si Si7 0.597604 0.778232 0.000000
Si Si8 0.275952 0.208886 0.116898
O O1 0.075648 0.782235 0.626298
O O2 0.000000 0.500000 0.577772
O O3 0.000000 0.780951 0.500000
O O4 0.106888 0.719350 0.759642
O O5 0.180663 0.718433 0.876476
O O6 0.000000 0.722486 0.861408
O O7 0.093409 0.000000 0.841435
O O8 0.500000 0.223379 0.587011
O O9 0.407541 0.500000 0.611049
O O10 0.403833 0.226759 0.692316
O O11 0.333929 0.211058 0.570726
O O12 0.500000 0.775834 0.201373
O O13 0.593880 0.500000 0.225605
O O14 0.674041 0.783457 0.188259
O O15 0.202284 0.291427 0.500000
O O16 0.216215 0.294846 0.354135
O O17 0.208567 0.000000 0.427597
O O18 0.837842 0.000000 0.705537
O O19 0.654773 0.717319 0.935895
O O20 0.500000 0.718810 0.000000
O O21 0.593763 0.000000 0.000000
O O22 0.264223 0.000000 0.096925
#
# Coordination Sequence:
#
# PCOD9383583 Si02
#       8
#     4   8   8   8   8   8   4   8
#     4  11  23  35  49  75 107 134 167 214 266 321
#     4   9  17  31  53  80 104 131 175 228 269 305
#     4   9  19  35  52  70  96 133 173 213 265 326
#     4   9  18  33  52  76 106 135 168 217 270 317
#     4  10  21  34  49  73 100 128 170 219 264 316
#     4  10  19  35  56  73  96 133 172 213 265 320
#     4   9  18  32  50  80 120 151 177 215 262 315
#     4  10  19  32  54  80 108 145 183 216 258 314
#
# _framework density 24.22466
#
# number of rings (size 3 to 8) (size 9 to 14) (size 15 to 20)
#    0.000    2.429    0.714    2.786    0.000    5.143 
#    0.000    4.286    0.000    3.429    0.000    0.000 
#    0.000    1.143    0.000    0.000    0.000    0.000 
#
# Total GULP energy -312212.240960 kJ/mol
# GULP energy per Si atom -5575.218589 kJ/mol
# Density = 2.416952 g / cm^3
# Si number density = 24.224660 Si / 1000 Ang^3
#
#
#
# Elastic Constant Matrix: (Units=GPa)
#
#
# Indices 1 2 3 4 5 6 
#
# 1 208.8793 5.4294 57.2893 0.0000 0.0000 0.0000
# 2 5.4294 90.5782 2.4733 0.0000 0.0000 0.0000
# 3 57.2893 2.4733 77.0304 0.0000 0.0000 0.0000
# 4 0.0000 0.0000 0.0000 4.6732 0.0000 0.0000
# 5 0.0000 0.0000 0.0000 0.0000 30.6709 0.0000
# 6 0.0000 0.0000 0.0000 0.0000 0.0000 18.8946
#
#
#
# Elastic Compliance Matrix: (Units=1/GPa)
#
#
# Indices 1 2 3 4 5 6 
#
# 1 0.006019 -0.000239 -0.004469 0.000000 0.000000 0.000000
# 2 -0.000239 0.011059 -0.000178 0.000000 0.000000 0.000000
# 3 -0.004469 -0.000178 0.016311 0.000000 0.000000 0.000000
# 4 0.000000 0.000000 0.000000 0.213987 0.000000 0.000000
# 5 0.000000 0.000000 0.000000 0.000000 0.032604 0.000000
# 6 0.000000 0.000000 0.000000 0.000000 0.000000 0.052925
#
#
# Mechanical properties :
#
#
# Convention : Reuss Voigt Hill
#
# Bulk Modulus (GPa) = 42.33822 56.31911 49.32866
# Shear Modulus (GPa) = 14.26326 31.60078 22.93202
#
# Velocity S-wave (km/s) = 2.42913 3.61569 3.08009
# Velocity P-wave (km/s) = 5.03814 6.38201 5.74948
#
# Compressibility (1/GPa) = 0.02361932
#
# Stress axis : x y z
#
# Youngs Moduli (GPa) = 166.12953 90.42127 61.30696
#
# Poissons Ratio (x) = 0.02159 0.27399
# Poissons Ratio (y) = 0.03967 0.01088
# Poissons Ratio (z) = 0.74245 0.01605
#
# Static dielectric constant tensor:
#      x y z
#    x 2.348290 0.000000 0.000000 
#    y 0.000000 1.951960 0.000000 
#    z 0.000000 0.000000 1.949750 
# 
# From -- ./inp_files/31040.got.cif
#   From: 2010.05.17/outbox.cif.g08.bks.cpg/sg47_16_cif.got.tgz:31040.got - 2010.06.03 20:15:42.
