data_PCOD9383753
_publ_section_title
;
Structure prediction by ZEFSAII (Michael W. Deem and Ramdas Pophale) SiO2 
 PCOD9383753
Probable space group: P M M M
;
_chemical_formula_sum "Si O2"
_cell_formula_units_Z 52
_cell_length_a 7.463516
_cell_length_b 20.872963
_cell_length_c 15.661994
_cell_angle_alpha 90.000000
_cell_angle_beta 90.000000
_cell_angle_gamma 90.000000
_cell_volume 2439.914594
_symmetry_space_group_name_H-M "P M M M"
_symmetry_group_IT_number 47
_symmetry_cell_setting 'orthorhombic'
loop_
_space_group_symop_operation_xyz
x,y,z
-x,-y,z
x,-y,-z
-x,y,-z
-x,-y,-z
x,y,-z
-x,y,z
x,-y,z
loop_
_atom_site_type_symbol
_atom_site_label
_atom_site_fract_x
_atom_site_fract_y
_atom_site_fract_z
Si Si1 0.284400 0.357280 0.667902
Si Si2 0.788192 0.185727 0.225629
Si Si3 0.791021 0.783400 0.598025
Si Si4 0.792066 0.426830 0.844307
Si Si5 0.219274 0.707278 0.093758
Si Si6 0.715896 0.927063 0.904166
Si Si7 0.718333 0.428776 0.500000
O O1 0.500000 0.356327 0.674364
O O2 0.223861 0.286101 0.643292
O O3 0.216461 0.395812 0.749774
O O4 0.223794 0.395455 0.585291
O O5 0.714892 0.175730 0.321973
O O6 0.716849 0.246535 0.170276
O O7 0.769292 0.123955 0.166294
O O8 0.000000 0.197974 0.235315
O O9 0.716529 0.783104 0.500000
O O10 0.000000 0.799623 0.587964
O O11 0.717963 0.500000 0.847744
O O12 0.717177 0.366406 0.897385
O O13 0.000000 0.432588 0.869346
O O14 0.000000 0.706279 0.098045
O O15 0.268706 0.732446 0.000000
O O16 0.500000 0.927772 0.906055
O O17 0.775435 0.000000 0.886768
O O18 0.777705 0.909253 0.000000
O O19 0.780987 0.500000 0.500000
O O20 0.500000 0.427445 0.500000
#
# Coordination Sequence:
#
# PCOD9383753 Si02
#       7
#     8   8   8   8   8   8   4
#     4  11  20  32  50  70  96 129 168 216 269 322
#     4  10  19  33  55  81 110 142 177 219 263 308
#     4  10  20  35  55  77 106 139 173 216 265 315
#     4  10  20  34  50  68  95 132 174 218 268 325
#     4   9  17  30  49  74 102 131 169 219 268 312
#     4   9  19  36  57  84 119 152 178 209 254 307
#     4   9  18  30  43  63  91 121 156 205 264 319
#
# _framework density 21.312222999999999
#
# number of rings (size 3 to 8) (size 9 to 14) (size 15 to 20)
#    0.000    2.231    2.308    1.846    0.000    3.077 
#    0.000    2.308    0.000    2.769    0.000    4.308 
#    0.000    0.000    0.000    0.000    0.000    0.000 
#
# Total GULP energy -289830.034271 kJ/mol
# GULP energy per Si atom -5573.654505 kJ/mol
# Density = 2.126372 g / cm^3
# Si number density = 21.312223 Si / 1000 Ang^3
#
#
#
# Elastic Constant Matrix: (Units=GPa)
#
#
# Indices 1 2 3 4 5 6 
#
# 1 67.8707 -0.3514 2.3373 0.0000 0.0000 0.0000
# 2 -0.3514 106.7460 70.8671 0.0000 0.0000 0.0000
# 3 2.3373 70.8671 173.0148 0.0000 0.0000 0.0000
# 4 0.0000 0.0000 0.0000 34.8777 0.0000 0.0000
# 5 0.0000 0.0000 0.0000 0.0000 -5.1525 0.0000
# 6 0.0000 0.0000 0.0000 0.0000 0.0000 23.4390
#
#
#
# Elastic Compliance Matrix: (Units=1/GPa)
#
#
# Indices 1 2 3 4 5 6 
#
# 1 0.014746 0.000248 -0.000301 0.000000 0.000000 0.000000
# 2 0.000248 0.012871 -0.005275 0.000000 0.000000 0.000000
# 3 -0.000301 -0.005275 0.007945 0.000000 0.000000 0.000000
# 4 0.000000 0.000000 0.000000 0.028672 0.000000 0.000000
# 5 0.000000 0.000000 0.000000 0.000000 -0.194082 0.000000
# 6 0.000000 0.000000 0.000000 0.000000 0.000000 0.042664
#
#
# Mechanical properties :
#
#
# Convention : Reuss Voigt Hill
#
# Bulk Modulus (GPa) = 40.15189 54.81527 47.48358
# Shear Modulus (GPa) = -73.28505 28.95139 -22.16683
#
# Velocity S-wave (km/s) = -5.87035 3.68970 -3.22856
# Velocity P-wave (km/s) = 5.20263 6.62781 2.90349
#
# Compressibility (1/GPa) = 0.02490543
#
# Stress axis : x y z
#
# Youngs Moduli (GPa) = 67.81707 77.69342 125.86974
#
# Poissons Ratio (x) = -0.01929 0.03788
# Poissons Ratio (y) = -0.01684 0.66401
# Poissons Ratio (z) = 0.02041 0.40986
#
# Static dielectric constant tensor:
#      x y z
#    x 1.813380 0.000000 0.000000 
#    y 0.000000 1.781400 0.000000 
#    z 0.000000 0.000000 1.821840 
# 
# From -- ./inp_files/6945.got.cif
#   From: 2010.05.17/outbox.cif.g08.bks.cpg/sg47_4_cif.got.tgz:6945.got - 2010.06.03 20:15:42.
