data_PCOD9383635
_publ_section_title
;
Structure prediction by ZEFSAII (Michael W. Deem and Ramdas Pophale) SiO2 
 PCOD9383635
Probable space group: P M M M
;
_chemical_formula_sum "Si O2"
_cell_formula_units_Z 64
_cell_length_a 16.423501
_cell_length_b 9.039747
_cell_length_c 22.951775
_cell_angle_alpha 90.000000
_cell_angle_beta 90.000000
_cell_angle_gamma 90.000000
_cell_volume 3407.519069
_symmetry_space_group_name_H-M "P M M M"
_symmetry_group_IT_number 47
_symmetry_cell_setting 'orthorhombic'
loop_
_space_group_symop_operation_xyz
x,y,z
-x,-y,z
x,-y,-z
-x,y,-z
-x,-y,-z
x,y,-z
-x,y,z
x,-y,z
loop_
_atom_site_type_symbol
_atom_site_label
_atom_site_fract_x
_atom_site_fract_y
_atom_site_fract_z
Si Si1 0.237121 0.175287 0.859136
Si Si2 0.905613 0.165544 0.341081
Si Si3 0.410026 0.178009 0.817064
Si Si4 0.375020 0.325218 0.692799
Si Si5 0.382834 0.325560 0.435874
Si Si6 0.187593 0.335263 0.566290
Si Si7 0.908355 0.676503 0.930440
Si Si8 0.801338 0.669165 0.258755
O O1 0.332778 0.225037 0.856867
O O2 0.170009 0.249667 0.900642
O O3 0.210366 0.219620 0.794176
O O4 0.235502 0.000000 0.868874
O O5 0.853755 0.208765 0.397010
O O6 0.881131 0.284093 0.292783
O O7 0.000000 0.172060 0.354841
O O8 0.884956 0.000000 0.320758
O O9 0.500000 0.215613 0.840375
O O10 0.403875 0.245493 0.751768
O O11 0.404471 0.000000 0.811581
O O12 0.395556 0.500000 0.696300
O O13 0.404542 0.268418 0.629248
O O14 0.276514 0.315558 0.698261
O O15 0.408708 0.265260 0.500000
O O16 0.404983 0.500000 0.435914
O O17 0.284823 0.319781 0.435723
O O18 0.158212 0.331907 0.500000
O O19 0.169649 0.500000 0.590781
O O20 0.904586 0.500000 0.920196
O O21 0.000000 0.726318 0.910910
O O22 0.904689 0.700718 0.000000
O O23 0.802380 0.500000 0.237945
#
# Coordination Sequence:
#
# PCOD9383635 Si02
#       8
#     8   8   8   8   8   8   8   8
#     4  10  20  34  56  85 114 146 183 227 274 316
#     4  11  23  34  43  59  88 123 158 205 263 317
#     4   9  19  35  53  76 109 147 182 219 269 326
#     4   9  16  28  49  74  95 119 159 211 263 314
#     4   8  13  24  44  68  91 114 147 200 262 319
#     4   9  17  31  49  64  80 110 155 203 253 316
#     4   9  19  37  60  86 118 156 194 228 264 310
#     4  10  19  33  51  70  93 125 167 212 259 315
#
# _framework density 18.781991999999999
#
# number of rings (size 3 to 8) (size 9 to 14) (size 15 to 20)
#    0.000    2.625    1.250    2.250    0.000    3.750 
#    0.000    1.875    0.000    1.125    0.000    5.250 
#    0.000    0.000    0.000    0.000    0.000    0.000 
#
# Total GULP energy -356343.493362 kJ/mol
# GULP energy per Si atom -5567.867084 kJ/mol
# Density = 1.873924 g / cm^3
# Si number density = 18.781992 Si / 1000 Ang^3
#
#
#
# Elastic Constant Matrix: (Units=GPa)
#
#
# Indices 1 2 3 4 5 6 
#
# 1 128.3608 39.0982 49.2252 0.0000 0.0000 0.0000
# 2 39.0982 21.9526 14.7988 0.0000 0.0000 0.0000
# 3 49.2252 14.7988 58.4861 0.0000 0.0000 0.0000
# 4 0.0000 0.0000 0.0000 11.5449 0.0000 0.0000
# 5 0.0000 0.0000 0.0000 0.0000 -2.6953 0.0000
# 6 0.0000 0.0000 0.0000 0.0000 0.0000 31.0459
#
#
#
# Elastic Compliance Matrix: (Units=1/GPa)
#
#
# Indices 1 2 3 4 5 6 
#
# 1 0.020857 -0.030519 -0.009832 0.000000 0.000000 0.000000
# 2 -0.030519 0.099577 0.000490 0.000000 0.000000 0.000000
# 3 -0.009832 0.000490 0.025249 0.000000 0.000000 0.000000
# 4 0.000000 0.000000 0.000000 0.086618 0.000000 0.000000
# 5 0.000000 0.000000 0.000000 0.000000 -0.371020 0.000000
# 6 0.000000 0.000000 0.000000 0.000000 0.000000 0.032210
#
#
# Mechanical properties :
#
#
# Convention : Reuss Voigt Hill
#
# Bulk Modulus (GPa) = 15.16030 46.11596 30.63813
# Shear Modulus (GPa) = -1041.70520 15.02427 -513.34047
#
# Velocity S-wave (km/s) = -23.57613 2.83137 -16.55018
# Velocity P-wave (km/s) = 27.07439 5.94100 18.67789
#
# Compressibility (1/GPa) = 0.06596174
#
# Stress axis : x y z
#
# Youngs Moduli (GPa) = 47.94564 10.04252 39.60494
#
# Poissons Ratio (x) = 0.30648 0.38941
# Poissons Ratio (y) = 1.46323 -0.01942
# Poissons Ratio (z) = 0.47141 -0.00492
#
# Static dielectric constant tensor:
#      x y z
#    x 1.695170 0.000000 0.000000 
#    y 0.000000 1.639170 0.000000 
#    z 0.000000 0.000000 1.659400 
# 
# From -- ./inp_files/32910.got.cif
#   From: 2010.05.17/outbox.cif.g08.bks.cpg/sg47_17_cif.got.tgz:32910.got - 2010.06.03 20:15:42.
