data_PCOD9383645
_publ_section_title
;
Structure prediction by ZEFSAII (Michael W. Deem and Ramdas Pophale) SiO2 
 PCOD9383645
Probable space group: P M M M
;
_chemical_formula_sum "Si O2"
_cell_formula_units_Z 45
_cell_length_a 21.384077
_cell_length_b 7.381275
_cell_length_c 14.149728
_cell_angle_alpha 90.000000
_cell_angle_beta 90.000000
_cell_angle_gamma 90.000000
_cell_volume 2233.417871
_symmetry_space_group_name_H-M "P M M M"
_symmetry_group_IT_number 47
_symmetry_cell_setting 'orthorhombic'
loop_
_space_group_symop_operation_xyz
x,y,z
-x,-y,z
x,-y,-z
-x,y,-z
-x,-y,-z
x,y,-z
-x,y,z
x,-y,z
loop_
_atom_site_type_symbol
_atom_site_label
_atom_site_fract_x
_atom_site_fract_y
_atom_site_fract_z
Si Si1 0.335064 0.718336 0.894732
Si Si2 0.116027 0.219613 0.500000
Si Si3 0.193405 0.779773 0.690922
Si Si4 0.000000 0.500000 0.500000
Si Si5 0.429784 0.713990 0.737094
Si Si6 0.321005 0.782353 0.605846
Si Si7 0.189023 0.791666 0.895461
O O1 0.329596 0.500000 0.886046
O O2 0.383788 0.788249 0.817925
O O3 0.264656 0.790879 0.887864
O O4 0.358387 0.759052 0.000000
O O5 0.154668 0.262467 0.403730
O O6 0.054639 0.340721 0.500000
O O7 0.105440 0.000000 0.500000
O O8 0.264748 0.717115 0.672699
O O9 0.168714 0.714282 0.793274
O O10 0.194316 0.000000 0.697059
O O11 0.500000 0.787609 0.733816
O O12 0.435025 0.500000 0.755898
O O13 0.389448 0.735128 0.642567
O O14 0.310093 0.717013 0.500000
O O15 0.316669 0.000000 0.604769
O O16 0.167474 0.000000 0.898500
O O17 0.174202 0.712006 0.000000
#
# Coordination Sequence:
#
# PCOD9383645 Si02
#       7
#     8   4   8   1   8   8   8
#     4   9  17  29  44  64  91 127 169 217 278 336
#     4  10  21  41  65  90 128 166 191 228 271 319
#     4   9  16  31  55  82 110 145 183 220 275 328
#     4  12  26  44  60 106 134 156 200 224 264 324
#     4  10  21  34  45  62  90 130 177 225 280 336
#     4  10  19  33  52  72  95 125 170 224 273 329
#     4   9  16  27  48  78 109 137 172 225 282 332
#
# _framework density 20.148489000000001
#
# number of rings (size 3 to 8) (size 9 to 14) (size 15 to 20)
#    0.000    2.489    2.667    0.133    0.000    1.422 
#    3.200    3.556    0.000    0.000    0.000    4.978 
#    0.000    4.267    0.000    0.000    0.000    0.000 
#
# Total GULP energy -250579.251897 kJ/mol
# GULP energy per Si atom -5568.427820 kJ/mol
# Density = 2.010263 g / cm^3
# Si number density = 20.148489 Si / 1000 Ang^3
#
#
#
# Elastic Constant Matrix: (Units=GPa)
#
#
# Indices 1 2 3 4 5 6 
#
# 1 67.2738 9.2174 24.5384 0.0000 0.0000 0.0000
# 2 9.2174 76.9378 6.2788 0.0000 0.0000 0.0000
# 3 24.5384 6.2788 158.9405 0.0000 0.0000 0.0000
# 4 0.0000 0.0000 0.0000 5.6836 0.0000 0.0000
# 5 0.0000 0.0000 0.0000 0.0000 -2.8990 0.0000
# 6 0.0000 0.0000 0.0000 0.0000 0.0000 18.2690
#
#
#
# Elastic Compliance Matrix: (Units=1/GPa)
#
#
# Indices 1 2 3 4 5 6 
#
# 1 0.015975 -0.001718 -0.002398 0.000000 0.000000 0.000000
# 2 -0.001718 0.013224 -0.000257 0.000000 0.000000 0.000000
# 3 -0.002398 -0.000257 0.006672 0.000000 0.000000 0.000000
# 4 0.000000 0.000000 0.000000 0.175944 0.000000 0.000000
# 5 0.000000 0.000000 0.000000 0.000000 -0.344948 0.000000
# 6 0.000000 0.000000 0.000000 0.000000 0.000000 0.054737
#
#
# Mechanical properties :
#
#
# Convention : Reuss Voigt Hill
#
# Bulk Modulus (GPa) = 36.86785 42.58013 39.72399
# Shear Modulus (GPa) = -82.49964 21.75190 -30.37387
#
# Velocity S-wave (km/s) = -6.40583 3.28926 -3.88687
# Velocity P-wave (km/s) = 6.03118 5.96697 0.62067
#
# Compressibility (1/GPa) = 0.02712390
#
# Stress axis : x y z
#
# Youngs Moduli (GPa) = 62.59827 75.61817 149.87764
#
# Poissons Ratio (x) = 0.12992 0.35947
# Poissons Ratio (y) = 0.10755 0.03854
# Poissons Ratio (z) = 0.15014 0.01945
#
# Static dielectric constant tensor:
#      x y z
#    x 1.655800 0.000000 0.000000 
#    y 0.000000 1.816560 0.000000 
#    z 0.000000 0.000000 1.779510 
# 
# From -- ./inp_files/24948.got.cif
#   From: 2010.05.17/outbox.cif.g08.bks.cpg/sg47_13_cif.got.tgz:24948.got - 2010.06.03 20:15:42.
