data_PCOD9383018
_publ_section_title
;
Structure prediction by ZEFSAII (Michael W. Deem and Ramdas Pophale) SiO2 
 PCOD9383018
Probable space group: P M M M
;
_chemical_formula_sum "Si O2"
_cell_formula_units_Z 64
_cell_length_a 24.164081
_cell_length_b 15.330573
_cell_length_c 9.079509
_cell_angle_alpha 90.000000
_cell_angle_beta 90.000000
_cell_angle_gamma 90.000000
_cell_volume 3363.496916
_symmetry_space_group_name_H-M "P M M M"
_symmetry_group_IT_number 47
_symmetry_cell_setting 'orthorhombic'
loop_
_space_group_symop_operation_xyz
x,y,z
-x,-y,z
x,-y,-z
-x,y,-z
-x,-y,-z
x,y,-z
-x,y,z
x,-y,z
loop_
_atom_site_type_symbol
_atom_site_label
_atom_site_fract_x
_atom_site_fract_y
_atom_site_fract_z
Si Si1 0.776586 0.595526 0.823570
Si Si2 0.562773 0.717438 0.822649
Si Si3 0.936001 0.772450 0.673707
Si Si4 0.933997 0.402176 0.164273
Si Si5 0.716943 0.849482 0.332223
Si Si6 0.391878 0.094072 0.823175
Si Si7 0.824387 0.785793 0.823644
Si Si8 0.331531 0.347629 0.332947
O O1 0.798457 0.500000 0.778143
O O2 0.810044 0.683745 0.782350
O O3 0.715153 0.602925 0.758250
O O4 0.773635 0.597063 0.000000
O O5 0.500000 0.694645 0.783262
O O6 0.574796 0.818856 0.780599
O O7 0.609398 0.659348 0.745655
O O8 0.568650 0.711391 0.000000
O O9 0.931014 0.787958 0.500000
O O10 0.927088 0.670374 0.712740
O O11 0.884514 0.813109 0.761890
O O12 0.000000 0.794011 0.717890
O O13 0.915303 0.500000 0.196798
O O14 0.000000 0.406911 0.148532
O O15 0.911967 0.376634 0.000000
O O16 0.724032 0.880033 0.500000
O O17 0.669129 0.900361 0.246512
O O18 0.775087 0.841994 0.248123
O O19 0.692396 0.751151 0.337498
O O20 0.417161 0.000000 0.783311
O O21 0.386838 0.097299 0.000000
O O22 0.822807 0.792415 0.000000
O O23 0.335969 0.379727 0.500000
#
# Coordination Sequence:
#
# PCOD9383018 Si02
#       8
#     8   8   8   8   8   8   8   8
#     4   9  18  32  49  68  88 111 144 190 242 290
#     4   9  17  29  46  68  95 130 167 195 222 262
#     4  10  20  31  42  59  85 115 146 182 225 272
#     4   8  14  25  39  52  68  96 135 174 211 255
#     4   9  17  30  47  66  90 120 154 190 229 274
#     4   9  17  29  46  70 100 130 159 192 226 260
#     4  10  19  31  48  67  88 116 151 190 231 278
#     4   9  17  29  46  67  90 118 152 191 235 279
#
# _framework density 19.027816999999999
#
# number of rings (size 3 to 8) (size 9 to 14) (size 15 to 20)
#    0.000    2.875    0.000    1.875    0.000    6.000 
#    0.000    3.750    0.000    0.375    0.000    6.125 
#    0.000    0.500    0.000    5.250    0.000    2.250 
#
# Total GULP energy -356457.394846 kJ/mol
# GULP energy per Si atom -5569.646794 kJ/mol
# Density = 1.898451 g / cm^3
# Si number density = 19.027817 Si / 1000 Ang^3
#
#
#
# Elastic Constant Matrix: (Units=GPa)
#
#
# Indices 1 2 3 4 5 6 
#
# 1 155.2127 -1.5046 40.3436 0.0000 0.0000 0.0000
# 2 -1.5046 11.9890 -4.1932 0.0000 0.0000 0.0000
# 3 40.3436 -4.1932 28.7585 0.0000 0.0000 0.0000
# 4 0.0000 0.0000 0.0000 7.3013 0.0000 0.0000
# 5 0.0000 0.0000 0.0000 0.0000 24.0864 0.0000
# 6 0.0000 0.0000 0.0000 0.0000 0.0000 -4.5208
#
#
#
# Elastic Compliance Matrix: (Units=1/GPa)
#
#
# Indices 1 2 3 4 5 6 
#
# 1 0.010316 -0.003970 -0.015051 0.000000 0.000000 0.000000
# 2 -0.003970 0.089420 0.018607 0.000000 0.000000 0.000000
# 3 -0.015051 0.018607 0.058600 0.000000 0.000000 0.000000
# 4 0.000000 0.000000 0.000000 0.136962 0.000000 0.000000
# 5 0.000000 0.000000 0.000000 0.000000 0.041517 0.000000
# 6 0.000000 0.000000 0.000000 0.000000 0.000000 -0.221200
#
#
# Mechanical properties :
#
#
# Convention : Reuss Voigt Hill
#
# Bulk Modulus (GPa) = 6.34887 29.47242 17.91065
# Shear Modulus (GPa) = 29.59523 16.12767 22.86145
#
# Velocity S-wave (km/s) = 3.94809 2.91449 3.46999
# Velocity P-wave (km/s) = 4.91194 5.18154 5.04854
#
# Compressibility (1/GPa) = 0.15750827
#
# Stress axis : x y z
#
# Youngs Moduli (GPa) = 96.93254 11.18320 17.06491
#
# Poissons Ratio (x) = 0.04439 0.25685
# Poissons Ratio (y) = 0.38478 -0.31752
# Poissons Ratio (z) = 1.45895 -0.20808
#
# Static dielectric constant tensor:
#      x y z
#    x 1.684840 0.000000 0.000000 
#    y 0.000000 1.684060 0.000000 
#    z 0.000000 0.000000 1.650780 
# 
# From -- ./inp_files/12855.got.cif
#   From: 2010.05.17/outbox.cif.g08.bks.cpg/sg47_7_cif.got.tgz:12855.got - 2010.06.03 20:15:42.
