data_PCOD9383230
_publ_section_title
;
Structure prediction by ZEFSAII (Michael W. Deem and Ramdas Pophale) SiO2 
 PCOD9383230
Probable space group: P M M M
;
_chemical_formula_sum "Si O2"
_cell_formula_units_Z 48
_cell_length_a 18.335744
_cell_length_b 9.557663
_cell_length_c 15.632828
_cell_angle_alpha 90.000000
_cell_angle_beta 90.000000
_cell_angle_gamma 90.000000
_cell_volume 2739.604051
_symmetry_space_group_name_H-M "P M M M"
_symmetry_group_IT_number 47
_symmetry_cell_setting 'orthorhombic'
loop_
_space_group_symop_operation_xyz
x,y,z
-x,-y,z
x,-y,-z
-x,y,-z
-x,-y,-z
x,y,-z
-x,y,z
x,-y,z
loop_
_atom_site_type_symbol
_atom_site_label
_atom_site_fract_x
_atom_site_fract_y
_atom_site_fract_z
Si Si1 0.000000 0.656747 0.175165
Si Si2 0.836712 0.330530 0.595787
Si Si3 0.585074 0.833343 0.600238
Si Si4 0.729096 0.664096 0.095012
Si Si5 0.875360 0.841220 0.098176
Si Si6 0.000000 0.659390 0.377478
Si Si7 0.700983 0.667066 0.711217
O O1 0.929736 0.742654 0.148035
O O2 0.000000 0.500000 0.138274
O O3 0.000000 0.648114 0.276182
O O4 0.808022 0.297687 0.500000
O O5 0.842043 0.500000 0.602571
O O6 0.780018 0.288374 0.670638
O O7 0.920613 0.277125 0.600376
O O8 0.598151 0.802104 0.500000
O O9 0.500000 0.802303 0.618289
O O10 0.639297 0.747318 0.659163
O O11 0.595529 0.000000 0.611908
O O12 0.752421 0.500000 0.098128
O O13 0.797254 0.767932 0.096920
O O14 0.691603 0.690173 0.186715
O O15 0.693282 0.682090 0.000000
O O16 0.872711 0.000000 0.130981
O O17 0.901314 0.846568 0.000000
O O18 0.000000 0.500000 0.411494
O O19 0.695634 0.500000 0.696919
#
# Coordination Sequence:
#
# PCOD9383230 Si02
#       7
#     4   8   8   8   8   4   8
#     4  11  20  29  43  61  84 117 158 205 260 321
#     4   9  16  26  42  66  96 127 160 203 252 296
#     4   9  19  36  56  79 109 142 172 204 250 311
#     4   9  18  33  51  71  99 134 168 204 251 306
#     4  10  20  32  45  63  88 118 158 211 264 311
#     4   9  17  28  41  59  88 127 165 198 238 293
#     4  10  19  31  51  80 108 133 170 217 258 303
#
# _framework density 17.520779999999998
#
# number of rings (size 3 to 8) (size 9 to 14) (size 15 to 20)
#    0.000    2.500    0.000    3.250    0.000    7.667 
#    0.000    0.833    0.000    0.500    0.000    3.500 
#    0.000    6.667    0.000    0.000    0.000    0.000 
#
# Total GULP energy -267208.290078 kJ/mol
# GULP energy per Si atom -5566.839377 kJ/mol
# Density = 1.748090 g / cm^3
# Si number density = 17.520780 Si / 1000 Ang^3
#
#
#
# Elastic Constant Matrix: (Units=GPa)
#
#
# Indices 1 2 3 4 5 6 
#
# 1 85.0449 35.3783 66.4734 0.0000 0.0000 0.0000
# 2 35.3783 52.8899 44.7127 0.0000 0.0000 0.0000
# 3 66.4734 44.7127 126.4647 0.0000 0.0000 0.0000
# 4 0.0000 0.0000 0.0000 15.9645 0.0000 0.0000
# 5 0.0000 0.0000 0.0000 0.0000 17.8693 0.0000
# 6 0.0000 0.0000 0.0000 0.0000 0.0000 28.6417
#
#
#
# Elastic Compliance Matrix: (Units=1/GPa)
#
#
# Indices 1 2 3 4 5 6 
#
# 1 0.021598 -0.006917 -0.008907 0.000000 0.000000 0.000000
# 2 -0.006917 0.029183 -0.006682 0.000000 0.000000 0.000000
# 3 -0.008907 -0.006682 0.014952 0.000000 0.000000 0.000000
# 4 0.000000 0.000000 0.000000 0.062639 0.000000 0.000000
# 5 0.000000 0.000000 0.000000 0.000000 0.055962 0.000000
# 6 0.000000 0.000000 0.000000 0.000000 0.000000 0.034914
#
#
# Mechanical properties :
#
#
# Convention : Reuss Voigt Hill
#
# Bulk Modulus (GPa) = 48.26176 61.94761 55.10468
# Shear Modulus (GPa) = 18.43887 20.35077 19.39482
#
# Velocity S-wave (km/s) = 3.24759 3.41181 3.33071
# Velocity P-wave (km/s) = 6.45505 7.13821 6.80521
#
# Compressibility (1/GPa) = 0.02072034
#
# Stress axis : x y z
#
# Youngs Moduli (GPa) = 46.30105 34.26644 66.88291
#
# Poissons Ratio (x) = 0.23703 0.59571
# Poissons Ratio (y) = 0.32027 0.44692
# Poissons Ratio (z) = 0.41239 0.22897
#
# Static dielectric constant tensor:
#      x y z
#    x 1.594700 0.000000 0.000000 
#    y 0.000000 1.582660 0.000000 
#    z 0.000000 0.000000 1.637400 
# 
# From -- ./inp_files/24503.got.cif
#   From: 2010.05.17/outbox.cif.g08.bks.cpg/sg47_13_cif.got.tgz:24503.got - 2010.06.03 20:15:42.
