data_PCOD9383356
_publ_section_title
;
Structure prediction by ZEFSAII (Michael W. Deem and Ramdas Pophale) SiO2 
 PCOD9383356
Probable space group: P M M M
;
_chemical_formula_sum "Si O2"
_cell_formula_units_Z 52
_cell_length_a 8.125378
_cell_length_b 28.306375
_cell_length_c 13.012335
_cell_angle_alpha 90.000000
_cell_angle_beta 90.000000
_cell_angle_gamma 90.000000
_cell_volume 2992.837007
_symmetry_space_group_name_H-M "P M M M"
_symmetry_group_IT_number 47
_symmetry_cell_setting 'orthorhombic'
loop_
_space_group_symop_operation_xyz
x,y,z
-x,-y,z
x,-y,-z
-x,y,-z
-x,-y,-z
x,y,-z
-x,y,z
x,-y,z
loop_
_atom_site_type_symbol
_atom_site_label
_atom_site_fract_x
_atom_site_fract_y
_atom_site_fract_z
Si Si1 0.300681 0.378358 0.617227
Si Si2 0.816224 0.115431 0.123989
Si Si3 0.196141 0.728402 0.381714
Si Si4 0.308945 0.784744 0.187356
Si Si5 0.301366 0.446142 0.201641
Si Si6 0.198001 0.280819 0.000000
Si Si7 0.803057 0.389415 0.000000
Si Si8 0.500000 0.945692 0.874979
O O1 0.251081 0.389260 0.500000
O O2 0.500000 0.376513 0.620134
O O3 0.236038 0.326203 0.643253
O O4 0.243638 0.417072 0.698791
O O5 0.791763 0.167285 0.171001
O O6 0.665831 0.081822 0.156565
O O7 0.000000 0.097348 0.147770
O O8 0.805404 0.120702 0.000000
O O9 0.249747 0.736453 0.500000
O O10 0.279413 0.761776 0.298277
O O11 0.000000 0.735034 0.376273
O O12 0.500000 0.796466 0.172317
O O13 0.257939 0.746987 0.100576
O O14 0.500000 0.448028 0.206524
O O15 0.240026 0.500000 0.198350
O O16 0.254656 0.417330 0.100391
O O17 0.256476 0.335112 0.000000
O O18 0.000000 0.280467 0.000000
O O19 0.000000 0.388133 0.000000
O O20 0.500000 0.000000 0.840576
O O21 0.500000 0.946015 0.000000
#
# Coordination Sequence:
#
# PCOD9383356 Si02
#       8
#     8   8   8   8   8   4   4   4
#     4   9  18  34  55  77 100 125 158 203 255 313
#     4  10  19  32  50  74 110 148 186 234 280 323
#     4  10  21  36  53  74 103 139 175 214 264 320
#     4  12  22  33  52  78 108 142 182 222 267 323
#     4  10  21  36  54  74  97 126 160 202 254 311
#     4  11  23  36  52  77 104 137 175 213 262 321
#     4  11  24  38  51  70  98 128 167 211 251 304
#     4   9  18  32  50  74 107 149 197 237 274 326
#
# _framework density 17.374818000000001
#
# number of rings (size 3 to 8) (size 9 to 14) (size 15 to 20)
#    0.000    1.769    1.538    3.462    0.000    7.077 
#    0.000    3.077    0.000    0.000    0.000    3.231 
#    0.000    1.231    0.000    3.231    0.000    0.154 
#
# Total GULP energy -290392.654296 kJ/mol
# GULP energy per Si atom -5584.474121 kJ/mol
# Density = 1.733527 g / cm^3
# Si number density = 17.374818 Si / 1000 Ang^3
#
#
#
# Elastic Constant Matrix: (Units=GPa)
#
#
# Indices 1 2 3 4 5 6 
#
# 1 70.0078 35.9685 20.4704 0.0000 0.0000 0.0000
# 2 35.9685 117.8703 48.8400 0.0000 0.0000 0.0000
# 3 20.4704 48.8400 65.2415 0.0000 0.0000 0.0000
# 4 0.0000 0.0000 0.0000 3.4638 0.0000 0.0000
# 5 0.0000 0.0000 0.0000 0.0000 -13.1104 0.0000
# 6 0.0000 0.0000 0.0000 0.0000 0.0000 4.6438
#
#
#
# Elastic Compliance Matrix: (Units=1/GPa)
#
#
# Indices 1 2 3 4 5 6 
#
# 1 0.017140 -0.004352 -0.002120 0.000000 0.000000 0.000000
# 2 -0.004352 0.013404 -0.008669 0.000000 0.000000 0.000000
# 3 -0.002120 -0.008669 0.022482 0.000000 0.000000 0.000000
# 4 0.000000 0.000000 0.000000 0.288698 0.000000 0.000000
# 5 0.000000 0.000000 0.000000 0.000000 -0.076275 0.000000
# 6 0.000000 0.000000 0.000000 0.000000 0.000000 0.215340
#
#
# Mechanical properties :
#
#
# Convention : Reuss Voigt Hill
#
# Bulk Modulus (GPa) = 43.96610 51.51970 47.74290
# Shear Modulus (GPa) = 9.64041 8.85550 9.24795
#
# Velocity S-wave (km/s) = 2.35808 2.26005 2.30958
# Velocity P-wave (km/s) = 5.72481 6.04373 5.88643
#
# Compressibility (1/GPa) = 0.02274480
#
# Stress axis : x y z
#
# Youngs Moduli (GPa) = 58.34332 74.60593 44.47956
#
# Poissons Ratio (x) = 0.32467 0.09430
# Poissons Ratio (y) = 0.25390 0.38558
# Poissons Ratio (z) = 0.12369 0.64673
#
# Static dielectric constant tensor:
#      x y z
#    x 1.618640 0.000000 0.000000 
#    y 0.000000 1.566210 0.000000 
#    z 0.000000 0.000000 1.566890 
# 
# From -- ./inp_files/15524.got.cif
#   From: 2010.05.17/outbox.cif.g08.bks.cpg/sg47_8_cif.got.tgz:15524.got - 2010.06.03 20:15:42.
