data_PCOD9383878
_publ_section_title
;
Structure prediction by ZEFSAII (Michael W. Deem and Ramdas Pophale) SiO2 
 PCOD9383878
Probable space group: P M M M
;
_chemical_formula_sum "Si O2"
_cell_formula_units_Z 45
_cell_length_a 8.301571
_cell_length_b 23.816728
_cell_length_c 12.360334
_cell_angle_alpha 90.000000
_cell_angle_beta 90.000000
_cell_angle_gamma 90.000000
_cell_volume 2443.838992
_symmetry_space_group_name_H-M "P M M M"
_symmetry_group_IT_number 47
_symmetry_cell_setting 'orthorhombic'
loop_
_space_group_symop_operation_xyz
x,y,z
-x,-y,z
x,-y,-z
-x,y,-z
-x,-y,-z
x,y,-z
-x,y,z
x,-y,z
loop_
_atom_site_type_symbol
_atom_site_label
_atom_site_fract_x
_atom_site_fract_y
_atom_site_fract_z
Si Si1 0.804085 0.377290 0.728443
Si Si2 0.192363 0.831629 0.262180
Si Si3 0.305445 0.063603 0.875373
Si Si4 0.820892 0.500000 0.222907
Si Si5 0.804179 0.326148 0.500000
Si Si6 0.000000 0.500000 0.000000
Si Si7 0.307291 0.275540 0.124181
Si Si8 0.803393 0.196091 0.500000
O O1 0.743872 0.440540 0.748061
O O2 0.752544 0.355594 0.610570
O O3 0.750234 0.332464 0.817998
O O4 0.000000 0.378339 0.733021
O O5 0.241378 0.888384 0.202082
O O6 0.253474 0.777775 0.195258
O O7 0.251599 0.830042 0.386496
O O8 0.000000 0.827389 0.264679
O O9 0.500000 0.065054 0.873240
O O10 0.255022 0.000000 0.846706
O O11 0.255932 0.074280 0.000000
O O12 0.000000 0.500000 0.278769
O O13 0.863042 0.500000 0.096130
O O14 0.754804 0.261323 0.500000
O O15 0.000000 0.326803 0.500000
O O16 0.500000 0.275559 0.121411
O O17 0.247618 0.271509 0.000000
O O18 0.000000 0.194182 0.500000
#
# Coordination Sequence:
#
# PCOD9383878 Si02
#       8
#     8   8   8   4   4   1   8   4
#     4  10  19  34  56  79 104 139 178 222 271 323
#     4  11  21  36  58  82 109 142 182 224 268 316
#     4   9  19  37  59  82 114 151 180 216 268 317
#     4   8  18  29  49  80 106 136 171 227 271 317
#     4   9  16  31  54  78 107 136 176 224 270 317
#     4   8  16  32  44  78 122 132 172 228 278 320
#     4  11  24  37  51  76 110 141 175 223 273 326
#     4   9  18  34  52  79 110 142 173 221 277 316
#
# _framework density 18.413651999999999
#
# number of rings (size 3 to 8) (size 9 to 14) (size 15 to 20)
#    0.267    1.956    1.778    2.133    1.244    4.622 
#    0.000    6.667    0.000    3.733    0.000    1.244 
#    0.000    0.000    0.000    0.000    0.000    0.000 
#
# Total GULP energy -250698.851515 kJ/mol
# GULP energy per Si atom -5571.085589 kJ/mol
# Density = 1.837174 g / cm^3
# Si number density = 18.413652 Si / 1000 Ang^3
#
#
#
# Elastic Constant Matrix: (Units=GPa)
#
#
# Indices 1 2 3 4 5 6 
#
# 1 19.9628 19.8593 21.2552 0.0000 0.0000 0.0000
# 2 19.8593 169.8585 107.5116 0.0000 0.0000 0.0000
# 3 21.2552 107.5116 172.3793 0.0000 0.0000 0.0000
# 4 0.0000 0.0000 0.0000 9.6142 0.0000 0.0000
# 5 0.0000 0.0000 0.0000 0.0000 344.6419 0.0000
# 6 0.0000 0.0000 0.0000 0.0000 0.0000 117.7480
#
#
#
# Elastic Compliance Matrix: (Units=1/GPa)
#
#
# Indices 1 2 3 4 5 6 
#
# 1 0.059109 -0.003796 -0.004921 0.000000 0.000000 0.000000
# 2 -0.003796 0.009971 -0.005751 0.000000 0.000000 0.000000
# 3 -0.004921 -0.005751 0.009995 0.000000 0.000000 0.000000
# 4 0.000000 0.000000 0.000000 0.104013 0.000000 0.000000
# 5 0.000000 0.000000 0.000000 0.000000 0.002902 0.000000
# 6 0.000000 0.000000 0.000000 0.000000 0.000000 0.008493
#
#
# Mechanical properties :
#
#
# Convention : Reuss Voigt Hill
#
# Bulk Modulus (GPa) = 19.94444 73.27251 46.60848
# Shear Modulus (GPa) = 20.82201 108.63912 64.73056
#
# Velocity S-wave (km/s) = 3.36637 7.68943 5.93548
# Velocity P-wave (km/s) = 5.09557 10.89565 8.50530
#
# Compressibility (1/GPa) = 0.05013928
#
# Stress axis : x y z
#
# Youngs Moduli (GPa) = 16.91785 100.29061 100.05396
#
# Poissons Ratio (x) = 0.38073 0.49234
# Poissons Ratio (y) = 0.06422 0.57539
# Poissons Ratio (z) = 0.08325 0.57675
#
# Static dielectric constant tensor:
#      x y z
#    x 1.655400 0.000000 0.000000 
#    y 0.000000 1.624870 0.000000 
#    z 0.000000 0.000000 1.629270 
# 
# From -- ./inp_files/15355.got.cif
#   From: 2010.05.17/outbox.cif.g08.bks.cpg/sg47_8_cif.got.tgz:15355.got - 2010.06.03 20:15:42.
