data_PCOD9383518
_publ_section_title
;
Structure prediction by ZEFSAII (Michael W. Deem and Ramdas Pophale) SiO2 
 PCOD9383518
Probable space group: P M M M
;
_chemical_formula_sum "Si O2"
_cell_formula_units_Z 52
_cell_length_a 17.823497
_cell_length_b 7.477171
_cell_length_c 18.667869
_cell_angle_alpha 90.000000
_cell_angle_beta 90.000000
_cell_angle_gamma 90.000000
_cell_volume 2487.854485
_symmetry_space_group_name_H-M "P M M M"
_symmetry_group_IT_number 47
_symmetry_cell_setting 'orthorhombic'
loop_
_space_group_symop_operation_xyz
x,y,z
-x,-y,z
x,-y,-z
-x,y,-z
-x,-y,-z
x,y,-z
-x,y,z
x,-y,z
loop_
_atom_site_type_symbol
_atom_site_label
_atom_site_fract_x
_atom_site_fract_y
_atom_site_fract_z
Si Si1 0.683467 0.209929 0.862006
Si Si2 0.411513 0.219128 0.000000
Si Si3 0.000000 0.281539 0.080824
Si Si4 0.413497 0.284238 0.577526
Si Si5 0.695170 0.208812 0.703196
Si Si6 0.853409 0.715313 0.835936
Si Si7 0.000000 0.780938 0.583861
Si Si8 0.854473 0.793275 0.669951
O O1 0.672644 0.285102 0.781021
O O2 0.773661 0.228025 0.869548
O O3 0.664278 0.000000 0.859490
O O4 0.634182 0.280091 0.928563
O O5 0.500000 0.270518 0.000000
O O6 0.410108 0.000000 0.000000
O O7 0.075887 0.224025 0.118734
O O8 0.000000 0.500000 0.082463
O O9 0.000000 0.222429 0.000000
O O10 0.382556 0.226010 0.500000
O O11 0.500000 0.229319 0.580965
O O12 0.411592 0.500000 0.578770
O O13 0.369373 0.218549 0.645624
O O14 0.770616 0.287783 0.667149
O O15 0.713057 0.000000 0.717468
O O16 0.851934 0.500000 0.832229
O O17 0.866801 0.784094 0.755405
O O18 0.075216 0.718586 0.625597
O O19 0.000000 0.731223 0.500000
O O20 0.000000 0.000000 0.587131
O O21 0.849329 0.000000 0.646272
#
# Coordination Sequence:
#
# PCOD9383518 Si02
#       8
#     8   4   4   8   8   8   4   8
#     4   9  19  35  54  77 105 133 167 211 256 303
#     4   9  18  34  57  80 103 136 172 207 255 313
#     4   9  19  32  45  69 102 131 164 202 242 289
#     4   9  19  35  52  71  98 131 164 201 249 302
#     4   9  18  31  49  76 104 131 166 209 251 296
#     4  10  19  32  53  74  97 134 172 207 247 298
#     4   9  17  30  51  77 102 135 176 214 257 304
#     4   9  18  33  52  73 101 132 165 209 252 294
#
# _framework density 20.901543
#
# number of rings (size 3 to 8) (size 9 to 14) (size 15 to 20)
#    0.000    2.846    0.000    2.308    1.077    4.308 
#    0.000    5.000    0.000    3.692    0.000    0.000 
#    0.000    0.000    0.000    0.000    0.000    0.000 
#
# Total GULP energy -289804.197748 kJ/mol
# GULP energy per Si atom -5573.157649 kJ/mol
# Density = 2.085397 g / cm^3
# Si number density = 20.901543 Si / 1000 Ang^3
#
#
#
# Elastic Constant Matrix: (Units=GPa)
#
#
# Indices 1 2 3 4 5 6 
#
# 1 142.2984 -5.1522 122.1648 0.0000 0.0000 0.0000
# 2 -5.1522 59.8793 0.2579 0.0000 0.0000 0.0000
# 3 122.1648 0.2579 147.0296 0.0000 0.0000 0.0000
# 4 0.0000 0.0000 0.0000 17.1562 0.0000 0.0000
# 5 0.0000 0.0000 0.0000 0.0000 87.8863 0.0000
# 6 0.0000 0.0000 0.0000 0.0000 0.0000 5.7155
#
#
#
# Elastic Compliance Matrix: (Units=1/GPa)
#
#
# Indices 1 2 3 4 5 6 
#
# 1 0.024806 0.002223 -0.020615 0.000000 0.000000 0.000000
# 2 0.002223 0.016900 -0.001877 0.000000 0.000000 0.000000
# 3 -0.020615 -0.001877 0.023933 0.000000 0.000000 0.000000
# 4 0.000000 0.000000 0.000000 0.058288 0.000000 0.000000
# 5 0.000000 0.000000 0.000000 0.000000 0.011378 0.000000
# 6 0.000000 0.000000 0.000000 0.000000 0.000000 0.174964
#
#
# Mechanical properties :
#
#
# Convention : Reuss Voigt Hill
#
# Bulk Modulus (GPa) = 39.83773 64.86090 52.34931
# Shear Modulus (GPa) = 13.92082 37.61404 25.76743
#
# Velocity S-wave (km/s) = 2.58353 4.24675 3.51493
# Velocity P-wave (km/s) = 5.29156 7.42600 6.44772
#
# Compressibility (1/GPa) = 0.02510183
#
# Stress axis : x y z
#
# Youngs Moduli (GPa) = 40.31245 59.17289 41.78262
#
# Poissons Ratio (x) = -0.13155 0.86135
# Poissons Ratio (y) = -0.08962 0.07842
# Poissons Ratio (z) = 0.83104 0.11106
#
# Static dielectric constant tensor:
#      x y z
#    x 1.737120 0.000000 0.000000 
#    y 0.000000 1.796330 0.000000 
#    z 0.000000 0.000000 1.732950 
# 
# From -- ./inp_files/28570.got.cif
#   From: 2010.05.17/outbox.cif.g08.bks.cpg/sg47_15_cif.got.tgz:28570.got - 2010.06.03 20:15:42.
