data_PCOD9383946
_publ_section_title
;
Structure prediction by ZEFSAII (Michael W. Deem and Ramdas Pophale) SiO2 
 PCOD9383946
Probable space group: P M M M
;
_chemical_formula_sum "Si O2"
_cell_formula_units_Z 48
_cell_length_a 7.814602
_cell_length_b 16.403801
_cell_length_c 17.936193
_cell_angle_alpha 90.000000
_cell_angle_beta 90.000000
_cell_angle_gamma 90.000000
_cell_volume 2299.225803
_symmetry_space_group_name_H-M "P M M M"
_symmetry_group_IT_number 47
_symmetry_cell_setting 'orthorhombic'
loop_
_space_group_symop_operation_xyz
x,y,z
-x,-y,z
x,-y,-z
-x,y,-z
-x,-y,-z
x,y,-z
-x,y,z
x,-y,z
loop_
_atom_site_type_symbol
_atom_site_label
_atom_site_fract_x
_atom_site_fract_y
_atom_site_fract_z
Si Si1 0.209184 0.256952 0.085443
Si Si2 0.294436 0.596874 0.500000
Si Si3 0.701338 0.353520 0.663130
Si Si4 0.000000 0.908975 0.412099
Si Si5 0.201411 0.411657 0.820691
Si Si6 0.307013 0.162016 0.675400
Si Si7 0.792256 0.092054 0.834524
O O1 0.271157 0.331259 0.137754
O O2 0.263994 0.167453 0.113683
O O3 0.000000 0.256168 0.088738
O O4 0.258958 0.270366 0.000000
O O5 0.267229 0.500000 0.500000
O O6 0.500000 0.612735 0.500000
O O7 0.229837 0.631511 0.579338
O O8 0.500000 0.375693 0.661678
O O9 0.782195 0.401569 0.731667
O O10 0.715327 0.258739 0.684646
O O11 0.831659 0.865535 0.383458
O O12 0.000000 0.912198 0.500000
O O13 0.000000 0.000000 0.379927
O O14 0.275300 0.500000 0.842513
O O15 0.000000 0.413380 0.838825
O O16 0.500000 0.146405 0.650240
O O17 0.271986 0.115234 0.752255
O O18 0.000000 0.092532 0.832919
O O19 0.738685 0.000000 0.855405
#
# Coordination Sequence:
#
# PCOD9383946 Si02
#       7
#     8   4   8   4   8   8   8
#     4   9  18  33  54  83 119 156 197 249 308 370
#     4   9  18  34  55  81 113 146 186 243 304 362
#     4  10  21  36  58  85 113 152 199 246 300 362
#     4  11  26  44  62  90 125 163 206 257 318 370
#     4  10  20  34  55  83 115 154 200 249 303 366
#     4  11  23  39  63  92 122 161 211 256 303 368
#     4  10  19  34  59  87 117 154 198 251 308 367
#
# _framework density 20.876594000000001
#
# number of rings (size 3 to 8) (size 9 to 14) (size 15 to 20)
#    0.000    2.000    2.500    1.000    2.333    3.333 
#    0.000    4.583    0.000    3.500    0.000    2.333 
#    0.000    0.000    0.000    0.000    0.000    0.000 
#
# Total GULP energy -267977.904265 kJ/mol
# GULP energy per Si atom -5582.873006 kJ/mol
# Density = 2.082908 g / cm^3
# Si number density = 20.876594 Si / 1000 Ang^3
#
#
#
# Elastic Constant Matrix: (Units=GPa)
#
#
# Indices 1 2 3 4 5 6 
#
# 1 35.0704 42.4310 2.1151 0.0000 0.0000 0.0000
# 2 42.4310 130.2649 85.3660 0.0000 0.0000 0.0000
# 3 2.1151 85.3660 112.3713 0.0000 0.0000 0.0000
# 4 0.0000 0.0000 0.0000 17.7079 0.0000 0.0000
# 5 0.0000 0.0000 0.0000 0.0000 1.4836 0.0000
# 6 0.0000 0.0000 0.0000 0.0000 0.0000 11.8978
#
#
#
# Elastic Compliance Matrix: (Units=1/GPa)
#
#
# Indices 1 2 3 4 5 6 
#
# 1 0.104682 -0.065330 0.047660 0.000000 0.000000 0.000000
# 2 -0.065330 0.056059 -0.041357 0.000000 0.000000 0.000000
# 3 0.047660 -0.041357 0.039420 0.000000 0.000000 0.000000
# 4 0.000000 0.000000 0.000000 0.056472 0.000000 0.000000
# 5 0.000000 0.000000 0.000000 0.000000 0.674046 0.000000
# 6 0.000000 0.000000 0.000000 0.000000 0.000000 0.084049
#
#
# Mechanical properties :
#
#
# Convention : Reuss Voigt Hill
#
# Bulk Modulus (GPa) = 12.17951 59.72564 35.95257
# Shear Modulus (GPa) = 4.30978 16.07083 10.19031
#
# Velocity S-wave (km/s) = 1.43836 2.77754 2.21174
# Velocity P-wave (km/s) = 2.93347 6.24158 4.87660
#
# Compressibility (1/GPa) = 0.08210512
#
# Stress axis : x y z
#
# Youngs Moduli (GPa) = 9.55277 17.83835 25.36780
#
# Poissons Ratio (x) = 1.16539 -1.20902
# Poissons Ratio (y) = 0.62409 1.04914
# Poissons Ratio (z) = -0.45528 0.73774
#
# Static dielectric constant tensor:
#      x y z
#    x 1.686350 0.000000 0.000000 
#    y 0.000000 1.775940 0.000000 
#    z 0.000000 0.000000 1.720010 
# 
# From -- ./inp_files/26531.got.cif
#   From: 2010.05.17/outbox.cif.g08.bks.cpg/sg47_14_cif.got.tgz:26531.got - 2010.06.03 20:15:42.
