data_PCOD9383618
_publ_section_title
;
Structure prediction by ZEFSAII (Michael W. Deem and Ramdas Pophale) SiO2 
 PCOD9383618
Probable space group: P M M M
;
_chemical_formula_sum "Si O2"
_cell_formula_units_Z 30
_cell_length_a 7.559664
_cell_length_b 19.868023
_cell_length_c 9.794940
_cell_angle_alpha 90.000000
_cell_angle_beta 90.000000
_cell_angle_gamma 90.000000
_cell_volume 1471.156677
_symmetry_space_group_name_H-M "P M M M"
_symmetry_group_IT_number 47
_symmetry_cell_setting 'orthorhombic'
loop_
_space_group_symop_operation_xyz
x,y,z
-x,-y,z
x,-y,-z
-x,y,-z
-x,-y,-z
x,y,-z
-x,y,z
x,-y,z
loop_
_atom_site_type_symbol
_atom_site_label
_atom_site_fract_x
_atom_site_fract_y
_atom_site_fract_z
Si Si1 0.215047 0.299969 0.658094
Si Si2 0.303003 0.155404 0.775821
Si Si3 0.215669 0.576316 0.843513
Si Si4 0.000000 0.868970 0.000000
Si Si5 0.787010 0.921709 0.500000
O O1 0.271312 0.299030 0.500000
O O2 0.277625 0.233847 0.736915
O O3 0.273401 0.366940 0.737887
O O4 0.000000 0.298592 0.659236
O O5 0.500000 0.144829 0.829348
O O6 0.280940 0.114863 0.634955
O O7 0.154043 0.133775 0.881186
O O8 0.271627 0.500000 0.810417
O O9 0.000000 0.576426 0.842317
O O10 0.268730 0.591411 0.000000
O O11 0.000000 0.916334 0.500000
O O12 0.738108 0.000000 0.500000
#
# Coordination Sequence:
#
# PCOD9383618 Si02
#       5
#     8   8   8   2   4
#     4  10  19  32  55  85 125 167 214 279 333 385
#     4  12  25  43  69 102 135 176 226 276 335 400
#     4   8  15  27  46  75 114 166 222 269 322 391
#     4  12  26  46  67  96 145 176 220 274 338 396
#     4  11  23  47  79 104 138 183 225 273 327 387
#
# _framework density 20.392119000000001
#
# number of rings (size 3 to 8) (size 9 to 14) (size 15 to 20)
#    0.000    1.733    4.000    1.600    1.867    1.600 
#    0.000    4.000    0.000    2.400    0.000    3.733 
#    0.000    0.000    0.000    0.000    0.000    0.000 
#
# Total GULP energy -167162.591199 kJ/mol
# GULP energy per Si atom -5572.086373 kJ/mol
# Density = 2.034571 g / cm^3
# Si number density = 20.392119 Si / 1000 Ang^3
#
#
#
# Elastic Constant Matrix: (Units=GPa)
#
#
# Indices 1 2 3 4 5 6 
#
# 1 133.7910 18.5740 52.4572 0.0000 0.0000 0.0000
# 2 18.5740 72.4242 24.7322 0.0000 0.0000 0.0000
# 3 52.4572 24.7322 119.9657 0.0000 0.0000 0.0000
# 4 0.0000 0.0000 0.0000 -29.9017 0.0000 0.0000
# 5 0.0000 0.0000 0.0000 0.0000 -97.0877 0.0000
# 6 0.0000 0.0000 0.0000 0.0000 0.0000 92.8252
#
#
#
# Elastic Compliance Matrix: (Units=1/GPa)
#
#
# Indices 1 2 3 4 5 6 
#
# 1 0.009094 -0.001048 -0.003761 0.000000 0.000000 0.000000
# 2 -0.001048 0.014974 -0.002629 0.000000 0.000000 0.000000
# 3 -0.003761 -0.002629 0.010522 0.000000 0.000000 0.000000
# 4 0.000000 0.000000 0.000000 -0.033443 0.000000 0.000000
# 5 0.000000 0.000000 0.000000 0.000000 -0.010300 0.000000
# 6 0.000000 0.000000 0.000000 0.000000 0.000000 0.010773
#
#
# Mechanical properties :
#
#
# Convention : Reuss Voigt Hill
#
# Bulk Modulus (GPa) = 50.72155 57.52308 54.12231
# Shear Modulus (GPa) = 216.75899 8.52833 112.64366
#
# Velocity S-wave (km/s) = 10.32115 2.04725 7.44035
# Velocity P-wave (km/s) = 12.92138 5.81877 10.02048
#
# Compressibility (1/GPa) = 0.01971549
#
# Stress axis : x y z
#
# Youngs Moduli (GPa) = 109.95888 66.78230 95.03869
#
# Poissons Ratio (x) = 0.07000 0.35740
# Poissons Ratio (y) = 0.11525 0.24983
# Poissons Ratio (z) = 0.41351 0.17555
#
# Static dielectric constant tensor:
#      x y z
#    x 1.766400 0.000000 0.000000 
#    y 0.000000 1.704660 0.000000 
#    z 0.000000 0.000000 1.670320 
# 
# From -- ./inp_files/985.got.cif
#   From: 2010.05.17/outbox.cif.g08.bks.cpg/sg47_1_cif.got.tgz:985.got - 2010.06.03 20:15:42.
