data_PCOD9383232
_publ_section_title
;
Structure prediction by ZEFSAII (Michael W. Deem and Ramdas Pophale) SiO2 
 PCOD9383232
Probable space group: P M M M
;
_chemical_formula_sum "Si O2"
_cell_formula_units_Z 64
_cell_length_a 25.253312
_cell_length_b 9.019965
_cell_length_c 15.554238
_cell_angle_alpha 90.000000
_cell_angle_beta 90.000000
_cell_angle_gamma 90.000000
_cell_volume 3543.006399
_symmetry_space_group_name_H-M "P M M M"
_symmetry_group_IT_number 47
_symmetry_cell_setting 'orthorhombic'
loop_
_space_group_symop_operation_xyz
x,y,z
-x,-y,z
x,-y,-z
-x,y,-z
-x,-y,-z
x,y,-z
-x,y,z
x,-y,z
loop_
_atom_site_type_symbol
_atom_site_label
_atom_site_fract_x
_atom_site_fract_y
_atom_site_fract_z
Si Si1 0.680332 0.677319 0.593601
Si Si2 0.791229 0.171805 0.631300
Si Si3 0.760051 0.171966 0.170010
Si Si4 0.901888 0.322983 0.595844
Si Si5 0.938965 0.174054 0.232124
Si Si6 0.561918 0.177920 0.099390
Si Si7 0.350092 0.677550 0.783170
Si Si8 0.140155 0.324652 0.902136
O O1 0.655459 0.709606 0.500000
O O2 0.689743 0.500000 0.597721
O O3 0.736526 0.759956 0.597846
O O4 0.649505 0.717027 0.681121
O O5 0.785939 0.177106 0.734674
O O6 0.841401 0.266259 0.602337
O O7 0.797125 0.000000 0.605979
O O8 0.703765 0.252947 0.178142
O O9 0.802045 0.252977 0.109842
O O10 0.752686 0.000000 0.146299
O O11 0.922069 0.287105 0.500000
O O12 0.903639 0.500000 0.606776
O O13 0.931730 0.244554 0.673812
O O14 0.899932 0.252218 0.165325
O O15 0.000000 0.190149 0.205129
O O16 0.925677 0.000000 0.236786
O O17 0.500000 0.212983 0.114093
O O18 0.600438 0.258386 0.165243
O O19 0.567904 0.000000 0.107345
O O20 0.574470 0.217025 0.000000
O O21 0.348229 0.500000 0.790305
O O22 0.143749 0.500000 0.885675
O O23 0.121987 0.300967 0.000000
#
# Coordination Sequence:
#
# PCOD9383232 Si02
#       8
#     8   8   8   8   8   8   8   8
#     4   9  18  32  49  73 110 153 191 226 270 325
#     4  10  19  31  51  80 111 144 184 228 273 324
#     4  10  20  35  56  82 115 153 188 224 274 333
#     4  11  23  37  57  84 113 147 184 225 278 337
#     4  11  25  44  64  85 110 143 184 232 283 336
#     4   9  19  37  59  81 108 145 188 234 286 343
#     4  10  20  33  54  84 116 150 189 235 281 328
#     4  11  24  41  63  89 115 145 183 229 281 338
#
# _framework density 18.063755
#
# number of rings (size 3 to 8) (size 9 to 14) (size 15 to 20)
#    0.000    1.875    1.250    3.000    0.000    7.750 
#    0.000    3.125    0.000    0.375    0.000    2.625 
#    0.000    0.000    0.000    0.000    0.000    0.000 
#
# Total GULP energy -357388.706739 kJ/mol
# GULP energy per Si atom -5584.198543 kJ/mol
# Density = 1.802264 g / cm^3
# Si number density = 18.063755 Si / 1000 Ang^3
#
#
#
# Elastic Constant Matrix: (Units=GPa)
#
#
# Indices 1 2 3 4 5 6 
#
# 1 78.6870 47.6837 65.2772 0.0000 0.0000 0.0000
# 2 47.6837 82.1338 65.6904 0.0000 0.0000 0.0000
# 3 65.2772 65.6904 112.5963 0.0000 0.0000 0.0000
# 4 0.0000 0.0000 0.0000 16.4079 0.0000 0.0000
# 5 0.0000 0.0000 0.0000 0.0000 -1.2052 0.0000
# 6 0.0000 0.0000 0.0000 0.0000 0.0000 63.0421
#
#
#
# Elastic Compliance Matrix: (Units=1/GPa)
#
#
# Indices 1 2 3 4 5 6 
#
# 1 0.025814 -0.005657 -0.011665 0.000000 0.000000 0.000000
# 2 -0.005657 0.024066 -0.010761 0.000000 0.000000 0.000000
# 3 -0.011665 -0.010761 0.021922 0.000000 0.000000 0.000000
# 4 0.000000 0.000000 0.000000 0.060946 0.000000 0.000000
# 5 0.000000 0.000000 0.000000 0.000000 -0.829735 0.000000
# 6 0.000000 0.000000 0.000000 0.000000 0.000000 0.015862
#
#
# Mechanical properties :
#
#
# Convention : Reuss Voigt Hill
#
# Bulk Modulus (GPa) = 63.95426 70.07997 67.01711
# Shear Modulus (GPa) = -8.06781 21.96668 6.94943
#
# Velocity S-wave (km/s) = -2.11565 3.49099 1.96355
# Velocity P-wave (km/s) = 5.43264 7.42492 6.50550
#
# Compressibility (1/GPa) = 0.01563618
#
# Stress axis : x y z
#
# Youngs Moduli (GPa) = 38.73916 41.55258 45.61566
#
# Poissons Ratio (x) = 0.23505 0.53212
# Poissons Ratio (y) = 0.21913 0.49087
# Poissons Ratio (z) = 0.45190 0.44715
#
# Static dielectric constant tensor:
#      x y z
#    x 1.582750 0.000000 0.000000 
#    y 0.000000 1.601720 0.000000 
#    z 0.000000 0.000000 1.647530 
# 
# From -- ./inp_files/21949.got.cif
#   From: 2010.05.17/outbox.cif.g08.bks.cpg/sg47_11_cif.got.tgz:21949.got - 2010.06.03 20:15:42.
