data_PCOD9383131
_publ_section_title
;
Structure prediction by ZEFSAII (Michael W. Deem and Ramdas Pophale) SiO2 
 PCOD9383131
Probable space group: P M M M
;
_chemical_formula_sum "Si O2"
_cell_formula_units_Z 56
_cell_length_a 8.074801
_cell_length_b 26.360427
_cell_length_c 15.030583
_cell_angle_alpha 90.000000
_cell_angle_beta 90.000000
_cell_angle_gamma 90.000000
_cell_volume 3199.337785
_symmetry_space_group_name_H-M "P M M M"
_symmetry_group_IT_number 47
_symmetry_cell_setting 'orthorhombic'
loop_
_space_group_symop_operation_xyz
x,y,z
-x,-y,z
x,-y,-z
-x,y,-z
-x,-y,-z
x,y,-z
-x,y,z
x,-y,z
loop_
_atom_site_type_symbol
_atom_site_label
_atom_site_fract_x
_atom_site_fract_y
_atom_site_fract_z
Si Si1 0.799902 0.691525 0.901406
Si Si2 0.802538 0.347121 0.285334
Si Si3 0.699474 0.249392 0.601531
Si Si4 0.699801 0.557509 0.601284
Si Si5 0.700100 0.808925 0.901680
Si Si6 0.800293 0.057491 0.398851
Si Si7 0.300565 0.152749 0.715070
O O1 0.739384 0.660628 0.815659
O O2 0.749321 0.750189 0.889000
O O3 0.000000 0.689267 0.902503
O O4 0.740811 0.675545 0.000000
O O5 0.741161 0.300493 0.345715
O O6 0.755147 0.399951 0.330341
O O7 0.000000 0.343857 0.282611
O O8 0.761757 0.250451 0.500000
O O9 0.500000 0.245916 0.597785
O O10 0.760820 0.200137 0.655470
O O11 0.754879 0.569640 0.500000
O O12 0.500000 0.557321 0.600202
O O13 0.754878 0.500000 0.622188
O O14 0.500000 0.811239 0.902755
O O15 0.760005 0.840064 0.816242
O O16 0.759855 0.824832 0.000000
O O17 0.744387 0.069549 0.500000
O O18 0.744250 0.100130 0.330828
O O19 0.000000 0.057137 0.399841
O O20 0.745051 0.000000 0.377711
O O21 0.500000 0.156293 0.717196
#
# Coordination Sequence:
#
# PCOD9383131 Si02
#       7
#     8   8   8   8   8   8   8
#     4   9  18  32  48  68  97 130 162 196 236 285
#     4  11  21  31  48  74 100 126 160 201 241 283
#     4  10  20  32  45  66 100 135 160 188 234 290
#     4   9  19  36  55  72  93 127 167 201 238 287
#     4   9  17  30  49  72  97 125 159 199 240 282
#     4   9  19  35  52  70  94 126 164 204 244 286
#     4  10  19  31  49  73  99 126 160 200 240 287
#
# _framework density 17.503623000000001
#
# number of rings (size 3 to 8) (size 9 to 14) (size 15 to 20)
#    0.000    2.429    1.429    2.143    0.000    5.429 
#    0.000    1.429    0.000    0.857    0.000    6.000 
#    0.000    0.000    0.000    0.000    0.000    0.000 
#
# Total GULP energy -312294.191711 kJ/mol
# GULP energy per Si atom -5576.681995 kJ/mol
# Density = 1.746378 g / cm^3
# Si number density = 17.503623 Si / 1000 Ang^3
#
#
#
# Elastic Constant Matrix: (Units=GPa)
#
#
# Indices 1 2 3 4 5 6 
#
# 1 6.4337 2.5040 14.8748 0.0000 0.0000 0.0000
# 2 2.5040 113.9437 108.1672 0.0000 0.0000 0.0000
# 3 14.8748 108.1672 199.8889 0.0000 0.0000 0.0000
# 4 0.0000 0.0000 0.0000 22.7790 0.0000 0.0000
# 5 0.0000 0.0000 0.0000 0.0000 18.0466 0.0000
# 6 0.0000 0.0000 0.0000 0.0000 0.0000 31.1588
#
#
#
# Elastic Compliance Matrix: (Units=1/GPa)
#
#
# Indices 1 2 3 4 5 6 
#
# 1 0.209563 0.020973 -0.026944 0.000000 0.000000 0.000000
# 2 0.020973 0.020146 -0.012462 0.000000 0.000000 0.000000
# 3 -0.026944 -0.012462 0.013752 0.000000 0.000000 0.000000
# 4 0.000000 0.000000 0.000000 0.043900 0.000000 0.000000
# 5 0.000000 0.000000 0.000000 0.000000 0.055412 0.000000
# 6 0.000000 0.000000 0.000000 0.000000 0.000000 0.032094
#
#
# Mechanical properties :
#
#
# Convention : Reuss Voigt Hill
#
# Bulk Modulus (GPa) = 4.84042 63.48424 34.16233
# Shear Modulus (GPa) = 10.40369 27.37822 18.89095
#
# Velocity S-wave (km/s) = 2.44062 3.95922 3.28877
# Velocity P-wave (km/s) = 3.27316 7.56627 5.82932
#
# Compressibility (1/GPa) = 0.20659383
#
# Stress axis : x y z
#
# Youngs Moduli (GPa) = 4.77183 49.63763 72.71848
#
# Poissons Ratio (x) = -1.04103 1.95930
# Poissons Ratio (y) = -0.10008 0.90625
# Poissons Ratio (z) = 0.12857 0.61860
#
# Static dielectric constant tensor:
#      x y z
#    x 1.627090 0.000000 0.000000 
#    y 0.000000 1.562240 0.000000 
#    z 0.000000 0.000000 1.629960 
# 
# From -- ./inp_files/7343.got.cif
#   From: 2010.05.17/outbox.cif.g08.bks.cpg/sg47_4_cif.got.tgz:7343.got - 2010.06.03 20:15:42.
