data_PCOD9383170
_publ_section_title
;
Structure prediction by ZEFSAII (Michael W. Deem and Ramdas Pophale) SiO2 
 PCOD9383170
Probable space group: P M M M
;
_chemical_formula_sum "Si O2"
_cell_formula_units_Z 64
_cell_length_a 14.230238
_cell_length_b 9.374805
_cell_length_c 29.402649
_cell_angle_alpha 90.000000
_cell_angle_beta 90.000000
_cell_angle_gamma 90.000000
_cell_volume 3922.481159
_symmetry_space_group_name_H-M "P M M M"
_symmetry_group_IT_number 47
_symmetry_cell_setting 'orthorhombic'
loop_
_space_group_symop_operation_xyz
x,y,z
-x,-y,z
x,-y,-z
-x,y,-z
-x,-y,-z
x,y,-z
-x,y,z
x,-y,z
loop_
_atom_site_type_symbol
_atom_site_label
_atom_site_fract_x
_atom_site_fract_y
_atom_site_fract_z
Si Si1 0.212219 0.830417 0.552646
Si Si2 0.278763 0.329472 0.949033
Si Si3 0.891126 0.830679 0.905000
Si Si4 0.112301 0.661168 0.629230
Si Si5 0.604422 0.662564 0.444924
Si Si6 0.389993 0.671505 0.141767
Si Si7 0.220680 0.169662 0.188641
Si Si8 0.111418 0.671663 0.268006
O O1 0.194348 0.785766 0.500000
O O2 0.142231 0.762121 0.588553
O O3 0.314266 0.771368 0.566893
O O4 0.209592 0.000000 0.554013
O O5 0.264685 0.500000 0.947305
O O6 0.180749 0.253054 0.937154
O O7 0.353392 0.294635 0.909403
O O8 0.309871 0.291379 0.000000
O O9 0.850357 0.809560 0.854103
O O10 0.000000 0.785943 0.908307
O O11 0.886428 0.000000 0.914675
O O12 0.147641 0.500000 0.620736
O O13 0.141217 0.706241 0.680101
O O14 0.000000 0.654584 0.630956
O O15 0.601028 0.660785 0.500000
O O16 0.500000 0.700835 0.428716
O O17 0.625547 0.500000 0.430534
O O18 0.500000 0.706947 0.147259
O O19 0.379682 0.500000 0.148266
O O20 0.318682 0.755467 0.174634
O O21 0.173297 0.244248 0.231844
O O22 0.232782 0.000000 0.195089
O O23 0.120695 0.500000 0.262458
O O24 0.000000 0.705132 0.262553
#
# Coordination Sequence:
#
# PCOD9383170 Si02
#       8
#     8   8   8   8   8   8   8   8
#     4  10  20  31  45  69 100 132 164 200 243 286
#     4   9  18  31  46  67  94 123 160 205 247 285
#     4   9  18  31  45  64  93 127 160 192 229 281
#     4   9  19  35  52  70  94 127 166 202 235 277
#     4   8  14  26  45  67  89 116 153 194 233 275
#     4   9  18  33  52  72  95 126 163 201 243 290
#     4  10  19  31  50  75 100 124 153 192 239 291
#     4   9  18  33  53  76 100 125 155 193 237 285
#
# _framework density 16.316203999999999
#
# number of rings (size 3 to 8) (size 9 to 14) (size 15 to 20)
#    0.000    2.875    0.000    2.250    0.000    4.500 
#    0.000    6.250    0.000    0.750    0.000    8.750 
#    0.000    0.000    0.000    0.000    0.000    0.000 
#
# Total GULP energy -356488.431989 kJ/mol
# GULP energy per Si atom -5570.131750 kJ/mol
# Density = 1.627907 g / cm^3
# Si number density = 16.316204 Si / 1000 Ang^3
#
#
#
# Elastic Constant Matrix: (Units=GPa)
#
#
# Indices 1 2 3 4 5 6 
#
# 1 87.0067 35.5200 46.0461 0.0000 0.0000 0.0000
# 2 35.5200 44.5736 51.4891 0.0000 0.0000 0.0000
# 3 46.0461 51.4891 97.3833 0.0000 0.0000 0.0000
# 4 0.0000 0.0000 0.0000 20.3090 0.0000 0.0000
# 5 0.0000 0.0000 0.0000 0.0000 16.4476 0.0000
# 6 0.0000 0.0000 0.0000 0.0000 0.0000 -208.2628
#
#
#
# Elastic Compliance Matrix: (Units=1/GPa)
#
#
# Indices 1 2 3 4 5 6 
#
# 1 0.017230 -0.011097 -0.002280 0.000000 0.000000 0.000000
# 2 -0.011097 0.064784 -0.029006 0.000000 0.000000 0.000000
# 3 -0.002280 -0.029006 0.026683 0.000000 0.000000 0.000000
# 4 0.000000 0.000000 0.000000 0.049239 0.000000 0.000000
# 5 0.000000 0.000000 0.000000 0.000000 0.060799 0.000000
# 6 0.000000 0.000000 0.000000 0.000000 0.000000 -0.004802
#
#
# Mechanical properties :
#
#
# Convention : Reuss Voigt Hill
#
# Bulk Modulus (GPa) = 41.78581 55.00821 48.39701
# Shear Modulus (GPa) = 16.30387 -27.90733 -5.80173
#
# Velocity S-wave (km/s) = 3.16451 -4.14019 -1.88773
# Velocity P-wave (km/s) = 6.24642 3.30638 4.99749
#
# Compressibility (1/GPa) = 0.02393157
#
# Stress axis : x y z
#
# Youngs Moduli (GPa) = 58.03776 15.43596 37.47741
#
# Poissons Ratio (x) = 0.17129 0.08544
# Poissons Ratio (y) = 0.64405 1.08706
# Poissons Ratio (z) = 0.13231 0.44773
#
# Static dielectric constant tensor:
#      x y z
#    x 1.542110 0.000000 0.000000 
#    y 0.000000 1.541820 0.000000 
#    z 0.000000 0.000000 1.543510 
# 
# From -- ./inp_files/8335.got.cif
#   From: 2010.05.17/outbox.cif.g08.bks.cpg/sg47_5_cif.got.tgz:8335.got - 2010.06.03 20:15:42.
