data_PCOD9383385
_publ_section_title
;
Structure prediction by ZEFSAII (Michael W. Deem and Ramdas Pophale) SiO2 
 PCOD9383385
Probable space group: P M M M
;
_chemical_formula_sum "Si O2"
_cell_formula_units_Z 64
_cell_length_a 21.265662
_cell_length_b 7.957460
_cell_length_c 20.368397
_cell_angle_alpha 90.000000
_cell_angle_beta 90.000000
_cell_angle_gamma 90.000000
_cell_volume 3446.753476
_symmetry_space_group_name_H-M "P M M M"
_symmetry_group_IT_number 47
_symmetry_cell_setting 'orthorhombic'
loop_
_space_group_symop_operation_xyz
x,y,z
-x,-y,z
x,-y,-z
-x,y,-z
-x,-y,-z
x,y,-z
-x,y,z
x,-y,z
loop_
_atom_site_type_symbol
_atom_site_label
_atom_site_fract_x
_atom_site_fract_y
_atom_site_fract_z
Si Si1 0.609675 0.301075 0.926910
Si Si2 0.069286 0.201271 0.288906
Si Si3 0.431361 0.197211 0.786233
Si Si4 0.693196 0.302144 0.287586
Si Si5 0.877611 0.297260 0.427230
Si Si6 0.244478 0.204030 0.073137
Si Si7 0.730386 0.295546 0.572169
Si Si8 0.186337 0.801366 0.205640
O O1 0.597222 0.500000 0.924477
O O2 0.577445 0.219026 0.864374
O O3 0.684571 0.271385 0.919690
O O4 0.591795 0.239174 0.000000
O O5 0.084450 0.233171 0.365179
O O6 0.126611 0.270169 0.244787
O O7 0.000000 0.268037 0.272444
O O8 0.068093 0.000000 0.280166
O O9 0.500000 0.266087 0.767633
O O10 0.372421 0.276634 0.749137
O O11 0.429824 0.000000 0.771341
O O12 0.707502 0.500000 0.288592
O O13 0.693760 0.239924 0.362924
O O14 0.750386 0.219256 0.248119
O O15 0.898592 0.241440 0.500000
O O16 0.880188 0.500000 0.426335
O O17 0.803994 0.249716 0.419740
O O18 0.202001 0.266206 0.133156
O O19 0.248597 0.000000 0.076620
O O20 0.222074 0.249059 0.000000
O O21 0.709381 0.235947 0.500000
O O22 0.727964 0.500000 0.570436
O O23 0.175007 0.000000 0.197804
#
# Coordination Sequence:
#
# PCOD9383385 Si02
#       8
#     8   8   8   8   8   8   8   8
#     4  10  20  33  51  77 107 136 169 212 256 298
#     4  10  21  34  47  68 102 141 175 211 257 305
#     4  11  24  39  53  72 104 144 178 208 249 304
#     4  11  20  32  56  82 102 129 168 216 261 302
#     4   9  17  31  50  71  98 132 170 210 252 302
#     4   9  17  30  50  74  99 130 168 209 255 307
#     4   8  15  29  50  77 105 129 158 204 259 308
#     4  10  19  32  51  73 100 134 171 212 255 305
#
# _framework density 18.568197999999999
#
# number of rings (size 3 to 8) (size 9 to 14) (size 15 to 20)
#    0.000    2.250    2.500    1.875    0.000    2.750 
#    0.000    2.500    0.000    2.250    0.000    5.250 
#    0.000    0.000    0.000    5.375    0.000    5.750 
#
# Total GULP energy -356993.708027 kJ/mol
# GULP energy per Si atom -5578.026688 kJ/mol
# Density = 1.852594 g / cm^3
# Si number density = 18.568198 Si / 1000 Ang^3
#
#
#
# Elastic Constant Matrix: (Units=GPa)
#
#
# Indices 1 2 3 4 5 6 
#
# 1 87.6168 -8.5189 50.9783 0.0000 0.0000 0.0000
# 2 -8.5189 13.4938 -4.4876 0.0000 0.0000 0.0000
# 3 50.9783 -4.4876 120.8797 0.0000 0.0000 0.0000
# 4 0.0000 0.0000 0.0000 17.4945 0.0000 0.0000
# 5 0.0000 0.0000 0.0000 0.0000 15.6984 0.0000
# 6 0.0000 0.0000 0.0000 0.0000 0.0000 -6.5354
#
#
#
# Elastic Compliance Matrix: (Units=1/GPa)
#
#
# Indices 1 2 3 4 5 6 
#
# 1 0.015918 0.007914 -0.006419 0.000000 0.000000 0.000000
# 2 0.007914 0.078969 -0.000406 0.000000 0.000000 0.000000
# 3 -0.006419 -0.000406 0.010965 0.000000 0.000000 0.000000
# 4 0.000000 0.000000 0.000000 0.057161 0.000000 0.000000
# 5 0.000000 0.000000 0.000000 0.000000 0.063701 0.000000
# 6 0.000000 0.000000 0.000000 0.000000 0.000000 -0.153014
#
#
# Mechanical properties :
#
#
# Convention : Reuss Voigt Hill
#
# Bulk Modulus (GPa) = 9.25666 33.10378 21.18022
# Shear Modulus (GPa) = 46.49795 17.59940 32.04867
#
# Velocity S-wave (km/s) = 5.00960 3.08202 4.15902
# Velocity P-wave (km/s) = 6.20141 5.52558 5.87322
#
# Compressibility (1/GPa) = 0.10803033
#
# Stress axis : x y z
#
# Youngs Moduli (GPa) = 62.82318 12.66312 91.20147
#
# Poissons Ratio (x) = -0.10022 0.58543
# Poissons Ratio (y) = -0.49720 0.03703
# Poissons Ratio (z) = 0.40327 0.00514
#
# Static dielectric constant tensor:
#      x y z
#    x 1.634060 0.000000 0.000000 
#    y 0.000000 1.662600 0.000000 
#    z 0.000000 0.000000 1.669760 
# 
# From -- ./inp_files/31356.got.cif
#   From: 2010.05.17/outbox.cif.g08.bks.cpg/sg47_16_cif.got.tgz:31356.got - 2010.06.03 20:15:42.
