data_PCOD9383689
_publ_section_title
;
Structure prediction by ZEFSAII (Michael W. Deem and Ramdas Pophale) SiO2 
 PCOD9383689
Probable space group: P M M M
;
_chemical_formula_sum "Si O2"
_cell_formula_units_Z 40
_cell_length_a 10.969268
_cell_length_b 7.510334
_cell_length_c 23.519070
_cell_angle_alpha 90.000000
_cell_angle_beta 90.000000
_cell_angle_gamma 90.000000
_cell_volume 1937.568402
_symmetry_space_group_name_H-M "P M M M"
_symmetry_group_IT_number 47
_symmetry_cell_setting 'orthorhombic'
loop_
_space_group_symop_operation_xyz
x,y,z
-x,-y,z
x,-y,-z
-x,y,-z
-x,-y,-z
x,y,-z
-x,y,z
x,-y,z
loop_
_atom_site_type_symbol
_atom_site_label
_atom_site_fract_x
_atom_site_fract_y
_atom_site_fract_z
Si Si1 0.500000 0.280244 0.066838
Si Si2 0.143576 0.798933 0.000000
Si Si3 0.747663 0.703547 0.882491
Si Si4 0.137906 0.718350 0.766679
Si Si5 0.359545 0.708069 0.312054
Si Si6 0.643269 0.785693 0.561033
O O1 0.500000 0.500000 0.065630
O O2 0.617703 0.216459 0.101111
O O3 0.500000 0.228494 0.000000
O O4 0.183764 0.706564 0.057660
O O5 0.000000 0.808342 0.000000
O O6 0.194345 0.000000 0.000000
O O7 0.722258 0.500000 0.865664
O O8 0.827136 0.776104 0.830852
O O9 0.134612 0.500000 0.764057
O O10 0.251035 0.779972 0.727473
O O11 0.000000 0.776629 0.751923
O O12 0.500000 0.781600 0.307735
O O13 0.370472 0.500000 0.297744
O O14 0.315114 0.721351 0.377544
O O15 0.696360 0.725113 0.500000
O O16 0.500000 0.737351 0.559777
O O17 0.651025 0.000000 0.561890
#
# Coordination Sequence:
#
# PCOD9383689 Si02
#       6
#     4   4   8   8   8   8
#     4   9  16  28  48  78 100 114 145 196 245 283
#     4  11  23  36  49  68  96 125 156 201 250 289
#     4  10  19  33  54  74  94 123 161 197 236 290
#     4   9  18  31  48  71  97 126 161 198 234 280
#     4   9  17  28  45  72 100 124 154 196 242 280
#     4   8  14  26  45  69  97 128 160 194 233 278
#
# _framework density 20.644432999999999
#
# number of rings (size 3 to 8) (size 9 to 14) (size 15 to 20)
#    0.000    2.800    1.000    1.500    1.400    2.000 
#    0.000    4.000    0.000    2.400    0.000    4.200 
#    0.000    0.000    0.000    0.000    0.000    0.000 
#
# Total GULP energy -222746.621309 kJ/mol
# GULP energy per Si atom -5568.665533 kJ/mol
# Density = 2.059745 g / cm^3
# Si number density = 20.644433 Si / 1000 Ang^3
#
#
#
# Elastic Constant Matrix: (Units=GPa)
#
#
# Indices 1 2 3 4 5 6 
#
# 1 137.8703 5.9006 75.4248 0.0000 0.0000 0.0000
# 2 5.9006 50.3503 -4.4849 0.0000 0.0000 0.0000
# 3 75.4248 -4.4849 146.4886 0.0000 0.0000 0.0000
# 4 0.0000 0.0000 0.0000 -73.5846 0.0000 0.0000
# 5 0.0000 0.0000 0.0000 0.0000 3.1585 0.0000
# 6 0.0000 0.0000 0.0000 0.0000 0.0000 -4.1347
#
#
#
# Elastic Compliance Matrix: (Units=1/GPa)
#
#
# Indices 1 2 3 4 5 6 
#
# 1 0.010236 -0.001674 -0.005322 0.000000 0.000000 0.000000
# 2 -0.001674 0.020189 0.001480 0.000000 0.000000 0.000000
# 3 -0.005322 0.001480 0.009612 0.000000 0.000000 0.000000
# 4 0.000000 0.000000 0.000000 -0.013590 0.000000 0.000000
# 5 0.000000 0.000000 0.000000 0.000000 0.316605 0.000000
# 6 0.000000 0.000000 0.000000 0.000000 0.000000 -0.241854
#
#
# Mechanical properties :
#
#
# Convention : Reuss Voigt Hill
#
# Bulk Modulus (GPa) = 34.47583 54.26561 44.37072
# Shear Modulus (GPa) = 41.01787 2.27908 21.64848
#
# Velocity S-wave (km/s) = 4.46227 1.05184 3.24178
# Velocity P-wave (km/s) = 6.57915 5.27428 5.96252
#
# Compressibility (1/GPa) = 0.02900582
#
# Stress axis : x y z
#
# Youngs Moduli (GPa) = 97.69290 49.53242 104.03842
#
# Poissons Ratio (x) = 0.08290 0.55366
# Poissons Ratio (y) = 0.16350 -0.15396
# Poissons Ratio (z) = 0.51989 -0.07330
#
# Static dielectric constant tensor:
#      x y z
#    x 1.758670 0.000000 0.000000 
#    y 0.000000 1.812030 0.000000 
#    z 0.000000 0.000000 1.767660 
# 
# From -- ./inp_files/30361.got.cif
#   From: 2010.05.17/outbox.cif.g08.bks.cpg/sg47_16_cif.got.tgz:30361.got - 2010.06.03 20:15:42.
