data_PCOD9383790
_publ_section_title
;
Structure prediction by ZEFSAII (Michael W. Deem and Ramdas Pophale) SiO2 
 PCOD9383790
Probable space group: P M M M
;
_chemical_formula_sum "Si O2"
_cell_formula_units_Z 49
_cell_length_a 7.902671
_cell_length_b 20.272581
_cell_length_c 15.325571
_cell_angle_alpha 90.000000
_cell_angle_beta 90.000000
_cell_angle_gamma 90.000000
_cell_volume 2455.271998
_symmetry_space_group_name_H-M "P M M M"
_symmetry_group_IT_number 47
_symmetry_cell_setting 'orthorhombic'
loop_
_space_group_symop_operation_xyz
x,y,z
-x,-y,z
x,-y,-z
-x,y,-z
-x,-y,-z
x,y,-z
-x,y,z
x,-y,z
loop_
_atom_site_type_symbol
_atom_site_label
_atom_site_fract_x
_atom_site_fract_y
_atom_site_fract_z
Si Si1 0.313480 0.896913 0.500000
Si Si2 0.797704 0.075767 0.000000
Si Si3 0.204794 0.682046 0.901397
Si Si4 0.793817 0.340186 0.599790
Si Si5 0.196202 0.193797 0.651600
Si Si6 0.000000 0.000000 0.500000
Si Si7 0.303560 0.171951 0.156926
Si Si8 0.792837 0.574659 0.240607
O O1 0.500000 0.927637 0.500000
O O2 0.297524 0.851298 0.414625
O O3 0.151212 0.943798 0.500000
O O4 0.744868 0.117351 0.914655
O O5 0.000000 0.073160 0.000000
O O6 0.733447 0.000000 0.000000
O O7 0.270979 0.755145 0.881476
O O8 0.261891 0.627539 0.831990
O O9 0.000000 0.686055 0.895765
O O10 0.250467 0.663338 0.000000
O O11 0.734881 0.344850 0.500000
O O12 0.746383 0.269701 0.641762
O O13 0.739574 0.397822 0.665007
O O14 0.000000 0.341776 0.597935
O O15 0.208665 0.169445 0.750814
O O16 0.000000 0.192239 0.624157
O O17 0.500000 0.164579 0.176760
O O18 0.736668 0.500000 0.224655
O O19 0.000000 0.574443 0.239010
#
# Coordination Sequence:
#
# PCOD9383790 Si02
#       8
#     4   4   8   8   8   1   8   8
#     4  12  25  45  71 100 134 174 223 268 323 393
#     4  11  25  47  69  93 122 161 200 249 319 398
#     4  10  19  33  56  82 113 159 208 256 314 380
#     4   9  16  27  51  83 116 158 207 258 316 375
#     4  11  20  39  66  94 126 169 218 270 323 378
#     4  12  26  52  68  98 140 186 204 264 336 394
#     4  12  24  38  62  95 127 161 208 265 316 380
#     4   9  17  29  47  79 121 161 205 261 317 373
#
# _framework density 19.957056000000001
#
# number of rings (size 3 to 8) (size 9 to 14) (size 15 to 20)
#    0.000    1.551    4.082    2.327    0.000    1.306 
#    1.469    3.265    0.000    0.490    0.000    1.143 
#    0.000    1.959    0.000    0.000    0.000    0.000 
#
# Total GULP energy -273415.807180 kJ/mol
# GULP energy per Si atom -5579.914432 kJ/mol
# Density = 1.991163 g / cm^3
# Si number density = 19.957056 Si / 1000 Ang^3
#
#
#
# Elastic Constant Matrix: (Units=GPa)
#
#
# Indices 1 2 3 4 5 6 
#
# 1 63.6833 17.7235 2.5540 0.0000 0.0000 0.0000
# 2 17.7235 157.1741 61.7432 0.0000 0.0000 0.0000
# 3 2.5540 61.7432 127.9019 0.0000 0.0000 0.0000
# 4 0.0000 0.0000 0.0000 94.4283 0.0000 0.0000
# 5 0.0000 0.0000 0.0000 0.0000 48.6900 0.0000
# 6 0.0000 0.0000 0.0000 0.0000 0.0000 -25.9014
#
#
#
# Elastic Compliance Matrix: (Units=1/GPa)
#
#
# Indices 1 2 3 4 5 6 
#
# 1 0.016261 -0.002105 0.000692 0.000000 0.000000 0.000000
# 2 -0.002105 0.008124 -0.003880 0.000000 0.000000 0.000000
# 3 0.000692 -0.003880 0.009678 0.000000 0.000000 0.000000
# 4 0.000000 0.000000 0.000000 0.010590 0.000000 0.000000
# 5 0.000000 0.000000 0.000000 0.000000 0.020538 0.000000
# 6 0.000000 0.000000 0.000000 0.000000 0.000000 -0.038608
#
#
# Mechanical properties :
#
#
# Convention : Reuss Voigt Hill
#
# Bulk Modulus (GPa) = 42.59750 56.97785 49.78767
# Shear Modulus (GPa) = 111.12508 41.22595 76.17552
#
# Velocity S-wave (km/s) = 7.47014 4.54996 6.18487
# Velocity P-wave (km/s) = 9.78749 7.49767 8.71808
#
# Compressibility (1/GPa) = 0.02347555
#
# Stress axis : x y z
#
# Youngs Moduli (GPa) = 61.49725 123.09464 103.33210
#
# Poissons Ratio (x) = 0.25915 -0.07147
# Poissons Ratio (y) = 0.12947 0.40089
# Poissons Ratio (z) = -0.04253 0.47756
#
# Static dielectric constant tensor:
#      x y z
#    x 1.719810 0.000000 0.000000 
#    y 0.000000 1.677860 0.000000 
#    z 0.000000 0.000000 1.707270 
# 
# From -- ./inp_files/21184.got.cif
#   From: 2010.05.17/outbox.cif.g08.bks.cpg/sg47_11_cif.got.tgz:21184.got - 2010.06.03 20:15:42.
