data_PCOD9383647
_publ_section_title
;
Structure prediction by ZEFSAII (Michael W. Deem and Ramdas Pophale) SiO2 
 PCOD9383647
Probable space group: P M M M
;
_chemical_formula_sum "Si O2"
_cell_formula_units_Z 64
_cell_length_a 16.928567
_cell_length_b 8.675437
_cell_length_c 23.510062
_cell_angle_alpha 90.000000
_cell_angle_beta 90.000000
_cell_angle_gamma 90.000000
_cell_volume 3452.751571
_symmetry_space_group_name_H-M "P M M M"
_symmetry_group_IT_number 47
_symmetry_cell_setting 'orthorhombic'
loop_
_space_group_symop_operation_xyz
x,y,z
-x,-y,z
x,-y,-z
-x,y,-z
-x,-y,-z
x,y,-z
-x,y,z
x,-y,z
loop_
_atom_site_type_symbol
_atom_site_label
_atom_site_fract_x
_atom_site_fract_y
_atom_site_fract_z
Si Si1 0.910578 0.685650 0.432791
Si Si2 0.659835 0.185455 0.065203
Si Si3 0.733358 0.682570 0.750464
Si Si4 0.806194 0.821736 0.854114
Si Si5 0.413788 0.684980 0.826343
Si Si6 0.247748 0.184283 0.626057
Si Si7 0.411657 0.187067 0.433068
Si Si8 0.906401 0.674381 0.937563
O O1 0.904519 0.723037 0.500000
O O2 0.908374 0.500000 0.427342
O O3 0.833297 0.751757 0.401532
O O4 0.000000 0.735103 0.413984
O O5 0.741036 0.224912 0.098178
O O6 0.597090 0.249865 0.110197
O O7 0.654163 0.000000 0.063523
O O8 0.655478 0.241384 0.000000
O O9 0.728049 0.500000 0.740377
O O10 0.798524 0.720865 0.797943
O O11 0.653880 0.738328 0.783023
O O12 0.748366 0.767410 0.691791
O O13 0.885214 0.789576 0.887849
O O14 0.793841 0.000000 0.839775
O O15 0.500000 0.726407 0.804386
O O16 0.406974 0.500000 0.830010
O O17 0.331010 0.240361 0.597684
O O18 0.246029 0.000000 0.620180
O O19 0.406099 0.225825 0.500000
O O20 0.500000 0.238780 0.412881
O O21 0.412124 0.000000 0.428920
O O22 0.876266 0.500000 0.926274
O O23 0.000000 0.664190 0.941127
O O24 0.876663 0.724187 0.000000
#
# Coordination Sequence:
#
# PCOD9383647 Si02
#       8
#     8   8   8   8   8   8   8   8
#     4   9  19  37  60  85 114 148 182 215 259 318
#     4   9  18  31  47  70  98 126 157 197 252 314
#     4  10  21  37  54  71  97 136 176 212 256 312
#     4  10  19  33  52  72  96 126 164 212 257 297
#     4   9  19  35  52  70  94 127 169 215 258 301
#     4  11  21  33  54  84 113 142 181 229 272 308
#     4   8  15  29  49  76 112 149 180 212 257 314
#     4   9  18  32  50  74 103 132 161 194 239 302
#
# _framework density 18.53594
#
# number of rings (size 3 to 8) (size 9 to 14) (size 15 to 20)
#    0.000    2.625    0.000    3.000    0.000    4.250 
#    0.000    3.125    0.000    4.875    0.000    4.375 
#    0.000    0.000    0.000    0.000    0.000    0.000 
#
# Total GULP energy -356406.070894 kJ/mol
# GULP energy per Si atom -5568.844858 kJ/mol
# Density = 1.849375 g / cm^3
# Si number density = 18.535940 Si / 1000 Ang^3
#
#
#
# Elastic Constant Matrix: (Units=GPa)
#
#
# Indices 1 2 3 4 5 6 
#
# 1 113.5047 23.7543 65.9371 0.0000 0.0000 0.0000
# 2 23.7543 14.3930 20.6583 0.0000 0.0000 0.0000
# 3 65.9371 20.6583 104.2436 0.0000 0.0000 0.0000
# 4 0.0000 0.0000 0.0000 20.3714 0.0000 0.0000
# 5 0.0000 0.0000 0.0000 0.0000 15.1960 0.0000
# 6 0.0000 0.0000 0.0000 0.0000 0.0000 21.8970
#
#
#
# Elastic Compliance Matrix: (Units=1/GPa)
#
#
# Indices 1 2 3 4 5 6 
#
# 1 0.016472 -0.017093 -0.007032 0.000000 0.000000 0.000000
# 2 -0.017093 0.114834 -0.011945 0.000000 0.000000 0.000000
# 3 -0.007032 -0.011945 0.016408 0.000000 0.000000 0.000000
# 4 0.000000 0.000000 0.000000 0.049088 0.000000 0.000000
# 5 0.000000 0.000000 0.000000 0.000000 0.065807 0.000000
# 6 0.000000 0.000000 0.000000 0.000000 0.000000 0.045668
#
#
# Mechanical properties :
#
#
# Convention : Reuss Voigt Hill
#
# Bulk Modulus (GPa) = 13.23214 50.31564 31.77389
# Shear Modulus (GPa) = 12.32714 19.61231 15.96973
#
# Velocity S-wave (km/s) = 2.58163 3.25633 2.93841
# Velocity P-wave (km/s) = 4.00507 6.42978 5.35643
#
# Compressibility (1/GPa) = 0.07557359
#
# Stress axis : x y z
#
# Youngs Moduli (GPa) = 60.70738 8.70826 60.94618
#
# Poissons Ratio (x) = 0.14885 0.42856
# Poissons Ratio (y) = 1.03770 0.72800
# Poissons Ratio (z) = 0.42688 0.10402
#
# Static dielectric constant tensor:
#      x y z
#    x 1.708850 0.000000 0.000000 
#    y 0.000000 1.649300 0.000000 
#    z 0.000000 0.000000 1.615690 
# 
# From -- ./inp_files/27059.got.cif
#   From: 2010.05.17/outbox.cif.g08.bks.cpg/sg47_14_cif.got.tgz:27059.got - 2010.06.03 20:15:42.
