data_PCOD9383575
_publ_section_title
;
Structure prediction by ZEFSAII (Michael W. Deem and Ramdas Pophale) SiO2 
 PCOD9383575
Probable space group: P M M M
;
_chemical_formula_sum "Si O2"
_cell_formula_units_Z 56
_cell_length_a 7.670981
_cell_length_b 20.893338
_cell_length_c 16.180839
_cell_angle_alpha 90.000000
_cell_angle_beta 90.000000
_cell_angle_gamma 90.000000
_cell_volume 2593.341882
_symmetry_space_group_name_H-M "P M M M"
_symmetry_group_IT_number 47
_symmetry_cell_setting 'orthorhombic'
loop_
_space_group_symop_operation_xyz
x,y,z
-x,-y,z
x,-y,-z
-x,y,-z
-x,-y,-z
x,y,-z
-x,y,z
x,-y,z
loop_
_atom_site_type_symbol
_atom_site_label
_atom_site_fract_x
_atom_site_fract_y
_atom_site_fract_z
Si Si1 0.288240 0.431832 0.305823
Si Si2 0.296483 0.282804 0.089863
Si Si3 0.787252 0.073043 0.906392
Si Si4 0.297549 0.315088 0.592242
Si Si5 0.801432 0.172241 0.407957
Si Si6 0.203185 0.429724 0.114759
Si Si7 0.791427 0.178640 0.777286
O O1 0.500000 0.428784 0.305790
O O2 0.238657 0.500000 0.344559
O O3 0.223129 0.368779 0.349511
O O4 0.224177 0.431369 0.212915
O O5 0.500000 0.268581 0.087760
O O6 0.276970 0.360133 0.091601
O O7 0.234358 0.246100 0.173094
O O8 0.219146 0.261329 0.000000
O O9 0.726233 0.124804 0.840749
O O10 0.000000 0.074608 0.906028
O O11 0.736102 0.000000 0.887236
O O12 0.731462 0.087991 0.000000
O O13 0.300386 0.341969 0.500000
O O14 0.500000 0.300216 0.614594
O O15 0.196700 0.249260 0.591461
O O16 0.725202 0.154434 0.500000
O O17 0.721862 0.163301 0.315637
O O18 0.000000 0.147135 0.407856
O O19 0.274905 0.500000 0.087625
O O20 0.000000 0.428678 0.092603
O O21 0.000000 0.173314 0.768575
#
# Coordination Sequence:
#
# PCOD9383575 Si02
#       7
#     8   8   8   8   8   8   8
#     4   9  17  29  45  64  87 116 150 193 248 306
#     4  11  24  38  52  74 104 134 164 206 261 313
#     4   8  14  26  47  77 109 137 169 211 254 296
#     4   9  17  28  42  61  85 115 154 199 246 298
#     4   9  18  31  46  67  96 128 162 203 251 296
#     4  10  21  36  53  71  92 123 165 210 251 296
#     4  10  19  32  54  79 103 136 175 213 251 296
#
# _framework density 21.593758999999999
#
# number of rings (size 3 to 8) (size 9 to 14) (size 15 to 20)
#    0.000    2.571    0.000    2.571    0.000    6.571 
#    0.000    2.857    0.000    0.857    0.000    9.000 
#    0.000    0.000    0.000    4.857    0.000    5.286 
#
# Total GULP energy -311788.152134 kJ/mol
# GULP energy per Si atom -5567.645574 kJ/mol
# Density = 2.154461 g / cm^3
# Si number density = 21.593759 Si / 1000 Ang^3
#
#
#
# Elastic Constant Matrix: (Units=GPa)
#
#
# Indices 1 2 3 4 5 6 
#
# 1 41.9366 -3.1383 -0.1236 0.0000 0.0000 0.0000
# 2 -3.1383 81.7294 64.8956 0.0000 0.0000 0.0000
# 3 -0.1236 64.8956 139.1360 0.0000 0.0000 0.0000
# 4 0.0000 0.0000 0.0000 30.1493 0.0000 0.0000
# 5 0.0000 0.0000 0.0000 0.0000 11.2411 0.0000
# 6 0.0000 0.0000 0.0000 0.0000 0.0000 9.5320
#
#
#
# Elastic Compliance Matrix: (Units=1/GPa)
#
#
# Indices 1 2 3 4 5 6 
#
# 1 0.023951 0.001434 -0.000647 0.000000 0.000000 0.000000
# 2 0.001434 0.019518 -0.009102 0.000000 0.000000 0.000000
# 3 -0.000647 -0.009102 0.011432 0.000000 0.000000 0.000000
# 4 0.000000 0.000000 0.000000 0.033168 0.000000 0.000000
# 5 0.000000 0.000000 0.000000 0.000000 0.088959 0.000000
# 6 0.000000 0.000000 0.000000 0.000000 0.000000 0.104910
#
#
# Mechanical properties :
#
#
# Convention : Reuss Voigt Hill
#
# Bulk Modulus (GPa) = 26.13072 42.89658 34.51365
# Shear Modulus (GPa) = 16.06030 23.59570 19.82800
#
# Velocity S-wave (km/s) = 2.73013 3.30920 3.03352
# Velocity P-wave (km/s) = 4.69739 5.87448 5.31860
#
# Compressibility (1/GPa) = 0.03826913
#
# Stress axis : x y z
#
# Youngs Moduli (GPa) = 41.75207 51.23456 87.47281
#
# Poissons Ratio (x) = -0.07346 0.05664
# Poissons Ratio (y) = -0.05986 0.79620
# Poissons Ratio (z) = 0.02703 0.46635
#
# Static dielectric constant tensor:
#      x y z
#    x 1.827270 0.000000 0.000000 
#    y 0.000000 1.772360 0.000000 
#    z 0.000000 0.000000 1.850670 
# 
# From -- ./inp_files/11242.got.cif
#   From: 2010.05.17/outbox.cif.g08.bks.cpg/sg47_6_cif.got.tgz:11242.got - 2010.06.03 20:15:42.
