data_PCOD9383267
_publ_section_title
;
Structure prediction by ZEFSAII (Michael W. Deem and Ramdas Pophale) SiO2 
 PCOD9383267
Probable space group: P M M M
;
_chemical_formula_sum "Si O2"
_cell_formula_units_Z 30
_cell_length_a 7.315455
_cell_length_b 19.910225
_cell_length_c 10.080900
_cell_angle_alpha 90.000000
_cell_angle_beta 90.000000
_cell_angle_gamma 90.000000
_cell_volume 1468.306826
_symmetry_space_group_name_H-M "P M M M"
_symmetry_group_IT_number 47
_symmetry_cell_setting 'orthorhombic'
loop_
_space_group_symop_operation_xyz
x,y,z
-x,-y,z
x,-y,-z
-x,y,-z
-x,-y,-z
x,y,-z
-x,y,z
x,-y,z
loop_
_atom_site_type_symbol
_atom_site_label
_atom_site_fract_x
_atom_site_fract_y
_atom_site_fract_z
Si Si1 0.778193 0.423075 0.000000
Si Si2 0.721671 0.194094 0.846980
Si Si3 0.277541 0.076566 0.651288
Si Si4 0.789251 0.658287 0.739290
Si Si5 0.500000 0.355372 0.500000
O O1 0.724368 0.383902 0.132610
O O2 0.717398 0.500000 0.000000
O O3 0.000000 0.422621 0.000000
O O4 0.500000 0.194438 0.845905
O O5 0.782339 0.131254 0.757718
O O6 0.782853 0.263701 0.782323
O O7 0.780187 0.189501 0.000000
O O8 0.222602 0.093236 0.500000
O O9 0.500000 0.076822 0.652142
O O10 0.220902 0.000000 0.680289
O O11 0.658785 0.646623 0.616074
O O12 0.000000 0.640004 0.710522
#
# Coordination Sequence:
#
# PCOD9383267 Si02
#       5
#     4   8   8   8   2
#     4   9  20  43  73  99 129 171 216 259 308 372
#     4  10  19  31  54  84 121 160 205 270 320 364
#     4   8  15  27  45  73 112 162 213 254 305 375
#     4  11  23  41  66  96 127 168 213 259 318 375
#     4  12  26  42  63  92 141 166 206 262 312 378
#
# _framework density 20.431698000000001
#
# number of rings (size 3 to 8) (size 9 to 14) (size 15 to 20)
#    0.000    2.267    2.667    1.200    1.867    1.067 
#    0.000    5.333    0.000    4.000    0.000    3.733 
#    0.000    0.000    0.000    0.000    0.000    0.000 
#
# Total GULP energy -167098.474488 kJ/mol
# GULP energy per Si atom -5569.949150 kJ/mol
# Density = 2.038519 g / cm^3
# Si number density = 20.431698 Si / 1000 Ang^3
#
#
#
# Elastic Constant Matrix: (Units=GPa)
#
#
# Indices 1 2 3 4 5 6 
#
# 1 125.9456 21.3557 67.9730 0.0000 0.0000 0.0000
# 2 21.3557 110.4142 87.9642 0.0000 0.0000 0.0000
# 3 67.9730 87.9642 218.9743 0.0000 0.0000 0.0000
# 4 0.0000 0.0000 0.0000 -17.3524 0.0000 0.0000
# 5 0.0000 0.0000 0.0000 0.0000 27.2510 0.0000
# 6 0.0000 0.0000 0.0000 0.0000 0.0000 13.2874
#
#
#
# Elastic Compliance Matrix: (Units=1/GPa)
#
#
# Indices 1 2 3 4 5 6 
#
# 1 0.009581 0.000759 -0.003279 0.000000 0.000000 0.000000
# 2 0.000759 0.013380 -0.005610 0.000000 0.000000 0.000000
# 3 -0.003279 -0.005610 0.007838 0.000000 0.000000 0.000000
# 4 0.000000 0.000000 0.000000 -0.057629 0.000000 0.000000
# 5 0.000000 0.000000 0.000000 0.000000 0.036696 0.000000
# 6 0.000000 0.000000 0.000000 0.000000 0.000000 0.075259
#
#
# Mechanical properties :
#
#
# Convention : Reuss Voigt Hill
#
# Bulk Modulus (GPa) = 68.78302 89.99109 79.38706
# Shear Modulus (GPa) = 47.06696 23.17328 35.12012
#
# Velocity S-wave (km/s) = 4.80482 3.37142 4.15046
# Velocity P-wave (km/s) = 8.03241 7.70037 7.86814
#
# Compressibility (1/GPa) = 0.01453847
#
# Stress axis : x y z
#
# Youngs Moduli (GPa) = 104.37418 74.74052 127.57738
#
# Poissons Ratio (x) = -0.05675 0.41833
# Poissons Ratio (y) = -0.07925 0.71576
# Poissons Ratio (z) = 0.34225 0.41933
#
# Static dielectric constant tensor:
#      x y z
#    x 1.819960 0.000000 0.000000 
#    y 0.000000 1.695740 0.000000 
#    z 0.000000 0.000000 1.670990 
# 
# From -- ./inp_files/1022.got.cif
#   From: 2010.05.17/outbox.cif.g08.bks.cpg/sg47_1_cif.got.tgz:1022.got - 2010.06.03 20:15:42.
