data_PCOD9383952
_publ_section_title
;
Structure prediction by ZEFSAII (Michael W. Deem and Ramdas Pophale) SiO2 
 PCOD9383952
Probable space group: P M M M
;
_chemical_formula_sum "Si O2"
_cell_formula_units_Z 56
_cell_length_a 14.485229
_cell_length_b 8.094018
_cell_length_c 20.886878
_cell_angle_alpha 90.000000
_cell_angle_beta 90.000000
_cell_angle_gamma 90.000000
_cell_volume 2448.854947
_symmetry_space_group_name_H-M "P M M M"
_symmetry_group_IT_number 47
_symmetry_cell_setting 'orthorhombic'
loop_
_space_group_symop_operation_xyz
x,y,z
-x,-y,z
x,-y,-z
-x,y,-z
-x,-y,-z
x,y,-z
-x,y,z
x,-y,z
loop_
_atom_site_type_symbol
_atom_site_label
_atom_site_fract_x
_atom_site_fract_y
_atom_site_fract_z
Si Si1 0.152732 0.301184 0.284151
Si Si2 0.101008 0.800204 0.852796
Si Si3 0.889207 0.691211 0.570347
Si Si4 0.391792 0.302346 0.428685
Si Si5 0.288996 0.197254 0.074826
Si Si6 0.655967 0.818493 0.300336
Si Si7 0.500000 0.327273 0.773352
Si Si8 0.500000 0.813375 0.901719
O O1 0.161993 0.500000 0.287197
O O2 0.096230 0.257124 0.221185
O O3 0.127789 0.244918 0.356928
O O4 0.247658 0.209788 0.268332
O O5 0.198774 0.740888 0.884983
O O6 0.000000 0.751679 0.882139
O O7 0.104606 0.000000 0.855072
O O8 0.858545 0.761924 0.500000
O O9 0.855191 0.500000 0.570497
O O10 0.000000 0.687830 0.566889
O O11 0.367732 0.251873 0.500000
O O12 0.500000 0.263027 0.418147
O O13 0.382547 0.500000 0.423952
O O14 0.333590 0.214166 0.375316
O O15 0.396549 0.259169 0.083377
O O16 0.295771 0.000000 0.088948
O O17 0.266952 0.218827 0.000000
O O18 0.586538 0.687127 0.272344
O O19 0.618485 0.000000 0.289940
O O20 0.500000 0.500000 0.809278
O O21 0.500000 0.186131 0.825114
O O22 0.500000 0.000000 0.928274
#
# Coordination Sequence:
#
# PCOD9383952 Si02
#       8
#     8   8   8   8   8   8   4   4
#     4  11  22  36  57  84 114 152 197 247 303 369
#     4  10  21  37  58  86 122 162 204 256 315 371
#     4   8  15  30  53  80 107 137 180 234 287 340
#     4   9  18  34  55  76 102 141 191 246 303 369
#     4   9  18  34  59  91 123 158 204 253 300 356
#     4  12  24  37  54  79 111 147 191 247 307 365
#     4  12  24  39  58  80 110 150 197 241 287 351
#     4  10  19  34  60  91 123 158 197 246 298 348
#
# _framework density 22.867830999999999
#
# number of rings (size 3 to 8) (size 9 to 14) (size 15 to 20)
#    0.000    2.000    0.714    4.714    0.000    4.000 
#    0.000    3.571    0.000    3.429    0.000    6.000 
#    0.000    0.000    0.000    0.000    0.000    0.000 
#
# Total GULP energy -311897.801657 kJ/mol
# GULP energy per Si atom -5569.603601 kJ/mol
# Density = 2.281578 g / cm^3
# Si number density = 22.867831 Si / 1000 Ang^3
#
#
#
# Elastic Constant Matrix: (Units=GPa)
#
#
# Indices 1 2 3 4 5 6 
#
# 1 142.1164 13.7736 63.1847 0.0000 0.0000 0.0000
# 2 13.7736 30.5199 4.0389 0.0000 0.0000 0.0000
# 3 63.1847 4.0389 106.1647 0.0000 0.0000 0.0000
# 4 0.0000 0.0000 0.0000 28.0300 0.0000 0.0000
# 5 0.0000 0.0000 0.0000 0.0000 43.8571 0.0000
# 6 0.0000 0.0000 0.0000 0.0000 0.0000 6.7440
#
#
#
# Elastic Compliance Matrix: (Units=1/GPa)
#
#
# Indices 1 2 3 4 5 6 
#
# 1 0.009975 -0.003735 -0.005794 0.000000 0.000000 0.000000
# 2 -0.003735 0.034330 0.000917 0.000000 0.000000 0.000000
# 3 -0.005794 0.000917 0.012833 0.000000 0.000000 0.000000
# 4 0.000000 0.000000 0.000000 0.035676 0.000000 0.000000
# 5 0.000000 0.000000 0.000000 0.000000 0.022801 0.000000
# 6 0.000000 0.000000 0.000000 0.000000 0.000000 0.148280
#
#
# Mechanical properties :
#
#
# Convention : Reuss Voigt Hill
#
# Bulk Modulus (GPa) = 25.05478 48.97726 37.01602
# Shear Modulus (GPa) = 16.98231 28.91313 22.94772
#
# Velocity S-wave (km/s) = 2.72808 3.55964 3.17123
# Velocity P-wave (km/s) = 4.57202 6.19344 5.44344
#
# Compressibility (1/GPa) = 0.03991254
#
# Stress axis : x y z
#
# Youngs Moduli (GPa) = 100.25443 29.12932 77.92391
#
# Poissons Ratio (x) = 0.10879 0.45152
# Poissons Ratio (y) = 0.37442 -0.07143
# Poissons Ratio (z) = 0.58091 -0.02670
#
# Static dielectric constant tensor:
#      x y z
#    x 1.890810 0.000000 0.000000 
#    y 0.000000 1.839330 0.000000 
#    z 0.000000 0.000000 1.848760 
# 
# From -- ./inp_files/31033.got.cif
#   From: 2010.05.17/outbox.cif.g08.bks.cpg/sg47_16_cif.got.tgz:31033.got - 2010.06.03 20:15:42.
