data_PCOD9383451
_publ_section_title
;
Structure prediction by ZEFSAII (Michael W. Deem and Ramdas Pophale) SiO2 
 PCOD9383451
Probable space group: P M M M
;
_chemical_formula_sum "Si O2"
_cell_formula_units_Z 64
_cell_length_a 27.298201
_cell_length_b 7.860627
_cell_length_c 14.847493
_cell_angle_alpha 90.000000
_cell_angle_beta 90.000000
_cell_angle_gamma 90.000000
_cell_volume 3185.989537
_symmetry_space_group_name_H-M "P M M M"
_symmetry_group_IT_number 47
_symmetry_cell_setting 'orthorhombic'
loop_
_space_group_symop_operation_xyz
x,y,z
-x,-y,z
x,-y,-z
-x,y,-z
-x,-y,-z
x,y,-z
-x,y,z
x,-y,z
loop_
_atom_site_type_symbol
_atom_site_label
_atom_site_fract_x
_atom_site_fract_y
_atom_site_fract_z
Si Si1 0.158192 0.205557 0.710552
Si Si2 0.054717 0.804465 0.704526
Si Si3 0.313029 0.795516 0.099433
Si Si4 0.649538 0.700701 0.712074
Si Si5 0.743920 0.705602 0.603182
Si Si6 0.800185 0.792443 0.100886
Si Si7 0.554629 0.204199 0.601977
Si Si8 0.058771 0.695559 0.903076
O O1 0.106253 0.271841 0.671088
O O2 0.205405 0.246952 0.651185
O O3 0.169317 0.267135 0.812849
O O4 0.154230 0.000000 0.714178
O O5 0.065010 0.800730 0.812328
O O6 0.000000 0.728199 0.689656
O O7 0.051688 0.000000 0.674123
O O8 0.345589 0.743389 0.183130
O O9 0.256567 0.741409 0.114978
O O10 0.312170 0.000000 0.096999
O O11 0.328093 0.734457 0.000000
O O12 0.652829 0.500000 0.702897
O O13 0.697062 0.772767 0.659169
O O14 0.598663 0.753085 0.667740
O O15 0.742205 0.765623 0.500000
O O16 0.741626 0.500000 0.601947
O O17 0.801951 0.000000 0.100591
O O18 0.814175 0.735295 0.000000
O O19 0.564925 0.266479 0.500000
O O20 0.500000 0.265122 0.628079
O O21 0.552362 0.000000 0.597854
O O22 0.075960 0.500000 0.892488
O O23 0.000000 0.685777 0.909777
O O24 0.076317 0.764730 0.000000
#
# Coordination Sequence:
#
# PCOD9383451 Si02
#       8
#     8   8   8   8   8   8   8   8
#     4  10  19  32  52  74  97 128 168 211 253 305
#     4   9  18  30  44  66  94 122 155 199 253 310
#     4   9  17  31  52  76 105 143 184 223 262 307
#     4  11  21  33  54  83 115 147 177 215 267 323
#     4  10  22  38  53  74 106 137 164 204 261 317
#     4   8  14  26  45  69  97 129 166 208 250 294
#     4   9  19  36  57  82 113 150 192 233 267 305
#     4   8  14  25  40  58  83 117 156 194 230 276
#
# _framework density 20.087949999999999
#
# number of rings (size 3 to 8) (size 9 to 14) (size 15 to 20)
#    0.000    2.750    1.250    2.250    0.000    3.250 
#    0.000    3.125    0.000    1.125    0.000    5.250 
#    0.000    0.000    0.000    0.000    0.000    0.000 
#
# Total GULP energy -356703.455528 kJ/mol
# GULP energy per Si atom -5573.491493 kJ/mol
# Density = 2.004223 g / cm^3
# Si number density = 20.087950 Si / 1000 Ang^3
#
#
#
# Elastic Constant Matrix: (Units=GPa)
#
#
# Indices 1 2 3 4 5 6 
#
# 1 178.9442 10.7730 91.6151 0.0000 0.0000 0.0000
# 2 10.7730 25.7113 6.4883 0.0000 0.0000 0.0000
# 3 91.6151 6.4883 100.0079 0.0000 0.0000 0.0000
# 4 0.0000 0.0000 0.0000 17.1069 0.0000 0.0000
# 5 0.0000 0.0000 0.0000 0.0000 -1.5247 0.0000
# 6 0.0000 0.0000 0.0000 0.0000 0.0000 9.9529
#
#
#
# Elastic Compliance Matrix: (Units=1/GPa)
#
#
# Indices 1 2 3 4 5 6 
#
# 1 0.010628 -0.002029 -0.009604 0.000000 0.000000 0.000000
# 2 -0.002029 0.039928 -0.000731 0.000000 0.000000 0.000000
# 3 -0.009604 -0.000731 0.018845 0.000000 0.000000 0.000000
# 4 0.000000 0.000000 0.000000 0.058456 0.000000 0.000000
# 5 0.000000 0.000000 0.000000 0.000000 -0.655866 0.000000
# 6 0.000000 0.000000 0.000000 0.000000 0.000000 0.100473
#
#
# Mechanical properties :
#
#
# Convention : Reuss Voigt Hill
#
# Bulk Modulus (GPa) = 22.38589 58.04623 40.21606
# Shear Modulus (GPa) = -12.88937 18.15949 2.63506
#
# Velocity S-wave (km/s) = -2.53582 3.00992 1.14656
# Velocity P-wave (km/s) = 1.61067 6.40611 4.67079
#
# Compressibility (1/GPa) = 0.04467099
#
# Stress axis : x y z
#
# Youngs Moduli (GPa) = 94.09537 25.04491 53.06539
#
# Poissons Ratio (x) = 0.05082 0.50964
# Poissons Ratio (y) = 0.19095 0.03881
# Poissons Ratio (z) = 0.90369 0.01832
#
# Static dielectric constant tensor:
#      x y z
#    x 1.756620 0.000000 0.000000 
#    y 0.000000 1.733230 0.000000 
#    z 0.000000 0.000000 1.838790 
# 
# From -- ./inp_files/25602.got.cif
#   From: 2010.05.17/outbox.cif.g08.bks.cpg/sg47_13_cif.got.tgz:25602.got - 2010.06.03 20:15:42.
