data_PCOD9383168
_publ_section_title
;
Structure prediction by ZEFSAII (Michael W. Deem and Ramdas Pophale) SiO2 
 PCOD9383168
Probable space group: P M M M
;
_chemical_formula_sum "Si O2"
_cell_formula_units_Z 64
_cell_length_a 23.552201
_cell_length_b 8.480657
_cell_length_c 16.333999
_cell_angle_alpha 90.000000
_cell_angle_beta 90.000000
_cell_angle_gamma 90.000000
_cell_volume 3262.522551
_symmetry_space_group_name_H-M "P M M M"
_symmetry_group_IT_number 47
_symmetry_cell_setting 'orthorhombic'
loop_
_space_group_symop_operation_xyz
x,y,z
-x,-y,z
x,-y,-z
-x,y,-z
-x,-y,-z
x,y,-z
-x,y,z
x,-y,z
loop_
_atom_site_type_symbol
_atom_site_label
_atom_site_fract_x
_atom_site_fract_y
_atom_site_fract_z
Si Si1 0.901924 0.187778 0.411505
Si Si2 0.817678 0.315004 0.184462
Si Si3 0.061730 0.310665 0.762153
Si Si4 0.563170 0.309428 0.271175
Si Si5 0.223437 0.812278 0.354006
Si Si6 0.597082 0.684719 0.906543
Si Si7 0.714828 0.172196 0.096744
Si Si8 0.349939 0.809938 0.408123
O O1 0.922591 0.243250 0.500000
O O2 0.928959 0.269003 0.332986
O O3 0.833610 0.209509 0.406791
O O4 0.912453 0.000000 0.405123
O O5 0.818995 0.500000 0.165563
O O6 0.882059 0.252231 0.191255
O O7 0.788777 0.286071 0.272533
O O8 0.776216 0.226788 0.123896
O O9 0.062095 0.500000 0.769706
O O10 0.000000 0.251227 0.789161
O O11 0.500000 0.267123 0.300947
O O12 0.567450 0.500000 0.267768
O O13 0.568682 0.251097 0.176505
O O14 0.610776 0.250680 0.334301
O O15 0.283607 0.768683 0.393017
O O16 0.225780 0.000000 0.333943
O O17 0.582911 0.500000 0.911461
O O18 0.663829 0.707827 0.886412
O O19 0.586347 0.749280 0.000000
O O20 0.701108 0.000000 0.133338
O O21 0.715258 0.158875 0.000000
O O22 0.366642 0.755572 0.500000
O O23 0.353014 0.000000 0.407611
#
# Coordination Sequence:
#
# PCOD9383168 Si02
#       8
#     8   8   8   8   8   8   8   8
#     4   9  17  29  46  69  96 124 156 197 244 294
#     4  10  19  31  50  74  99 128 163 203 244 290
#     4   9  19  34  48  64  90 126 166 204 242 284
#     4  10  22  38  54  75 104 137 173 212 254 300
#     4   9  17  31  51  73  98 127 159 200 253 305
#     4   9  18  34  57  83 109 136 166 202 246 300
#     4  10  20  33  51  77 107 133 156 188 236 294
#     4  10  21  36  54  75  99 132 175 219 261 305
#
# _framework density 19.616721999999999
#
# number of rings (size 3 to 8) (size 9 to 14) (size 15 to 20)
#    0.000    2.500    0.000    1.875    0.000    7.500 
#    0.000    3.750    0.000    2.625    0.000    5.250 
#    0.000    0.000    0.000    0.000    0.000    0.000 
#
# Total GULP energy -356613.635128 kJ/mol
# GULP energy per Si atom -5572.088049 kJ/mol
# Density = 1.957207 g / cm^3
# Si number density = 19.616722 Si / 1000 Ang^3
#
#
#
# Elastic Constant Matrix: (Units=GPa)
#
#
# Indices 1 2 3 4 5 6 
#
# 1 82.2807 2.6927 32.0374 0.0000 0.0000 0.0000
# 2 2.6927 6.8492 6.8318 0.0000 0.0000 0.0000
# 3 32.0374 6.8318 45.3150 0.0000 0.0000 0.0000
# 4 0.0000 0.0000 0.0000 17.4951 0.0000 0.0000
# 5 0.0000 0.0000 0.0000 0.0000 4.3287 0.0000
# 6 0.0000 0.0000 0.0000 0.0000 0.0000 14.4463
#
#
#
# Elastic Compliance Matrix: (Units=1/GPa)
#
#
# Indices 1 2 3 4 5 6 
#
# 1 0.016994 0.006241 -0.012955 0.000000 0.000000 0.000000
# 2 0.006241 0.174137 -0.030666 0.000000 0.000000 0.000000
# 3 -0.012955 -0.030666 0.035850 0.000000 0.000000 0.000000
# 4 0.000000 0.000000 0.000000 0.057159 0.000000 0.000000
# 5 0.000000 0.000000 0.000000 0.000000 0.231017 0.000000
# 6 0.000000 0.000000 0.000000 0.000000 0.000000 0.069222
#
#
# Mechanical properties :
#
#
# Convention : Reuss Voigt Hill
#
# Bulk Modulus (GPa) = 6.56939 24.17432 15.37185
# Shear Modulus (GPa) = 7.04346 13.44623 10.24484
#
# Velocity S-wave (km/s) = 1.89693 2.62094 2.28776
# Velocity P-wave (km/s) = 2.85551 4.63780 3.85118
#
# Compressibility (1/GPa) = 0.15222122
#
# Stress axis : x y z
#
# Youngs Moduli (GPa) = 58.84546 5.74261 27.89366
#
# Poissons Ratio (x) = -0.03584 0.36137
# Poissons Ratio (y) = -0.36728 0.85539
# Poissons Ratio (z) = 0.76237 0.17610
#
# Static dielectric constant tensor:
#      x y z
#    x 1.705910 0.000000 0.000000 
#    y 0.000000 1.701470 0.000000 
#    z 0.000000 0.000000 1.719240 
# 
# From -- ./inp_files/25590.got.cif
#   From: 2010.05.17/outbox.cif.g08.bks.cpg/sg47_13_cif.got.tgz:25590.got - 2010.06.03 20:15:42.
