data_PCOD9383687
_publ_section_title
;
Structure prediction by ZEFSAII (Michael W. Deem and Ramdas Pophale) SiO2 
 PCOD9383687
Probable space group: P M M M
;
_chemical_formula_sum "Si O2"
_cell_formula_units_Z 45
_cell_length_a 23.804148
_cell_length_b 12.390773
_cell_length_c 7.561466
_cell_angle_alpha 90.000000
_cell_angle_beta 90.000000
_cell_angle_gamma 90.000000
_cell_volume 2230.267964
_symmetry_space_group_name_H-M "P M M M"
_symmetry_group_IT_number 47
_symmetry_cell_setting 'orthorhombic'
loop_
_space_group_symop_operation_xyz
x,y,z
-x,-y,z
x,-y,-z
-x,y,-z
-x,-y,-z
x,y,-z
-x,y,z
x,-y,z
loop_
_atom_site_type_symbol
_atom_site_label
_atom_site_fract_x
_atom_site_fract_y
_atom_site_fract_z
Si Si1 0.223679 0.876977 0.711032
Si Si2 0.000000 0.000000 0.500000
Si Si3 0.878153 0.277541 0.211292
Si Si4 0.696490 0.500000 0.790147
Si Si5 0.436951 0.124744 0.715818
Si Si6 0.330773 0.258670 0.710710
Si Si7 0.000000 0.806198 0.785027
Si Si8 0.824600 0.500000 0.217463
O O1 0.231079 0.884386 0.500000
O O2 0.163929 0.819349 0.739199
O O3 0.273977 0.799767 0.779904
O O4 0.225772 0.000000 0.780444
O O5 0.000000 0.907764 0.656935
O O6 0.854316 0.390837 0.279153
O O7 0.942545 0.256749 0.257293
O O8 0.875911 0.283495 0.000000
O O9 0.669025 0.613348 0.739139
O O10 0.760313 0.500000 0.721431
O O11 0.699648 0.500000 0.000000
O O12 0.437111 0.127430 0.500000
O O13 0.500000 0.155490 0.772776
O O14 0.386640 0.200079 0.779474
O O15 0.426950 0.000000 0.765793
O O16 0.330336 0.242189 0.500000
O O17 0.000000 0.829405 0.000000
O O18 0.824839 0.500000 0.000000
#
# Coordination Sequence:
#
# PCOD9383687 Si02
#       8
#     8   1   8   4   8   8   4   4
#     4  10  21  33  51  79 112 144 177 223 286 346
#     4  12  26  44  72  80 132 168 194 244 300 358
#     4  10  21  39  59  83 112 145 193 238 282 343
#     4  11  21  35  53  76 105 145 188 224 276 342
#     4   8  14  27  51  81 111 143 180 225 279 335
#     4  10  19  33  53  80 110 139 182 233 282 331
#     4  10  25  42  63  94 118 157 206 243 296 365
#     4   9  18  36  61  80 105 148 189 235 290 336
#
# _framework density 20.176946000000001
#
# number of rings (size 3 to 8) (size 9 to 14) (size 15 to 20)
#    0.000    2.311    1.778    1.467    2.489    2.844 
#    0.000    2.667    0.000    5.333    0.000    1.244 
#    0.000    0.000    0.000    0.000    0.000    0.000 
#
# Total GULP energy -250865.205635 kJ/mol
# GULP energy per Si atom -5574.782347 kJ/mol
# Density = 2.013102 g / cm^3
# Si number density = 20.176946 Si / 1000 Ang^3
#
#
#
# Elastic Constant Matrix: (Units=GPa)
#
#
# Indices 1 2 3 4 5 6 
#
# 1 179.5808 105.4604 13.6124 0.0000 0.0000 0.0000
# 2 105.4604 160.1963 3.0046 0.0000 0.0000 0.0000
# 3 13.6124 3.0046 45.5251 0.0000 0.0000 0.0000
# 4 0.0000 0.0000 0.0000 8.5882 0.0000 0.0000
# 5 0.0000 0.0000 0.0000 0.0000 -165.1504 0.0000
# 6 0.0000 0.0000 0.0000 0.0000 0.0000 59.9118
#
#
#
# Elastic Compliance Matrix: (Units=1/GPa)
#
#
# Indices 1 2 3 4 5 6 
#
# 1 0.009330 -0.006098 -0.002387 0.000000 0.000000 0.000000
# 2 -0.006098 0.010235 0.001148 0.000000 0.000000 0.000000
# 3 -0.002387 0.001148 0.022604 0.000000 0.000000 0.000000
# 4 0.000000 0.000000 0.000000 0.116439 0.000000 0.000000
# 5 0.000000 0.000000 0.000000 0.000000 -0.006055 0.000000
# 6 0.000000 0.000000 0.000000 0.000000 0.000000 0.016691
#
#
# Mechanical properties :
#
#
# Convention : Reuss Voigt Hill
#
# Bulk Modulus (GPa) = 36.37048 69.93966 53.15507
# Shear Modulus (GPa) = 25.89547 -1.78176 12.05685
#
# Velocity S-wave (km/s) = 3.58637 -0.94074 2.44715
# Velocity P-wave (km/s) = 5.93416 5.79296 5.86399
#
# Compressibility (1/GPa) = 0.02749482
#
# Stress axis : x y z
#
# Youngs Moduli (GPa) = 107.17713 97.70426 44.23988
#
# Poissons Ratio (x) = 0.59576 0.10562
# Poissons Ratio (y) = 0.65352 -0.05078
# Poissons Ratio (z) = 0.25588 -0.11214
#
# Static dielectric constant tensor:
#      x y z
#    x 1.718160 0.000000 0.000000 
#    y 0.000000 1.753780 0.000000 
#    z 0.000000 0.000000 1.763560 
# 
# From -- ./inp_files/12400.got.cif
#   From: 2010.05.17/outbox.cif.g08.bks.cpg/sg47_7_cif.got.tgz:12400.got - 2010.06.03 20:15:42.
