data_PCOD9383158
_publ_section_title
;
Structure prediction by ZEFSAII (Michael W. Deem and Ramdas Pophale) SiO2 
 PCOD9383158
Probable space group: P M M M
;
_chemical_formula_sum "Si O2"
_cell_formula_units_Z 52
_cell_length_a 16.266784
_cell_length_b 21.026291
_cell_length_c 8.913873
_cell_angle_alpha 90.000000
_cell_angle_beta 90.000000
_cell_angle_gamma 90.000000
_cell_volume 3048.813177
_symmetry_space_group_name_H-M "P M M M"
_symmetry_group_IT_number 47
_symmetry_cell_setting 'orthorhombic'
loop_
_space_group_symop_operation_xyz
x,y,z
-x,-y,z
x,-y,-z
-x,y,-z
-x,-y,-z
x,y,-z
-x,y,z
x,-y,z
loop_
_atom_site_type_symbol
_atom_site_label
_atom_site_fract_x
_atom_site_fract_y
_atom_site_fract_z
Si Si1 0.402925 0.069756 0.320618
Si Si2 0.907947 0.694218 0.679955
Si Si3 0.311101 0.186285 0.172398
Si Si4 0.407419 0.426483 0.182438
Si Si5 0.266908 0.327864 0.182581
Si Si6 0.000000 0.925883 0.321486
Si Si7 0.880693 0.169383 0.826408
O O1 0.392753 0.070429 0.500000
O O2 0.500000 0.071463 0.288193
O O3 0.362550 0.133012 0.256211
O O4 0.371548 0.000000 0.266301
O O5 0.901070 0.692087 0.500000
O O6 0.825241 0.664244 0.751973
O O7 0.904910 0.767073 0.737064
O O8 0.000000 0.669096 0.720484
O O9 0.304431 0.259096 0.229451
O O10 0.216927 0.163742 0.176029
O O11 0.339740 0.189612 0.000000
O O12 0.500000 0.406427 0.229802
O O13 0.395638 0.500000 0.227834
O O14 0.332331 0.381528 0.228831
O O15 0.407616 0.425268 0.000000
O O16 0.259756 0.326430 0.000000
O O17 0.922793 0.890480 0.249184
O O18 0.000000 0.916973 0.500000
O O19 0.000000 0.000000 0.287760
O O20 0.905487 0.176430 0.000000
#
# Coordination Sequence:
#
# PCOD9383158 Si02
#       7
#     8   8   8   8   8   4   8
#     4   9  19  35  51  66  87 120 162 203 245 296
#     4  10  19  31  50  73  98 129 167 209 253 304
#     4   9  19  32  47  72  99 123 155 199 252 300
#     4   8  14  27  50  79 109 141 175 211 253 302
#     4   9  18  31  49  77 107 133 167 210 255 303
#     4  11  23  35  47  67  95 127 164 203 246 301
#     4  10  20  34  51  69  93 124 159 203 252 300
#
# _framework density 17.055817999999999
#
# number of rings (size 3 to 8) (size 9 to 14) (size 15 to 20)
#    0.000    2.692    0.769    3.000    0.000    6.462 
#    0.000    5.385    0.000    1.385    0.000    4.308 
#    0.000    0.000    0.000    0.000    0.000    0.000 
#
# Total GULP energy -289546.418610 kJ/mol
# GULP energy per Si atom -5568.200358 kJ/mol
# Density = 1.701700 g / cm^3
# Si number density = 17.055818 Si / 1000 Ang^3
#
#
#
# Elastic Constant Matrix: (Units=GPa)
#
#
# Indices 1 2 3 4 5 6 
#
# 1 120.1900 79.0643 38.4532 0.0000 0.0000 0.0000
# 2 79.0643 93.5370 30.1887 0.0000 0.0000 0.0000
# 3 38.4532 30.1887 21.8097 0.0000 0.0000 0.0000
# 4 0.0000 0.0000 0.0000 7.5405 0.0000 0.0000
# 5 0.0000 0.0000 0.0000 0.0000 25.0559 0.0000
# 6 0.0000 0.0000 0.0000 0.0000 0.0000 26.0008
#
#
#
# Elastic Compliance Matrix: (Units=1/GPa)
#
#
# Indices 1 2 3 4 5 6 
#
# 1 0.025322 -0.012643 -0.027146 0.000000 0.000000 0.000000
# 2 -0.012643 0.025636 -0.013194 0.000000 0.000000 0.000000
# 3 -0.027146 -0.013194 0.111976 0.000000 0.000000 0.000000
# 4 0.000000 0.000000 0.000000 0.132618 0.000000 0.000000
# 5 0.000000 0.000000 0.000000 0.000000 0.039911 0.000000
# 6 0.000000 0.000000 0.000000 0.000000 0.000000 0.038460
#
#
# Mechanical properties :
#
#
# Convention : Reuss Voigt Hill
#
# Bulk Modulus (GPa) = 17.55362 58.99436 38.27399
# Shear Modulus (GPa) = 10.02251 17.57478 13.79864
#
# Velocity S-wave (km/s) = 2.42674 3.21351 2.84743
# Velocity P-wave (km/s) = 4.26219 6.95938 5.77058
#
# Compressibility (1/GPa) = 0.05696832
#
# Stress axis : x y z
#
# Youngs Moduli (GPa) = 39.49183 39.00795 8.93049
#
# Poissons Ratio (x) = 0.49316 0.24242
# Poissons Ratio (y) = 0.49928 0.11783
# Poissons Ratio (z) = 1.07203 0.51468
#
# Static dielectric constant tensor:
#      x y z
#    x 1.589890 0.000000 0.000000 
#    y 0.000000 1.567280 0.000000 
#    z 0.000000 0.000000 1.582570 
# 
# From -- ./inp_files/7066.got.cif
#   From: 2010.05.17/outbox.cif.g08.bks.cpg/sg47_4_cif.got.tgz:7066.got - 2010.06.03 20:15:42.
