data_PCOD9383450
_publ_section_title
;
Structure prediction by ZEFSAII (Michael W. Deem and Ramdas Pophale) SiO2 
 PCOD9383450
Probable space group: P M M M
;
_chemical_formula_sum "Si O2"
_cell_formula_units_Z 52
_cell_length_a 12.196376
_cell_length_b 9.114965
_cell_length_c 28.981828
_cell_angle_alpha 90.000000
_cell_angle_beta 90.000000
_cell_angle_gamma 90.000000
_cell_volume 3221.896498
_symmetry_space_group_name_H-M "P M M M"
_symmetry_group_IT_number 47
_symmetry_cell_setting 'orthorhombic'
loop_
_space_group_symop_operation_xyz
x,y,z
-x,-y,z
x,-y,-z
-x,y,-z
-x,-y,-z
x,y,-z
-x,y,z
x,-y,z
loop_
_atom_site_type_symbol
_atom_site_label
_atom_site_fract_x
_atom_site_fract_y
_atom_site_fract_z
Si Si1 0.875036 0.822100 0.000000
Si Si2 0.872614 0.176371 0.825848
Si Si3 0.867031 0.669408 0.268475
Si Si4 0.725150 0.822050 0.913036
Si Si5 0.131036 0.673712 0.370867
Si Si6 0.500000 0.333246 0.555859
Si Si7 0.500000 0.676266 0.944796
Si Si8 0.724449 0.175054 0.553786
O O1 0.806468 0.780706 0.954917
O O2 0.000000 0.767488 0.000000
O O3 0.880606 0.000000 0.000000
O O4 0.836562 0.238026 0.776251
O O5 0.788655 0.219580 0.866134
O O6 0.000000 0.223257 0.834880
O O7 0.874115 0.000000 0.824361
O O8 0.833246 0.500000 0.262753
O O9 0.831189 0.720770 0.319384
O O10 0.000000 0.670797 0.269932
O O11 0.608837 0.745805 0.922093
O O12 0.711249 0.000000 0.913589
O O13 0.155712 0.500000 0.375514
O O14 0.185346 0.762989 0.411792
O O15 0.000000 0.689462 0.372867
O O16 0.500000 0.500000 0.573185
O O17 0.500000 0.338609 0.500000
O O18 0.609492 0.247163 0.568506
O O19 0.500000 0.500000 0.939832
O O20 0.500000 0.710137 0.000000
O O21 0.745715 0.214958 0.500000
O O22 0.717366 0.000000 0.556157
#
# Coordination Sequence:
#
# PCOD9383450 Si02
#       8
#     4   8   8   8   8   4   4   8
#     4   9  16  27  47  74 100 125 154 189 228 273
#     4   9  17  29  48  77 105 124 151 196 246 292
#     4   8  15  29  48  69  95 129 165 198 236 287
#     4  10  19  32  52  74  97 128 164 197 233 282
#     4   9  18  32  49  70  97 131 171 207 239 286
#     4   9  17  31  51  70  89 120 163 203 238 282
#     4  11  23  37  51  68  95 130 171 211 241 277
#     4  10  20  32  47  70 100 130 161 202 252 301
#
# _framework density 16.139562999999999
#
# number of rings (size 3 to 8) (size 9 to 14) (size 15 to 20)
#    0.000    2.692    0.769    2.308    0.000    5.846 
#    0.000    3.077    0.000    2.769    0.000    4.308 
#    0.000    0.000    0.000    0.000    0.000    0.000 
#
# Total GULP energy -289685.600653 kJ/mol
# GULP energy per Si atom -5570.876936 kJ/mol
# Density = 1.610283 g / cm^3
# Si number density = 16.139563 Si / 1000 Ang^3
#
#
#
# Elastic Constant Matrix: (Units=GPa)
#
#
# Indices 1 2 3 4 5 6 
#
# 1 83.8401 40.8509 61.0330 0.0000 0.0000 0.0000
# 2 40.8509 43.0070 52.9401 0.0000 0.0000 0.0000
# 3 61.0330 52.9401 131.6359 0.0000 0.0000 0.0000
# 4 0.0000 0.0000 0.0000 27.0262 0.0000 0.0000
# 5 0.0000 0.0000 0.0000 0.0000 -0.2127 0.0000
# 6 0.0000 0.0000 0.0000 0.0000 0.0000 19.2968
#
#
#
# Elastic Compliance Matrix: (Units=1/GPa)
#
#
# Indices 1 2 3 4 5 6 
#
# 1 0.023095 -0.017341 -0.003734 0.000000 0.000000 0.000000
# 2 -0.017341 0.059069 -0.015716 0.000000 0.000000 0.000000
# 3 -0.003734 -0.015716 0.015648 0.000000 0.000000 0.000000
# 4 0.000000 0.000000 0.000000 0.037001 0.000000 0.000000
# 5 0.000000 0.000000 0.000000 0.000000 -4.700553 0.000000
# 6 0.000000 0.000000 0.000000 0.000000 0.000000 0.051822
#
#
# Mechanical properties :
#
#
# Convention : Reuss Voigt Hill
#
# Bulk Modulus (GPa) = 41.26893 63.12568 52.19731
# Shear Modulus (GPa) = -1.12809 16.13265 7.50228
#
# Velocity S-wave (km/s) = -0.83695 3.16503 2.15835
# Velocity P-wave (km/s) = 4.96906 7.24940 6.21472
#
# Compressibility (1/GPa) = 0.02423130
#
# Stress axis : x y z
#
# Youngs Moduli (GPa) = 43.29956 16.92942 63.90410
#
# Poissons Ratio (x) = 0.29357 0.23863
# Poissons Ratio (y) = 0.75084 1.00430
# Poissons Ratio (z) = 0.16169 0.26606
#
# Static dielectric constant tensor:
#      x y z
#    x 1.526350 0.000000 0.000000 
#    y 0.000000 1.539880 0.000000 
#    z 0.000000 0.000000 1.541530 
# 
# From -- ./inp_files/34564.got.cif
#   From: 2010.05.17/outbox.cif.g08.bks.cpg/sg47_18_cif.got.tgz:34564.got - 2010.06.03 20:15:42.
