data_PCOD9383606
_publ_section_title
;
Structure prediction by ZEFSAII (Michael W. Deem and Ramdas Pophale) SiO2 
 PCOD9383606
Probable space group: P M M M
;
_chemical_formula_sum "Si O2"
_cell_formula_units_Z 52
_cell_length_a 20.685590
_cell_length_b 15.483311
_cell_length_c 8.684166
_cell_angle_alpha 90.000000
_cell_angle_beta 90.000000
_cell_angle_gamma 90.000000
_cell_volume 2781.377046
_symmetry_space_group_name_H-M "P M M M"
_symmetry_group_IT_number 47
_symmetry_cell_setting 'orthorhombic'
loop_
_space_group_symop_operation_xyz
x,y,z
-x,-y,z
x,-y,-z
-x,y,-z
-x,-y,-z
x,y,-z
-x,y,z
x,-y,z
loop_
_atom_site_type_symbol
_atom_site_label
_atom_site_fract_x
_atom_site_fract_y
_atom_site_fract_z
Si Si1 0.074428 0.151267 0.824311
Si Si2 0.795414 0.094117 0.315503
Si Si3 0.124302 0.348476 0.169247
Si Si4 0.425909 0.901861 0.687638
Si Si5 0.930488 0.398458 0.500000
Si Si6 0.313306 0.225706 0.314307
Si Si7 0.725099 0.598881 0.822995
O O1 0.129852 0.104392 0.728648
O O2 0.099765 0.249930 0.831148
O O3 0.000000 0.147088 0.768932
O O4 0.075088 0.118228 0.000000
O O5 0.790521 0.095264 0.500000
O O6 0.750425 0.172684 0.258873
O O7 0.771748 0.000000 0.261248
O O8 0.101211 0.379653 0.335929
O O9 0.200417 0.369094 0.174050
O O10 0.101761 0.384328 0.000000
O O11 0.424898 0.901551 0.500000
O O12 0.500000 0.885092 0.734764
O O13 0.374882 0.830186 0.738709
O O14 0.408432 0.000000 0.734411
O O15 0.937393 0.500000 0.500000
O O16 0.000000 0.352925 0.500000
O O17 0.312254 0.224959 0.500000
O O18 0.312270 0.324713 0.262510
O O19 0.721879 0.500000 0.762046
O O20 0.703191 0.596451 0.000000
#
# Coordination Sequence:
#
# PCOD9383606 Si02
#       7
#     8   8   8   8   4   8   8
#     4  10  21  36  54  74  97 132 178 226 278 336
#     4  10  21  35  51  76 108 139 173 219 275 331
#     4  10  21  39  57  76 105 141 183 235 292 347
#     4   8  14  27  51  84 120 154 184 217 264 324
#     4  11  24  36  52  80 105 135 182 231 291 363
#     4  10  19  32  54  84 112 141 179 226 274 324
#     4  10  21  36  55  78 105 140 182 228 281 339
#
# _framework density 18.695775000000001
#
# number of rings (size 3 to 8) (size 9 to 14) (size 15 to 20)
#    0.000    2.231    1.538    1.846    2.154    4.923 
#    0.000    2.308    0.000    2.308    0.000    4.308 
#    0.000    0.000    0.000    0.000    0.000    0.000 
#
# Total GULP energy -289499.313372 kJ/mol
# GULP energy per Si atom -5567.294488 kJ/mol
# Density = 1.865322 g / cm^3
# Si number density = 18.695775 Si / 1000 Ang^3
#
#
#
# Elastic Constant Matrix: (Units=GPa)
#
#
# Indices 1 2 3 4 5 6 
#
# 1 98.1751 62.0266 20.5585 0.0000 0.0000 0.0000
# 2 62.0266 130.0224 29.8188 0.0000 0.0000 0.0000
# 3 20.5585 29.8188 63.7755 0.0000 0.0000 0.0000
# 4 0.0000 0.0000 0.0000 18.5607 0.0000 0.0000
# 5 0.0000 0.0000 0.0000 0.0000 10.2841 0.0000
# 6 0.0000 0.0000 0.0000 0.0000 0.0000 26.9853
#
#
#
# Elastic Compliance Matrix: (Units=1/GPa)
#
#
# Indices 1 2 3 4 5 6 
#
# 1 0.014732 -0.006652 -0.001639 0.000000 0.000000 0.000000
# 2 -0.006652 0.011618 -0.003288 0.000000 0.000000 0.000000
# 3 -0.001639 -0.003288 0.017746 0.000000 0.000000 0.000000
# 4 0.000000 0.000000 0.000000 0.053877 0.000000 0.000000
# 5 0.000000 0.000000 0.000000 0.000000 0.097238 0.000000
# 6 0.000000 0.000000 0.000000 0.000000 0.000000 0.037057
#
#
# Mechanical properties :
#
#
# Convention : Reuss Voigt Hill
#
# Bulk Modulus (GPa) = 47.75906 57.42007 52.58956
# Shear Modulus (GPa) = 19.05456 23.13729 21.09593
#
# Velocity S-wave (km/s) = 3.19594 3.52172 3.36278
# Velocity P-wave (km/s) = 6.26255 6.87868 6.57783
#
# Compressibility (1/GPa) = 0.02093844
#
# Stress axis : x y z
#
# Youngs Moduli (GPa) = 67.88110 86.07147 56.35210
#
# Poissons Ratio (x) = 0.57253 0.09235
# Poissons Ratio (y) = 0.45153 0.18528
# Poissons Ratio (z) = 0.11124 0.28300
#
# Static dielectric constant tensor:
#      x y z
#    x 1.671390 0.000000 0.000000 
#    y 0.000000 1.675020 0.000000 
#    z 0.000000 0.000000 1.580470 
# 
# From -- ./inp_files/11040.got.cif
#   From: 2010.05.17/outbox.cif.g08.bks.cpg/sg47_6_cif.got.tgz:11040.got - 2010.06.03 20:15:42.
