data_PCOD9383119
_publ_section_title
;
Structure prediction by ZEFSAII (Michael W. Deem and Ramdas Pophale) SiO2 
 PCOD9383119
Probable space group: P M M M
;
_chemical_formula_sum "Si O2"
_cell_formula_units_Z 32
_cell_length_a 8.495175
_cell_length_b 7.309949
_cell_length_c 22.273491
_cell_angle_alpha 90.000000
_cell_angle_beta 90.000000
_cell_angle_gamma 90.000000
_cell_volume 1383.168110
_symmetry_space_group_name_H-M "P M M M"
_symmetry_group_IT_number 47
_symmetry_cell_setting 'orthorhombic'
loop_
_space_group_symop_operation_xyz
x,y,z
-x,-y,z
x,-y,-z
-x,y,-z
-x,-y,-z
x,y,-z
-x,y,z
x,-y,z
loop_
_atom_site_type_symbol
_atom_site_label
_atom_site_fract_x
_atom_site_fract_y
_atom_site_fract_z
Si Si1 0.823696 0.221034 0.248622
Si Si2 0.818200 0.222899 0.500000
Si Si3 0.000000 0.278324 0.070415
Si Si4 0.326672 0.711912 0.873499
Si Si5 0.319970 0.777192 0.626899
O O1 0.701967 0.281228 0.198022
O O2 0.780605 0.281247 0.315713
O O3 0.000000 0.281839 0.232383
O O4 0.822175 0.000000 0.248529
O O5 0.739186 0.284068 0.561859
O O6 0.000000 0.274568 0.500000
O O7 0.810327 0.000000 0.500000
O O8 0.835320 0.210247 0.098805
O O9 0.000000 0.500000 0.078510
O O10 0.000000 0.239012 0.000000
O O11 0.500000 0.789894 0.887846
O O12 0.331485 0.500000 0.892611
O O13 0.500000 0.723906 0.635972
O O14 0.313680 0.000000 0.626054
#
# Coordination Sequence:
#
# PCOD9383119 Si02
#       5
#     8   4   4   8   8
#     4  10  19  31  49  73 101 134 170 208 252 300
#     4   9  15  23  35  53  82 119 158 201 248 297
#     4   9  18  34  55  79 107 134 163 204 248 291
#     4  10  20  34  54  79 105 134 168 205 248 297
#     4   9  16  25  38  59  88 122 160 203 250 297
#
# _framework density 23.135292
#
# number of rings (size 3 to 8) (size 9 to 14) (size 15 to 20)
#    0.000    2.500    1.250    1.875    0.000    6.500 
#    0.000    2.500    0.000    1.500    0.000    2.625 
#    0.000    7.000    0.000    0.000    0.000    0.000 
#
# Total GULP energy -178787.575181 kJ/mol
# GULP energy per Si atom -5587.111724 kJ/mol
# Density = 2.308263 g / cm^3
# Si number density = 23.135292 Si / 1000 Ang^3
#
#
#
# Elastic Constant Matrix: (Units=GPa)
#
#
# Indices 1 2 3 4 5 6 
#
# 1 196.5061 9.4090 63.8092 0.0000 0.0000 0.0000
# 2 9.4090 95.0570 -4.0592 0.0000 0.0000 0.0000
# 3 63.8092 -4.0592 111.8406 0.0000 0.0000 0.0000
# 4 0.0000 0.0000 0.0000 -2.7938 0.0000 0.0000
# 5 0.0000 0.0000 0.0000 0.0000 16.3090 0.0000
# 6 0.0000 0.0000 0.0000 0.0000 0.0000 -4.2761
#
#
#
# Elastic Compliance Matrix: (Units=1/GPa)
#
#
# Indices 1 2 3 4 5 6 
#
# 1 0.006303 -0.000779 -0.003624 0.000000 0.000000 0.000000
# 2 -0.000779 0.010633 0.000830 0.000000 0.000000 0.000000
# 3 -0.003624 0.000830 0.011039 0.000000 0.000000 0.000000
# 4 0.000000 0.000000 0.000000 -0.357940 0.000000 0.000000
# 5 0.000000 0.000000 0.000000 0.000000 0.061316 0.000000
# 6 0.000000 0.000000 0.000000 0.000000 0.000000 -0.233857
#
#
# Mechanical properties :
#
#
# Convention : Reuss Voigt Hill
#
# Bulk Modulus (GPa) = 48.00981 60.19130 54.10056
# Shear Modulus (GPa) = -10.23715 24.13080 6.94683
#
# Velocity S-wave (km/s) = -2.10583 3.23310 1.73471
# Velocity P-wave (km/s) = 3.85800 6.32541 5.23903
#
# Compressibility (1/GPa) = 0.02082908
#
# Stress axis : x y z
#
# Youngs Moduli (GPa) = 158.65210 94.05099 90.58558
#
# Poissons Ratio (x) = 0.07323 0.32832
# Poissons Ratio (y) = 0.12354 -0.07520
# Poissons Ratio (z) = 0.57502 -0.07808
#
# Static dielectric constant tensor:
#      x y z
#    x 1.841800 0.000000 0.000000 
#    y 0.000000 1.944870 0.000000 
#    z 0.000000 0.000000 1.821250 
# 
# From -- ./inp_files/1281.got.cif
#   From: 2010.05.17/outbox.cif.g08.bks.cpg/sg47_1_cif.got.tgz:1281.got - 2010.06.03 20:15:42.
