data_PCOD9383301
_publ_section_title
;
Structure prediction by ZEFSAII (Michael W. Deem and Ramdas Pophale) SiO2 
 PCOD9383301
Probable space group: P M M M
;
_chemical_formula_sum "Si O2"
_cell_formula_units_Z 52
_cell_length_a 8.822583
_cell_length_b 16.917359
_cell_length_c 21.182549
_cell_angle_alpha 90.000000
_cell_angle_beta 90.000000
_cell_angle_gamma 90.000000
_cell_volume 3161.597197
_symmetry_space_group_name_H-M "P M M M"
_symmetry_group_IT_number 47
_symmetry_cell_setting 'orthorhombic'
loop_
_space_group_symop_operation_xyz
x,y,z
-x,-y,z
x,-y,-z
-x,y,-z
-x,-y,-z
x,y,-z
-x,y,z
x,-y,z
loop_
_atom_site_type_symbol
_atom_site_label
_atom_site_fract_x
_atom_site_fract_y
_atom_site_fract_z
Si Si1 0.818042 0.351942 0.869414
Si Si2 0.682865 0.089727 0.695679
Si Si3 0.323202 0.500000 0.646164
Si Si4 0.317341 0.181917 0.570685
Si Si5 0.681781 0.593524 0.000000
Si Si6 0.678101 0.500000 0.202318
Si Si7 0.182152 0.762433 0.761914
Si Si8 0.181349 0.331838 0.635475
O O1 0.745714 0.364374 0.937738
O O2 0.759353 0.424425 0.827143
O O3 0.774616 0.274215 0.829336
O O4 0.000000 0.354714 0.874316
O O5 0.500000 0.090949 0.698411
O O6 0.727801 0.121266 0.625972
O O7 0.746393 0.153737 0.744534
O O8 0.734200 0.000000 0.706010
O O9 0.500000 0.500000 0.629409
O O10 0.309990 0.500000 0.722393
O O11 0.246790 0.418730 0.624096
O O12 0.275030 0.157006 0.500000
O O13 0.500000 0.189314 0.573248
O O14 0.245490 0.266329 0.587850
O O15 0.726942 0.500000 0.000000
O O16 0.500000 0.595862 0.000000
O O17 0.500000 0.500000 0.184700
O O18 0.225768 0.701512 0.705324
O O19 0.000000 0.768868 0.759886
O O20 0.000000 0.334225 0.632689
#
# Coordination Sequence:
#
# PCOD9383301 Si02
#       8
#     8   8   4   8   4   4   8   8
#     4  11  21  34  51  71  99 138 178 210 247 294
#     4   9  18  32  52  79 105 129 160 198 244 299
#     4  11  21  31  47  71  97 127 166 209 256 299
#     4   9  18  33  51  71  99 133 164 198 244 296
#     4  11  23  35  47  71 105 140 179 216 252 291
#     4  11  21  30  46  72 100 131 167 210 254 295
#     4   9  19  33  50  73  99 129 165 204 248 297
#     4  10  19  32  49  70  96 126 165 210 251 292
#
# _framework density 16.447382000000001
#
# number of rings (size 3 to 8) (size 9 to 14) (size 15 to 20)
#    0.000    2.077    2.308    1.615    0.000    3.692 
#    0.000    1.923    0.000    2.308    0.000    4.846 
#    0.000    4.308    0.000    0.000    0.000    0.000 
#
# Total GULP energy -290105.200351 kJ/mol
# GULP energy per Si atom -5578.946161 kJ/mol
# Density = 1.640995 g / cm^3
# Si number density = 16.447382 Si / 1000 Ang^3
#
#
#
# Elastic Constant Matrix: (Units=GPa)
#
#
# Indices 1 2 3 4 5 6 
#
# 1 29.7321 31.0898 28.1711 0.0000 0.0000 0.0000
# 2 31.0898 140.1706 49.4705 0.0000 0.0000 0.0000
# 3 28.1711 49.4705 87.4139 0.0000 0.0000 0.0000
# 4 0.0000 0.0000 0.0000 14.0413 0.0000 0.0000
# 5 0.0000 0.0000 0.0000 0.0000 21.9440 0.0000
# 6 0.0000 0.0000 0.0000 0.0000 0.0000 22.8709
#
#
#
# Elastic Compliance Matrix: (Units=1/GPa)
#
#
# Indices 1 2 3 4 5 6 
#
# 1 0.053740 -0.007257 -0.013212 0.000000 0.000000 0.000000
# 2 -0.007257 0.009895 -0.003261 0.000000 0.000000 0.000000
# 3 -0.013212 -0.003261 0.017543 0.000000 0.000000 0.000000
# 4 0.000000 0.000000 0.000000 0.071219 0.000000 0.000000
# 5 0.000000 0.000000 0.000000 0.000000 0.045571 0.000000
# 6 0.000000 0.000000 0.000000 0.000000 0.000000 0.043724
#
#
# Mechanical properties :
#
#
# Convention : Reuss Voigt Hill
#
# Bulk Modulus (GPa) = 29.65744 52.75324 41.20534
# Shear Modulus (GPa) = 16.64501 21.67692 19.16096
#
# Velocity S-wave (km/s) = 3.18467 3.63430 3.41689
# Velocity P-wave (km/s) = 5.62083 7.05368 6.37762
#
# Compressibility (1/GPa) = 0.03371835
#
# Stress axis : x y z
#
# Youngs Moduli (GPa) = 18.60803 101.06504 57.00169
#
# Poissons Ratio (x) = 0.73339 0.75312
# Poissons Ratio (y) = 0.13503 0.18589
# Poissons Ratio (z) = 0.24585 0.32958
#
# Static dielectric constant tensor:
#      x y z
#    x 1.551400 0.000000 0.000000 
#    y 0.000000 1.535490 0.000000 
#    z 0.000000 0.000000 1.557470 
# 
# From -- ./inp_files/29646.got.cif
#   From: 2010.05.17/outbox.cif.g08.bks.cpg/sg47_15_cif.got.tgz:29646.got - 2010.06.03 20:15:42.
