data_PCOD9383103
_publ_section_title
;
Structure prediction by ZEFSAII (Michael W. Deem and Ramdas Pophale) SiO2 
 PCOD9383103
Probable space group: P M M M
;
_chemical_formula_sum "Si O2"
_cell_formula_units_Z 52
_cell_length_a 20.092063
_cell_length_b 7.374378
_cell_length_c 15.618299
_cell_angle_alpha 90.000000
_cell_angle_beta 90.000000
_cell_angle_gamma 90.000000
_cell_volume 2314.108189
_symmetry_space_group_name_H-M "P M M M"
_symmetry_group_IT_number 47
_symmetry_cell_setting 'orthorhombic'
loop_
_space_group_symop_operation_xyz
x,y,z
-x,-y,z
x,-y,-z
-x,y,-z
-x,-y,-z
x,y,-z
-x,y,z
x,-y,z
loop_
_atom_site_type_symbol
_atom_site_label
_atom_site_fract_x
_atom_site_fract_y
_atom_site_fract_z
Si Si1 0.862926 0.285816 0.324170
Si Si2 0.183944 0.280519 0.858847
Si Si3 0.377226 0.221657 0.278102
Si Si4 0.923001 0.279353 0.000000
Si Si5 0.500000 0.220827 0.399804
Si Si6 0.336780 0.212283 0.905516
Si Si7 0.000000 0.722496 0.401097
Si Si8 0.269475 0.783055 0.591807
O O1 0.871869 0.500000 0.310303
O O2 0.832578 0.213044 0.236128
O O3 0.933747 0.214418 0.353483
O O4 0.807478 0.259999 0.396142
O O5 0.186093 0.500000 0.860100
O O6 0.257038 0.222727 0.889607
O O7 0.122615 0.225155 0.919432
O O8 0.436760 0.274777 0.341787
O O9 0.373376 0.285235 0.179733
O O10 0.310747 0.283314 0.327171
O O11 0.378234 0.000000 0.274751
O O12 0.925675 0.500000 0.000000
O O13 0.000000 0.217724 0.000000
O O14 0.500000 0.280344 0.500000
O O15 0.500000 0.000000 0.403555
O O16 0.354118 0.000000 0.909163
O O17 0.351087 0.290079 0.000000
O O18 0.000000 0.500000 0.400829
O O19 0.000000 0.777117 0.500000
O O20 0.294582 0.716036 0.500000
O O21 0.276911 0.000000 0.591456
#
# Coordination Sequence:
#
# PCOD9383103 Si02
#       8
#     8   8   8   4   4   8   4   8
#     4  10  20  32  49  71  95 125 164 205 248 296
#     4  10  19  31  49  73  97 125 164 207 249 295
#     4   9  17  30  47  72 104 133 166 206 246 292
#     4   9  18  30  47  71  99 126 159 210 264 303
#     4   9  16  28  49  75 104 139 173 205 246 298
#     4  10  19  32  51  73 100 134 165 198 250 302
#     4   9  18  32  47  64  92 127 160 201 251 299
#     4  10  19  31  49  72  98 128 162 203 249 293
#
# _framework density 22.470860999999999
#
# number of rings (size 3 to 8) (size 9 to 14) (size 15 to 20)
#    0.000    2.385    2.308    0.923    1.077    2.769 
#    0.000    0.769    0.000    4.615    0.000    2.154 
#    0.000    4.923    0.000    0.000    0.000    0.000 
#
# Total GULP energy -290307.014336 kJ/mol
# GULP energy per Si atom -5582.827199 kJ/mol
# Density = 2.241972 g / cm^3
# Si number density = 22.470861 Si / 1000 Ang^3
#
#
#
# Elastic Constant Matrix: (Units=GPa)
#
#
# Indices 1 2 3 4 5 6 
#
# 1 112.5542 -5.4458 72.6898 0.0000 0.0000 0.0000
# 2 -5.4458 79.4410 1.1802 0.0000 0.0000 0.0000
# 3 72.6898 1.1802 193.9557 0.0000 0.0000 0.0000
# 4 0.0000 0.0000 0.0000 0.7239 0.0000 0.0000
# 5 0.0000 0.0000 0.0000 0.0000 38.6344 0.0000
# 6 0.0000 0.0000 0.0000 0.0000 0.0000 39.4940
#
#
#
# Elastic Compliance Matrix: (Units=1/GPa)
#
#
# Indices 1 2 3 4 5 6 
#
# 1 0.011782 0.000873 -0.004421 0.000000 0.000000 0.000000
# 2 0.000873 0.012654 -0.000404 0.000000 0.000000 0.000000
# 3 -0.004421 -0.000404 0.006815 0.000000 0.000000 0.000000
# 4 0.000000 0.000000 0.000000 1.381340 0.000000 0.000000
# 5 0.000000 0.000000 0.000000 0.000000 0.025884 0.000000
# 6 0.000000 0.000000 0.000000 0.000000 0.000000 0.025320
#
#
# Mechanical properties :
#
#
# Convention : Reuss Voigt Hill
#
# Bulk Modulus (GPa) = 42.83168 58.08881 50.46024
# Shear Modulus (GPa) = 3.37956 36.93893 20.15925
#
# Velocity S-wave (km/s) = 1.22770 4.05885 2.99846
# Velocity P-wave (km/s) = 4.59478 6.91900 5.87301
#
# Compressibility (1/GPa) = 0.02334721
#
# Stress axis : x y z
#
# Youngs Moduli (GPa) = 84.87542 79.02742 146.73242
#
# Poissons Ratio (x) = -0.06902 0.64869
# Poissons Ratio (y) = -0.07413 0.05932
# Poissons Ratio (z) = 0.37523 0.03195
#
# Static dielectric constant tensor:
#      x y z
#    x 1.784250 0.000000 0.000000 
#    y 0.000000 1.879700 0.000000 
#    z 0.000000 0.000000 1.842570 
# 
# From -- ./inp_files/24650.got.cif
#   From: 2010.05.17/outbox.cif.g08.bks.cpg/sg47_13_cif.got.tgz:24650.got - 2010.06.03 20:15:42.
