data_PCOD9383541
_publ_section_title
;
Structure prediction by ZEFSAII (Michael W. Deem and Ramdas Pophale) SiO2 
 PCOD9383541
Probable space group: P M M M
;
_chemical_formula_sum "Si O2"
_cell_formula_units_Z 48
_cell_length_a 21.269139
_cell_length_b 14.621430
_cell_length_c 8.059471
_cell_angle_alpha 90.000000
_cell_angle_beta 90.000000
_cell_angle_gamma 90.000000
_cell_volume 2506.376419
_symmetry_space_group_name_H-M "P M M M"
_symmetry_group_IT_number 47
_symmetry_cell_setting 'orthorhombic'
loop_
_space_group_symop_operation_xyz
x,y,z
-x,-y,z
x,-y,-z
-x,y,-z
-x,-y,-z
x,y,-z
-x,y,z
x,-y,z
loop_
_atom_site_type_symbol
_atom_site_label
_atom_site_fract_x
_atom_site_fract_y
_atom_site_fract_z
Si Si1 0.749450 0.894461 0.201029
Si Si2 0.500000 0.896528 0.196467
Si Si3 0.320419 0.397277 0.702683
Si Si4 0.125460 0.791394 0.801049
Si Si5 0.000000 0.106193 0.203465
Si Si6 0.174875 0.397366 0.299962
Si Si7 0.623923 0.210986 0.302944
O O1 0.811260 0.841010 0.261578
O O2 0.686025 0.846524 0.259920
O O3 0.751522 0.000000 0.253365
O O4 0.749517 0.892495 0.000000
O O5 0.437822 0.840515 0.242605
O O6 0.500000 0.000000 0.268777
O O7 0.500000 0.905565 0.000000
O O8 0.320850 0.396983 0.500000
O O9 0.338240 0.500000 0.755377
O O10 0.247599 0.380883 0.752694
O O11 0.363574 0.314032 0.761945
O O12 0.062623 0.841127 0.740102
O O13 0.131568 0.684652 0.760300
O O14 0.125514 0.800994 0.000000
O O15 0.000000 0.000000 0.253677
O O16 0.000000 0.106894 0.000000
O O17 0.174660 0.396752 0.500000
O O18 0.157307 0.500000 0.245116
O O19 0.618771 0.217543 0.500000
#
# Coordination Sequence:
#
# PCOD9383541 Si02
#       7
#     8   4   8   8   4   8   8
#     4  10  20  33  50  75 107 139 172 216 272 326
#     4  11  25  43  58  73 106 152 183 211 262 321
#     4   8  15  30  53  80 108 137 169 208 260 317
#     4  10  19  32  53  79 105 137 182 229 268 312
#     4   9  18  34  54  75 104 146 189 225 268 323
#     4   9  17  32  54  78 107 142 175 212 266 328
#     4  11  21  35  58  84 106 134 178 225 262 305
#
# _framework density 19.151153999999998
#
# number of rings (size 3 to 8) (size 9 to 14) (size 15 to 20)
#    0.000    2.333    1.667    2.750    0.000    5.333 
#    0.000    1.250    0.000    9.000    0.000    0.000 
#    0.000    0.000    0.000    0.000    0.000    0.000 
#
# Total GULP energy -267856.578822 kJ/mol
# GULP energy per Si atom -5580.345392 kJ/mol
# Density = 1.910756 g / cm^3
# Si number density = 19.151154 Si / 1000 Ang^3
#
#
#
# Elastic Constant Matrix: (Units=GPa)
#
#
# Indices 1 2 3 4 5 6 
#
# 1 163.7005 110.2795 14.2934 0.0000 0.0000 0.0000
# 2 110.2795 199.3777 12.5914 0.0000 0.0000 0.0000
# 3 14.2934 12.5914 14.3081 0.0000 0.0000 0.0000
# 4 0.0000 0.0000 0.0000 23.7631 0.0000 0.0000
# 5 0.0000 0.0000 0.0000 0.0000 -10.9970 0.0000
# 6 0.0000 0.0000 0.0000 0.0000 0.0000 36.2957
#
#
#
# Elastic Compliance Matrix: (Units=1/GPa)
#
#
# Indices 1 2 3 4 5 6 
#
# 1 0.010129 -0.005256 -0.005494 0.000000 0.000000 0.000000
# 2 -0.005256 0.008038 -0.001823 0.000000 0.000000 0.000000
# 3 -0.005494 -0.001823 0.076983 0.000000 0.000000 0.000000
# 4 0.000000 0.000000 0.000000 0.042082 0.000000 0.000000
# 5 0.000000 0.000000 0.000000 0.000000 -0.090934 0.000000
# 6 0.000000 0.000000 0.000000 0.000000 0.000000 0.027551
#
#
# Mechanical properties :
#
#
# Convention : Reuss Voigt Hill
#
# Bulk Modulus (GPa) = 14.28470 72.41277 43.34874
# Shear Modulus (GPa) = 40.87374 25.82717 33.35046
#
# Velocity S-wave (km/s) = 4.62483 3.67631 4.17758
# Velocity P-wave (km/s) = 5.99949 7.47754 6.77892
#
# Compressibility (1/GPa) = 0.07000495
#
# Stress axis : x y z
#
# Youngs Moduli (GPa) = 98.72797 124.41415 12.98991
#
# Poissons Ratio (x) = 0.65386 0.07136
# Poissons Ratio (y) = 0.51887 0.02368
# Poissons Ratio (z) = 0.54236 0.22683
#
# Static dielectric constant tensor:
#      x y z
#    x 1.474330 0.000000 0.000000 
#    y 0.000000 1.687480 0.000000 
#    z 0.000000 0.000000 1.689130 
# 
# From -- ./inp_files/9215.got.cif
#   From: 2010.05.17/outbox.cif.g08.bks.cpg/sg47_5_cif.got.tgz:9215.got - 2010.06.03 20:15:42.
