data_PCOD9383464
_publ_section_title
;
Structure prediction by ZEFSAII (Michael W. Deem and Ramdas Pophale) SiO2 
 PCOD9383464
Probable space group: P M M M
;
_chemical_formula_sum "Si O2"
_cell_formula_units_Z 32
_cell_length_a 7.792311
_cell_length_b 25.749571
_cell_length_c 7.662565
_cell_angle_alpha 90.000000
_cell_angle_beta 90.000000
_cell_angle_gamma 90.000000
_cell_volume 1537.483440
_symmetry_space_group_name_H-M "P M M M"
_symmetry_group_IT_number 47
_symmetry_cell_setting 'orthorhombic'
loop_
_space_group_symop_operation_xyz
x,y,z
-x,-y,z
x,-y,-z
-x,y,-z
-x,-y,-z
x,y,-z
-x,y,z
x,-y,z
loop_
_atom_site_type_symbol
_atom_site_label
_atom_site_fract_x
_atom_site_fract_y
_atom_site_fract_z
Si Si1 0.702133 0.055793 0.712468
Si Si2 0.293590 0.831738 0.698700
Si Si3 0.295135 0.633146 0.000000
Si Si4 0.201932 0.753044 0.000000
Si Si5 0.290366 0.441473 0.300756
O O1 0.708847 0.056649 0.500000
O O2 0.500000 0.054758 0.760853
O O3 0.773123 0.111966 0.765482
O O4 0.776553 0.000000 0.769091
O O5 0.232071 0.822646 0.500000
O O6 0.500000 0.837003 0.689567
O O7 0.256820 0.785612 0.830388
O O8 0.265983 0.694230 0.000000
O O9 0.228748 0.602714 0.830104
O O10 0.500000 0.625693 0.000000
O O11 0.000000 0.750654 0.000000
O O12 0.234527 0.433397 0.500000
O O13 0.500000 0.440679 0.302126
O O14 0.241281 0.500000 0.245636
#
# Coordination Sequence:
#
# PCOD9383464 Si02
#       5
#     8   8   4   4   8
#     4   7  10  20  44  78 106 123 149 201 268 325
#     4   9  18  35  59  81 101 131 174 223 269 314
#     4  10  19  32  52  75  99 132 175 217 251 290
#     4  12  26  39  50  70 106 149 187 222 261 308
#     4   8  14  26  48  80 110 129 152 197 257 310
#
# _framework density 20.813230000000001
#
# number of rings (size 3 to 8) (size 9 to 14) (size 15 to 20)
#    0.000    3.250    0.000    4.500    0.000    3.000 
#    0.000    3.125    0.000    6.000    0.000    5.250 
#    0.000    0.000    0.000    0.000    0.000    0.000 
#
# Total GULP energy -178360.019193 kJ/mol
# GULP energy per Si atom -5573.750600 kJ/mol
# Density = 2.076586 g / cm^3
# Si number density = 20.813230 Si / 1000 Ang^3
#
#
#
# Elastic Constant Matrix: (Units=GPa)
#
#
# Indices 1 2 3 4 5 6 
#
# 1 21.6896 -7.9777 3.3605 0.0000 0.0000 0.0000
# 2 -7.9777 214.0246 106.5555 0.0000 0.0000 0.0000
# 3 3.3605 106.5555 108.4967 0.0000 0.0000 0.0000
# 4 0.0000 0.0000 0.0000 -1.5297 0.0000 0.0000
# 5 0.0000 0.0000 0.0000 0.0000 13.0629 0.0000
# 6 0.0000 0.0000 0.0000 0.0000 0.0000 -40.1723
#
#
#
# Elastic Compliance Matrix: (Units=1/GPa)
#
#
# Indices 1 2 3 4 5 6 
#
# 1 0.048965 0.005049 -0.006475 0.000000 0.000000 0.000000
# 2 0.005049 0.009663 -0.009647 0.000000 0.000000 0.000000
# 3 -0.006475 -0.009647 0.018892 0.000000 0.000000 0.000000
# 4 0.000000 0.000000 0.000000 -0.653736 0.000000 0.000000
# 5 0.000000 0.000000 0.000000 0.000000 0.076553 0.000000
# 6 0.000000 0.000000 0.000000 0.000000 0.000000 -0.024893
#
#
# Mechanical properties :
#
#
# Convention : Reuss Voigt Hill
#
# Bulk Modulus (GPa) = 18.05899 60.89862 39.47880
# Shear Modulus (GPa) = -10.33161 10.42370 0.04605
#
# Velocity S-wave (km/s) = -2.23041 2.24033 0.14890
# Velocity P-wave (km/s) = 1.43615 6.00127 4.36336
#
# Compressibility (1/GPa) = 0.05537409
#
# Stress axis : x y z
#
# Youngs Moduli (GPa) = 20.42262 103.48307 52.93324
#
# Poissons Ratio (x) = -0.52248 0.34276
# Poissons Ratio (y) = -0.10311 0.51064
# Poissons Ratio (z) = 0.13224 0.99829
#
# Static dielectric constant tensor:
#      x y z
#    x 1.755070 0.000000 0.000000 
#    y 0.000000 1.894970 0.000000 
#    z 0.000000 0.000000 1.593700 
# 
# From -- ./inp_files/1317.got.cif
#   From: 2010.05.17/outbox.cif.g08.bks.cpg/sg47_1_cif.got.tgz:1317.got - 2010.06.03 20:15:42.
