data_PCOD9383009
_publ_section_title
;
Structure prediction by ZEFSAII (Michael W. Deem and Ramdas Pophale) SiO2 
 PCOD9383009
Probable space group: P M M M
;
_chemical_formula_sum "Si O2"
_cell_formula_units_Z 52
_cell_length_a 24.269611
_cell_length_b 15.500280
_cell_length_c 7.362373
_cell_angle_alpha 90.000000
_cell_angle_beta 90.000000
_cell_angle_gamma 90.000000
_cell_volume 2769.619927
_symmetry_space_group_name_H-M "P M M M"
_symmetry_group_IT_number 47
_symmetry_cell_setting 'orthorhombic'
loop_
_space_group_symop_operation_xyz
x,y,z
-x,-y,z
x,-y,-z
-x,y,-z
-x,-y,-z
x,y,-z
-x,y,z
x,-y,z
loop_
_atom_site_type_symbol
_atom_site_label
_atom_site_fract_x
_atom_site_fract_y
_atom_site_fract_z
Si Si1 0.749285 0.262300 0.220337
Si Si2 0.561263 0.145056 0.788127
Si Si3 0.675156 0.589878 0.208050
Si Si4 0.061755 0.396660 0.500000
Si Si5 0.684109 0.902919 0.221699
Si Si6 0.844813 0.398423 0.217778
Si Si7 0.559607 0.651127 0.717886
O O1 0.698928 0.322716 0.283322
O O2 0.729627 0.167533 0.281483
O O3 0.801112 0.323447 0.271069
O O4 0.752586 0.255639 0.000000
O O5 0.500000 0.120269 0.713289
O O6 0.620583 0.113527 0.715696
O O7 0.563812 0.249009 0.775611
O O8 0.560150 0.119613 0.000000
O O9 0.692311 0.500000 0.294505
O O10 0.610125 0.598137 0.208227
O O11 0.695210 0.587714 0.000000
O O12 0.056401 0.500000 0.500000
O O13 0.099021 0.377321 0.675918
O O14 0.000000 0.359642 0.500000
O O15 0.699693 0.000000 0.270680
O O16 0.681694 0.896911 0.000000
O O17 0.829663 0.500000 0.261640
O O18 0.850972 0.395695 0.000000
O O19 0.562541 0.648526 0.500000
O O20 0.500000 0.618536 0.775086
#
# Coordination Sequence:
#
# PCOD9383009 Si02
#       7
#     8   8   8   4   8   8   8
#     4   9  16  29  46  66  95 125 155 194 236 282
#     4   9  16  28  46  64  83 109 146 191 240 297
#     4  10  19  31  48  66  83 110 149 190 233 280
#     4   9  18  32  50  78 113 143 176 211 237 273
#     4   9  16  26  44  70  94 116 147 193 249 298
#     4   9  17  30  49  73 104 143 178 206 241 282
#     4  10  20  32  44  59  82 111 145 187 237 290
#
# _framework density 18.775138999999999
#
# number of rings (size 3 to 8) (size 9 to 14) (size 15 to 20)
#    0.000    2.692    1.538    0.923    0.000    4.000 
#    1.385    4.615    0.000    0.462    0.000    2.154 
#    0.000    1.231    0.000    6.000    0.000    0.154 
#
# Total GULP energy -289556.800209 kJ/mol
# GULP energy per Si atom -5568.400004 kJ/mol
# Density = 1.873241 g / cm^3
# Si number density = 18.775139 Si / 1000 Ang^3
#
#
#
# Elastic Constant Matrix: (Units=GPa)
#
#
# Indices 1 2 3 4 5 6 
#
# 1 132.4981 62.9894 17.6743 0.0000 0.0000 0.0000
# 2 62.9894 126.9381 9.0463 0.0000 0.0000 0.0000
# 3 17.6743 9.0463 69.4828 0.0000 0.0000 0.0000
# 4 0.0000 0.0000 0.0000 -41.0108 0.0000 0.0000
# 5 0.0000 0.0000 0.0000 0.0000 16.3940 0.0000
# 6 0.0000 0.0000 0.0000 0.0000 0.0000 -1.6302
#
#
#
# Elastic Compliance Matrix: (Units=1/GPa)
#
#
# Indices 1 2 3 4 5 6 
#
# 1 0.010130 -0.004888 -0.001940 0.000000 0.000000 0.000000
# 2 -0.004888 0.010311 -0.000099 0.000000 0.000000 0.000000
# 3 -0.001940 -0.000099 0.014898 0.000000 0.000000 0.000000
# 4 0.000000 0.000000 0.000000 -0.024384 0.000000 0.000000
# 5 0.000000 0.000000 0.000000 0.000000 0.060998 0.000000
# 6 0.000000 0.000000 0.000000 0.000000 0.000000 -0.613411
#
#
# Mechanical properties :
#
#
# Convention : Reuss Voigt Hill
#
# Bulk Modulus (GPa) = 46.54673 56.48211 51.51442
# Shear Modulus (GPa) = -9.60724 10.69787 0.54531
#
# Velocity S-wave (km/s) = -2.26453 2.38961 0.53951
# Velocity P-wave (km/s) = 4.24359 6.14512 5.28065
#
# Compressibility (1/GPa) = 0.02148379
#
# Stress axis : x y z
#
# Youngs Moduli (GPa) = 98.71584 96.98681 67.12095
#
# Poissons Ratio (x) = 0.47412 0.13024
# Poissons Ratio (y) = 0.48257 0.00664
# Poissons Ratio (z) = 0.19154 0.00959
#
# Static dielectric constant tensor:
#      x y z
#    x 1.664370 0.000000 0.000000 
#    y 0.000000 1.664430 0.000000 
#    z 0.000000 0.000000 1.709220 
# 
# From -- ./inp_files/12487.got.cif
#   From: 2010.05.17/outbox.cif.g08.bks.cpg/sg47_7_cif.got.tgz:12487.got - 2010.06.03 20:15:42.
