data_PCOD9383572
_publ_section_title
;
Structure prediction by ZEFSAII (Michael W. Deem and Ramdas Pophale) SiO2 
 PCOD9383572
Probable space group: P M M M
;
_chemical_formula_sum "Si O2"
_cell_formula_units_Z 56
_cell_length_a 15.360426
_cell_length_b 23.981498
_cell_length_c 7.889358
_cell_angle_alpha 90.000000
_cell_angle_beta 90.000000
_cell_angle_gamma 90.000000
_cell_volume 2906.171449
_symmetry_space_group_name_H-M "P M M M"
_symmetry_group_IT_number 47
_symmetry_cell_setting 'orthorhombic'
loop_
_space_group_symop_operation_xyz
x,y,z
-x,-y,z
x,-y,-z
-x,y,-z
-x,-y,-z
x,y,-z
-x,y,z
x,-y,z
loop_
_atom_site_type_symbol
_atom_site_label
_atom_site_fract_x
_atom_site_fract_y
_atom_site_fract_z
Si Si1 0.097778 0.778163 0.796441
Si Si2 0.402888 0.064389 0.203930
Si Si3 0.340706 0.367087 0.802037
Si Si4 0.402735 0.247353 0.294706
Si Si5 0.266375 0.843411 0.298525
Si Si6 0.500000 0.564310 0.206935
Si Si7 0.000000 0.564833 0.297633
Si Si8 0.148860 0.347180 0.204687
O O1 0.169792 0.825098 0.756362
O O2 0.123181 0.715385 0.734400
O O3 0.000000 0.791218 0.735108
O O4 0.094689 0.774462 0.000000
O O5 0.500000 0.084308 0.263887
O O6 0.318664 0.100409 0.253366
O O7 0.394112 0.000000 0.259289
O O8 0.406002 0.064885 0.000000
O O9 0.383733 0.306642 0.786087
O O10 0.411835 0.408204 0.725962
O O11 0.244297 0.362984 0.727832
O O12 0.329604 0.381981 0.000000
O O13 0.396970 0.252442 0.500000
O O14 0.500000 0.228277 0.253211
O O15 0.330341 0.204905 0.231933
O O16 0.265681 0.840764 0.500000
O O17 0.500000 0.500000 0.241951
O O18 0.500000 0.572438 0.000000
O O19 0.918171 0.603388 0.245060
O O20 0.000000 0.500000 0.233441
O O21 0.000000 0.561381 0.500000
O O22 0.152584 0.342806 0.000000
#
# Coordination Sequence:
#
# PCOD9383572 Si02
#       8
#     8   8   8   8   8   4   4   8
#     4  10  20  36  57  81 110 142 182 233 286 341
#     4   9  19  37  60  86 118 158 200 238 276 320
#     4  10  19  32  54  78 100 133 174 219 271 321
#     4  10  20  32  47  73 111 147 176 213 263 319
#     4  11  22  34  53  84 118 151 187 228 279 335
#     4   9  18  32  49  73 103 133 172 219 264 317
#     4  11  25  41  57  79 107 141 180 225 282 349
#     4  10  20  36  58  83 106 134 179 231 282 336
#
# _framework density 19.269338000000001
#
# number of rings (size 3 to 8) (size 9 to 14) (size 15 to 20)
#    0.000    2.000    2.857    1.500    0.000    4.286 
#    0.000    2.143    0.000    1.286    0.000    3.000 
#    0.000    0.000    0.000    0.000    0.000    0.000 
#
# Total GULP energy -312244.444076 kJ/mol
# GULP energy per Si atom -5575.793644 kJ/mol
# Density = 1.922548 g / cm^3
# Si number density = 19.269338 Si / 1000 Ang^3
#
#
#
# Elastic Constant Matrix: (Units=GPa)
#
#
# Indices 1 2 3 4 5 6 
#
# 1 200.5591 80.8480 14.6787 0.0000 0.0000 0.0000
# 2 80.8480 104.6691 1.0057 0.0000 0.0000 0.0000
# 3 14.6787 1.0057 21.2537 0.0000 0.0000 0.0000
# 4 0.0000 0.0000 0.0000 36.9787 0.0000 0.0000
# 5 0.0000 0.0000 0.0000 0.0000 12.7640 0.0000
# 6 0.0000 0.0000 0.0000 0.0000 0.0000 64.9803
#
#
#
# Elastic Compliance Matrix: (Units=1/GPa)
#
#
# Indices 1 2 3 4 5 6 
#
# 1 0.007751 -0.005938 -0.005072 0.000000 0.000000 0.000000
# 2 -0.005938 0.014108 0.003434 0.000000 0.000000 0.000000
# 3 -0.005072 0.003434 0.050391 0.000000 0.000000 0.000000
# 4 0.000000 0.000000 0.000000 0.027043 0.000000 0.000000
# 5 0.000000 0.000000 0.000000 0.000000 0.078345 0.000000
# 6 0.000000 0.000000 0.000000 0.000000 0.000000 0.015389
#
#
# Mechanical properties :
#
#
# Convention : Reuss Voigt Hill
#
# Bulk Modulus (GPa) = 17.51423 57.72740 37.62081
# Shear Modulus (GPa) = 22.00576 38.27458 30.14017
#
# Velocity S-wave (km/s) = 3.38303 4.46162 3.95923
# Velocity P-wave (km/s) = 4.93647 7.52095 6.36134
#
# Compressibility (1/GPa) = 0.05709644
#
# Stress axis : x y z
#
# Youngs Moduli (GPa) = 129.01369 70.88281 19.84469
#
# Poissons Ratio (x) = 0.42093 0.10066
# Poissons Ratio (y) = 0.76613 -0.06814
# Poissons Ratio (z) = 0.65439 -0.24339
#
# Static dielectric constant tensor:
#      x y z
#    x 1.708140 0.000000 0.000000 
#    y 0.000000 1.662770 0.000000 
#    z 0.000000 0.000000 1.697420 
# 
# From -- ./inp_files/7392.got.cif
#   From: 2010.05.17/outbox.cif.g08.bks.cpg/sg47_4_cif.got.tgz:7392.got - 2010.06.03 20:15:42.
