data_PCOD9383200
_publ_section_title
;
Structure prediction by ZEFSAII (Michael W. Deem and Ramdas Pophale) SiO2 
 PCOD9383200
Probable space group: P M M M
;
_chemical_formula_sum "Si O2"
_cell_formula_units_Z 56
_cell_length_a 15.324981
_cell_length_b 9.135650
_cell_length_c 20.948221
_cell_angle_alpha 90.000000
_cell_angle_beta 90.000000
_cell_angle_gamma 90.000000
_cell_volume 2932.827666
_symmetry_space_group_name_H-M "P M M M"
_symmetry_group_IT_number 47
_symmetry_cell_setting 'orthorhombic'
loop_
_space_group_symop_operation_xyz
x,y,z
-x,-y,z
x,-y,-z
-x,y,-z
-x,-y,-z
x,y,-z
-x,y,z
x,-y,z
loop_
_atom_site_type_symbol
_atom_site_label
_atom_site_fract_x
_atom_site_fract_y
_atom_site_fract_z
Si Si1 0.644910 0.327454 0.341938
Si Si2 0.156771 0.329149 0.645494
Si Si3 0.096550 0.676602 0.902565
Si Si4 0.500000 0.824949 0.425881
Si Si5 0.292934 0.321858 0.930553
Si Si6 0.000000 0.830872 0.423864
Si Si7 0.602205 0.322222 0.803740
Si Si8 0.899338 0.166806 0.232778
O O1 0.620487 0.500000 0.342610
O O2 0.741825 0.315383 0.370645
O O3 0.581612 0.236656 0.386651
O O4 0.637222 0.280433 0.267001
O O5 0.133673 0.500000 0.648510
O O6 0.151070 0.257395 0.714977
O O7 0.086783 0.247413 0.601985
O O8 0.096451 0.500000 0.900934
O O9 0.190182 0.719523 0.931071
O O10 0.100783 0.745750 0.832706
O O11 0.000000 0.719459 0.928782
O O12 0.500000 0.776929 0.500000
O O13 0.500000 0.000000 0.424906
O O14 0.295954 0.500000 0.928764
O O15 0.341884 0.271342 0.865729
O O16 0.330725 0.277010 0.000000
O O17 0.000000 0.825842 0.500000
O O18 0.000000 0.000000 0.402831
O O19 0.500000 0.279874 0.809017
O O20 0.605675 0.500000 0.805332
O O21 0.000000 0.161360 0.254803
O O22 0.868681 0.000000 0.225081
#
# Coordination Sequence:
#
# PCOD9383200 Si02
#       8
#     8   8   8   4   8   4   8   8
#     4  10  21  39  63  90 118 155 198 243 296 351
#     4  11  22  36  60  88 115 149 194 245 292 341
#     4   9  17  29  46  69 102 144 187 233 286 343
#     4  11  25  43  63  91 124 153 186 236 297 359
#     4   9  17  28  44  73 111 146 186 239 294 347
#     4  11  25  43  59  79 117 165 202 235 282 341
#     4   9  16  29  52  78 109 146 185 232 290 351
#     4  10  19  31  50  77 110 144 183 232 289 347
#
# _framework density 19.094201999999999
#
# number of rings (size 3 to 8) (size 9 to 14) (size 15 to 20)
#    0.000    2.143    1.429    2.143    0.000    6.286 
#    0.000    5.714    0.000    0.429    0.000    2.000 
#    0.000    0.571    0.000    0.000    0.000    0.000 
#
# Total GULP energy -312096.128206 kJ/mol
# GULP energy per Si atom -5573.145147 kJ/mol
# Density = 1.905074 g / cm^3
# Si number density = 19.094202 Si / 1000 Ang^3
#
#
#
# Elastic Constant Matrix: (Units=GPa)
#
#
# Indices 1 2 3 4 5 6 
#
# 1 196.6941 310.4600 152.5069 0.0000 0.0000 0.0000
# 2 310.4600 843.8232 301.7331 0.0000 0.0000 0.0000
# 3 152.5069 301.7331 225.4435 0.0000 0.0000 0.0000
# 4 0.0000 0.0000 0.0000 5.7693 0.0000 0.0000
# 5 0.0000 0.0000 0.0000 0.0000 18.5291 0.0000
# 6 0.0000 0.0000 0.0000 0.0000 0.0000 -2.0959
#
#
#
# Elastic Compliance Matrix: (Units=1/GPa)
#
#
# Indices 1 2 3 4 5 6 
#
# 1 0.014744 -0.003564 -0.005204 0.000000 0.000000 0.000000
# 2 -0.003564 0.003134 -0.001784 0.000000 0.000000 0.000000
# 3 -0.005204 -0.001784 0.010344 0.000000 0.000000 0.000000
# 4 0.000000 0.000000 0.000000 0.173332 0.000000 0.000000
# 5 0.000000 0.000000 0.000000 0.000000 0.053969 0.000000
# 6 0.000000 0.000000 0.000000 0.000000 0.000000 -0.477125
#
#
# Mechanical properties :
#
#
# Convention : Reuss Voigt Hill
#
# Bulk Modulus (GPa) = 140.48555 310.59566 225.54061
# Shear Modulus (GPa) = -25.23664 37.85788 6.31062
#
# Velocity S-wave (km/s) = -3.63945 4.45757 1.81994
# Velocity P-wave (km/s) = 7.48825 13.76631 11.08118
#
# Compressibility (1/GPa) = 0.00711817
#
# Stress axis : x y z
#
# Youngs Moduli (GPa) = 67.82314 319.06431 96.67369
#
# Poissons Ratio (x) = 1.13705 0.50313
# Poissons Ratio (y) = 0.24170 0.17247
# Poissons Ratio (z) = 0.35298 0.56921
#
# Static dielectric constant tensor:
#      x y z
#    x 1.699960 0.000000 0.000000 
#    y 0.000000 1.630940 0.000000 
#    z 0.000000 0.000000 1.641680 
# 
# From -- ./inp_files/31091.got.cif
#   From: 2010.05.17/outbox.cif.g08.bks.cpg/sg47_16_cif.got.tgz:31091.got - 2010.06.03 20:15:42.
