data_PCOD9383626
_publ_section_title
;
Structure prediction by ZEFSAII (Michael W. Deem and Ramdas Pophale) SiO2 
 PCOD9383626
Probable space group: P M M M
;
_chemical_formula_sum "Si O2"
_cell_formula_units_Z 64
_cell_length_a 16.688053
_cell_length_b 8.499927
_cell_length_c 22.659047
_cell_angle_alpha 90.000000
_cell_angle_beta 90.000000
_cell_angle_gamma 90.000000
_cell_volume 3214.123103
_symmetry_space_group_name_H-M "P M M M"
_symmetry_group_IT_number 47
_symmetry_cell_setting 'orthorhombic'
loop_
_space_group_symop_operation_xyz
x,y,z
-x,-y,z
x,-y,-z
-x,y,-z
-x,-y,-z
x,y,-z
-x,y,z
x,-y,z
loop_
_atom_site_type_symbol
_atom_site_label
_atom_site_fract_x
_atom_site_fract_y
_atom_site_fract_z
Si Si1 0.911365 0.687995 0.681514
Si Si2 0.408897 0.177974 0.836940
Si Si3 0.710169 0.321436 0.241215
Si Si4 0.884546 0.686324 0.934273
Si Si5 0.134907 0.812931 0.189854
Si Si6 0.251988 0.182601 0.362729
Si Si7 0.410623 0.190610 0.569866
Si Si8 0.306768 0.678086 0.932929
O O1 0.907014 0.500000 0.688809
O O2 0.903927 0.762811 0.747415
O O3 0.836602 0.740121 0.640639
O O4 0.000000 0.729042 0.658190
O O5 0.500000 0.209717 0.852076
O O6 0.374606 0.295372 0.788509
O O7 0.353830 0.200137 0.893663
O O8 0.401452 0.000000 0.814352
O O9 0.722395 0.500000 0.261007
O O10 0.779440 0.275813 0.194686
O O11 0.720207 0.203973 0.295300
O O12 0.902717 0.500000 0.931291
O O13 0.907470 0.763437 0.871528
O O14 0.788240 0.704399 0.935111
O O15 0.911551 0.742339 0.000000
O O16 0.145896 0.000000 0.189476
O O17 0.327863 0.248060 0.400023
O O18 0.241589 0.000000 0.378401
O O19 0.406770 0.223147 0.500000
O O20 0.500000 0.244759 0.590905
O O21 0.410532 0.000000 0.577255
O O22 0.319927 0.500000 0.909751
O O23 0.335894 0.683329 0.000000
#
# Coordination Sequence:
#
# PCOD9383626 Si02
#       8
#     8   8   8   8   8   8   8   8
#     4  10  21  37  57  80 109 149 192 231 278 338
#     4  11  23  35  46  63  89 121 161 213 270 323
#     4  11  21  34  50  68  96 132 172 213 259 323
#     4   9  17  30  49  72  97 127 164 208 261 327
#     4  11  20  31  52  78 103 129 163 214 274 326
#     4  10  19  32  56  87 116 148 186 232 281 320
#     4   8  15  30  54  86 123 160 196 232 272 322
#     4   9  18  32  49  66  85 116 158 204 257 321
#
# _framework density 19.912118
#
# number of rings (size 3 to 8) (size 9 to 14) (size 15 to 20)
#    0.000    2.125    1.250    6.000    0.000    3.250 
#    0.000    3.750    0.000    3.375    0.000    8.750 
#    0.000    0.000    0.000    0.000    0.000    0.000 
#
# Total GULP energy -356632.513999 kJ/mol
# GULP energy per Si atom -5572.383031 kJ/mol
# Density = 1.986680 g / cm^3
# Si number density = 19.912118 Si / 1000 Ang^3
#
#
#
# Elastic Constant Matrix: (Units=GPa)
#
#
# Indices 1 2 3 4 5 6 
#
# 1 143.9965 26.0699 40.8774 0.0000 0.0000 0.0000
# 2 26.0699 38.6053 -5.3337 0.0000 0.0000 0.0000
# 3 40.8774 -5.3337 46.5864 0.0000 0.0000 0.0000
# 4 0.0000 0.0000 0.0000 0.6287 0.0000 0.0000
# 5 0.0000 0.0000 0.0000 0.0000 -9.1407 0.0000
# 6 0.0000 0.0000 0.0000 0.0000 0.0000 10.9685
#
#
#
# Elastic Compliance Matrix: (Units=1/GPa)
#
#
# Indices 1 2 3 4 5 6 
#
# 1 0.012013 -0.009723 -0.011654 0.000000 0.000000 0.000000
# 2 -0.009723 0.034188 0.012445 0.000000 0.000000 0.000000
# 3 -0.011654 0.012445 0.033116 0.000000 0.000000 0.000000
# 4 0.000000 0.000000 0.000000 1.590676 0.000000 0.000000
# 5 0.000000 0.000000 0.000000 0.000000 -0.109401 0.000000
# 6 0.000000 0.000000 0.000000 0.000000 0.000000 0.091170
#
#
# Mechanical properties :
#
#
# Convention : Reuss Voigt Hill
#
# Bulk Modulus (GPa) = 16.27206 39.15726 27.71466
# Shear Modulus (GPa) = 2.95839 11.66294 7.31066
#
# Velocity S-wave (km/s) = 1.22022 2.42279 1.91818
# Velocity P-wave (km/s) = 3.18982 5.24731 4.34219
#
# Compressibility (1/GPa) = 0.06145502
#
# Stress axis : x y z
#
# Youngs Moduli (GPa) = 83.24175 29.24985 30.19651
#
# Poissons Ratio (x) = 0.28438 0.35192
# Poissons Ratio (y) = 0.80932 -0.37581
# Poissons Ratio (z) = 0.97011 -0.36402
#
# Static dielectric constant tensor:
#      x y z
#    x 1.756920 0.000000 0.000000 
#    y 0.000000 1.696490 0.000000 
#    z 0.000000 0.000000 1.706590 
# 
# From -- ./inp_files/31318.got.cif
#   From: 2010.05.17/outbox.cif.g08.bks.cpg/sg47_16_cif.got.tgz:31318.got - 2010.06.03 20:15:42.
