data_PCOD9383666
_publ_section_title
;
Structure prediction by ZEFSAII (Michael W. Deem and Ramdas Pophale) SiO2 
 PCOD9383666
Probable space group: P M M M
;
_chemical_formula_sum "Si O2"
_cell_formula_units_Z 64
_cell_length_a 20.529488
_cell_length_b 8.069352
_cell_length_c 20.774664
_cell_angle_alpha 90.000000
_cell_angle_beta 90.000000
_cell_angle_gamma 90.000000
_cell_volume 3441.523880
_symmetry_space_group_name_H-M "P M M M"
_symmetry_group_IT_number 47
_symmetry_cell_setting 'orthorhombic'
loop_
_space_group_symop_operation_xyz
x,y,z
-x,-y,z
x,-y,-z
-x,y,-z
-x,-y,-z
x,y,-z
-x,y,z
x,-y,z
loop_
_atom_site_type_symbol
_atom_site_label
_atom_site_fract_x
_atom_site_fract_y
_atom_site_fract_z
Si Si1 0.327294 0.191615 0.682379
Si Si2 0.895134 0.697115 0.930821
Si Si3 0.751707 0.193287 0.898360
Si Si4 0.787207 0.305594 0.240690
Si Si5 0.070267 0.702198 0.788544
Si Si6 0.573001 0.700314 0.790543
Si Si7 0.573139 0.300073 0.425784
Si Si8 0.390658 0.695737 0.069387
O O1 0.259630 0.282107 0.698658
O O2 0.374339 0.224762 0.743191
O O3 0.369559 0.244516 0.620979
O O4 0.311938 0.000000 0.677415
O O5 0.907417 0.500000 0.931295
O O6 0.817823 0.728352 0.925468
O O7 0.923494 0.759291 0.863171
O O8 0.917974 0.764445 0.000000
O O9 0.756982 0.213408 0.821124
O O10 0.686900 0.280838 0.923294
O O11 0.748953 0.000000 0.915166
O O12 0.787621 0.500000 0.223223
O O13 0.862489 0.249898 0.246383
O O14 0.069764 0.500000 0.788883
O O15 0.000000 0.757281 0.762785
O O16 0.500000 0.734109 0.767547
O O17 0.582416 0.500000 0.790414
O O18 0.580374 0.761712 0.863929
O O19 0.582974 0.248382 0.500000
O O20 0.500000 0.243882 0.405857
O O21 0.572050 0.500000 0.424388
O O22 0.406136 0.500000 0.068414
O O23 0.411281 0.765889 0.000000
#
# Coordination Sequence:
#
# PCOD9383666 Si02
#       8
#     8   8   8   8   8   8   8   8
#     4  12  23  34  53  81 110 141 175 214 254 296
#     4   9  17  28  43  63  88 120 156 194 245 314
#     4  11  20  30  45  66  90 118 155 204 259 310
#     4  10  19  33  53  73  97 129 166 210 255 304
#     4   8  15  28  47  71  95 120 157 210 265 309
#     4  10  21  36  53  71  94 128 169 213 261 313
#     4   9  19  37  60  85 115 152 188 216 247 294
#     4  10  20  33  49  66  87 119 160 208 263 320
#
# _framework density 18.596413999999999
#
# number of rings (size 3 to 8) (size 9 to 14) (size 15 to 20)
#    0.000    2.125    1.250    4.500    0.000    4.750 
#    0.000    3.125    0.000    9.375    0.000    5.250 
#    0.000    0.500    0.000    5.750    0.000    1.625 
#
# Total GULP energy -357113.743328 kJ/mol
# GULP energy per Si atom -5579.902239 kJ/mol
# Density = 1.855409 g / cm^3
# Si number density = 18.596414 Si / 1000 Ang^3
#
#
#
# Elastic Constant Matrix: (Units=GPa)
#
#
# Indices 1 2 3 4 5 6 
#
# 1 101.0955 1.0841 44.4792 0.0000 0.0000 0.0000
# 2 1.0841 21.9805 4.9603 0.0000 0.0000 0.0000
# 3 44.4792 4.9603 74.2490 0.0000 0.0000 0.0000
# 4 0.0000 0.0000 0.0000 -395.5923 0.0000 0.0000
# 5 0.0000 0.0000 0.0000 0.0000 -10.6687 0.0000
# 6 0.0000 0.0000 0.0000 0.0000 0.0000 -29.6755
#
#
#
# Elastic Compliance Matrix: (Units=1/GPa)
#
#
# Indices 1 2 3 4 5 6 
#
# 1 0.013462 0.001174 -0.008143 0.000000 0.000000 0.000000
# 2 0.001174 0.046293 -0.003796 0.000000 0.000000 0.000000
# 3 -0.008143 -0.003796 0.018600 0.000000 0.000000 0.000000
# 4 0.000000 0.000000 0.000000 -0.002528 0.000000 0.000000
# 5 0.000000 0.000000 0.000000 0.000000 -0.093732 0.000000
# 6 0.000000 0.000000 0.000000 0.000000 0.000000 -0.033698
#
#
# Mechanical properties :
#
#
# Convention : Reuss Voigt Hill
#
# Bulk Modulus (GPa) = 17.59784 33.15248 25.37516
# Shear Modulus (GPa) = -449.15322 -77.40053 -263.27688
#
# Velocity S-wave (km/s) = -15.55799 -6.45845 -11.91140
# Velocity P-wave (km/s) = 17.69891 6.14405 13.24765
#
# Compressibility (1/GPa) = 0.05682515
#
# Stress axis : x y z
#
# Youngs Moduli (GPa) = 74.28539 21.60132 53.76437
#
# Poissons Ratio (x) = -0.02535 0.43778
# Poissons Ratio (y) = -0.08718 0.20407
# Poissons Ratio (z) = 0.60488 0.08199
#
# Static dielectric constant tensor:
#      x y z
#    x 1.667280 0.000000 0.000000 
#    y 0.000000 1.660550 0.000000 
#    z 0.000000 0.000000 1.652340 
# 
# From -- ./inp_files/31535.got.cif
#   From: 2010.05.17/outbox.cif.g08.bks.cpg/sg47_16_cif.got.tgz:31535.got - 2010.06.03 20:15:42.
