data_PCOD9383969
_publ_section_title
;
Structure prediction by ZEFSAII (Michael W. Deem and Ramdas Pophale) SiO2 
 PCOD9383969
Probable space group: P M M M
;
_chemical_formula_sum "Si O2"
_cell_formula_units_Z 33
_cell_length_a 10.344158
_cell_length_b 9.802624
_cell_length_c 18.012059
_cell_angle_alpha 90.000000
_cell_angle_beta 90.000000
_cell_angle_gamma 90.000000
_cell_volume 1826.420828
_symmetry_space_group_name_H-M "P M M M"
_symmetry_group_IT_number 47
_symmetry_cell_setting 'orthorhombic'
loop_
_space_group_symop_operation_xyz
x,y,z
-x,-y,z
x,-y,-z
-x,y,-z
-x,-y,-z
x,y,-z
-x,y,z
x,-y,z
loop_
_atom_site_type_symbol
_atom_site_label
_atom_site_fract_x
_atom_site_fract_y
_atom_site_fract_z
Si Si1 0.000000 0.159273 0.803149
Si Si2 0.000000 0.000000 0.500000
Si Si3 0.000000 0.231535 0.628750
Si Si4 0.753100 0.658947 0.176401
Si Si5 0.500000 0.334364 0.084977
Si Si6 0.500000 0.154984 0.411370
Si Si7 0.278479 0.652261 0.647115
O O1 0.874483 0.241146 0.831392
O O2 0.000000 0.171064 0.712846
O O3 0.000000 0.000000 0.823157
O O4 0.000000 0.881722 0.434528
O O5 0.131230 0.318631 0.623844
O O6 0.785694 0.500000 0.158140
O O7 0.630118 0.704383 0.128386
O O8 0.715939 0.659336 0.263469
O O9 0.500000 0.500000 0.084877
O O10 0.500000 0.287276 0.000000
O O11 0.500000 0.150920 0.500000
O O12 0.373832 0.235414 0.385075
O O13 0.500000 0.000000 0.382974
O O14 0.317725 0.500000 0.623890
#
# Coordination Sequence:
#
# PCOD9383969 Si02
#       7
#     4   1   4   8   4   4   8
#     4  10  19  35  55  82 108 142 191 228 260 321
#     4  12  24  36  54  82 120 148 168 238 304 336
#     4  10  23  36  59  80 109 144 185 227 287 335
#     4   9  18  34  58  83 110 142 177 225 275 319
#     4   9  17  32  57  89 116 141 178 222 270 327
#     4  11  26  39  53  73 106 143 182 226 282 335
#     4  10  21  39  59  81 107 140 186 232 276 328
#
# _framework density 18.068125999999999
#
# number of rings (size 3 to 8) (size 9 to 14) (size 15 to 20)
#    0.000    2.182    0.606    1.818    3.394    6.788 
#    0.000    1.818    0.000    5.091    0.000    0.000 
#    0.000    0.000    0.000    0.000    0.000    0.000 
#
# Total GULP energy -183900.310281 kJ/mol
# GULP energy per Si atom -5572.736675 kJ/mol
# Density = 1.802700 g / cm^3
# Si number density = 18.068126 Si / 1000 Ang^3
#
#
#
# Elastic Constant Matrix: (Units=GPa)
#
#
# Indices 1 2 3 4 5 6 
#
# 1 157.3580 86.5470 58.5760 0.0000 0.0000 0.0000
# 2 86.5470 143.9758 41.3474 0.0000 0.0000 0.0000
# 3 58.5760 41.3474 70.5329 0.0000 0.0000 0.0000
# 4 0.0000 0.0000 0.0000 12.4796 0.0000 0.0000
# 5 0.0000 0.0000 0.0000 0.0000 3567.7609 0.0000
# 6 0.0000 0.0000 0.0000 0.0000 0.0000 -15.0944
#
#
#
# Elastic Compliance Matrix: (Units=1/GPa)
#
#
# Indices 1 2 3 4 5 6 
#
# 1 0.011635 -0.005073 -0.006689 0.000000 0.000000 0.000000
# 2 -0.005073 0.010564 -0.001979 0.000000 0.000000 0.000000
# 3 -0.006689 -0.001979 0.020893 0.000000 0.000000 0.000000
# 4 0.000000 0.000000 0.000000 0.080131 0.000000 0.000000
# 5 0.000000 0.000000 0.000000 0.000000 0.000280 0.000000
# 6 0.000000 0.000000 0.000000 0.000000 0.000000 -0.066250
#
#
# Mechanical properties :
#
#
# Convention : Reuss Voigt Hill
#
# Bulk Modulus (GPa) = 64.06510 82.75638 73.41074
# Shear Modulus (GPa) = 55.59334 725.38897 390.49116
#
# Velocity S-wave (km/s) = 5.55298 20.05856 14.71702
# Velocity P-wave (km/s) = 8.75492 24.13220 18.15230
#
# Compressibility (1/GPa) = 0.01560912
#
# Stress axis : x y z
#
# Youngs Moduli (GPa) = 85.94734 94.66400 47.86313
#
# Poissons Ratio (x) = 0.48025 0.32014
# Poissons Ratio (y) = 0.43603 0.09474
# Poissons Ratio (z) = 0.57487 0.18738
#
# Static dielectric constant tensor:
#      x y z
#    x 1.607980 0.000000 0.000000 
#    y 0.000000 1.607700 0.000000 
#    z 0.000000 0.000000 1.600480 
# 
# From -- ./inp_files/22400.got.cif
#   From: 2010.05.17/outbox.cif.g08.bks.cpg/sg47_12_cif.got.tgz:22400.got - 2010.06.03 20:15:42.
