data_PCOD9383364
_publ_section_title
;
Structure prediction by ZEFSAII (Michael W. Deem and Ramdas Pophale) SiO2 
 PCOD9383364
Probable space group: P M M M
;
_chemical_formula_sum "Si O2"
_cell_formula_units_Z 64
_cell_length_a 8.554358
_cell_length_b 20.644770
_cell_length_c 20.615983
_cell_angle_alpha 90.000000
_cell_angle_beta 90.000000
_cell_angle_gamma 90.000000
_cell_volume 3640.839362
_symmetry_space_group_name_H-M "P M M M"
_symmetry_group_IT_number 47
_symmetry_cell_setting 'orthorhombic'
loop_
_space_group_symop_operation_xyz
x,y,z
-x,-y,z
x,-y,-z
-x,y,-z
-x,-y,-z
x,y,-z
-x,y,z
x,-y,z
loop_
_atom_site_type_symbol
_atom_site_label
_atom_site_fract_x
_atom_site_fract_y
_atom_site_fract_z
Si Si1 0.814191 0.572385 0.291116
Si Si2 0.685969 0.332966 0.816269
Si Si3 0.813230 0.929046 0.711621
Si Si4 0.811618 0.573146 0.925221
Si Si5 0.311154 0.793310 0.249001
Si Si6 0.689583 0.389841 0.428493
Si Si7 0.310785 0.103799 0.570401
Si Si8 0.311070 0.753640 0.393023
O O1 0.777744 0.500000 0.266739
O O2 0.729318 0.625639 0.247639
O O3 0.762036 0.576932 0.365782
O O4 0.000000 0.582112 0.286231
O O5 0.500000 0.331291 0.822264
O O6 0.753943 0.371991 0.876762
O O7 0.740775 0.258844 0.804656
O O8 0.748321 0.866842 0.749907
O O9 0.758147 0.924227 0.636534
O O10 0.000000 0.925702 0.712717
O O11 0.763257 0.000000 0.736446
O O12 0.759382 0.500000 0.906693
O O13 0.000000 0.572712 0.923323
O O14 0.763980 0.584232 0.000000
O O15 0.500000 0.795677 0.248779
O O16 0.261892 0.762890 0.318474
O O17 0.733471 0.414432 0.500000
O O18 0.500000 0.393459 0.423727
O O19 0.738934 0.314258 0.422621
O O20 0.263494 0.077015 0.500000
O O21 0.500000 0.098745 0.574754
O O22 0.267176 0.179990 0.572012
O O23 0.500000 0.751829 0.394052
#
# Coordination Sequence:
#
# PCOD9383364 Si02
#       8
#     8   8   8   8   8   8   8   8
#     4  11  24  38  50  67  96 133 169 208 259 317
#     4  11  21  35  57  83 107 133 173 223 262 295
#     4  10  21  34  47  67  97 129 160 202 255 306
#     4   9  19  36  56  81 118 159 189 211 244 296
#     4   9  18  33  53  74  97 126 163 207 254 302
#     4  10  19  32  51  70  89 117 158 212 269 318
#     4   9  17  29  46  66  88 118 157 198 245 309
#     4   8  13  27  47  66  88 113 146 196 254 305
#
# _framework density 17.578364000000001
#
# number of rings (size 3 to 8) (size 9 to 14) (size 15 to 20)
#    0.000    2.375    1.250    3.000    0.000    7.500 
#    0.000    3.125    0.000    1.500    0.000    0.000 
#    0.000    0.500    0.000    5.500    0.000    4.000 
#
# Total GULP energy -356888.032615 kJ/mol
# GULP energy per Si atom -5576.375510 kJ/mol
# Density = 1.753835 g / cm^3
# Si number density = 17.578364 Si / 1000 Ang^3
#
#
#
# Elastic Constant Matrix: (Units=GPa)
#
#
# Indices 1 2 3 4 5 6 
#
# 1 13.5164 22.5377 16.6266 0.0000 0.0000 0.0000
# 2 22.5377 129.7319 56.6623 0.0000 0.0000 0.0000
# 3 16.6266 56.6623 80.8662 0.0000 0.0000 0.0000
# 4 0.0000 0.0000 0.0000 44.3340 0.0000 0.0000
# 5 0.0000 0.0000 0.0000 0.0000 29.6732 0.0000
# 6 0.0000 0.0000 0.0000 0.0000 0.0000 21.9186
#
#
#
# Elastic Compliance Matrix: (Units=1/GPa)
#
#
# Indices 1 2 3 4 5 6 
#
# 1 0.113880 -0.013772 -0.013765 0.000000 0.000000 0.000000
# 2 -0.013772 0.012773 -0.006118 0.000000 0.000000 0.000000
# 3 -0.013765 -0.006118 0.019483 0.000000 0.000000 0.000000
# 4 0.000000 0.000000 0.000000 0.022556 0.000000 0.000000
# 5 0.000000 0.000000 0.000000 0.000000 0.033700 0.000000
# 6 0.000000 0.000000 0.000000 0.000000 0.000000 0.045623
#
#
# Mechanical properties :
#
#
# Convention : Reuss Voigt Hill
#
# Bulk Modulus (GPa) = 12.68604 46.19640 29.44122
# Shear Modulus (GPa) = 14.63691 27.73767 21.18729
#
# Velocity S-wave (km/s) = 2.88873 3.97664 3.47552
# Velocity P-wave (km/s) = 4.28472 6.88638 5.73503
#
# Compressibility (1/GPa) = 0.07882680
#
# Stress axis : x y z
#
# Youngs Moduli (GPa) = 8.78114 78.28995 51.32617
#
# Poissons Ratio (x) = 1.07821 0.70648
# Poissons Ratio (y) = 0.12093 0.31403
# Poissons Ratio (z) = 0.12087 0.47900
#
# Static dielectric constant tensor:
#      x y z
#    x 1.600370 0.000000 0.000000 
#    y 0.000000 1.637460 0.000000 
#    z 0.000000 0.000000 1.588400 
# 
# From -- ./inp_files/26989.got.cif
#   From: 2010.05.17/outbox.cif.g08.bks.cpg/sg47_14_cif.got.tgz:26989.got - 2010.06.03 20:15:42.
