data_PCOD9383915
_publ_section_title
;
Structure prediction by ZEFSAII (Michael W. Deem and Ramdas Pophale) SiO2 
 PCOD9383915
Probable space group: P M M M
;
_chemical_formula_sum "Si O2"
_cell_formula_units_Z 48
_cell_length_a 8.018964
_cell_length_b 18.171315
_cell_length_c 16.098237
_cell_angle_alpha 90.000000
_cell_angle_beta 90.000000
_cell_angle_gamma 90.000000
_cell_volume 2345.756549
_symmetry_space_group_name_H-M "P M M M"
_symmetry_group_IT_number 47
_symmetry_cell_setting 'orthorhombic'
loop_
_space_group_symop_operation_xyz
x,y,z
-x,-y,z
x,-y,-z
-x,y,-z
-x,-y,-z
x,y,-z
-x,y,z
x,-y,z
loop_
_atom_site_type_symbol
_atom_site_label
_atom_site_fract_x
_atom_site_fract_y
_atom_site_fract_z
Si Si1 0.695244 0.854191 0.092006
Si Si2 0.704171 0.916557 0.265260
Si Si3 0.807249 0.304956 0.139673
Si Si4 0.199493 0.500000 0.595083
Si Si5 0.299830 0.416188 0.000000
Si Si6 0.703553 0.196610 0.407365
Si Si7 0.699193 0.346235 0.676217
O O1 0.500000 0.874428 0.087772
O O2 0.765269 0.895020 0.173076
O O3 0.706882 0.767459 0.112618
O O4 0.767805 0.867978 0.000000
O O5 0.500000 0.912778 0.263645
O O6 0.760038 0.858372 0.334729
O O7 0.750421 0.000000 0.285875
O O8 0.761301 0.372021 0.080014
O O9 0.773486 0.328202 0.233874
O O10 0.000000 0.285903 0.128530
O O11 0.263326 0.500000 0.500000
O O12 0.254954 0.574003 0.641607
O O13 0.000000 0.500000 0.592759
O O14 0.240355 0.500000 0.000000
O O15 0.500000 0.416075 0.000000
O O16 0.759420 0.176459 0.500000
O O17 0.500000 0.194381 0.407354
O O18 0.752284 0.280032 0.384768
O O19 0.500000 0.342451 0.684558
#
# Coordination Sequence:
#
# PCOD9383915 Si02
#       7
#     8   8   8   4   4   8   8
#     4  10  19  34  57  82 113 154 198 242 289 351
#     4   9  17  30  50  82 121 155 192 244 302 354
#     4  12  24  38  59  87 118 153 196 245 296 350
#     4  11  25  43  61  88 125 156 191 247 307 359
#     4  11  25  43  63  87 118 155 196 239 292 355
#     4   9  17  30  52  83 115 150 194 244 295 349
#     4  11  22  39  62  85 116 157 203 248 294 354
#
# _framework density 20.462481
#
# number of rings (size 3 to 8) (size 9 to 14) (size 15 to 20)
#    0.000    1.667    2.500    3.000    1.167    2.667 
#    0.000    3.333    0.000    0.500    0.000    1.167 
#    0.000    1.333    0.000    0.000    0.000    0.000 
#
# Total GULP energy -268178.583653 kJ/mol
# GULP energy per Si atom -5587.053826 kJ/mol
# Density = 2.041591 g / cm^3
# Si number density = 20.462481 Si / 1000 Ang^3
#
#
#
# Elastic Constant Matrix: (Units=GPa)
#
#
# Indices 1 2 3 4 5 6 
#
# 1 27.1066 -7.6487 2.9988 0.0000 0.0000 0.0000
# 2 -7.6487 120.0676 54.0855 0.0000 0.0000 0.0000
# 3 2.9988 54.0855 163.0448 0.0000 0.0000 0.0000
# 4 0.0000 0.0000 0.0000 20.0826 0.0000 0.0000
# 5 0.0000 0.0000 0.0000 0.0000 3.1705 0.0000
# 6 0.0000 0.0000 0.0000 0.0000 0.0000 -23.2948
#
#
#
# Elastic Compliance Matrix: (Units=1/GPa)
#
#
# Indices 1 2 3 4 5 6 
#
# 1 0.037994 0.003216 -0.001766 0.000000 0.000000 0.000000
# 2 0.003216 0.010064 -0.003398 0.000000 0.000000 0.000000
# 3 -0.001766 -0.003398 0.007293 0.000000 0.000000 0.000000
# 4 0.000000 0.000000 0.000000 0.049794 0.000000 0.000000
# 5 0.000000 0.000000 0.000000 0.000000 0.315412 0.000000
# 6 0.000000 0.000000 0.000000 0.000000 0.000000 -0.042928
#
#
# Mechanical properties :
#
#
# Convention : Reuss Voigt Hill
#
# Bulk Modulus (GPa) = 19.43408 45.45446 32.44427
# Shear Modulus (GPa) = 12.54150 17.37720 14.95935
#
# Velocity S-wave (km/s) = 2.47837 2.91730 2.70675
# Velocity P-wave (km/s) = 4.20806 5.79736 5.06543
#
# Compressibility (1/GPa) = 0.05145599
#
# Stress axis : x y z
#
# Youngs Moduli (GPa) = 26.31988 99.36448 137.12138
#
# Poissons Ratio (x) = -0.31952 0.24209
# Poissons Ratio (y) = -0.08464 0.46588
# Poissons Ratio (z) = 0.04647 0.33760
#
# Static dielectric constant tensor:
#      x y z
#    x 1.727140 0.000000 0.000000 
#    y 0.000000 1.645030 0.000000 
#    z 0.000000 0.000000 1.722650 
# 
# From -- ./inp_files/21073.got.cif
#   From: 2010.05.17/outbox.cif.g08.bks.cpg/sg47_11_cif.got.tgz:21073.got - 2010.06.03 20:15:42.
