data_PCOD9383108
_publ_section_title
;
Structure prediction by ZEFSAII (Michael W. Deem and Ramdas Pophale) SiO2 
 PCOD9383108
Probable space group: P M M M
;
_chemical_formula_sum "Si O2"
_cell_formula_units_Z 40
_cell_length_a 8.601896
_cell_length_b 7.278372
_cell_length_c 27.577659
_cell_angle_alpha 90.000000
_cell_angle_beta 90.000000
_cell_angle_gamma 90.000000
_cell_volume 1726.576531
_symmetry_space_group_name_H-M "P M M M"
_symmetry_group_IT_number 47
_symmetry_cell_setting 'orthorhombic'
loop_
_space_group_symop_operation_xyz
x,y,z
-x,-y,z
x,-y,-z
-x,y,-z
-x,-y,-z
x,y,-z
-x,y,z
x,-y,z
loop_
_atom_site_type_symbol
_atom_site_label
_atom_site_fract_x
_atom_site_fract_y
_atom_site_fract_z
Si Si1 0.674298 0.778047 0.198223
Si Si2 0.678496 0.776239 0.601825
Si Si3 0.176564 0.776312 0.297383
Si Si4 0.827129 0.287850 0.899755
Si Si5 0.179246 0.223783 0.500000
Si Si6 0.500000 0.278339 0.057068
O O1 0.500000 0.717070 0.185055
O O2 0.717541 0.718302 0.252415
O O3 0.796819 0.717566 0.157943
O O4 0.675309 0.000000 0.197893
O O5 0.500000 0.723822 0.606903
O O6 0.770172 0.715467 0.649488
O O7 0.742843 0.714899 0.549976
O O8 0.685914 0.000000 0.601323
O O9 0.000000 0.721900 0.288052
O O10 0.181862 0.000000 0.298116
O O11 0.831942 0.500000 0.915905
O O12 0.665093 0.209618 0.921322
O O13 0.000000 0.210743 0.910631
O O14 0.000000 0.275940 0.500000
O O15 0.187104 0.000000 0.500000
O O16 0.500000 0.500000 0.064988
O O17 0.500000 0.242762 0.000000
#
# Coordination Sequence:
#
# PCOD9383108 Si02
#       6
#     8   8   8   8   4   4
#     4  10  19  31  49  72  98 131 168 204 245 293
#     4   9  15  22  31  44  65  95 134 179 225 275
#     4   9  16  25  37  55  80 110 146 189 233 279
#     4  10  20  34  54  79 105 134 167 203 246 292
#     4   9  15  21  29  41  59  89 130 175 224 275
#     4   9  18  34  55  79 107 135 165 204 245 286
#
# _framework density 23.167231000000001
#
# number of rings (size 3 to 8) (size 9 to 14) (size 15 to 20)
#    0.000    2.600    1.000    2.100    0.000    7.600 
#    0.000    2.000    0.000    1.200    0.000    1.400 
#    0.000    0.000    0.000    0.900    0.000   17.600 
#
# Total GULP energy -223461.315415 kJ/mol
# GULP energy per Si atom -5586.532885 kJ/mol
# Density = 2.311450 g / cm^3
# Si number density = 23.167231 Si / 1000 Ang^3
#
#
#
# Elastic Constant Matrix: (Units=GPa)
#
#
# Indices 1 2 3 4 5 6 
#
# 1 179.0371 7.3954 57.3445 0.0000 0.0000 0.0000
# 2 7.3954 100.4829 -2.5990 0.0000 0.0000 0.0000
# 3 57.3445 -2.5990 113.6673 0.0000 0.0000 0.0000
# 4 0.0000 0.0000 0.0000 37.1676 0.0000 0.0000
# 5 0.0000 0.0000 0.0000 0.0000 25.1812 0.0000
# 6 0.0000 0.0000 0.0000 0.0000 0.0000 -8.3223
#
#
#
# Elastic Compliance Matrix: (Units=1/GPa)
#
#
# Indices 1 2 3 4 5 6 
#
# 1 0.006696 -0.000580 -0.003391 0.000000 0.000000 0.000000
# 2 -0.000580 0.010008 0.000522 0.000000 0.000000 0.000000
# 3 -0.003391 0.000522 0.010520 0.000000 0.000000 0.000000
# 4 0.000000 0.000000 0.000000 0.026905 0.000000 0.000000
# 5 0.000000 0.000000 0.000000 0.000000 0.039712 0.000000
# 6 0.000000 0.000000 0.000000 0.000000 0.000000 -0.120160
#
#
# Mechanical properties :
#
#
# Convention : Reuss Voigt Hill
#
# Bulk Modulus (GPa) = 49.20250 57.49656 53.34953
# Shear Modulus (GPa) = -395.45377 32.87507 -181.28935
#
# Velocity S-wave (km/s) = -13.07922 3.77109 -8.85564
# Velocity P-wave (km/s) = 14.38067 6.62068 9.02691
#
# Compressibility (1/GPa) = 0.02032417
#
# Stress axis : x y z
#
# Youngs Moduli (GPa) = 149.35234 99.91847 95.05392
#
# Poissons Ratio (x) = 0.05800 0.32234
# Poissons Ratio (y) = 0.08670 -0.04959
# Poissons Ratio (z) = 0.50648 -0.05213
#
# Static dielectric constant tensor:
#      x y z
#    x 1.832510 0.000000 0.000000 
#    y 0.000000 1.996130 0.000000 
#    z 0.000000 0.000000 1.834940 
# 
# From -- ./inp_files/33095.got.cif
#   From: 2010.05.17/outbox.cif.g08.bks.cpg/sg47_17_cif.got.tgz:33095.got - 2010.06.03 20:15:42.
