data_PCOD9383644
_publ_section_title
;
Structure prediction by ZEFSAII (Michael W. Deem and Ramdas Pophale) SiO2 
 PCOD9383644
Probable space group: P M M M
;
_chemical_formula_sum "Si O2"
_cell_formula_units_Z 56
_cell_length_a 14.866685
_cell_length_b 22.053299
_cell_length_c 7.496528
_cell_angle_alpha 90.000000
_cell_angle_beta 90.000000
_cell_angle_gamma 90.000000
_cell_volume 2457.807543
_symmetry_space_group_name_H-M "P M M M"
_symmetry_group_IT_number 47
_symmetry_cell_setting 'orthorhombic'
loop_
_space_group_symop_operation_xyz
x,y,z
-x,-y,z
x,-y,-z
-x,y,-z
-x,-y,-z
x,y,-z
-x,y,z
x,-y,z
loop_
_atom_site_type_symbol
_atom_site_label
_atom_site_fract_x
_atom_site_fract_y
_atom_site_fract_z
Si Si1 0.096797 0.572648 0.203443
Si Si2 0.298191 0.432372 0.297303
Si Si3 0.100211 0.751788 0.212877
Si Si4 0.396438 0.185594 0.718144
Si Si5 0.900811 0.107357 0.708228
Si Si6 0.289784 0.303761 0.712883
Si Si7 0.709643 0.066427 0.281610
O O1 0.089361 0.500000 0.189667
O O2 0.190269 0.578698 0.303494
O O3 0.000000 0.593913 0.275376
O O4 0.106052 0.596568 0.000000
O O5 0.332543 0.435424 0.500000
O O6 0.312891 0.500000 0.217437
O O7 0.326035 0.368134 0.213213
O O8 0.115368 0.820130 0.282333
O O9 0.183636 0.709398 0.260934
O O10 0.000000 0.733150 0.273861
O O11 0.098232 0.755643 0.000000
O O12 0.393587 0.185907 0.500000
O O13 0.500000 0.188037 0.771596
O O14 0.341967 0.244646 0.779993
O O15 0.349063 0.123530 0.776730
O O16 0.905413 0.090435 0.500000
O O17 0.812347 0.075559 0.781535
O O18 0.000000 0.095395 0.786485
O O19 0.303832 0.306966 0.500000
O O20 0.710958 0.068260 0.500000
O O21 0.676010 0.000000 0.229495
#
# Coordination Sequence:
#
# PCOD9383644 Si02
#       7
#     8   8   8   8   8   8   8
#     4   8  14  25  40  58  84 119 155 189 226 271
#     4   9  18  30  44  64  89 118 153 194 239 287
#     4  10  20  32  48  72 100 130 167 208 245 283
#     4   9  17  30  49  73  99 127 162 204 249 294
#     4   9  16  28  47  70 100 136 170 203 241 285
#     4  10  19  33  52  71  95 128 164 201 245 296
#     4   9  16  26  44  74 107 133 161 199 241 285
#
# _framework density 22.784533
#
# number of rings (size 3 to 8) (size 9 to 14) (size 15 to 20)
#    0.000    2.857    1.429    0.857    0.000    2.857 
#    0.000    7.143    0.000    1.286    0.000    5.000 
#    0.000    1.143    0.000    4.857    0.000    5.143 
#
# Total GULP energy -312266.624916 kJ/mol
# GULP energy per Si atom -5576.189731 kJ/mol
# Density = 2.273267 g / cm^3
# Si number density = 22.784533 Si / 1000 Ang^3
#
#
#
# Elastic Constant Matrix: (Units=GPa)
#
#
# Indices 1 2 3 4 5 6 
#
# 1 83.1887 75.3206 -0.7155 0.0000 0.0000 0.0000
# 2 75.3206 197.5778 3.1815 0.0000 0.0000 0.0000
# 3 -0.7155 3.1815 64.1570 0.0000 0.0000 0.0000
# 4 0.0000 0.0000 0.0000 -24.6153 0.0000 0.0000
# 5 0.0000 0.0000 0.0000 0.0000 -11.1253 0.0000
# 6 0.0000 0.0000 0.0000 0.0000 0.0000 -3.8466
#
#
#
# Elastic Compliance Matrix: (Units=1/GPa)
#
#
# Indices 1 2 3 4 5 6 
#
# 1 0.018377 -0.007014 0.000553 0.000000 0.000000 0.000000
# 2 -0.007014 0.007743 -0.000462 0.000000 0.000000 0.000000
# 3 0.000553 -0.000462 0.015616 0.000000 0.000000 0.000000
# 4 0.000000 0.000000 0.000000 -0.040625 0.000000 0.000000
# 5 0.000000 0.000000 0.000000 0.000000 -0.089885 0.000000
# 6 0.000000 0.000000 0.000000 0.000000 0.000000 -0.259968
#
#
# Mechanical properties :
#
#
# Convention : Reuss Voigt Hill
#
# Bulk Modulus (GPa) = 35.85828 55.61076 45.73452
# Shear Modulus (GPa) = -15.35629 9.89167 -2.73231
#
# Velocity S-wave (km/s) = -2.59893 2.08586 -1.09627
# Velocity P-wave (km/s) = 2.60120 5.50103 4.30277
#
# Compressibility (1/GPa) = 0.02788756
#
# Stress axis : x y z
#
# Youngs Moduli (GPa) = 54.41696 129.15248 64.03754
#
# Poissons Ratio (x) = 0.90593 -0.03540
# Poissons Ratio (y) = 0.38170 0.02960
# Poissons Ratio (z) = -0.03008 0.05969
#
# Static dielectric constant tensor:
#      x y z
#    x 1.827150 0.000000 0.000000 
#    y 0.000000 1.888880 0.000000 
#    z 0.000000 0.000000 1.871530 
# 
# From -- ./inp_files/7309.got.cif
#   From: 2010.05.17/outbox.cif.g08.bks.cpg/sg47_4_cif.got.tgz:7309.got - 2010.06.03 20:15:42.
