data_PCOD9383204
_publ_section_title
;
Structure prediction by ZEFSAII (Michael W. Deem and Ramdas Pophale) SiO2 
 PCOD9383204
Probable space group: P M M M
;
_chemical_formula_sum "Si O2"
_cell_formula_units_Z 36
_cell_length_a 7.954572
_cell_length_b 12.046825
_cell_length_c 23.003266
_cell_angle_alpha 90.000000
_cell_angle_beta 90.000000
_cell_angle_gamma 90.000000
_cell_volume 2204.341719
_symmetry_space_group_name_H-M "P M M M"
_symmetry_group_IT_number 47
_symmetry_cell_setting 'orthorhombic'
loop_
_space_group_symop_operation_xyz
x,y,z
-x,-y,z
x,-y,-z
-x,y,-z
-x,-y,-z
x,y,-z
-x,y,z
x,-y,z
loop_
_atom_site_type_symbol
_atom_site_label
_atom_site_fract_x
_atom_site_fract_y
_atom_site_fract_z
Si Si1 0.313013 0.865151 0.855025
Si Si2 0.700492 0.500000 0.433024
Si Si3 0.202126 0.262127 0.612796
Si Si4 0.000000 0.135585 0.067066
Si Si5 0.796122 0.870630 0.725422
Si Si6 0.794070 0.127551 0.500000
O O1 0.500000 0.828226 0.871635
O O2 0.165514 0.827719 0.897882
O O3 0.274069 0.836399 0.788133
O O4 0.310904 0.000000 0.856627
O O5 0.500000 0.500000 0.436505
O O6 0.767018 0.500000 0.500000
O O7 0.755046 0.389317 0.399638
O O8 0.261864 0.207704 0.672916
O O9 0.263493 0.191156 0.557585
O O10 0.000000 0.252403 0.613682
O O11 0.000000 0.000000 0.067585
O O12 0.000000 0.170311 0.000000
O O13 0.000000 0.867197 0.729011
O O14 0.750557 0.000000 0.714263
O O15 0.000000 0.129263 0.500000
O O16 0.741953 0.000000 0.500000
#
# Coordination Sequence:
#
# PCOD9383204 Si02
#       6
#     8   4   8   4   8   4
#     4   9  16  26  41  61  88 125 163 197 236 283
#     4  11  23  37  49  61  87 123 157 196 245 296
#     4  10  19  31  51  71  87 115 154 195 238 290
#     4   9  16  26  40  60  90 126 163 202 234 268
#     4   9  16  28  46  69  95 120 150 193 246 296
#     4   9  16  27  45  72  96 111 142 193 242 285
#
# _framework density 16.331406000000001
#
# number of rings (size 3 to 8) (size 9 to 14) (size 15 to 20)
#    0.000    2.556    2.222    1.000    0.000    4.444 
#    0.000    2.222    0.000    2.667    0.000    0.000 
#    0.000    0.000    0.000    2.000    0.000    5.556 
#
# Total GULP energy -200702.673097 kJ/mol
# GULP energy per Si atom -5575.074253 kJ/mol
# Density = 1.629424 g / cm^3
# Si number density = 16.331406 Si / 1000 Ang^3
#
#
#
# Elastic Constant Matrix: (Units=GPa)
#
#
# Indices 1 2 3 4 5 6 
#
# 1 71.5883 17.0081 63.2896 0.0000 0.0000 0.0000
# 2 17.0081 76.1531 52.0532 0.0000 0.0000 0.0000
# 3 63.2896 52.0532 155.3840 0.0000 0.0000 0.0000
# 4 0.0000 0.0000 0.0000 1.5245 0.0000 0.0000
# 5 0.0000 0.0000 0.0000 0.0000 5.3790 0.0000
# 6 0.0000 0.0000 0.0000 0.0000 0.0000 1.4269
#
#
#
# Elastic Compliance Matrix: (Units=1/GPa)
#
#
# Indices 1 2 3 4 5 6 
#
# 1 0.021973 0.001569 -0.009476 0.000000 0.000000 0.000000
# 2 0.001569 0.017143 -0.006382 0.000000 0.000000 0.000000
# 3 -0.009476 -0.006382 0.012433 0.000000 0.000000 0.000000
# 4 0.000000 0.000000 0.000000 0.655932 0.000000 0.000000
# 5 0.000000 0.000000 0.000000 0.000000 0.185907 0.000000
# 6 0.000000 0.000000 0.000000 0.000000 0.000000 0.700841
#
#
# Mechanical properties :
#
#
# Convention : Reuss Voigt Hill
#
# Bulk Modulus (GPa) = 43.52965 63.09189 53.31077
# Shear Modulus (GPa) = 3.06661 13.05105 8.05883
#
# Velocity S-wave (km/s) = 1.37179 2.82997 2.22380
# Velocity P-wave (km/s) = 5.40564 7.02812 6.26958
#
# Compressibility (1/GPa) = 0.02297285
#
# Stress axis : x y z
#
# Youngs Moduli (GPa) = 45.51022 58.33146 80.42969
#
# Poissons Ratio (x) = -0.09155 0.76212
# Poissons Ratio (y) = -0.07142 0.51332
# Poissons Ratio (z) = 0.43124 0.37229
#
# Static dielectric constant tensor:
#      x y z
#    x 1.587830 0.000000 0.000000 
#    y 0.000000 1.509860 0.000000 
#    z 0.000000 0.000000 1.544000 
# 
# From -- ./inp_files/29288.got.cif
#   From: 2010.05.17/outbox.cif.g08.bks.cpg/sg47_15_cif.got.tgz:29288.got - 2010.06.03 20:15:42.
