data_PCOD9383995
_publ_section_title
;
Structure prediction by ZEFSAII (Michael W. Deem and Ramdas Pophale) SiO2 
 PCOD9383995
Probable space group: P M M M
;
_chemical_formula_sum "Si O2"
_cell_formula_units_Z 56
_cell_length_a 19.307591
_cell_length_b 8.686073
_cell_length_c 17.896747
_cell_angle_alpha 90.000000
_cell_angle_beta 90.000000
_cell_angle_gamma 90.000000
_cell_volume 3001.412342
_symmetry_space_group_name_H-M "P M M M"
_symmetry_group_IT_number 47
_symmetry_cell_setting 'orthorhombic'
loop_
_space_group_symop_operation_xyz
x,y,z
-x,-y,z
x,-y,-z
-x,y,-z
-x,-y,-z
x,y,-z
-x,y,z
x,-y,z
loop_
_atom_site_type_symbol
_atom_site_label
_atom_site_fract_x
_atom_site_fract_y
_atom_site_fract_z
Si Si1 0.836085 0.817439 0.915029
Si Si2 0.303733 0.684865 0.299791
Si Si3 0.678885 0.183660 0.134467
Si Si4 0.578804 0.687449 0.584995
Si Si5 0.918907 0.315339 0.500000
Si Si6 0.419840 0.811962 0.000000
Si Si7 0.157436 0.819384 0.355333
Si Si8 0.918329 0.323115 0.219613
O O1 0.754366 0.793145 0.902142
O O2 0.878235 0.721046 0.855212
O O3 0.849157 0.000000 0.903276
O O4 0.854280 0.778921 0.000000
O O5 0.300145 0.500000 0.301032
O O6 0.319235 0.738626 0.215486
O O7 0.365276 0.737999 0.354736
O O8 0.231409 0.749828 0.331023
O O9 0.621250 0.237154 0.074838
O O10 0.669913 0.000000 0.145350
O O11 0.595966 0.734947 0.500000
O O12 0.500000 0.736384 0.601723
O O13 0.578897 0.500000 0.585437
O O14 0.919233 0.500000 0.500000
O O15 0.877814 0.257037 0.427375
O O16 0.000000 0.264035 0.500000
O O17 0.500000 0.764579 0.000000
O O18 0.417671 0.000000 0.000000
O O19 0.107605 0.786217 0.285355
O O20 0.165339 0.000000 0.368400
O O21 0.902590 0.500000 0.240971
O O22 0.000000 0.308703 0.208590
#
# Coordination Sequence:
#
# PCOD9383995 Si02
#       8
#     8   8   8   8   4   4   8   8
#     4  10  20  36  59  84 113 154 200 244 290 350
#     4  11  22  35  58  90 120 154 198 247 298 352
#     4  10  19  35  57  82 114 153 197 243 291 348
#     4   8  16  33  56  82 113 151 193 234 281 340
#     4  11  25  45  67  91 122 159 200 249 303 360
#     4   9  18  34  59  89 120 159 204 246 296 362
#     4  12  25  41  62  90 123 160 201 246 296 357
#     4  11  24  41  61  87 119 154 195 247 301 353
#
# _framework density 18.657883000000002
#
# number of rings (size 3 to 8) (size 9 to 14) (size 15 to 20)
#    0.000    1.714    2.143    3.214    1.000    4.571 
#    0.000    1.786    0.000    1.714    0.000    4.000 
#    0.000    0.000    0.000    0.000    0.000    0.000 
#
# Total GULP energy -312761.082220 kJ/mol
# GULP energy per Si atom -5585.019325 kJ/mol
# Density = 1.861542 g / cm^3
# Si number density = 18.657883 Si / 1000 Ang^3
#
#
#
# Elastic Constant Matrix: (Units=GPa)
#
#
# Indices 1 2 3 4 5 6 
#
# 1 114.1039 41.2994 73.8836 0.0000 0.0000 0.0000
# 2 41.2994 46.2919 40.8624 0.0000 0.0000 0.0000
# 3 73.8836 40.8624 136.2611 0.0000 0.0000 0.0000
# 4 0.0000 0.0000 0.0000 36.2024 0.0000 0.0000
# 5 0.0000 0.0000 0.0000 0.0000 48.6355 0.0000
# 6 0.0000 0.0000 0.0000 0.0000 0.0000 12.7440
#
#
#
# Elastic Compliance Matrix: (Units=1/GPa)
#
#
# Indices 1 2 3 4 5 6 
#
# 1 0.015804 -0.008888 -0.005904 0.000000 0.000000 0.000000
# 2 -0.008888 0.034377 -0.005490 0.000000 0.000000 0.000000
# 3 -0.005904 -0.005490 0.012186 0.000000 0.000000 0.000000
# 4 0.000000 0.000000 0.000000 0.027622 0.000000 0.000000
# 5 0.000000 0.000000 0.000000 0.000000 0.020561 0.000000
# 6 0.000000 0.000000 0.000000 0.000000 0.000000 0.078468
#
#
# Mechanical properties :
#
#
# Convention : Reuss Voigt Hill
#
# Bulk Modulus (GPa) = 45.86284 67.63863 56.75074
# Shear Modulus (GPa) = 21.11035 28.89048 25.00041
#
# Velocity S-wave (km/s) = 3.36734 3.93928 3.66449
# Velocity P-wave (km/s) = 6.30500 7.55125 6.95609
#
# Compressibility (1/GPa) = 0.02180414
#
# Stress axis : x y z
#
# Youngs Moduli (GPa) = 63.27670 29.08880 82.05917
#
# Poissons Ratio (x) = 0.25854 0.48445
# Poissons Ratio (y) = 0.56240 0.45051
# Poissons Ratio (z) = 0.37357 0.15970
#
# Static dielectric constant tensor:
#      x y z
#    x 1.631150 0.000000 0.000000 
#    y 0.000000 1.644870 0.000000 
#    z 0.000000 0.000000 1.626400 
# 
# From -- ./inp_files/25244.got.cif
#   From: 2010.05.17/outbox.cif.g08.bks.cpg/sg47_13_cif.got.tgz:25244.got - 2010.06.03 20:15:42.
