data_PCOD9383631
_publ_section_title
;
Structure prediction by ZEFSAII (Michael W. Deem and Ramdas Pophale) SiO2 
 PCOD9383631
Probable space group: P M M M
;
_chemical_formula_sum "Si O2"
_cell_formula_units_Z 41
_cell_length_a 9.824917
_cell_length_b 11.627419
_cell_length_c 21.963808
_cell_angle_alpha 90.000000
_cell_angle_beta 90.000000
_cell_angle_gamma 90.000000
_cell_volume 2509.110868
_symmetry_space_group_name_H-M "P M M M"
_symmetry_group_IT_number 47
_symmetry_cell_setting 'orthorhombic'
loop_
_space_group_symop_operation_xyz
x,y,z
-x,-y,z
x,-y,-z
-x,y,-z
-x,-y,-z
x,y,-z
-x,y,z
x,-y,z
loop_
_atom_site_type_symbol
_atom_site_label
_atom_site_fract_x
_atom_site_fract_y
_atom_site_fract_z
Si Si1 0.500000 0.500000 0.500000
Si Si2 0.845004 0.137736 0.227740
Si Si3 0.770632 0.230963 0.358893
Si Si4 0.000000 0.362878 0.569732
Si Si5 0.836433 0.000000 0.427205
Si Si6 0.500000 0.628145 0.373222
Si Si7 0.657720 0.139905 0.884737
Si Si8 0.841296 0.859848 0.000000
O O1 0.500000 0.598441 0.445440
O O2 0.823136 0.200039 0.291754
O O3 0.733708 0.172615 0.177703
O O4 0.000000 0.157324 0.205645
O O5 0.831474 0.000000 0.237885
O O6 0.871229 0.314869 0.394977
O O7 0.629329 0.296589 0.356151
O O8 0.771583 0.112667 0.397022
O O9 0.000000 0.500000 0.568654
O O10 0.000000 0.320328 0.500000
O O11 0.821143 0.000000 0.500000
O O12 0.000000 0.000000 0.413634
O O13 0.500000 0.500000 0.344130
O O14 0.500000 0.178028 0.888996
O O15 0.654870 0.000000 0.885995
O O16 0.754014 0.175774 0.940874
O O17 0.000000 0.822569 0.000000
O O18 0.844701 0.000000 0.000000
#
# Coordination Sequence:
#
# PCOD9383631 Si02
#       8
#     1   8   8   4   4   4   8   4
#     4   8  24  48  60  72 108 136 180 228 294 336
#     4  10  19  33  49  72 106 143 178 214 269 331
#     4  12  22  39  56  80 109 142 177 227 278 339
#     4  11  24  37  61  83 101 135 187 234 286 339
#     4  11  22  35  55  83 111 138 169 222 279 331
#     4  10  26  41  60  76 103 137 178 231 279 333
#     4   9  17  27  43  66  98 139 185 225 259 309
#     4   9  15  25  41  65  95 137 186 229 264 299
#
# _framework density 16.340449
#
# number of rings (size 3 to 8) (size 9 to 14) (size 15 to 20)
#    0.293    1.463    2.927    2.049    4.098    3.902 
#    0.000    0.488    0.000    0.000    0.000    0.000 
#    0.000    0.000    0.000    5.268    0.000    0.683 
#
# Total GULP energy -228344.346560 kJ/mol
# GULP energy per Si atom -5569.374306 kJ/mol
# Density = 1.630326 g / cm^3
# Si number density = 16.340449 Si / 1000 Ang^3
#
#
#
# Elastic Constant Matrix: (Units=GPa)
#
#
# Indices 1 2 3 4 5 6 
#
# 1 157.3483 39.1772 58.6286 0.0000 0.0000 0.0000
# 2 39.1772 61.1381 18.5447 0.0000 0.0000 0.0000
# 3 58.6286 18.5447 114.4125 0.0000 0.0000 0.0000
# 4 0.0000 0.0000 0.0000 54.6227 0.0000 0.0000
# 5 0.0000 0.0000 0.0000 0.0000 11.2350 0.0000
# 6 0.0000 0.0000 0.0000 0.0000 0.0000 15.6873
#
#
#
# Elastic Compliance Matrix: (Units=1/GPa)
#
#
# Indices 1 2 3 4 5 6 
#
# 1 0.008916 -0.004551 -0.003831 0.000000 0.000000 0.000000
# 2 -0.004551 0.019525 -0.000833 0.000000 0.000000 0.000000
# 3 -0.003831 -0.000833 0.010838 0.000000 0.000000 0.000000
# 4 0.000000 0.000000 0.000000 0.018307 0.000000 0.000000
# 5 0.000000 0.000000 0.000000 0.000000 0.089007 0.000000
# 6 0.000000 0.000000 0.000000 0.000000 0.000000 0.063746
#
#
# Mechanical properties :
#
#
# Convention : Reuss Voigt Hill
#
# Bulk Modulus (GPa) = 47.96192 62.84441 55.40317
# Shear Modulus (GPa) = 21.21157 30.74557 25.97857
#
# Velocity S-wave (km/s) = 3.60683 4.34240 3.99160
# Velocity P-wave (km/s) = 6.83820 7.98028 7.43121
#
# Compressibility (1/GPa) = 0.02084987
#
# Stress axis : x y z
#
# Youngs Moduli (GPa) = 112.15753 51.21525 92.26412
#
# Poissons Ratio (x) = 0.23310 0.35348
# Poissons Ratio (y) = 0.51046 0.07682
# Poissons Ratio (z) = 0.42969 0.04264
#
# Static dielectric constant tensor:
#      x y z
#    x 1.545480 0.000000 0.000000 
#    y 0.000000 1.520530 0.000000 
#    z 0.000000 0.000000 1.540740 
# 
# From -- ./inp_files/31849.got.cif
#   From: 2010.05.17/outbox.cif.g08.bks.cpg/sg47_16_cif.got.tgz:31849.got - 2010.06.03 20:15:42.
