data_PCOD9383242
_publ_section_title
;
Structure prediction by ZEFSAII (Michael W. Deem and Ramdas Pophale) SiO2 
 PCOD9383242
Probable space group: P M M M
;
_chemical_formula_sum "Si O2"
_cell_formula_units_Z 52
_cell_length_a 9.079313
_cell_length_b 21.265453
_cell_length_c 14.535913
_cell_angle_alpha 90.000000
_cell_angle_beta 90.000000
_cell_angle_gamma 90.000000
_cell_volume 2806.531634
_symmetry_space_group_name_H-M "P M M M"
_symmetry_group_IT_number 47
_symmetry_cell_setting 'orthorhombic'
loop_
_space_group_symop_operation_xyz
x,y,z
-x,-y,z
x,-y,-z
-x,y,-z
-x,-y,-z
x,y,-z
-x,y,z
x,-y,z
loop_
_atom_site_type_symbol
_atom_site_label
_atom_site_fract_x
_atom_site_fract_y
_atom_site_fract_z
Si Si1 0.679596 0.000000 0.893791
Si Si2 0.171913 0.319391 0.610270
Si Si3 0.322854 0.877562 0.778792
Si Si4 0.328435 0.752126 0.890959
Si Si5 0.824830 0.620966 0.106688
Si Si6 0.177681 0.824103 0.393532
Si Si7 0.324557 0.430559 0.719907
O O1 0.724621 0.937898 0.837877
O O2 0.500000 0.000000 0.896413
O O3 0.729463 0.000000 0.000000
O O4 0.180143 0.326392 0.500000
O O5 0.222436 0.247989 0.630484
O O6 0.261250 0.373779 0.659732
O O7 0.000000 0.324438 0.637203
O O8 0.500000 0.880340 0.768944
O O9 0.287375 0.814089 0.835070
O O10 0.248996 0.870708 0.679496
O O11 0.500000 0.736276 0.870668
O O12 0.227585 0.692085 0.871559
O O13 0.319117 0.765660 0.000000
O O14 0.743020 0.577100 0.178691
O O15 0.000000 0.615626 0.116523
O O16 0.786080 0.608593 0.000000
O O17 0.218601 0.835950 0.500000
O O18 0.000000 0.826231 0.388298
O O19 0.500000 0.425702 0.724357
O O20 0.285606 0.500000 0.683017
#
# Coordination Sequence:
#
# PCOD9383242 Si02
#       7
#     4   8   8   8   8   8   8
#     4   9  18  34  54  77 110 148 181 213 252 301
#     4   9  19  37  60  83 106 135 172 214 261 313
#     4  10  19  31  52  80 106 138 179 217 254 299
#     4   9  17  30  50  77 106 133 165 209 262 318
#     4  10  21  36  54  76 101 132 173 220 268 316
#     4   9  19  36  56  78 105 136 170 212 264 314
#     4  11  24  38  52  74 105 140 175 212 259 315
#
# _framework density 18.528206000000001
#
# number of rings (size 3 to 8) (size 9 to 14) (size 15 to 20)
#    0.000    2.385    0.000    3.231    0.000    8.923 
#    0.000    5.385    0.000    4.154    0.000    0.000 
#    0.000    0.000    0.000    0.000    0.000    0.000 
#
# Total GULP energy -290280.430105 kJ/mol
# GULP energy per Si atom -5582.315964 kJ/mol
# Density = 1.848604 g / cm^3
# Si number density = 18.528206 Si / 1000 Ang^3
#
#
#
# Elastic Constant Matrix: (Units=GPa)
#
#
# Indices 1 2 3 4 5 6 
#
# 1 25.8454 27.8898 28.7030 0.0000 0.0000 0.0000
# 2 27.8898 84.1941 69.8294 0.0000 0.0000 0.0000
# 3 28.7030 69.8294 91.9222 0.0000 0.0000 0.0000
# 4 0.0000 0.0000 0.0000 20.8868 0.0000 0.0000
# 5 0.0000 0.0000 0.0000 0.0000 31.4729 0.0000
# 6 0.0000 0.0000 0.0000 0.0000 0.0000 -2.8280
#
#
#
# Elastic Compliance Matrix: (Units=1/GPa)
#
#
# Indices 1 2 3 4 5 6 
#
# 1 0.063719 -0.012449 -0.010440 0.000000 0.000000 0.000000
# 2 -0.012449 0.034537 -0.022349 0.000000 0.000000 0.000000
# 3 -0.010440 -0.022349 0.031116 0.000000 0.000000 0.000000
# 4 0.000000 0.000000 0.000000 0.047877 0.000000 0.000000
# 5 0.000000 0.000000 0.000000 0.000000 0.031773 0.000000
# 6 0.000000 0.000000 0.000000 0.000000 0.000000 -0.353609
#
#
# Mechanical properties :
#
#
# Convention : Reuss Voigt Hill
#
# Bulk Modulus (GPa) = 25.70881 50.53401 38.12141
# Shear Modulus (GPa) = -121.52109 14.94232 -53.28938
#
# Velocity S-wave (km/s) = -8.10737 2.84291 -5.36877
# Velocity P-wave (km/s) = 8.58683 6.17329 4.22044
#
# Compressibility (1/GPa) = 0.03889717
#
# Stress axis : x y z
#
# Youngs Moduli (GPa) = 15.69390 28.95436 32.13745
#
# Poissons Ratio (x) = 0.36044 0.33551
# Poissons Ratio (y) = 0.19537 0.71825
# Poissons Ratio (z) = 0.16384 0.64711
#
# Static dielectric constant tensor:
#      x y z
#    x 1.620890 0.000000 0.000000 
#    y 0.000000 1.631870 0.000000 
#    z 0.000000 0.000000 1.644320 
# 
# From -- ./inp_files/6994.got.cif
#   From: 2010.05.17/outbox.cif.g08.bks.cpg/sg47_4_cif.got.tgz:6994.got - 2010.06.03 20:15:42.
