data_PCOD9383698
_publ_section_title
;
Structure prediction by ZEFSAII (Michael W. Deem and Ramdas Pophale) SiO2 
 PCOD9383698
Probable space group: P M M M
;
_chemical_formula_sum "Si O2"
_cell_formula_units_Z 44
_cell_length_a 31.072101
_cell_length_b 8.460815
_cell_length_c 7.634465
_cell_angle_alpha 90.000000
_cell_angle_beta 90.000000
_cell_angle_gamma 90.000000
_cell_volume 2007.064953
_symmetry_space_group_name_H-M "P M M M"
_symmetry_group_IT_number 47
_symmetry_cell_setting 'orthorhombic'
loop_
_space_group_symop_operation_xyz
x,y,z
-x,-y,z
x,-y,-z
-x,y,-z
-x,-y,-z
x,y,-z
-x,y,z
x,-y,z
loop_
_atom_site_type_symbol
_atom_site_label
_atom_site_fract_x
_atom_site_fract_y
_atom_site_fract_z
Si Si1 0.769270 0.325799 0.292633
Si Si2 0.549919 0.000000 0.213461
Si Si3 0.681341 0.172856 0.207062
Si Si4 0.046300 0.191697 0.209207
Si Si5 0.403573 0.325628 0.785933
Si Si6 0.138995 0.181501 0.211314
O O1 0.764224 0.332300 0.500000
O O2 0.762876 0.500000 0.216406
O O3 0.731083 0.215361 0.228317
O O4 0.817676 0.270814 0.257182
O O5 0.571862 0.165452 0.270141
O O6 0.500000 0.000000 0.263076
O O7 0.552665 0.000000 0.000000
O O8 0.646247 0.298682 0.269537
O O9 0.672807 0.000000 0.284138
O O10 0.673548 0.162927 0.000000
O O11 0.092840 0.247887 0.275814
O O12 0.000000 0.246958 0.281036
O O13 0.047210 0.000000 0.228227
O O14 0.045356 0.223123 0.000000
O O15 0.418561 0.500000 0.727041
O O16 0.406182 0.328546 0.000000
O O17 0.143094 0.000000 0.272338
O O18 0.136265 0.178036 0.000000
#
# Coordination Sequence:
#
# PCOD9383698 Si02
#       6
#     8   4   8   8   8   8
#     4  11  24  37  47  65  96 131 166 204 247 298
#     4   9  16  26  40  64 101 139 175 213 252 301
#     4  10  19  33  54  76  97 124 164 211 255 305
#     4   7  10  19  39  68  97 119 143 185 239 288
#     4   9  16  27  44  67  97 133 171 211 255 301
#     4   9  17  30  50  75  98 122 157 198 242 296
#
# _framework density 21.922557000000001
#
# number of rings (size 3 to 8) (size 9 to 14) (size 15 to 20)
#    0.000    2.818    0.909    3.273    0.000    5.455 
#    0.000    1.818    0.000    1.091    0.000    6.364 
#    0.000    1.455    0.000    3.818    0.000    3.636 
#
# Total GULP energy -245226.862219 kJ/mol
# GULP energy per Si atom -5573.337778 kJ/mol
# Density = 2.187266 g / cm^3
# Si number density = 21.922557 Si / 1000 Ang^3
#
#
#
# Elastic Constant Matrix: (Units=GPa)
#
#
# Indices 1 2 3 4 5 6 
#
# 1 135.9365 60.6216 -4.7761 0.0000 0.0000 0.0000
# 2 60.6216 124.9672 4.9871 0.0000 0.0000 0.0000
# 3 -4.7761 4.9871 38.3078 0.0000 0.0000 0.0000
# 4 0.0000 0.0000 0.0000 7.5334 0.0000 0.0000
# 5 0.0000 0.0000 0.0000 0.0000 -76.5576 0.0000
# 6 0.0000 0.0000 0.0000 0.0000 0.0000 27.2853
#
#
#
# Elastic Compliance Matrix: (Units=1/GPa)
#
#
# Indices 1 2 3 4 5 6 
#
# 1 0.009508 -0.004684 0.001795 0.000000 0.000000 0.000000
# 2 -0.004684 0.010351 -0.001932 0.000000 0.000000 0.000000
# 3 0.001795 -0.001932 0.026580 0.000000 0.000000 0.000000
# 4 0.000000 0.000000 0.000000 0.132743 0.000000 0.000000
# 5 0.000000 0.000000 0.000000 0.000000 -0.013062 0.000000
# 6 0.000000 0.000000 0.000000 0.000000 0.000000 0.036650
#
#
# Mechanical properties :
#
#
# Convention : Reuss Voigt Hill
#
# Bulk Modulus (GPa) = 27.17503 46.76407 36.96955
# Shear Modulus (GPa) = 22.25415 7.54415 14.89915
#
# Velocity S-wave (km/s) = 3.18956 1.85708 2.60979
# Velocity P-wave (km/s) = 5.09777 5.09668 5.09722
#
# Compressibility (1/GPa) = 0.03679849
#
# Stress axis : x y z
#
# Youngs Moduli (GPa) = 105.17042 96.60460 37.62282
#
# Poissons Ratio (x) = 0.45251 -0.06754
# Poissons Ratio (y) = 0.49263 0.07267
# Poissons Ratio (z) = -0.18881 0.18660
#
# Static dielectric constant tensor:
#      x y z
#    x 1.823210 0.000000 0.000000 
#    y 0.000000 1.889020 0.000000 
#    z 0.000000 0.000000 1.811430 
# 
# From -- ./inp_files/13591.got.cif
#   From: 2010.05.17/outbox.cif.g08.bks.cpg/sg47_7_cif.got.tgz:13591.got - 2010.06.03 20:15:42.
