data_PCOD9383091
_publ_section_title
;
Structure prediction by ZEFSAII (Michael W. Deem and Ramdas Pophale) SiO2 
 PCOD9383091
Probable space group: P M M M
;
_chemical_formula_sum "Si O2"
_cell_formula_units_Z 52
_cell_length_a 7.528660
_cell_length_b 15.754091
_cell_length_c 20.725971
_cell_angle_alpha 90.000000
_cell_angle_beta 90.000000
_cell_angle_gamma 90.000000
_cell_volume 2458.249279
_symmetry_space_group_name_H-M "P M M M"
_symmetry_group_IT_number 47
_symmetry_cell_setting 'orthorhombic'
loop_
_space_group_symop_operation_xyz
x,y,z
-x,-y,z
x,-y,-z
-x,y,-z
-x,-y,-z
x,y,-z
-x,y,z
x,-y,z
loop_
_atom_site_type_symbol
_atom_site_label
_atom_site_fract_x
_atom_site_fract_y
_atom_site_fract_z
Si Si1 0.298247 0.000000 0.424233
Si Si2 0.283578 0.403711 0.073620
Si Si3 0.295844 0.903956 0.784685
Si Si4 0.281859 0.277406 0.814004
Si Si5 0.786951 0.327457 0.426635
Si Si6 0.798092 0.162731 0.646599
Si Si7 0.287520 0.407420 0.294981
O O1 0.202665 0.916465 0.400711
O O2 0.500000 0.000000 0.397836
O O3 0.307547 0.000000 0.500000
O O4 0.500000 0.403619 0.074392
O O5 0.228617 0.500000 0.090120
O O6 0.226681 0.335078 0.125821
O O7 0.228792 0.385749 0.000000
O O8 0.500000 0.911111 0.805997
O O9 0.217764 0.819908 0.818646
O O10 0.294449 0.871767 0.710646
O O11 0.218844 0.000000 0.788790
O O12 0.500000 0.274070 0.812494
O O13 0.225038 0.328605 0.749173
O O14 0.721203 0.341414 0.500000
O O15 0.717606 0.241142 0.392875
O O16 0.750836 0.395583 0.370806
O O17 0.000000 0.319142 0.431710
O O18 0.000000 0.184372 0.664915
O O19 0.500000 0.408057 0.287406
O O20 0.220796 0.500000 0.273254
#
# Coordination Sequence:
#
# PCOD9383091 Si02
#       7
#     4   8   8   8   8   8   8
#     4  11  23  35  49  71  97 125 158 201 260 323
#     4   8  13  22  40  69 103 137 171 204 243 296
#     4  10  19  31  49  71  97 129 166 204 248 302
#     4   9  16  28  46  68  99 134 164 204 253 294
#     4  10  22  38  52  67  92 127 164 204 254 308
#     4  11  21  34  52  71  93 123 163 211 258 304
#     4  10  20  33  51  74  96 123 164 209 253 303
#
# _framework density 21.153265999999999
#
# number of rings (size 3 to 8) (size 9 to 14) (size 15 to 20)
#    0.000    2.231    2.308    2.077    0.000    4.615 
#    0.000    1.538    0.000    0.462    0.000    3.231 
#    0.000    2.462    0.000    9.846    0.000    9.231 
#
# Total GULP energy -290014.842081 kJ/mol
# GULP energy per Si atom -5577.208502 kJ/mol
# Density = 2.110512 g / cm^3
# Si number density = 21.153266 Si / 1000 Ang^3
#
#
#
# Elastic Constant Matrix: (Units=GPa)
#
#
# Indices 1 2 3 4 5 6 
#
# 1 59.2780 9.7265 1.6372 0.0000 0.0000 0.0000
# 2 9.7265 181.8305 77.1387 0.0000 0.0000 0.0000
# 3 1.6372 77.1387 110.9657 0.0000 0.0000 0.0000
# 4 0.0000 0.0000 0.0000 32.8682 0.0000 0.0000
# 5 0.0000 0.0000 0.0000 0.0000 -182.9063 0.0000
# 6 0.0000 0.0000 0.0000 0.0000 0.0000 5.5430
#
#
#
# Elastic Compliance Matrix: (Units=1/GPa)
#
#
# Indices 1 2 3 4 5 6 
#
# 1 0.017042 -0.001142 0.000542 0.000000 0.000000 0.000000
# 2 -0.001142 0.007876 -0.005458 0.000000 0.000000 0.000000
# 3 0.000542 -0.005458 0.012798 0.000000 0.000000 0.000000
# 4 0.000000 0.000000 0.000000 0.030425 0.000000 0.000000
# 5 0.000000 0.000000 0.000000 0.000000 -0.005467 0.000000
# 6 0.000000 0.000000 0.000000 0.000000 0.000000 0.180409
#
#
# Mechanical properties :
#
#
# Convention : Reuss Voigt Hill
#
# Bulk Modulus (GPa) = 39.06123 58.78654 48.92388
# Shear Modulus (GPa) = 18.95860 -11.32757 3.81551
#
# Velocity S-wave (km/s) = 2.99699 -2.31660 1.34449
# Velocity P-wave (km/s) = 5.52104 4.54924 5.05853
#
# Compressibility (1/GPa) = 0.02560083
#
# Stress axis : x y z
#
# Youngs Moduli (GPa) = 58.67850 126.96214 78.13542
#
# Poissons Ratio (x) = 0.14494 -0.04236
# Poissons Ratio (y) = 0.06699 0.42650
# Poissons Ratio (z) = -0.03181 0.69302
#
# Static dielectric constant tensor:
#      x y z
#    x 1.793490 0.000000 0.000000 
#    y 0.000000 1.792320 0.000000 
#    z 0.000000 0.000000 1.747110 
# 
# From -- ./inp_files/6968.got.cif
#   From: 2010.05.17/outbox.cif.g08.bks.cpg/sg47_4_cif.got.tgz:6968.got - 2010.06.03 20:15:42.
