data_PCOD9383263
_publ_section_title
;
Structure prediction by ZEFSAII (Michael W. Deem and Ramdas Pophale) SiO2 
 PCOD9383263
Probable space group: P M M M
;
_chemical_formula_sum "Si O2"
_cell_formula_units_Z 52
_cell_length_a 7.862045
_cell_length_b 21.638430
_cell_length_c 15.247481
_cell_angle_alpha 90.000000
_cell_angle_beta 90.000000
_cell_angle_gamma 90.000000
_cell_volume 2593.936695
_symmetry_space_group_name_H-M "P M M M"
_symmetry_group_IT_number 47
_symmetry_cell_setting 'orthorhombic'
loop_
_space_group_symop_operation_xyz
x,y,z
-x,-y,z
x,-y,-z
-x,y,-z
-x,-y,-z
x,y,-z
-x,y,z
x,-y,z
loop_
_atom_site_type_symbol
_atom_site_label
_atom_site_fract_x
_atom_site_fract_y
_atom_site_fract_z
Si Si1 0.702083 0.201999 0.231256
Si Si2 0.199752 0.432870 0.204969
Si Si3 0.290815 0.930234 0.191465
Si Si4 0.697354 0.412264 0.596527
Si Si5 0.703531 0.308419 0.899139
Si Si6 0.688729 0.925948 0.000000
Si Si7 0.202784 0.728278 0.594992
O O1 0.500000 0.197390 0.214993
O O2 0.764148 0.131309 0.240888
O O3 0.770021 0.248579 0.155504
O O4 0.733933 0.234214 0.323105
O O5 0.271469 0.500000 0.175623
O O6 0.222386 0.430768 0.310727
O O7 0.267579 0.371450 0.156747
O O8 0.000000 0.432799 0.186557
O O9 0.500000 0.933292 0.189450
O O10 0.230051 0.913868 0.092800
O O11 0.235287 0.000000 0.215521
O O12 0.767302 0.431459 0.500000
O O13 0.500000 0.430308 0.599231
O O14 0.711335 0.338389 0.596669
O O15 0.500000 0.301348 0.904389
O O16 0.767831 0.312220 0.000000
O O17 0.500000 0.896459 0.000000
O O18 0.668196 0.000000 0.000000
O O19 0.238080 0.757446 0.500000
O O20 0.000000 0.718608 0.602183
#
# Coordination Sequence:
#
# PCOD9383263 Si02
#       7
#     8   8   8   8   8   4   8
#     4  10  19  31  53  82 110 141 177 220 267 317
#     4  11  24  40  58  80 108 144 184 225 269 319
#     4   8  14  24  41  70 107 142 175 213 259 311
#     4  10  20  35  57  84 112 140 172 214 267 326
#     4  10  22  38  55  79 110 143 183 230 275 317
#     4   7  10  18  34  60  97 137 170 201 244 300
#     4  10  20  34  54  79 107 139 175 218 268 321
#
# _framework density 20.046751
#
# number of rings (size 3 to 8) (size 9 to 14) (size 15 to 20)
#    0.000    2.385    1.538    2.308    1.077    4.000 
#    0.000    3.077    0.000    0.923    0.000    3.231 
#    0.000    1.846    0.000    0.000    0.000    0.000 
#
# Total GULP energy -289568.672727 kJ/mol
# GULP energy per Si atom -5568.628322 kJ/mol
# Density = 2.000112 g / cm^3
# Si number density = 20.046751 Si / 1000 Ang^3
#
#
#
# Elastic Constant Matrix: (Units=GPa)
#
#
# Indices 1 2 3 4 5 6 
#
# 1 15.0654 8.2659 -5.8158 0.0000 0.0000 0.0000
# 2 8.2659 171.8352 75.7125 0.0000 0.0000 0.0000
# 3 -5.8158 75.7125 106.9776 0.0000 0.0000 0.0000
# 4 0.0000 0.0000 0.0000 -28.8327 0.0000 0.0000
# 5 0.0000 0.0000 0.0000 0.0000 -73.4395 0.0000
# 6 0.0000 0.0000 0.0000 0.0000 0.0000 7.3749
#
#
#
# Elastic Compliance Matrix: (Units=1/GPa)
#
#
# Indices 1 2 3 4 5 6 
#
# 1 0.074334 -0.007784 0.009550 0.000000 0.000000 0.000000
# 2 -0.007784 0.009272 -0.006985 0.000000 0.000000 0.000000
# 3 0.009550 -0.006985 0.014811 0.000000 0.000000 0.000000
# 4 0.000000 0.000000 0.000000 -0.034683 0.000000 0.000000
# 5 0.000000 0.000000 0.000000 0.000000 -0.013617 0.000000
# 6 0.000000 0.000000 0.000000 0.000000 0.000000 0.135595
#
#
# Mechanical properties :
#
#
# Convention : Reuss Voigt Hill
#
# Bulk Modulus (GPa) = 11.36632 50.02261 30.69446
# Shear Modulus (GPa) = 22.17533 -4.59842 8.78845
#
# Velocity S-wave (km/s) = 3.32954 -1.51619 2.09607
# Velocity P-wave (km/s) = 4.52364 4.68423 4.60464
#
# Compressibility (1/GPa) = 0.08797921
#
# Stress axis : x y z
#
# Youngs Moduli (GPa) = 13.45271 107.85570 67.51942
#
# Poissons Ratio (x) = 0.83950 -0.64480
# Poissons Ratio (y) = 0.10471 0.47163
# Poissons Ratio (z) = -0.12847 0.75338
#
# Static dielectric constant tensor:
#      x y z
#    x 1.757600 0.000000 0.000000 
#    y 0.000000 1.711840 0.000000 
#    z 0.000000 0.000000 1.737230 
# 
# From -- ./inp_files/21389.got.cif
#   From: 2010.05.17/outbox.cif.g08.bks.cpg/sg47_11_cif.got.tgz:21389.got - 2010.06.03 20:15:42.
