data_PCOD9383210
_publ_section_title
;
Structure prediction by ZEFSAII (Michael W. Deem and Ramdas Pophale) SiO2 
 PCOD9383210
Probable space group: P M M M
;
_chemical_formula_sum "Si O2"
_cell_formula_units_Z 56
_cell_length_a 15.116927
_cell_length_b 9.934746
_cell_length_c 21.133385
_cell_angle_alpha 90.000000
_cell_angle_beta 90.000000
_cell_angle_gamma 90.000000
_cell_volume 3173.871568
_symmetry_space_group_name_H-M "P M M M"
_symmetry_group_IT_number 47
_symmetry_cell_setting 'orthorhombic'
loop_
_space_group_symop_operation_xyz
x,y,z
-x,-y,z
x,-y,-z
-x,y,-z
-x,-y,-z
x,y,-z
-x,y,z
x,-y,z
loop_
_atom_site_type_symbol
_atom_site_label
_atom_site_fract_x
_atom_site_fract_y
_atom_site_fract_z
Si Si1 0.293287 0.339757 0.805525
Si Si2 0.096786 0.656552 0.223723
Si Si3 0.602701 0.336501 0.070048
Si Si4 0.899251 0.843711 0.346394
Si Si5 0.788204 0.644311 0.426657
Si Si6 0.400748 0.753045 0.570672
Si Si7 0.603010 0.152799 0.711044
O O1 0.310151 0.500000 0.795827
O O2 0.187946 0.322355 0.813244
O O3 0.341879 0.293096 0.869374
O O4 0.332673 0.256852 0.746333
O O5 0.099307 0.500000 0.245376
O O6 0.100737 0.759405 0.281808
O O7 0.000000 0.674807 0.192184
O O8 0.500000 0.297937 0.077388
O O9 0.605562 0.500000 0.069842
O O10 0.632988 0.292079 0.000000
O O11 0.831026 0.769123 0.391562
O O12 0.000000 0.836499 0.371954
O O13 0.877248 0.000000 0.336433
O O14 0.814605 0.648668 0.500000
O O15 0.816606 0.500000 0.399171
O O16 0.682104 0.654035 0.425131
O O17 0.393816 0.818042 0.500000
O O18 0.500000 0.693423 0.573312
O O19 0.391759 0.839575 0.634535
O O20 0.500000 0.183411 0.727224
O O21 0.622957 0.000000 0.730722
#
# Coordination Sequence:
#
# PCOD9383210 Si02
#       7
#     8   8   8   8   8   8   8
#     4  10  19  31  51  76 100 130 168 207 245 290
#     4   9  18  32  49  70  97 127 158 196 244 293
#     4   8  14  26  46  73 103 133 167 206 243 282
#     4  10  21  36  53  72  94 122 158 200 246 297
#     4  10  21  35  51  72  95 120 154 197 247 301
#     4   9  19  35  52  70  95 129 168 207 245 290
#     4  10  21  34  48  71 102 131 160 201 253 301
#
# _framework density 17.644067
#
# number of rings (size 3 to 8) (size 9 to 14) (size 15 to 20)
#    0.000    2.571    0.000    2.143    0.000    6.857 
#    0.000    7.143    0.000    0.857    0.000    5.000 
#    0.000    0.000    0.000    4.857    0.000    5.286 
#
# Total GULP energy -311788.236757 kJ/mol
# GULP energy per Si atom -5567.647085 kJ/mol
# Density = 1.760391 g / cm^3
# Si number density = 17.644067 Si / 1000 Ang^3
#
#
#
# Elastic Constant Matrix: (Units=GPa)
#
#
# Indices 1 2 3 4 5 6 
#
# 1 94.8619 40.6235 52.6826 0.0000 0.0000 0.0000
# 2 40.6235 67.9828 24.8125 0.0000 0.0000 0.0000
# 3 52.6826 24.8125 86.0436 0.0000 0.0000 0.0000
# 4 0.0000 0.0000 0.0000 -4.1986 0.0000 0.0000
# 5 0.0000 0.0000 0.0000 0.0000 17.4702 0.0000
# 6 0.0000 0.0000 0.0000 0.0000 0.0000 11.0532
#
#
#
# Elastic Compliance Matrix: (Units=1/GPa)
#
#
# Indices 1 2 3 4 5 6 
#
# 1 0.019241 -0.008044 -0.009461 0.000000 0.000000 0.000000
# 2 -0.008044 0.019803 -0.000785 0.000000 0.000000 0.000000
# 3 -0.009461 -0.000785 0.017641 0.000000 0.000000 0.000000
# 4 0.000000 0.000000 0.000000 -0.238177 0.000000 0.000000
# 5 0.000000 0.000000 0.000000 0.000000 0.057240 0.000000
# 6 0.000000 0.000000 0.000000 0.000000 0.000000 0.090471
#
#
# Mechanical properties :
#
#
# Convention : Reuss Voigt Hill
#
# Bulk Modulus (GPa) = 49.74141 53.90282 51.82212
# Shear Modulus (GPa) = 526.15606 13.58295 269.86950
#
# Velocity S-wave (km/s) = 17.28737 2.77759 12.38079
# Velocity P-wave (km/s) = 20.65729 6.39556 15.29096
#
# Compressibility (1/GPa) = 0.02010397
#
# Stress axis : x y z
#
# Youngs Moduli (GPa) = 51.97301 50.49702 56.68550
#
# Poissons Ratio (x) = 0.40621 0.53630
# Poissons Ratio (y) = 0.41809 0.04452
# Poissons Ratio (z) = 0.49171 0.03966
#
# Static dielectric constant tensor:
#      x y z
#    x 1.639590 0.000000 0.000000 
#    y 0.000000 1.593640 0.000000 
#    z 0.000000 0.000000 1.595220 
# 
# From -- ./inp_files/30957.got.cif
#   From: 2010.05.17/outbox.cif.g08.bks.cpg/sg47_16_cif.got.tgz:30957.got - 2010.06.03 20:15:42.
