data_PCOD9383227
_publ_section_title
;
Structure prediction by ZEFSAII (Michael W. Deem and Ramdas Pophale) SiO2 
 PCOD9383227
Probable space group: P M M M
;
_chemical_formula_sum "Si O2"
_cell_formula_units_Z 64
_cell_length_a 7.741803
_cell_length_b 15.775695
_cell_length_c 25.594965
_cell_angle_alpha 90.000000
_cell_angle_beta 90.000000
_cell_angle_gamma 90.000000
_cell_volume 3125.972529
_symmetry_space_group_name_H-M "P M M M"
_symmetry_group_IT_number 47
_symmetry_cell_setting 'orthorhombic'
loop_
_space_group_symop_operation_xyz
x,y,z
-x,-y,z
x,-y,-z
-x,y,-z
-x,-y,-z
x,y,-z
-x,y,z
x,-y,z
loop_
_atom_site_type_symbol
_atom_site_label
_atom_site_fract_x
_atom_site_fract_y
_atom_site_fract_z
Si Si1 0.209819 0.359458 0.302926
Si Si2 0.702998 0.409656 0.583475
Si Si3 0.708001 0.774201 0.852084
Si Si4 0.291437 0.778336 0.442906
Si Si5 0.206991 0.592712 0.813058
Si Si6 0.297783 0.090841 0.229342
Si Si7 0.203687 0.169550 0.331142
Si Si8 0.289358 0.095586 0.939785
O O1 0.278296 0.406910 0.353803
O O2 0.269108 0.391445 0.246547
O O3 0.264406 0.262269 0.311897
O O4 0.000000 0.363921 0.304611
O O5 0.500000 0.409417 0.569750
O O6 0.776565 0.500000 0.564982
O O7 0.773917 0.319026 0.564404
O O8 0.500000 0.775092 0.852630
O O9 0.754726 0.675897 0.846894
O O10 0.772873 0.827993 0.801746
O O11 0.768518 0.829322 0.901693
O O12 0.236495 0.809259 0.500000
O O13 0.500000 0.774864 0.441929
O O14 0.238425 0.832668 0.392750
O O15 0.269612 0.500000 0.831274
O O16 0.000000 0.588669 0.809865
O O17 0.500000 0.087659 0.215554
O O18 0.284499 0.103743 0.291266
O O19 0.220260 0.000000 0.214414
O O20 0.000000 0.164776 0.323104
O O21 0.500000 0.095789 0.938894
O O22 0.236956 0.000000 0.923304
O O23 0.236575 0.107782 0.000000
#
# Coordination Sequence:
#
# PCOD9383227 Si02
#       8
#     8   8   8   8   8   8   8   8
#     4   9  17  30  46  63  88 125 166 203 243 292
#     4   9  17  27  41  64  91 118 153 199 247 294
#     4  10  19  31  51  79 109 137 171 216 255 294
#     4   9  18  32  49  67  90 124 162 200 249 306
#     4  10  20  33  48  67  98 141 182 216 255 303
#     4  10  20  33  51  77 108 137 161 192 245 311
#     4  10  19  32  51  72  96 126 162 204 246 293
#     4   8  14  27  50  80 111 141 173 210 257 312
#
# _framework density 20.473627
#
# number of rings (size 3 to 8) (size 9 to 14) (size 15 to 20)
#    0.000    2.625    1.250    1.500    0.000    4.250 
#    0.000    1.250    0.000    2.250    0.000    9.625 
#    0.000    0.000    0.000    0.000    0.000    0.000 
#
# Total GULP energy -356883.571643 kJ/mol
# GULP energy per Si atom -5576.305807 kJ/mol
# Density = 2.042703 g / cm^3
# Si number density = 20.473627 Si / 1000 Ang^3
#
#
#
# Elastic Constant Matrix: (Units=GPa)
#
#
# Indices 1 2 3 4 5 6 
#
# 1 29.2645 7.9029 -0.2281 0.0000 0.0000 0.0000
# 2 7.9029 128.0214 62.1547 0.0000 0.0000 0.0000
# 3 -0.2281 62.1547 109.7196 0.0000 0.0000 0.0000
# 4 0.0000 0.0000 0.0000 194.2714 0.0000 0.0000
# 5 0.0000 0.0000 0.0000 0.0000 -74.8016 0.0000
# 6 0.0000 0.0000 0.0000 0.0000 0.0000 -24.3199
#
#
#
# Elastic Compliance Matrix: (Units=1/GPa)
#
#
# Indices 1 2 3 4 5 6 
#
# 1 0.035003 -0.003029 0.001789 0.000000 0.000000 0.000000
# 2 -0.003029 0.011037 -0.006258 0.000000 0.000000 0.000000
# 3 0.001789 -0.006258 0.012663 0.000000 0.000000 0.000000
# 4 0.000000 0.000000 0.000000 0.005147 0.000000 0.000000
# 5 0.000000 0.000000 0.000000 0.000000 -0.013369 0.000000
# 6 0.000000 0.000000 0.000000 0.000000 0.000000 -0.041119
#
#
# Mechanical properties :
#
#
# Convention : Reuss Voigt Hill
#
# Bulk Modulus (GPa) = 22.88055 45.18495 34.03275
# Shear Modulus (GPa) = 128.43793 32.17504 80.30649
#
# Velocity S-wave (km/s) = 7.92903 3.96856 6.26973
# Velocity P-wave (km/s) = 9.74812 6.56636 8.31093
#
# Compressibility (1/GPa) = 0.04370524
#
# Stress axis : x y z
#
# Youngs Moduli (GPa) = 28.56886 90.60688 78.96902
#
# Poissons Ratio (x) = 0.27447 -0.14126
# Poissons Ratio (y) = 0.08654 0.49422
# Poissons Ratio (z) = -0.05110 0.56706
#
# Static dielectric constant tensor:
#      x y z
#    x 1.759260 0.000000 0.000000 
#    y 0.000000 1.765440 0.000000 
#    z 0.000000 0.000000 1.733100 
# 
# From -- ./inp_files/32150.got.cif
#   From: 2010.05.17/outbox.cif.g08.bks.cpg/sg47_17_cif.got.tgz:32150.got - 2010.06.03 20:15:42.
