data_PCOD9383561
_publ_section_title
;
Structure prediction by ZEFSAII (Michael W. Deem and Ramdas Pophale) SiO2 
 PCOD9383561
Probable space group: P M M M
;
_chemical_formula_sum "Si O2"
_cell_formula_units_Z 64
_cell_length_a 25.224560
_cell_length_b 9.006124
_cell_length_c 15.516709
_cell_angle_alpha 90.000000
_cell_angle_beta 90.000000
_cell_angle_gamma 90.000000
_cell_volume 3525.016361
_symmetry_space_group_name_H-M "P M M M"
_symmetry_group_IT_number 47
_symmetry_cell_setting 'orthorhombic'
loop_
_space_group_symop_operation_xyz
x,y,z
-x,-y,z
x,-y,-z
-x,y,-z
-x,-y,-z
x,y,-z
-x,y,z
x,-y,z
loop_
_atom_site_type_symbol
_atom_site_label
_atom_site_fract_x
_atom_site_fract_y
_atom_site_fract_z
Si Si1 0.823828 0.822295 0.403903
Si Si2 0.288587 0.672763 0.629697
Si Si3 0.599641 0.177319 0.404597
Si Si4 0.737923 0.671032 0.169660
Si Si5 0.937339 0.177650 0.099220
Si Si6 0.854949 0.678351 0.772395
Si Si7 0.560633 0.675004 0.766855
Si Si8 0.639508 0.824163 0.097882
O O1 0.845879 0.791633 0.500000
O O2 0.764746 0.753483 0.400755
O O3 0.854018 0.750479 0.322784
O O4 0.821055 0.000000 0.392820
O O5 0.288992 0.500000 0.603334
O O6 0.340967 0.756867 0.600232
O O7 0.285832 0.675154 0.733586
O O8 0.577783 0.210246 0.500000
O O9 0.568479 0.249651 0.325922
O O10 0.601551 0.000000 0.393929
O O11 0.736692 0.500000 0.139646
O O12 0.798912 0.718371 0.181474
O O13 0.699706 0.770732 0.112829
O O14 0.902087 0.263279 0.168185
O O15 0.000000 0.206832 0.110804
O O16 0.929490 0.000000 0.108456
O O17 0.923646 0.217340 0.000000
O O18 0.855487 0.500000 0.763663
O O19 0.500000 0.696321 0.795671
O O20 0.571228 0.500000 0.758200
O O21 0.601502 0.743805 0.834414
O O22 0.636370 0.000000 0.111552
O O23 0.623567 0.789687 0.000000
#
# Coordination Sequence:
#
# PCOD9383561 Si02
#       8
#     8   8   8   8   8   8   8   8
#     4  10  20  33  51  78 114 156 199 240 283 333
#     4  10  19  32  53  81 113 149 187 228 276 330
#     4  11  23  37  57  85 114 146 183 225 277 335
#     4   9  19  35  54  80 115 152 187 224 274 334
#     4   9  19  37  60  85 115 153 196 242 292 345
#     4  10  21  35  55  85 119 156 195 239 290 340
#     4  11  25  44  64  84 108 142 184 232 285 339
#     4  11  24  40  61  88 114 144 183 229 283 340
#
# _framework density 18.155944999999999
#
# number of rings (size 3 to 8) (size 9 to 14) (size 15 to 20)
#    0.000    1.875    1.250    3.750    0.000    9.500 
#    0.000    5.625    0.000    0.375    0.000    2.625 
#    0.000    0.000    0.000    0.000    0.000    0.000 
#
# Total GULP energy -357404.413964 kJ/mol
# GULP energy per Si atom -5584.443968 kJ/mol
# Density = 1.811462 g / cm^3
# Si number density = 18.155945 Si / 1000 Ang^3
#
#
#
# Elastic Constant Matrix: (Units=GPa)
#
#
# Indices 1 2 3 4 5 6 
#
# 1 67.5796 44.7520 60.3649 0.0000 0.0000 0.0000
# 2 44.7520 78.5741 66.8072 0.0000 0.0000 0.0000
# 3 60.3649 66.8072 109.0823 0.0000 0.0000 0.0000
# 4 0.0000 0.0000 0.0000 -120.9342 0.0000 0.0000
# 5 0.0000 0.0000 0.0000 0.0000 -6.7090 0.0000
# 6 0.0000 0.0000 0.0000 0.0000 0.0000 10.6226
#
#
#
# Elastic Compliance Matrix: (Units=1/GPa)
#
#
# Indices 1 2 3 4 5 6 
#
# 1 0.030706 -0.006345 -0.013107 0.000000 0.000000 0.000000
# 2 -0.006345 0.027866 -0.013555 0.000000 0.000000 0.000000
# 3 -0.013107 -0.013555 0.024722 0.000000 0.000000 0.000000
# 4 0.000000 0.000000 0.000000 -0.008269 0.000000 0.000000
# 5 0.000000 0.000000 0.000000 0.000000 -0.149054 0.000000
# 6 0.000000 0.000000 0.000000 0.000000 0.000000 0.094139
#
#
# Mechanical properties :
#
#
# Convention : Reuss Voigt Hill
#
# Bulk Modulus (GPa) = 57.86697 66.56489 62.21593
# Shear Modulus (GPa) = 54.41647 -17.84999 18.28324
#
# Velocity S-wave (km/s) = 5.48058 -3.13892 3.17679
# Velocity P-wave (km/s) = 8.48472 4.85853 6.91360
#
# Compressibility (1/GPa) = 0.01728102
#
# Stress axis : x y z
#
# Youngs Moduli (GPa) = 32.56640 35.88632 40.44960
#
# Poissons Ratio (x) = 0.22770 0.53015
# Poissons Ratio (y) = 0.20664 0.54829
# Poissons Ratio (z) = 0.42683 0.48644
#
# Static dielectric constant tensor:
#      x y z
#    x 1.598810 0.000000 0.000000 
#    y 0.000000 1.604580 0.000000 
#    z 0.000000 0.000000 1.637250 
# 
# From -- ./inp_files/25541.got.cif
#   From: 2010.05.17/outbox.cif.g08.bks.cpg/sg47_13_cif.got.tgz:25541.got - 2010.06.03 20:15:42.
