data_PCOD9383077
_publ_section_title
;
Structure prediction by ZEFSAII (Michael W. Deem and Ramdas Pophale) SiO2 
 PCOD9383077
Probable space group: P M M M
;
_chemical_formula_sum "Si O2"
_cell_formula_units_Z 56
_cell_length_a 19.829893
_cell_length_b 7.581602
_cell_length_c 19.140402
_cell_angle_alpha 90.000000
_cell_angle_beta 90.000000
_cell_angle_gamma 90.000000
_cell_volume 2877.613140
_symmetry_space_group_name_H-M "P M M M"
_symmetry_group_IT_number 47
_symmetry_cell_setting 'orthorhombic'
loop_
_space_group_symop_operation_xyz
x,y,z
-x,-y,z
x,-y,-z
-x,y,-z
-x,-y,-z
x,y,-z
-x,y,z
x,-y,z
loop_
_atom_site_type_symbol
_atom_site_label
_atom_site_fract_x
_atom_site_fract_y
_atom_site_fract_z
Si Si1 0.074571 0.285074 0.643067
Si Si2 0.075151 0.284284 0.194110
Si Si3 0.286250 0.201110 0.718363
Si Si4 0.786827 0.287212 0.422679
Si Si5 0.785918 0.299663 0.855838
Si Si6 0.575292 0.286909 0.783012
Si Si7 0.350142 0.716049 0.077903
O O1 0.074808 0.500000 0.641724
O O2 0.083132 0.233672 0.724343
O O3 0.138128 0.224834 0.598439
O O4 0.000000 0.228334 0.619661
O O5 0.076945 0.500000 0.193123
O O6 0.139714 0.219798 0.150960
O O7 0.000000 0.230750 0.171279
O O8 0.262405 0.238805 0.640393
O O9 0.244665 0.306786 0.777041
O O10 0.365307 0.232728 0.730766
O O11 0.270671 0.000000 0.735223
O O12 0.767969 0.224518 0.500000
O O13 0.788951 0.500000 0.424441
O O14 0.794861 0.500000 0.881454
O O15 0.725226 0.221711 0.901479
O O16 0.500000 0.224074 0.767233
O O17 0.574192 0.500000 0.783353
O O18 0.599936 0.229069 0.860139
O O19 0.349033 0.500000 0.079396
O O20 0.368865 0.770534 0.000000
#
# Coordination Sequence:
#
# PCOD9383077 Si02
#       7
#     8   8   8   8   8   8   8
#     4   8  13  22  39  65  93 118 151 198 243 278
#     4   8  12  19  37  63  86 113 155 206 247 273
#     4  11  21  32  48  69  96 125 154 192 233 277
#     4  10  19  31  49  70  93 124 161 199 236 278
#     4   9  15  27  47  65  88 123 164 203 234 274
#     4   9  18  33  54  76  96 122 154 187 223 269
#     4   8  14  24  42  72 103 127 152 184 224 270
#
# _framework density 19.460573
#
# number of rings (size 3 to 8) (size 9 to 14) (size 15 to 20)
#    0.000    3.000    1.429    3.000    0.000    1.143 
#    0.000    2.857    0.000    9.429    0.000   11.000 
#    0.000    0.000    0.000    5.143    0.000    5.714 
#
# Total GULP energy -312169.045240 kJ/mol
# GULP energy per Si atom -5574.447236 kJ/mol
# Density = 1.941628 g / cm^3
# Si number density = 19.460573 Si / 1000 Ang^3
#
#
#
# Elastic Constant Matrix: (Units=GPa)
#
#
# Indices 1 2 3 4 5 6 
#
# 1 130.4075 -0.0709 39.9930 0.0000 0.0000 0.0000
# 2 -0.0709 50.6626 -0.3193 0.0000 0.0000 0.0000
# 3 39.9930 -0.3193 67.5595 0.0000 0.0000 0.0000
# 4 0.0000 0.0000 0.0000 -34.1933 0.0000 0.0000
# 5 0.0000 0.0000 0.0000 0.0000 16.2350 0.0000
# 6 0.0000 0.0000 0.0000 0.0000 0.0000 -27.7572
#
#
#
# Elastic Compliance Matrix: (Units=1/GPa)
#
#
# Indices 1 2 3 4 5 6 
#
# 1 0.009369 -0.000022 -0.005546 0.000000 0.000000 0.000000
# 2 -0.000022 0.019739 0.000106 0.000000 0.000000 0.000000
# 3 -0.005546 0.000106 0.018086 0.000000 0.000000 0.000000
# 4 0.000000 0.000000 0.000000 -0.029245 0.000000 0.000000
# 5 0.000000 0.000000 0.000000 0.000000 0.061595 0.000000
# 6 0.000000 0.000000 0.000000 0.000000 0.000000 -0.036027
#
#
# Mechanical properties :
#
#
# Convention : Reuss Voigt Hill
#
# Bulk Modulus (GPa) = 27.57113 36.42614 31.99864
# Shear Modulus (GPa) = 75.15314 4.79201 39.97258
#
# Velocity S-wave (km/s) = 6.22109 1.57091 4.53706
# Velocity P-wave (km/s) = 8.11179 4.69563 6.62759
#
# Compressibility (1/GPa) = 0.03626982
#
# Stress axis : x y z
#
# Youngs Moduli (GPa) = 106.73270 50.66092 55.29286
#
# Poissons Ratio (x) = 0.00111 0.30667
# Poissons Ratio (y) = 0.00233 -0.00587
# Poissons Ratio (z) = 0.59198 -0.00538
#
# Static dielectric constant tensor:
#      x y z
#    x 1.694170 0.000000 0.000000 
#    y 0.000000 1.752490 0.000000 
#    z 0.000000 0.000000 1.654950 
# 
# From -- ./inp_files/26939.got.cif
#   From: 2010.05.17/outbox.cif.g08.bks.cpg/sg47_14_cif.got.tgz:26939.got - 2010.06.03 20:15:42.
