data_PCOD9383214
_publ_section_title
;
Structure prediction by ZEFSAII (Michael W. Deem and Ramdas Pophale) SiO2 
 PCOD9383214
Probable space group: P M M M
;
_chemical_formula_sum "Si O2"
_cell_formula_units_Z 64
_cell_length_a 21.249738
_cell_length_b 7.887520
_cell_length_c 18.338900
_cell_angle_alpha 90.000000
_cell_angle_beta 90.000000
_cell_angle_gamma 90.000000
_cell_volume 3073.741463
_symmetry_space_group_name_H-M "P M M M"
_symmetry_group_IT_number 47
_symmetry_cell_setting 'orthorhombic'
loop_
_space_group_symop_operation_xyz
x,y,z
-x,-y,z
x,-y,-z
-x,y,-z
-x,-y,-z
x,y,-z
-x,y,z
x,-y,z
loop_
_atom_site_type_symbol
_atom_site_label
_atom_site_fract_x
_atom_site_fract_y
_atom_site_fract_z
Si Si1 0.840448 0.697743 0.577747
Si Si2 0.704836 0.201202 0.622862
Si Si3 0.931105 0.798107 0.704873
Si Si4 0.567432 0.704884 0.216487
Si Si5 0.567855 0.800130 0.614096
Si Si6 0.294735 0.294678 0.793015
Si Si7 0.929491 0.205421 0.871106
Si Si8 0.205503 0.702130 0.078882
O O1 0.860111 0.775766 0.500000
O O2 0.854638 0.500000 0.575682
O O3 0.766040 0.720880 0.586831
O O4 0.876784 0.764220 0.647778
O O5 0.637021 0.268843 0.594862
O O6 0.711339 0.230285 0.710157
O O7 0.705644 0.000000 0.609701
O O8 0.920669 0.734926 0.787120
O O9 0.000000 0.735387 0.679657
O O10 0.934993 0.000000 0.711973
O O11 0.500000 0.752518 0.182161
O O12 0.567955 0.500000 0.224143
O O13 0.567584 0.780833 0.297983
O O14 0.634187 0.751123 0.181603
O O15 0.500000 0.728860 0.588806
O O16 0.567751 0.000000 0.595673
O O17 0.290226 0.500000 0.788508
O O18 0.243191 0.231022 0.850614
O O19 0.868845 0.267643 0.913598
O O20 0.000000 0.257678 0.894862
O O21 0.928566 0.000000 0.873159
O O22 0.216204 0.500000 0.078711
O O23 0.226777 0.769719 0.000000
#
# Coordination Sequence:
#
# PCOD9383214 Si02
#       8
#     8   8   8   8   8   8   8   8
#     4  11  24  38  51  71 102 137 169 201 237 281
#     4  10  19  31  51  76  99 126 163 206 248 293
#     4   9  19  37  60  83 104 126 156 197 243 291
#     4   8  13  22  39  64  91 119 154 195 238 285
#     4   8  14  25  42  67  97 123 150 192 246 296
#     4   9  17  30  48  69  96 129 162 200 246 291
#     4   9  19  36  56  77  99 122 152 193 240 288
#     4  10  21  34  47  67  97 132 167 201 238 282
#
# _framework density 20.821531
#
# number of rings (size 3 to 8) (size 9 to 14) (size 15 to 20)
#    0.000    2.750    0.000    2.250    0.000    5.750 
#    0.000    3.750    0.000    0.750    0.000    5.250 
#    0.000    0.000    0.000   21.375    0.000   10.750 
#
# Total GULP energy -356674.571670 kJ/mol
# GULP energy per Si atom -5573.040182 kJ/mol
# Density = 2.077414 g / cm^3
# Si number density = 20.821531 Si / 1000 Ang^3
#
#
#
# Elastic Constant Matrix: (Units=GPa)
#
#
# Indices 1 2 3 4 5 6 
#
# 1 90.9869 -7.9978 28.1936 0.0000 0.0000 0.0000
# 2 -7.9978 19.7413 -1.2841 0.0000 0.0000 0.0000
# 3 28.1936 -1.2841 57.4976 0.0000 0.0000 0.0000
# 4 0.0000 0.0000 0.0000 14.3169 0.0000 0.0000
# 5 0.0000 0.0000 0.0000 0.0000 -8.0570 0.0000
# 6 0.0000 0.0000 0.0000 0.0000 0.0000 2.7306
#
#
#
# Elastic Compliance Matrix: (Units=1/GPa)
#
#
# Indices 1 2 3 4 5 6 
#
# 1 0.013439 0.005023 -0.006478 0.000000 0.000000 0.000000
# 2 0.005023 0.052606 -0.001288 0.000000 0.000000 0.000000
# 3 -0.006478 -0.001288 0.020540 0.000000 0.000000 0.000000
# 4 0.000000 0.000000 0.000000 0.069847 0.000000 0.000000
# 5 0.000000 0.000000 0.000000 0.000000 -0.124115 0.000000
# 6 0.000000 0.000000 0.000000 0.000000 0.000000 0.366213
#
#
# Mechanical properties :
#
#
# Convention : Reuss Voigt Hill
#
# Bulk Modulus (GPa) = 12.33046 22.89436 17.61241
# Shear Modulus (GPa) = 11.59960 11.75239 11.67600
#
# Velocity S-wave (km/s) = 2.36285 2.37836 2.37062
# Velocity P-wave (km/s) = 3.65772 4.30831 3.99628
#
# Compressibility (1/GPa) = 0.08110000
#
# Stress axis : x y z
#
# Youngs Moduli (GPa) = 74.40823 19.00908 48.68648
#
# Poissons Ratio (x) = -0.09549 0.31538
# Poissons Ratio (y) = -0.37378 0.06272
# Poissons Ratio (z) = 0.48200 0.02449
#
# Static dielectric constant tensor:
#      x y z
#    x 1.793060 0.000000 0.000000 
#    y 0.000000 1.750010 0.000000 
#    z 0.000000 0.000000 1.770770 
# 
# From -- ./inp_files/9916.got.cif
#   From: 2010.05.17/outbox.cif.g08.bks.cpg/sg47_5_cif.got.tgz:9916.got - 2010.06.03 20:15:42.
