data_PCOD9383987
_publ_section_title
;
Structure prediction by ZEFSAII (Michael W. Deem and Ramdas Pophale) SiO2 
 PCOD9383987
Probable space group: P M M M
;
_chemical_formula_sum "Si O2"
_cell_formula_units_Z 40
_cell_length_a 16.686189
_cell_length_b 7.880628
_cell_length_c 15.285028
_cell_angle_alpha 90.000000
_cell_angle_beta 90.000000
_cell_angle_gamma 90.000000
_cell_volume 2009.945235
_symmetry_space_group_name_H-M "P M M M"
_symmetry_group_IT_number 47
_symmetry_cell_setting 'orthorhombic'
loop_
_space_group_symop_operation_xyz
x,y,z
-x,-y,z
x,-y,-z
-x,y,-z
-x,-y,-z
x,y,-z
-x,y,z
x,-y,z
loop_
_atom_site_type_symbol
_atom_site_label
_atom_site_fract_x
_atom_site_fract_y
_atom_site_fract_z
Si Si1 0.500000 0.292588 0.334015
Si Si2 0.674856 0.296909 0.402820
Si Si3 0.217467 0.190378 0.242035
Si Si4 0.500000 0.198339 0.132223
Si Si5 0.093605 0.206781 0.900721
Si Si6 0.325652 0.697315 0.905067
O O1 0.500000 0.500000 0.331247
O O2 0.584523 0.238237 0.377315
O O3 0.500000 0.223083 0.236235
O O4 0.695310 0.232881 0.500000
O O5 0.668700 0.500000 0.406534
O O6 0.742652 0.261125 0.330162
O O7 0.147453 0.270243 0.180672
O O8 0.290116 0.194413 0.172818
O O9 0.191368 0.000000 0.262801
O O10 0.420490 0.285048 0.097376
O O11 0.500000 0.000000 0.109659
O O12 0.000000 0.246020 0.887314
O O13 0.101587 0.000000 0.901863
O O14 0.114707 0.265320 0.000000
O O15 0.304270 0.500000 0.891924
O O16 0.296508 0.754938 0.000000
#
# Coordination Sequence:
#
# PCOD9383987 Si02
#       6
#     4   8   8   4   8   8
#     4  10  19  35  57  75  99 137 181 225 271 322
#     4  10  21  37  57  78 103 141 185 225 270 325
#     4  11  21  33  54  83 111 136 171 224 276 318
#     4  12  23  34  51  75 103 136 177 227 273 309
#     4   8  15  30  53  81 112 144 176 211 258 318
#     4  11  23  37  52  71 102 146 185 215 258 319
#
# _framework density 19.901039000000001
#
# number of rings (size 3 to 8) (size 9 to 14) (size 15 to 20)
#    0.000    1.800    2.000    3.900    0.000    5.200 
#    0.000    0.000    0.000    4.800    0.000   11.200 
#    0.000    0.000    0.000    0.000    0.000    0.000 
#
# Total GULP energy -223096.418922 kJ/mol
# GULP energy per Si atom -5577.410473 kJ/mol
# Density = 1.985574 g / cm^3
# Si number density = 19.901039 Si / 1000 Ang^3
#
#
#
# Elastic Constant Matrix: (Units=GPa)
#
#
# Indices 1 2 3 4 5 6 
#
# 1 129.1148 -2.6495 68.0914 0.0000 0.0000 0.0000
# 2 -2.6495 30.8183 17.0628 0.0000 0.0000 0.0000
# 3 68.0914 17.0628 180.7578 0.0000 0.0000 0.0000
# 4 0.0000 0.0000 0.0000 24.7685 0.0000 0.0000
# 5 0.0000 0.0000 0.0000 0.0000 8.1491 0.0000
# 6 0.0000 0.0000 0.0000 0.0000 0.0000 156.8919
#
#
#
# Elastic Compliance Matrix: (Units=1/GPa)
#
#
# Indices 1 2 3 4 5 6 
#
# 1 0.009936 0.003088 -0.004034 0.000000 0.000000 0.000000
# 2 0.003088 0.035197 -0.004486 0.000000 0.000000 0.000000
# 3 -0.004034 -0.004486 0.007475 0.000000 0.000000 0.000000
# 4 0.000000 0.000000 0.000000 0.040374 0.000000 0.000000
# 5 0.000000 0.000000 0.000000 0.000000 0.122713 0.000000
# 6 0.000000 0.000000 0.000000 0.000000 0.000000 0.006374
#
#
# Mechanical properties :
#
#
# Convention : Reuss Voigt Hill
#
# Bulk Modulus (GPa) = 23.95530 56.18890 40.07210
# Shear Modulus (GPa) = 20.25534 55.17431 37.71483
#
# Velocity S-wave (km/s) = 3.19376 5.27110 4.35802
# Velocity P-wave (km/s) = 5.06592 8.08341 6.74555
#
# Compressibility (1/GPa) = 0.04174441
#
# Stress axis : x y z
#
# Youngs Moduli (GPa) = 100.64379 28.41129 133.77126
#
# Poissons Ratio (x) = -0.08773 0.53968
# Poissons Ratio (y) = -0.31078 0.60006
# Poissons Ratio (z) = 0.40604 0.12744
#
# Static dielectric constant tensor:
#      x y z
#    x 1.724820 0.000000 0.000000 
#    y 0.000000 1.731900 0.000000 
#    z 0.000000 0.000000 1.716050 
# 
# From -- ./inp_files/23347.got.cif
#   From: 2010.05.17/outbox.cif.g08.bks.cpg/sg47_12_cif.got.tgz:23347.got - 2010.06.03 20:15:42.
