data_PCOD9383900
_publ_section_title
;
Structure prediction by ZEFSAII (Michael W. Deem and Ramdas Pophale) SiO2 
 PCOD9383900
Probable space group: P M M M
;
_chemical_formula_sum "Si O2"
_cell_formula_units_Z 40
_cell_length_a 21.884649
_cell_length_b 8.677710
_cell_length_c 11.185150
_cell_angle_alpha 90.000000
_cell_angle_beta 90.000000
_cell_angle_gamma 90.000000
_cell_volume 2124.156596
_symmetry_space_group_name_H-M "P M M M"
_symmetry_group_IT_number 47
_symmetry_cell_setting 'orthorhombic'
loop_
_space_group_symop_operation_xyz
x,y,z
-x,-y,z
x,-y,-z
-x,y,-z
-x,-y,-z
x,y,-z
-x,y,z
x,-y,z
loop_
_atom_site_type_symbol
_atom_site_label
_atom_site_fract_x
_atom_site_fract_y
_atom_site_fract_z
Si Si1 0.872693 0.818286 0.282156
Si Si2 0.226787 0.320540 0.139059
Si Si3 0.000000 0.315635 0.639888
Si Si4 0.429231 0.311906 0.000000
Si Si5 0.356507 0.688368 0.236958
Si Si6 0.349351 0.313214 0.500000
Si Si7 0.794514 0.315321 0.500000
O O1 0.834468 0.772381 0.165323
O O2 0.829890 0.750748 0.386588
O O3 0.939072 0.744400 0.296681
O O4 0.878225 0.000000 0.294182
O O5 0.215774 0.500000 0.170986
O O6 0.286144 0.266517 0.212132
O O7 0.243578 0.314588 0.000000
O O8 0.000000 0.500000 0.639925
O O9 0.000000 0.264327 0.500000
O O10 0.396293 0.261043 0.877125
O O11 0.426421 0.500000 0.000000
O O12 0.500000 0.267001 0.000000
O O13 0.357388 0.500000 0.236085
O O14 0.375087 0.738927 0.370976
O O15 0.354169 0.500000 0.500000
O O16 0.277043 0.275881 0.500000
O O17 0.799125 0.500000 0.500000
#
# Coordination Sequence:
#
# PCOD9383900 Si02
#       7
#     8   8   4   4   8   4   4
#     4  12  24  36  53  81 116 143 171 228 294 338
#     4  10  19  34  57  79 101 140 192 233 269 335
#     4  11  23  39  60  79 103 146 194 228 262 335
#     4   9  16  26  42  68 107 150 189 230 279 331
#     4   9  15  26  45  72 102 138 185 231 276 329
#     4   9  16  25  45  74 102 132 177 233 280 323
#     4  11  19  32  54  78 105 143 186 225 270 336
#
# _framework density 18.831002999999999
#
# number of rings (size 3 to 8) (size 9 to 14) (size 15 to 20)
#    0.000    1.800    4.000    2.400    0.000    0.800 
#    0.000    1.000    0.000    6.000    0.000    0.000 
#    0.000    1.600    0.000    1.800    0.000    2.600 
#
# Total GULP energy -223135.741888 kJ/mol
# GULP energy per Si atom -5578.393547 kJ/mol
# Density = 1.878814 g / cm^3
# Si number density = 18.831003 Si / 1000 Ang^3
#
#
#
# Elastic Constant Matrix: (Units=GPa)
#
#
# Indices 1 2 3 4 5 6 
#
# 1 101.3352 18.2558 55.8788 0.0000 0.0000 0.0000
# 2 18.2558 36.2900 13.1732 0.0000 0.0000 0.0000
# 3 55.8788 13.1732 132.1916 0.0000 0.0000 0.0000
# 4 0.0000 0.0000 0.0000 4.7509 0.0000 0.0000
# 5 0.0000 0.0000 0.0000 0.0000 25.1678 0.0000
# 6 0.0000 0.0000 0.0000 0.0000 0.0000 -18.3480
#
#
#
# Elastic Compliance Matrix: (Units=1/GPa)
#
#
# Indices 1 2 3 4 5 6 
#
# 1 0.013678 -0.004961 -0.005287 0.000000 0.000000 0.000000
# 2 -0.004961 0.030390 -0.000931 0.000000 0.000000 0.000000
# 3 -0.005287 -0.000931 0.009893 0.000000 0.000000 0.000000
# 4 0.000000 0.000000 0.000000 0.210486 0.000000 0.000000
# 5 0.000000 0.000000 0.000000 0.000000 0.039733 0.000000
# 6 0.000000 0.000000 0.000000 0.000000 0.000000 -0.054502
#
#
# Mechanical properties :
#
#
# Convention : Reuss Voigt Hill
#
# Bulk Modulus (GPa) = 31.64530 49.38138 40.51334
# Shear Modulus (GPa) = 17.69473 14.48141 16.08807
#
# Velocity S-wave (km/s) = 3.06871 2.77613 2.92608
# Velocity P-wave (km/s) = 5.42193 6.04617 5.74254
#
# Compressibility (1/GPa) = 0.03160027
#
# Stress axis : x y z
#
# Youngs Moduli (GPa) = 73.11258 32.90594 101.08620
#
# Poissons Ratio (x) = 0.16326 0.53447
# Poissons Ratio (y) = 0.36273 0.09413
# Poissons Ratio (z) = 0.38656 0.03064
#
# Static dielectric constant tensor:
#      x y z
#    x 1.622210 0.000000 0.000000 
#    y 0.000000 1.626980 0.000000 
#    z 0.000000 0.000000 1.744390 
# 
# From -- ./inp_files/19008.got.cif
#   From: 2010.05.17/outbox.cif.g08.bks.cpg/sg47_10_cif.got.tgz:19008.got - 2010.06.03 20:15:42.
