data_PCOD9383764
_publ_section_title
;
Structure prediction by ZEFSAII (Michael W. Deem and Ramdas Pophale) SiO2 
 PCOD9383764
Probable space group: P M M M
;
_chemical_formula_sum "Si O2"
_cell_formula_units_Z 48
_cell_length_a 30.430998
_cell_length_b 9.955062
_cell_length_c 8.565553
_cell_angle_alpha 90.000000
_cell_angle_beta 90.000000
_cell_angle_gamma 90.000000
_cell_volume 2594.869798
_symmetry_space_group_name_H-M "P M M M"
_symmetry_group_IT_number 47
_symmetry_cell_setting 'orthorhombic'
loop_
_space_group_symop_operation_xyz
x,y,z
-x,-y,z
x,-y,-z
-x,y,-z
-x,-y,-z
x,y,-z
-x,y,z
x,-y,z
loop_
_atom_site_type_symbol
_atom_site_label
_atom_site_fract_x
_atom_site_fract_y
_atom_site_fract_z
Si Si1 0.451807 0.337384 0.317988
Si Si2 0.109202 0.253100 0.688974
Si Si3 0.203035 0.342899 0.186928
Si Si4 0.948963 0.000000 0.309568
Si Si5 0.641796 0.342999 0.185344
Si Si6 0.950712 0.500000 0.310196
Si Si7 0.718478 0.156784 0.686909
O O1 0.446978 0.298649 0.500000
O O2 0.500000 0.290077 0.262181
O O3 0.453179 0.500000 0.313839
O O4 0.408220 0.301164 0.224485
O O5 0.114164 0.250456 0.500000
O O6 0.156734 0.279869 0.760174
O O7 0.081060 0.124805 0.737177
O O8 0.077526 0.373571 0.735616
O O9 0.206483 0.500000 0.240894
O O10 0.241249 0.246447 0.250134
O O11 0.205527 0.345127 0.000000
O O12 0.951426 0.000000 0.500000
O O13 0.000000 0.000000 0.256016
O O14 0.648183 0.500000 0.238194
O O15 0.675164 0.238830 0.262571
O O16 0.648717 0.342007 0.000000
O O17 0.953172 0.500000 0.500000
O O18 0.000000 0.500000 0.249905
O O19 0.720918 0.154110 0.500000
O O20 0.719050 0.000000 0.741118
#
# Coordination Sequence:
#
# PCOD9383764 Si02
#       7
#     8   8   8   4   8   4   8
#     4   8  14  26  47  77 113 153 196 239 281 325
#     4  10  19  33  55  82 112 144 181 226 271 319
#     4  11  24  41  60  83 113 146 182 225 278 337
#     4   9  18  32  53  83 115 145 181 227 272 315
#     4  10  20  34  55  85 119 153 189 230 281 338
#     4   9  16  28  51  81 109 141 183 227 270 313
#     4  11  25  42  61  84 109 141 185 234 283 336
#
# _framework density 18.498038999999999
#
# number of rings (size 3 to 8) (size 9 to 14) (size 15 to 20)
#    0.000    2.167    0.833    3.000    1.167    7.667 
#    0.000    1.667    0.000    3.500    0.000    3.500 
#    0.000    0.000    0.000    0.000    0.000    0.000 
#
# Total GULP energy -267609.636857 kJ/mol
# GULP energy per Si atom -5575.200768 kJ/mol
# Density = 1.845594 g / cm^3
# Si number density = 18.498039 Si / 1000 Ang^3
#
#
#
# Elastic Constant Matrix: (Units=GPa)
#
#
# Indices 1 2 3 4 5 6 
#
# 1 179.6378 93.4945 35.3756 0.0000 0.0000 0.0000
# 2 93.4945 156.3481 32.5659 0.0000 0.0000 0.0000
# 3 35.3756 32.5659 35.4189 0.0000 0.0000 0.0000
# 4 0.0000 0.0000 0.0000 19.7217 0.0000 0.0000
# 5 0.0000 0.0000 0.0000 0.0000 -205.2003 0.0000
# 6 0.0000 0.0000 0.0000 0.0000 0.0000 21.0072
#
#
#
# Elastic Compliance Matrix: (Units=1/GPa)
#
#
# Indices 1 2 3 4 5 6 
#
# 1 0.008703 -0.004198 -0.004833 0.000000 0.000000 0.000000
# 2 -0.004198 0.009936 -0.004943 0.000000 0.000000 0.000000
# 3 -0.004833 -0.004943 0.037605 0.000000 0.000000 0.000000
# 4 0.000000 0.000000 0.000000 0.050706 0.000000 0.000000
# 5 0.000000 0.000000 0.000000 0.000000 -0.004873 0.000000
# 6 0.000000 0.000000 0.000000 0.000000 0.000000 0.047603
#
#
# Mechanical properties :
#
#
# Convention : Reuss Voigt Hill
#
# Bulk Modulus (GPa) = 35.33926 77.14187 56.24057
# Shear Modulus (GPa) = 26.72959 -18.89635 3.91662
#
# Velocity S-wave (km/s) = 3.80543 -3.19961 1.45668
# Velocity P-wave (km/s) = 6.20115 5.30502 5.77051
#
# Compressibility (1/GPa) = 0.02829714
#
# Stress axis : x y z
#
# Youngs Moduli (GPa) = 114.89884 100.64649 26.59211
#
# Poissons Ratio (x) = 0.42250 0.12852
# Poissons Ratio (y) = 0.48233 0.13144
# Poissons Ratio (z) = 0.55530 0.49747
#
# Static dielectric constant tensor:
#      x y z
#    x 1.644540 0.000000 0.000000 
#    y 0.000000 1.428750 0.000000 
#    z 0.000000 0.000000 1.632890 
# 
# From -- ./inp_files/2556.got.cif
#   From: 2010.05.17/outbox.cif.g08.bks.cpg/sg47_2_cif.got.tgz:2556.got - 2010.06.03 20:15:42.
