data_PCOD9383778
_publ_section_title
;
Structure prediction by ZEFSAII (Michael W. Deem and Ramdas Pophale) SiO2 
 PCOD9383778
Probable space group: P M M M
;
_chemical_formula_sum "Si O2"
_cell_formula_units_Z 52
_cell_length_a 16.253491
_cell_length_b 7.514526
_cell_length_c 19.752057
_cell_angle_alpha 90.000000
_cell_angle_beta 90.000000
_cell_angle_gamma 90.000000
_cell_volume 2412.462530
_symmetry_space_group_name_H-M "P M M M"
_symmetry_group_IT_number 47
_symmetry_cell_setting 'orthorhombic'
loop_
_space_group_symop_operation_xyz
x,y,z
-x,-y,z
x,-y,-z
-x,y,-z
-x,-y,-z
x,y,-z
-x,y,z
x,-y,z
loop_
_atom_site_type_symbol
_atom_site_label
_atom_site_fract_x
_atom_site_fract_y
_atom_site_fract_z
Si Si1 0.403704 0.285398 0.073580
Si Si2 0.134882 0.790534 0.815973
Si Si3 0.244689 0.286381 0.576581
Si Si4 0.089456 0.715157 0.335286
Si Si5 0.686131 0.204769 0.209118
Si Si6 0.000000 0.781577 0.078582
Si Si7 0.592827 0.786545 0.659808
O O1 0.500000 0.240239 0.075776
O O2 0.397519 0.500000 0.077060
O O3 0.360081 0.207642 0.138261
O O4 0.370662 0.228990 0.000000
O O5 0.093017 0.772149 0.742903
O O6 0.225186 0.710116 0.804168
O O7 0.078880 0.721273 0.877200
O O8 0.145481 0.000000 0.831084
O O9 0.236335 0.219371 0.500000
O O10 0.236539 0.500000 0.574872
O O11 0.170515 0.220226 0.624823
O O12 0.335345 0.249249 0.605855
O O13 0.091869 0.500000 0.336236
O O14 0.000000 0.769871 0.363856
O O15 0.629823 0.282322 0.268733
O O16 0.701464 0.000000 0.230103
O O17 0.000000 0.000000 0.079093
O O18 0.000000 0.726796 0.000000
O O19 0.500000 0.719020 0.646301
O O20 0.585460 0.000000 0.664565
#
# Coordination Sequence:
#
# PCOD9383778 Si02
#       7
#     8   8   8   8   8   4   8
#     4   9  19  35  52  72 102 140 179 219 268 325
#     4  10  19  33  56  80 104 142 183 222 265 319
#     4  10  22  39  58  83 114 147 185 228 273 328
#     4  10  20  35  58  85 112 143 178 222 275 330
#     4  10  20  33  53  81 107 135 181 234 276 321
#     4   9  18  32  51  79 112 143 178 220 267 321
#     4  10  21  37  57  82 113 148 186 231 284 336
#
# _framework density 21.554739999999999
#
# number of rings (size 3 to 8) (size 9 to 14) (size 15 to 20)
#    0.000    2.231    2.308    0.923    0.000    4.308 
#    0.000    5.385    0.000    0.923    0.000    2.154 
#    0.000    0.000    0.000    0.000    0.000    0.000 
#
# Total GULP energy -290165.937591 kJ/mol
# GULP energy per Si atom -5580.114184 kJ/mol
# Density = 2.150568 g / cm^3
# Si number density = 21.554740 Si / 1000 Ang^3
#
#
#
# Elastic Constant Matrix: (Units=GPa)
#
#
# Indices 1 2 3 4 5 6 
#
# 1 157.9896 1.8382 72.8036 0.0000 0.0000 0.0000
# 2 1.8382 54.4587 -6.6497 0.0000 0.0000 0.0000
# 3 72.8036 -6.6497 145.5767 0.0000 0.0000 0.0000
# 4 0.0000 0.0000 0.0000 19.5961 0.0000 0.0000
# 5 0.0000 0.0000 0.0000 0.0000 57.5913 0.0000
# 6 0.0000 0.0000 0.0000 0.0000 0.0000 9.2511
#
#
#
# Elastic Compliance Matrix: (Units=1/GPa)
#
#
# Indices 1 2 3 4 5 6 
#
# 1 0.008258 -0.000787 -0.004166 0.000000 0.000000 0.000000
# 2 -0.000787 0.018541 0.001241 0.000000 0.000000 0.000000
# 3 -0.004166 0.001241 0.009009 0.000000 0.000000 0.000000
# 4 0.000000 0.000000 0.000000 0.051031 0.000000 0.000000
# 5 0.000000 0.000000 0.000000 0.000000 0.017364 0.000000
# 6 0.000000 0.000000 0.000000 0.000000 0.000000 0.108095
#
#
# Mechanical properties :
#
#
# Convention : Reuss Voigt Hill
#
# Bulk Modulus (GPa) = 35.23256 54.88991 45.06124
# Shear Modulus (GPa) = 21.81647 36.62323 29.21985
#
# Velocity S-wave (km/s) = 3.18487 4.12646 3.68586
# Velocity P-wave (km/s) = 5.46860 6.94437 6.25019
#
# Compressibility (1/GPa) = 0.02838283
#
# Stress axis : x y z
#
# Youngs Moduli (GPa) = 121.08777 53.93565 110.99551
#
# Poissons Ratio (x) = 0.04247 0.46242
# Poissons Ratio (y) = 0.09535 -0.13771
# Poissons Ratio (z) = 0.50446 -0.06692
#
# Static dielectric constant tensor:
#      x y z
#    x 1.812170 0.000000 0.000000 
#    y 0.000000 1.830930 0.000000 
#    z 0.000000 0.000000 1.746450 
# 
# From -- ./inp_files/10998.got.cif
#   From: 2010.05.17/outbox.cif.g08.bks.cpg/sg47_6_cif.got.tgz:10998.got - 2010.06.03 20:15:42.
