data_PCOD9383843
_publ_section_title
;
Structure prediction by ZEFSAII (Michael W. Deem and Ramdas Pophale) SiO2 
 PCOD9383843
Probable space group: P M M M
;
_chemical_formula_sum "Si O2"
_cell_formula_units_Z 44
_cell_length_a 9.485464
_cell_length_b 15.157569
_cell_length_c 17.551097
_cell_angle_alpha 90.000000
_cell_angle_beta 90.000000
_cell_angle_gamma 90.000000
_cell_volume 2523.436616
_symmetry_space_group_name_H-M "P M M M"
_symmetry_group_IT_number 47
_symmetry_cell_setting 'orthorhombic'
loop_
_space_group_symop_operation_xyz
x,y,z
-x,-y,z
x,-y,-z
-x,y,-z
-x,-y,-z
x,y,-z
-x,y,z
x,-y,z
loop_
_atom_site_type_symbol
_atom_site_label
_atom_site_fract_x
_atom_site_fract_y
_atom_site_fract_z
Si Si1 0.331243 0.674301 0.815411
Si Si2 0.163481 0.898851 0.662772
Si Si3 0.670610 0.500000 0.088730
Si Si4 0.671679 0.399068 0.500000
Si Si5 0.668271 0.722226 0.640823
Si Si6 0.162310 0.848251 0.158767
Si Si7 0.655708 0.000000 0.089369
O O1 0.500000 0.689190 0.826281
O O2 0.291763 0.586043 0.861239
O O3 0.306724 0.677796 0.723868
O O4 0.237589 0.754346 0.845437
O O5 0.255211 0.816839 0.632914
O O6 0.165042 0.883563 0.754077
O O7 0.000000 0.891130 0.637921
O O8 0.210445 0.000000 0.646557
O O9 0.500000 0.500000 0.084745
O O10 0.720627 0.500000 0.000000
O O11 0.721509 0.500000 0.500000
O O12 0.500000 0.401817 0.500000
O O13 0.713920 0.344611 0.425233
O O14 0.500000 0.736577 0.634885
O O15 0.255471 0.915709 0.112404
O O16 0.000000 0.845118 0.134433
O O17 0.500000 0.000000 0.126036
O O18 0.639931 0.000000 0.000000
#
# Coordination Sequence:
#
# PCOD9383843 Si02
#       7
#     8   8   4   4   8   8   4
#     4   9  18  32  52  77 102 133 176 218 259 317
#     4   9  17  32  53  75 101 135 170 207 253 306
#     4   9  18  32  51  74 102 134 167 213 269 317
#     4   9  18  32  52  77 108 138 169 217 270 307
#     4   9  18  31  50  78 104 133 172 215 258 305
#     4  10  19  34  53  74 101 135 174 216 261 311
#     4  11  23  35  49  73 105 138 173 216 263 313
#
# _framework density 17.436539
#
# number of rings (size 3 to 8) (size 9 to 14) (size 15 to 20)
#    0.000    2.636    0.909    0.818    1.273    2.545 
#    0.000    3.182    0.000    4.364    0.000    0.000 
#    0.000    0.000    0.000    0.000    0.000    0.000 
#
# Total GULP energy -245101.614741 kJ/mol
# GULP energy per Si atom -5570.491244 kJ/mol
# Density = 1.739685 g / cm^3
# Si number density = 17.436539 Si / 1000 Ang^3
#
#
#
# Elastic Constant Matrix: (Units=GPa)
#
#
# Indices 1 2 3 4 5 6 
#
# 1 75.1601 74.3801 49.4297 0.0000 0.0000 0.0000
# 2 74.3801 199.4522 86.9492 0.0000 0.0000 0.0000
# 3 49.4297 86.9492 73.4888 0.0000 0.0000 0.0000
# 4 0.0000 0.0000 0.0000 33.4616 0.0000 0.0000
# 5 0.0000 0.0000 0.0000 0.0000 11.8742 0.0000
# 6 0.0000 0.0000 0.0000 0.0000 0.0000 -42.7339
#
#
#
# Elastic Compliance Matrix: (Units=1/GPa)
#
#
# Indices 1 2 3 4 5 6 
#
# 1 0.025448 -0.004189 -0.012161 0.000000 0.000000 0.000000
# 2 -0.004189 0.011044 -0.010249 0.000000 0.000000 0.000000
# 3 -0.012161 -0.010249 0.033913 0.000000 0.000000 0.000000
# 4 0.000000 0.000000 0.000000 0.029885 0.000000 0.000000
# 5 0.000000 0.000000 0.000000 0.000000 0.084216 0.000000
# 6 0.000000 0.000000 0.000000 0.000000 0.000000 -0.023401
#
#
# Mechanical properties :
#
#
# Convention : Reuss Voigt Hill
#
# Bulk Modulus (GPa) = 58.11292 85.51321 71.81307
# Shear Modulus (GPa) = 22.72325 9.67652 16.19988
#
# Velocity S-wave (km/s) = 3.61390 2.35831 3.05138
# Velocity P-wave (km/s) = 7.12841 7.52094 7.32730
#
# Compressibility (1/GPa) = 0.01720788
#
# Stress axis : x y z
#
# Youngs Moduli (GPa) = 39.29636 90.54788 29.48681
#
# Poissons Ratio (x) = 0.37928 0.35858
# Poissons Ratio (y) = 0.16460 0.30222
# Poissons Ratio (z) = 0.47786 0.92805
#
# Static dielectric constant tensor:
#      x y z
#    x 1.588220 0.000000 0.000000 
#    y 0.000000 1.600840 0.000000 
#    z 0.000000 0.000000 1.601320 
# 
# From -- ./inp_files/9053.got.cif
#   From: 2010.05.17/outbox.cif.g08.bks.cpg/sg47_5_cif.got.tgz:9053.got - 2010.06.03 20:15:42.
