data_PCOD9383525
_publ_section_title
;
Structure prediction by ZEFSAII (Michael W. Deem and Ramdas Pophale) SiO2 
 PCOD9383525
Probable space group: P M M M
;
_chemical_formula_sum "Si O2"
_cell_formula_units_Z 56
_cell_length_a 21.026690
_cell_length_b 7.440100
_cell_length_c 16.048984
_cell_angle_alpha 90.000000
_cell_angle_beta 90.000000
_cell_angle_gamma 90.000000
_cell_volume 2510.713910
_symmetry_space_group_name_H-M "P M M M"
_symmetry_group_IT_number 47
_symmetry_cell_setting 'orthorhombic'
loop_
_space_group_symop_operation_xyz
x,y,z
-x,-y,z
x,-y,-z
-x,y,-z
-x,-y,-z
x,y,-z
-x,y,z
x,-y,z
loop_
_atom_site_type_symbol
_atom_site_label
_atom_site_fract_x
_atom_site_fract_y
_atom_site_fract_z
Si Si1 0.613929 0.720060 0.090341
Si Si2 0.792096 0.213353 0.306767
Si Si3 0.327787 0.284731 0.407526
Si Si4 0.429295 0.280699 0.728208
Si Si5 0.104605 0.718447 0.090326
Si Si6 0.931678 0.209455 0.276517
Si Si7 0.754549 0.706221 0.124256
O O1 0.613483 0.500000 0.091959
O O2 0.581595 0.777626 0.176259
O O3 0.687483 0.781847 0.095949
O O4 0.587355 0.773399 0.000000
O O5 0.745085 0.247557 0.382649
O O6 0.864551 0.284087 0.310128
O O7 0.758664 0.291153 0.224348
O O8 0.796241 0.000000 0.293053
O O9 0.342341 0.216405 0.500000
O O10 0.335231 0.500000 0.408999
O O11 0.374881 0.217117 0.335145
O O12 0.500000 0.229371 0.700571
O O13 0.426531 0.500000 0.729175
O O14 0.103828 0.500000 0.093983
O O15 0.073144 0.780802 0.175758
O O16 0.178128 0.782080 0.094789
O O17 0.078043 0.770817 0.000000
O O18 0.000000 0.288924 0.301399
O O19 0.932823 0.000000 0.300441
O O20 0.754562 0.500000 0.095994
#
# Coordination Sequence:
#
# PCOD9383525 Si02
#       7
#     8   8   8   8   8   8   8
#     4   9  15  23  41  69 100 134 170 208 249 290
#     4  10  19  32  53  77 100 127 163 208 254 297
#     4  10  20  35  56  80 104 132 165 202 250 306
#     4   9  17  29  46  73 108 139 168 206 249 293
#     4   9  17  27  41  65  96 129 169 217 262 303
#     4   9  19  34  49  67  94 131 170 205 250 308
#     4   9  15  27  46  67  96 132 170 209 253 299
#
# _framework density 22.304413
#
# number of rings (size 3 to 8) (size 9 to 14) (size 15 to 20)
#    0.000    2.714    1.429    0.857    0.000    4.000 
#    0.000    4.286    0.000    2.143    0.000    4.000 
#    0.000    1.143    0.000    0.000    0.000    0.000 
#
# Total GULP energy -312470.656986 kJ/mol
# GULP energy per Si atom -5579.833160 kJ/mol
# Density = 2.225365 g / cm^3
# Si number density = 22.304413 Si / 1000 Ang^3
#
#
#
# Elastic Constant Matrix: (Units=GPa)
#
#
# Indices 1 2 3 4 5 6 
#
# 1 138.9150 -0.6605 60.9302 0.0000 0.0000 0.0000
# 2 -0.6605 73.0606 3.1045 0.0000 0.0000 0.0000
# 3 60.9302 3.1045 120.2498 0.0000 0.0000 0.0000
# 4 0.0000 0.0000 0.0000 31.7711 0.0000 0.0000
# 5 0.0000 0.0000 0.0000 0.0000 -16.3187 0.0000
# 6 0.0000 0.0000 0.0000 0.0000 0.0000 6.5805
#
#
#
# Elastic Compliance Matrix: (Units=1/GPa)
#
#
# Indices 1 2 3 4 5 6 
#
# 1 0.009262 0.000283 -0.004700 0.000000 0.000000 0.000000
# 2 0.000283 0.013711 -0.000498 0.000000 0.000000 0.000000
# 3 -0.004700 -0.000498 0.010710 0.000000 0.000000 0.000000
# 4 0.000000 0.000000 0.000000 0.031475 0.000000 0.000000
# 5 0.000000 0.000000 0.000000 0.000000 -0.061279 0.000000
# 6 0.000000 0.000000 0.000000 0.000000 0.000000 0.151964
#
#
# Mechanical properties :
#
#
# Convention : Reuss Voigt Hill
#
# Bulk Modulus (GPa) = 41.92101 50.99709 46.45905
# Shear Modulus (GPa) = 28.79804 22.32998 25.56401
#
# Velocity S-wave (km/s) = 3.59714 3.16752 3.38914
# Velocity P-wave (km/s) = 6.00735 6.02423 6.01580
#
# Compressibility (1/GPa) = 0.02385439
#
# Stress axis : x y z
#
# Youngs Moduli (GPa) = 107.97354 72.93426 93.36723
#
# Poissons Ratio (x) = -0.02067 0.43884
# Poissons Ratio (y) = -0.03060 0.04646
# Poissons Ratio (z) = 0.50749 0.03629
#
# Static dielectric constant tensor:
#      x y z
#    x 1.838710 0.000000 0.000000 
#    y 0.000000 1.871650 0.000000 
#    z 0.000000 0.000000 1.799850 
# 
# From -- ./inp_files/28738.got.cif
#   From: 2010.05.17/outbox.cif.g08.bks.cpg/sg47_15_cif.got.tgz:28738.got - 2010.06.03 20:15:42.
