data_PCOD9383180
_publ_section_title
;
Structure prediction by ZEFSAII (Michael W. Deem and Ramdas Pophale) SiO2 
 PCOD9383180
Probable space group: P M M M
;
_chemical_formula_sum "Si O2"
_cell_formula_units_Z 52
_cell_length_a 8.877995
_cell_length_b 10.823309
_cell_length_c 31.461908
_cell_angle_alpha 90.000000
_cell_angle_beta 90.000000
_cell_angle_gamma 90.000000
_cell_volume 3023.152187
_symmetry_space_group_name_H-M "P M M M"
_symmetry_group_IT_number 47
_symmetry_cell_setting 'orthorhombic'
loop_
_space_group_symop_operation_xyz
x,y,z
-x,-y,z
x,-y,-z
-x,y,-z
-x,-y,-z
x,y,-z
-x,y,z
x,-y,z
loop_
_atom_site_type_symbol
_atom_site_label
_atom_site_fract_x
_atom_site_fract_y
_atom_site_fract_z
Si Si1 0.333804 0.356436 0.000000
Si Si2 0.318171 0.144325 0.342961
Si Si3 0.319913 0.147084 0.836472
Si Si4 0.171078 0.350845 0.500000
Si Si5 0.328032 0.000000 0.949739
Si Si6 0.178270 0.246466 0.918557
Si Si7 0.828396 0.850743 0.747156
Si Si8 0.681684 0.355810 0.589773
O O1 0.247686 0.329099 0.043933
O O2 0.355823 0.500000 0.000000
O O3 0.500000 0.292029 0.000000
O O4 0.500000 0.144573 0.341076
O O5 0.253077 0.180274 0.296884
O O6 0.271432 0.249981 0.376632
O O7 0.273295 0.000000 0.352455
O O8 0.500000 0.153162 0.838129
O O9 0.249859 0.238996 0.871546
O O10 0.260415 0.182874 0.789866
O O11 0.278168 0.000000 0.843861
O O12 0.165481 0.500000 0.500000
O O13 0.255750 0.318957 0.456509
O O14 0.000000 0.303736 0.500000
O O15 0.230433 0.114644 0.935878
O O16 0.500000 0.000000 0.932047
O O17 0.340962 0.000000 0.000000
O O18 0.000000 0.262802 0.915999
O O19 0.000000 0.804587 0.748221
O O20 0.833726 0.000000 0.747654
O O21 0.500000 0.356340 0.588435
O O22 0.727986 0.500000 0.599011
#
# Coordination Sequence:
#
# PCOD9383180 Si02
#       8
#     4   8   8   4   4   8   8   8
#     4  11  25  44  61  74  95 133 177 211 244 299
#     4   9  17  30  48  70  97 130 167 204 248 301
#     4  10  19  31  50  75 106 138 166 200 246 303
#     4   9  17  29  46  69  96 126 162 205 252 300
#     4  11  21  33  51  75 108 138 162 192 240 301
#     4  12  23  34  54  80 107 132 161 206 254 297
#     4   9  17  29  46  70 101 132 164 201 243 293
#     4   9  17  30  49  71  95 126 165 207 248 295
#
# _framework density 17.200589999999998
#
# number of rings (size 3 to 8) (size 9 to 14) (size 15 to 20)
#    0.000    2.077    1.538    3.000    0.000    4.923 
#    0.000    0.385    0.000    3.231    0.000    2.154 
#    0.000    0.000    0.000    0.000    0.000    0.000 
#
# Total GULP energy -289530.463007 kJ/mol
# GULP energy per Si atom -5567.893519 kJ/mol
# Density = 1.716144 g / cm^3
# Si number density = 17.200590 Si / 1000 Ang^3
#
#
#
# Elastic Constant Matrix: (Units=GPa)
#
#
# Indices 1 2 3 4 5 6 
#
# 1 76.7622 26.7845 61.5976 0.0000 0.0000 0.0000
# 2 26.7845 64.3864 59.1369 0.0000 0.0000 0.0000
# 3 61.5976 59.1369 182.2657 0.0000 0.0000 0.0000
# 4 0.0000 0.0000 0.0000 77.8573 0.0000 0.0000
# 5 0.0000 0.0000 0.0000 0.0000 219.8157 0.0000
# 6 0.0000 0.0000 0.0000 0.0000 0.0000 11.2554
#
#
#
# Elastic Compliance Matrix: (Units=1/GPa)
#
#
# Indices 1 2 3 4 5 6 
#
# 1 0.018208 -0.002739 -0.005265 0.000000 0.000000 0.000000
# 2 -0.002739 0.022536 -0.006386 0.000000 0.000000 0.000000
# 3 -0.005265 -0.006386 0.009338 0.000000 0.000000 0.000000
# 4 0.000000 0.000000 0.000000 0.012844 0.000000 0.000000
# 5 0.000000 0.000000 0.000000 0.000000 0.004549 0.000000
# 6 0.000000 0.000000 0.000000 0.000000 0.000000 0.088846
#
#
# Mechanical properties :
#
#
# Convention : Reuss Voigt Hill
#
# Bulk Modulus (GPa) = 46.94435 68.71694 57.83065
# Shear Modulus (GPa) = 26.01433 73.51204 49.76318
#
# Velocity S-wave (km/s) = 3.89319 6.54453 5.38460
# Velocity P-wave (km/s) = 6.89643 9.85621 8.50605
#
# Compressibility (1/GPa) = 0.02130182
#
# Stress axis : x y z
#
# Youngs Moduli (GPa) = 54.92228 44.37291 107.09117
#
# Poissons Ratio (x) = 0.12153 0.56381
# Poissons Ratio (y) = 0.15042 0.68393
# Poissons Ratio (z) = 0.28915 0.28338
#
# Static dielectric constant tensor:
#      x y z
#    x 1.594620 0.000000 0.000000 
#    y 0.000000 1.566300 0.000000 
#    z 0.000000 0.000000 1.609790 
# 
# From -- ./inp_files/33262.got.cif
#   From: 2010.05.17/outbox.cif.g08.bks.cpg/sg47_17_cif.got.tgz:33262.got - 2010.06.03 20:15:42.
