data_PCOD9383493
_publ_section_title
;
Structure prediction by ZEFSAII (Michael W. Deem and Ramdas Pophale) SiO2 
 PCOD9383493
Probable space group: P M M M
;
_chemical_formula_sum "Si O2"
_cell_formula_units_Z 56
_cell_length_a 20.445726
_cell_length_b 7.576440
_cell_length_c 16.257874
_cell_angle_alpha 90.000000
_cell_angle_beta 90.000000
_cell_angle_gamma 90.000000
_cell_volume 2518.439243
_symmetry_space_group_name_H-M "P M M M"
_symmetry_group_IT_number 47
_symmetry_cell_setting 'orthorhombic'
loop_
_space_group_symop_operation_xyz
x,y,z
-x,-y,z
x,-y,-z
-x,y,-z
-x,-y,-z
x,y,-z
-x,y,z
x,-y,z
loop_
_atom_site_type_symbol
_atom_site_label
_atom_site_fract_x
_atom_site_fract_y
_atom_site_fract_z
Si Si1 0.570255 0.207788 0.401028
Si Si2 0.073842 0.710637 0.757440
Si Si3 0.427649 0.786861 0.095722
Si Si4 0.289701 0.200485 0.359744
Si Si5 0.291608 0.294705 0.177395
Si Si6 0.162525 0.715296 0.091008
Si Si7 0.149708 0.786782 0.410044
O O1 0.570276 0.213660 0.500000
O O2 0.500000 0.282040 0.372723
O O3 0.639316 0.285937 0.373443
O O4 0.570100 0.000000 0.375988
O O5 0.070282 0.500000 0.768715
O O6 0.117894 0.777821 0.833227
O O7 0.107384 0.738768 0.669165
O O8 0.000000 0.781243 0.758656
O O9 0.500000 0.729377 0.124559
O O10 0.365333 0.724779 0.146154
O O11 0.427074 0.000000 0.098078
O O12 0.420904 0.733573 0.000000
O O13 0.280042 0.195661 0.262238
O O14 0.224249 0.279581 0.398110
O O15 0.294776 0.000000 0.393076
O O16 0.278898 0.500000 0.195367
O O17 0.237770 0.237428 0.110922
O O18 0.159441 0.500000 0.089874
O O19 0.143165 0.776210 0.000000
O O20 0.124783 0.730246 0.500000
O O21 0.152722 0.000000 0.409944
#
# Coordination Sequence:
#
# PCOD9383493 Si02
#       7
#     8   8   8   8   8   8   8
#     4   8  14  26  46  72  99 128 169 223 275 319
#     4  10  21  38  60  86 115 145 181 228 280 337
#     4   9  19  36  55  75 103 141 186 235 283 331
#     4  10  19  32  52  77 106 141 185 230 273 325
#     4  11  21  33  52  78 111 146 182 227 279 332
#     4   9  18  34  56  82 112 145 182 225 275 331
#     4  10  21  37  58  83 113 151 192 234 280 330
#
# _framework density 22.235996
#
# number of rings (size 3 to 8) (size 9 to 14) (size 15 to 20)
#    0.000    2.429    1.429    2.143    0.000    4.571 
#    0.000    5.000    0.000    2.571    0.000    2.000 
#    0.000    0.000    0.000    0.000    0.000    0.000 
#
# Total GULP energy -312571.979630 kJ/mol
# GULP energy per Si atom -5581.642493 kJ/mol
# Density = 2.218539 g / cm^3
# Si number density = 22.235996 Si / 1000 Ang^3
#
#
#
# Elastic Constant Matrix: (Units=GPa)
#
#
# Indices 1 2 3 4 5 6 
#
# 1 155.4618 3.5383 70.9497 0.0000 0.0000 0.0000
# 2 3.5383 53.2457 0.4369 0.0000 0.0000 0.0000
# 3 70.9497 0.4369 139.5120 0.0000 0.0000 0.0000
# 4 0.0000 0.0000 0.0000 17.4978 0.0000 0.0000
# 5 0.0000 0.0000 0.0000 0.0000 -0.7253 0.0000
# 6 0.0000 0.0000 0.0000 0.0000 0.0000 10.4970
#
#
#
# Elastic Compliance Matrix: (Units=1/GPa)
#
#
# Indices 1 2 3 4 5 6 
#
# 1 0.008391 -0.000523 -0.004266 0.000000 0.000000 0.000000
# 2 -0.000523 0.018814 0.000207 0.000000 0.000000 0.000000
# 3 -0.004266 0.000207 0.009337 0.000000 0.000000 0.000000
# 4 0.000000 0.000000 0.000000 0.057150 0.000000 0.000000
# 5 0.000000 0.000000 0.000000 0.000000 -1.378723 0.000000
# 6 0.000000 0.000000 0.000000 0.000000 0.000000 0.095266
#
#
# Mechanical properties :
#
#
# Convention : Reuss Voigt Hill
#
# Bulk Modulus (GPa) = 36.52486 55.34105 45.93295
# Shear Modulus (GPa) = -4.26812 23.67353 9.70271
#
# Velocity S-wave (km/s) = -1.38695 3.26644 2.09117
# Velocity P-wave (km/s) = 3.72784 6.25845 5.15097
#
# Compressibility (1/GPa) = 0.02737862
#
# Stress axis : x y z
#
# Youngs Moduli (GPa) = 119.17337 53.15223 107.10586
#
# Poissons Ratio (x) = 0.02778 0.45688
# Poissons Ratio (y) = 0.06228 -0.02216
# Poissons Ratio (z) = 0.50836 -0.01100
#
# Static dielectric constant tensor:
#      x y z
#    x 1.833620 0.000000 0.000000 
#    y 0.000000 1.931940 0.000000 
#    z 0.000000 0.000000 1.788360 
# 
# From -- ./inp_files/11234.got.cif
#   From: 2010.05.17/outbox.cif.g08.bks.cpg/sg47_6_cif.got.tgz:11234.got - 2010.06.03 20:15:42.
