data_PCOD9383641
_publ_section_title
;
Structure prediction by ZEFSAII (Michael W. Deem and Ramdas Pophale) SiO2 
 PCOD9383641
Probable space group: P M M M
;
_chemical_formula_sum "Si O2"
_cell_formula_units_Z 36
_cell_length_a 11.924828
_cell_length_b 9.233442
_cell_length_c 21.191963
_cell_angle_alpha 90.000000
_cell_angle_beta 90.000000
_cell_angle_gamma 90.000000
_cell_volume 2333.387872
_symmetry_space_group_name_H-M "P M M M"
_symmetry_group_IT_number 47
_symmetry_cell_setting 'orthorhombic'
loop_
_space_group_symop_operation_xyz
x,y,z
-x,-y,z
x,-y,-z
-x,y,-z
-x,-y,-z
x,y,-z
-x,y,z
x,-y,z
loop_
_atom_site_type_symbol
_atom_site_label
_atom_site_fract_x
_atom_site_fract_y
_atom_site_fract_z
Si Si1 0.367921 0.172936 0.745820
Si Si2 0.636785 0.832929 0.000000
Si Si3 0.000000 0.824473 0.573000
Si Si4 0.366156 0.328951 0.500000
Si Si5 0.244947 0.175017 0.383771
Si Si6 0.636469 0.333322 0.873899
O O1 0.500000 0.205144 0.734160
O O2 0.296040 0.211301 0.684350
O O3 0.331146 0.255209 0.808968
O O4 0.359379 0.000000 0.756143
O O5 0.673436 0.751608 0.063540
O O6 0.500000 0.831131 0.000000
O O7 0.671610 0.000000 0.000000
O O8 0.115009 0.782341 0.607160
O O9 0.000000 0.774244 0.500000
O O10 0.000000 0.000000 0.570985
O O11 0.339874 0.500000 0.500000
O O12 0.500000 0.312115 0.500000
O O13 0.314440 0.252252 0.438713
O O14 0.253512 0.000000 0.391571
O O15 0.500000 0.331700 0.874842
O O16 0.672416 0.500000 0.875446
#
# Coordination Sequence:
#
# PCOD9383641 Si02
#       6
#     8   4   4   4   8   8
#     4   9  17  28  42  62  87 116 150 185 222 266
#     4   9  15  23  37  57  83 116 153 188 215 249
#     4   9  16  30  52  74  90 109 146 195 238 272
#     4  11  23  34  45  66  94 119 146 185 230 275
#     4  10  19  33  52  69  88 117 153 190 229 277
#     4   9  16  25  38  57  84 118 151 182 219 262
#
# _framework density 15.428210999999999
#
# number of rings (size 3 to 8) (size 9 to 14) (size 15 to 20)
#    0.000    2.556    1.111    2.000    0.000    6.667 
#    0.000    3.333    0.000    0.000    0.000    0.000 
#    0.000    0.889    0.000   10.444    0.000    5.111 
#
# Total GULP energy -200639.577711 kJ/mol
# GULP energy per Si atom -5573.321603 kJ/mol
# Density = 1.539310 g / cm^3
# Si number density = 15.428211 Si / 1000 Ang^3
#
#
#
# Elastic Constant Matrix: (Units=GPa)
#
#
# Indices 1 2 3 4 5 6 
#
# 1 65.0040 37.8691 63.9102 0.0000 0.0000 0.0000
# 2 37.8691 71.8404 85.7462 0.0000 0.0000 0.0000
# 3 63.9102 85.7462 187.4508 0.0000 0.0000 0.0000
# 4 0.0000 0.0000 0.0000 6.8420 0.0000 0.0000
# 5 0.0000 0.0000 0.0000 0.0000 0.6359 0.0000
# 6 0.0000 0.0000 0.0000 0.0000 0.0000 8.9524
#
#
#
# Elastic Compliance Matrix: (Units=1/GPa)
#
#
# Indices 1 2 3 4 5 6 
#
# 1 0.024433 -0.006468 -0.005372 0.000000 0.000000 0.000000
# 2 -0.006468 0.032371 -0.012602 0.000000 0.000000 0.000000
# 3 -0.005372 -0.012602 0.012931 0.000000 0.000000 0.000000
# 4 0.000000 0.000000 0.000000 0.146156 0.000000 0.000000
# 5 0.000000 0.000000 0.000000 0.000000 1.572621 0.000000
# 6 0.000000 0.000000 0.000000 0.000000 0.000000 0.111702
#
#
# Mechanical properties :
#
#
# Convention : Reuss Voigt Hill
#
# Bulk Modulus (GPa) = 47.95941 77.70515 62.83228
# Shear Modulus (GPa) = 2.55617 12.40402 7.48010
#
# Velocity S-wave (km/s) = 1.28857 2.83854 2.20428
# Velocity P-wave (km/s) = 5.77641 7.82419 6.87695
#
# Compressibility (1/GPa) = 0.02085096
#
# Stress axis : x y z
#
# Youngs Moduli (GPa) = 40.92848 30.89196 77.33427
#
# Poissons Ratio (x) = 0.19981 0.41541
# Poissons Ratio (y) = 0.26472 0.97459
# Poissons Ratio (z) = 0.21985 0.38931
#
# Static dielectric constant tensor:
#      x y z
#    x 1.490030 0.000000 0.000000 
#    y 0.000000 1.513390 0.000000 
#    z 0.000000 0.000000 1.498200 
# 
# From -- ./inp_files/15052.got.cif
#   From: 2010.05.17/outbox.cif.g08.bks.cpg/sg47_8_cif.got.tgz:15052.got - 2010.06.03 20:15:42.
