data_PCOD9383762
_publ_section_title
;
Structure prediction by ZEFSAII (Michael W. Deem and Ramdas Pophale) SiO2 
 PCOD9383762
Probable space group: P M M M
;
_chemical_formula_sum "Si O2"
_cell_formula_units_Z 56
_cell_length_a 9.897033
_cell_length_b 14.215928
_cell_length_c 22.432925
_cell_angle_alpha 90.000000
_cell_angle_beta 90.000000
_cell_angle_gamma 90.000000
_cell_volume 3156.211791
_symmetry_space_group_name_H-M "P M M M"
_symmetry_group_IT_number 47
_symmetry_cell_setting 'orthorhombic'
loop_
_space_group_symop_operation_xyz
x,y,z
-x,-y,z
x,-y,-z
-x,y,-z
-x,-y,-z
x,y,-z
-x,y,z
x,-y,z
loop_
_atom_site_type_symbol
_atom_site_label
_atom_site_fract_x
_atom_site_fract_y
_atom_site_fract_z
Si Si1 0.227088 0.110021 0.637323
Si Si2 0.153846 0.387600 0.734006
Si Si3 0.500000 0.112015 0.566465
Si Si4 0.658522 0.893507 0.232885
Si Si5 0.843383 0.610897 0.928884
Si Si6 0.339330 0.294761 0.832889
Si Si7 0.338412 0.387123 0.500000
Si Si8 0.851087 0.307844 0.398080
O O1 0.368857 0.130639 0.604983
O O2 0.251106 0.120824 0.708165
O O3 0.141929 0.195248 0.611075
O O4 0.188702 0.000000 0.626257
O O5 0.158412 0.500000 0.734083
O O6 0.265638 0.348616 0.778732
O O7 0.176206 0.350303 0.667296
O O8 0.000000 0.359024 0.751844
O O9 0.500000 0.154001 0.500000
O O10 0.500000 0.000000 0.559191
O O11 0.500000 0.886412 0.251517
O O12 0.680801 0.814819 0.183436
O O13 0.680355 0.000000 0.211655
O O14 0.823398 0.500000 0.914789
O O15 0.738311 0.671948 0.891742
O O16 0.000000 0.633338 0.913915
O O17 0.827569 0.621836 0.000000
O O18 0.500000 0.313611 0.835554
O O19 0.315735 0.500000 0.500000
O O20 0.500000 0.372412 0.500000
O O21 0.263931 0.341020 0.556766
O O22 0.000000 0.341162 0.418070
#
# Coordination Sequence:
#
# PCOD9383762 Si02
#       8
#     8   8   4   8   8   8   4   8
#     4  10  19  33  55  81 114 149 185 231 282 333
#     4  10  21  37  55  76 108 149 187 223 271 337
#     4   9  18  30  50  80 106 140 187 232 279 333
#     4   9  17  32  52  77 112 153 190 227 278 336
#     4   9  19  37  59  81 111 154 194 225 270 339
#     4  11  21  32  54  87 116 144 183 236 282 320
#     4  11  27  47  66  85 104 136 188 244 288 337
#     4  11  24  40  60  84 112 149 185 226 285 345
#
# _framework density 17.742788999999998
#
# number of rings (size 3 to 8) (size 9 to 14) (size 15 to 20)
#    0.000    2.000    2.143    1.929    2.000    4.571 
#    0.000    0.714    0.000    3.000    0.000    3.000 
#    0.000    0.000    0.000    0.000    0.000    0.000 
#
# Total GULP energy -312326.426885 kJ/mol
# GULP energy per Si atom -5577.257623 kJ/mol
# Density = 1.770241 g / cm^3
# Si number density = 17.742789 Si / 1000 Ang^3
#
#
#
# Elastic Constant Matrix: (Units=GPa)
#
#
# Indices 1 2 3 4 5 6 
#
# 1 117.1998 58.0386 62.9505 0.0000 0.0000 0.0000
# 2 58.0386 109.3001 47.9350 0.0000 0.0000 0.0000
# 3 62.9505 47.9350 81.8357 0.0000 0.0000 0.0000
# 4 0.0000 0.0000 0.0000 33.6548 0.0000 0.0000
# 5 0.0000 0.0000 0.0000 0.0000 48.7492 0.0000
# 6 0.0000 0.0000 0.0000 0.0000 0.0000 19.3272
#
#
#
# Elastic Compliance Matrix: (Units=1/GPa)
#
#
# Indices 1 2 3 4 5 6 
#
# 1 0.015808 -0.004119 -0.009747 0.000000 0.000000 0.000000
# 2 -0.004119 0.013385 -0.004672 0.000000 0.000000 0.000000
# 3 -0.009747 -0.004672 0.022454 0.000000 0.000000 0.000000
# 4 0.000000 0.000000 0.000000 0.029713 0.000000 0.000000
# 5 0.000000 0.000000 0.000000 0.000000 0.020513 0.000000
# 6 0.000000 0.000000 0.000000 0.000000 0.000000 0.051740
#
#
# Mechanical properties :
#
#
# Convention : Reuss Voigt Hill
#
# Bulk Modulus (GPa) = 68.63016 71.79819 70.21418
# Shear Modulus (GPa) = 25.56941 29.64034 27.60488
#
# Velocity S-wave (km/s) = 3.80032 4.09168 3.94869
# Velocity P-wave (km/s) = 7.61716 7.92947 7.77488
#
# Compressibility (1/GPa) = 0.01457085
#
# Stress axis : x y z
#
# Youngs Moduli (GPa) = 63.26087 74.70876 44.53628
#
# Poissons Ratio (x) = 0.30774 0.43409
# Poissons Ratio (y) = 0.26059 0.20806
# Poissons Ratio (z) = 0.61659 0.34902
#
# Static dielectric constant tensor:
#      x y z
#    x 1.628230 0.000000 0.000000 
#    y 0.000000 1.620140 0.000000 
#    z 0.000000 0.000000 1.587480 
# 
# From -- ./inp_files/29769.got.cif
#   From: 2010.05.17/outbox.cif.g08.bks.cpg/sg47_15_cif.got.tgz:29769.got - 2010.06.03 20:15:42.
