data_PCOD9383784
_publ_section_title
;
Structure prediction by ZEFSAII (Michael W. Deem and Ramdas Pophale) SiO2 
 PCOD9383784
Probable space group: P M M M
;
_chemical_formula_sum "Si O2"
_cell_formula_units_Z 48
_cell_length_a 7.535333
_cell_length_b 16.152830
_cell_length_c 18.024360
_cell_angle_alpha 90.000000
_cell_angle_beta 90.000000
_cell_angle_gamma 90.000000
_cell_volume 2193.870178
_symmetry_space_group_name_H-M "P M M M"
_symmetry_group_IT_number 47
_symmetry_cell_setting 'orthorhombic'
loop_
_space_group_symop_operation_xyz
x,y,z
-x,-y,z
x,-y,-z
-x,y,-z
-x,-y,-z
x,y,-z
-x,y,z
x,-y,z
loop_
_atom_site_type_symbol
_atom_site_label
_atom_site_fract_x
_atom_site_fract_y
_atom_site_fract_z
Si Si1 0.711739 0.177370 0.152426
Si Si2 0.217068 0.766488 0.416121
Si Si3 0.282391 0.904032 0.000000
Si Si4 0.794826 0.590476 0.638378
Si Si5 0.212919 0.500000 0.084673
Si Si6 0.213285 0.091864 0.304203
Si Si7 0.291915 0.357360 0.801117
O O1 0.500000 0.187139 0.143859
O O2 0.778315 0.142355 0.074408
O O3 0.745046 0.114659 0.219535
O O4 0.781573 0.267330 0.177073
O O5 0.264422 0.788698 0.500000
O O6 0.281651 0.674071 0.396763
O O7 0.279538 0.834625 0.357209
O O8 0.000000 0.764588 0.411524
O O9 0.500000 0.903744 0.000000
O O10 0.228340 0.000000 0.000000
O O11 0.715168 0.500000 0.622327
O O12 0.792499 0.605271 0.727021
O O13 0.000000 0.587122 0.613992
O O14 0.272180 0.580118 0.130670
O O15 0.000000 0.500000 0.083703
O O16 0.277213 0.500000 0.000000
O O17 0.000000 0.090646 0.311674
O O18 0.279483 0.000000 0.322831
O O19 0.500000 0.348812 0.783474
#
# Coordination Sequence:
#
# PCOD9383784 Si02
#       7
#     8   8   4   8   4   8   8
#     4  10  21  36  57  82 109 144 184 229 280 334
#     4   9  18  33  53  80 114 148 185 233 284 334
#     4   9  18  34  55  78 105 138 178 223 271 327
#     4  10  19  33  56  81 108 144 183 227 277 334
#     4  11  25  41  57  81 114 151 190 229 279 334
#     4  10  20  34  55  82 111 146 188 233 280 333
#     4  11  22  35  56  83 110 145 188 232 276 329
#
# _framework density 21.879142999999999
#
# number of rings (size 3 to 8) (size 9 to 14) (size 15 to 20)
#    0.000    2.000    2.500    1.250    1.167    3.000 
#    0.000    3.750    0.000    3.500    0.000    2.333 
#    0.000    0.000    0.000    0.000    0.000    0.000 
#
# Total GULP energy -268228.382208 kJ/mol
# GULP energy per Si atom -5588.091296 kJ/mol
# Density = 2.182935 g / cm^3
# Si number density = 21.879143 Si / 1000 Ang^3
#
#
#
# Elastic Constant Matrix: (Units=GPa)
#
#
# Indices 1 2 3 4 5 6 
#
# 1 57.7105 0.8116 -9.9061 0.0000 0.0000 0.0000
# 2 0.8116 163.7446 46.0968 0.0000 0.0000 0.0000
# 3 -9.9061 46.0968 115.9107 0.0000 0.0000 0.0000
# 4 0.0000 0.0000 0.0000 25.9787 0.0000 0.0000
# 5 0.0000 0.0000 0.0000 0.0000 31.4272 0.0000
# 6 0.0000 0.0000 0.0000 0.0000 0.0000 4.8442
#
#
#
# Elastic Compliance Matrix: (Units=1/GPa)
#
#
# Indices 1 2 3 4 5 6 
#
# 1 0.017634 -0.000576 0.001736 0.000000 0.000000 0.000000
# 2 -0.000576 0.006896 -0.002792 0.000000 0.000000 0.000000
# 3 0.001736 -0.002792 0.009886 0.000000 0.000000 0.000000
# 4 0.000000 0.000000 0.000000 0.038493 0.000000 0.000000
# 5 0.000000 0.000000 0.000000 0.000000 0.031820 0.000000
# 6 0.000000 0.000000 0.000000 0.000000 0.000000 0.206432
#
#
# Mechanical properties :
#
#
# Convention : Reuss Voigt Hill
#
# Bulk Modulus (GPa) = 32.10017 45.70784 38.90401
# Shear Modulus (GPa) = 15.39373 32.47425 23.93399
#
# Velocity S-wave (km/s) = 2.65539 3.85678 3.31103
# Velocity P-wave (km/s) = 4.90967 6.38510 5.69536
#
# Compressibility (1/GPa) = 0.03115248
#
# Stress axis : x y z
#
# Youngs Moduli (GPa) = 56.70864 145.01527 101.15387
#
# Poissons Ratio (x) = 0.08355 -0.17562
# Poissons Ratio (y) = 0.03267 0.28239
# Poissons Ratio (z) = -0.09846 0.40483
#
# Static dielectric constant tensor:
#      x y z
#    x 1.839750 0.000000 0.000000 
#    y 0.000000 1.794350 0.000000 
#    z 0.000000 0.000000 1.741900 
# 
# From -- ./inp_files/26532.got.cif
#   From: 2010.05.17/outbox.cif.g08.bks.cpg/sg47_14_cif.got.tgz:26532.got - 2010.06.03 20:15:42.
