data_PCOD9383502
_publ_section_title
;
Structure prediction by ZEFSAII (Michael W. Deem and Ramdas Pophale) SiO2 
 PCOD9383502
Probable space group: P M M M
;
_chemical_formula_sum "Si O2"
_cell_formula_units_Z 46
_cell_length_a 11.718397
_cell_length_b 18.579922
_cell_length_c 11.668460
_cell_angle_alpha 90.000000
_cell_angle_beta 90.000000
_cell_angle_gamma 90.000000
_cell_volume 2540.537650
_symmetry_space_group_name_H-M "P M M M"
_symmetry_group_IT_number 47
_symmetry_cell_setting 'orthorhombic'
loop_
_space_group_symop_operation_xyz
x,y,z
-x,-y,z
x,-y,-z
-x,y,-z
-x,-y,-z
x,y,-z
-x,y,z
x,-y,z
loop_
_atom_site_type_symbol
_atom_site_label
_atom_site_fract_x
_atom_site_fract_y
_atom_site_fract_z
Si Si1 0.369645 0.661787 0.500000
Si Si2 0.674333 0.300756 0.245589
Si Si3 0.500000 0.413895 0.861283
Si Si4 0.129803 0.500000 0.289449
Si Si5 0.374289 0.848151 0.862076
Si Si6 0.131805 0.362381 0.871779
Si Si7 0.872499 0.914623 0.137918
Si Si8 0.698827 0.500000 0.500000
O O1 0.500000 0.686534 0.500000
O O2 0.316337 0.688815 0.381394
O O3 0.367593 0.574922 0.500000
O O4 0.605920 0.369827 0.193740
O O5 0.619257 0.227075 0.205218
O O6 0.795997 0.300448 0.184688
O O7 0.500000 0.500000 0.834364
O O8 0.500000 0.406846 0.000000
O O9 0.143500 0.568643 0.208615
O O10 0.220572 0.500000 0.389214
O O11 0.000000 0.500000 0.335336
O O12 0.500000 0.884987 0.843480
O O13 0.252552 0.883804 0.826420
O O14 0.367547 0.835598 0.000000
O O15 0.000000 0.343524 0.877099
O O16 0.172446 0.378933 0.000000
O O17 0.000000 0.887862 0.178421
O O18 0.870111 0.000000 0.162135
O O19 0.874227 0.905653 0.000000
#
# Coordination Sequence:
#
# PCOD9383502 Si02
#       8
#     4   8   4   4   8   8   8   2
#     4  12  25  39  55  72  98 136 186 242 286 334
#     4  12  23  39  55  76 105 140 187 232 286 337
#     4  11  24  37  55  77 102 137 179 234 291 344
#     4  10  20  35  54  74  95 126 168 217 278 342
#     4  10  19  32  52  78 112 148 181 226 279 332
#     4  10  21  36  54  76 101 128 165 217 277 344
#     4   8  15  29  51  82 119 154 183 211 254 324
#     4  12  22  38  56  72  94 132 180 234 294 346
#
# _framework density 18.106404000000001
#
# number of rings (size 3 to 8) (size 9 to 14) (size 15 to 20)
#    0.000    1.652    3.478    2.609    2.435    2.087 
#    0.000    3.913    0.000    0.000    0.000    0.609 
#    0.000    3.478    0.000    0.000    0.000    0.000 
#
# Total GULP energy -256229.067988 kJ/mol
# GULP energy per Si atom -5570.197130 kJ/mol
# Density = 1.806519 g / cm^3
# Si number density = 18.106404 Si / 1000 Ang^3
#
#
#
# Elastic Constant Matrix: (Units=GPa)
#
#
# Indices 1 2 3 4 5 6 
#
# 1 131.9329 43.1654 39.6751 0.0000 0.0000 0.0000
# 2 43.1654 41.7215 9.0006 0.0000 0.0000 0.0000
# 3 39.6751 9.0006 85.5525 0.0000 0.0000 0.0000
# 4 0.0000 0.0000 0.0000 -9.4346 0.0000 0.0000
# 5 0.0000 0.0000 0.0000 0.0000 43.1631 0.0000
# 6 0.0000 0.0000 0.0000 0.0000 0.0000 32.9677
#
#
#
# Elastic Compliance Matrix: (Units=1/GPa)
#
#
# Indices 1 2 3 4 5 6 
#
# 1 0.013115 -0.012542 -0.004763 0.000000 0.000000 0.000000
# 2 -0.012542 0.036518 0.001974 0.000000 0.000000 0.000000
# 3 -0.004763 0.001974 0.013690 0.000000 0.000000 0.000000
# 4 0.000000 0.000000 0.000000 -0.105993 0.000000 0.000000
# 5 0.000000 0.000000 0.000000 0.000000 0.023168 0.000000
# 6 0.000000 0.000000 0.000000 0.000000 0.000000 0.030333
#
#
# Mechanical properties :
#
#
# Convention : Reuss Voigt Hill
#
# Bulk Modulus (GPa) = 30.61572 49.20990 39.91281
# Shear Modulus (GPa) = 95.45935 24.49697 59.97816
#
# Velocity S-wave (km/s) = 7.26882 3.68223 5.76171
# Velocity P-wave (km/s) = 9.34843 6.73169 8.14582
#
# Compressibility (1/GPa) = 0.03266296
#
# Stress axis : x y z
#
# Youngs Moduli (GPa) = 76.24752 27.38365 73.04738
#
# Poissons Ratio (x) = 0.34343 0.34791
# Poissons Ratio (y) = 0.95626 -0.14422
# Poissons Ratio (z) = 0.36315 -0.05406
#
# Static dielectric constant tensor:
#      x y z
#    x 1.753020 0.000000 0.000000 
#    y 0.000000 1.642480 0.000000 
#    z 0.000000 0.000000 1.552890 
# 
# From -- ./inp_files/16374.got.cif
#   From: 2010.05.17/outbox.cif.g08.bks.cpg/sg47_9_cif.got.tgz:16374.got - 2010.06.03 20:15:42.
