data_PCOD9383368
_publ_section_title
;
Structure prediction by ZEFSAII (Michael W. Deem and Ramdas Pophale) SiO2 
 PCOD9383368
Probable space group: P M M M
;
_chemical_formula_sum "Si O2"
_cell_formula_units_Z 52
_cell_length_a 17.748244
_cell_length_b 9.096205
_cell_length_c 18.380811
_cell_angle_alpha 90.000000
_cell_angle_beta 90.000000
_cell_angle_gamma 90.000000
_cell_volume 2967.428747
_symmetry_space_group_name_H-M "P M M M"
_symmetry_group_IT_number 47
_symmetry_cell_setting 'orthorhombic'
loop_
_space_group_symop_operation_xyz
x,y,z
-x,-y,z
x,-y,-z
-x,y,-z
-x,-y,-z
x,y,-z
-x,y,z
x,-y,z
loop_
_atom_site_type_symbol
_atom_site_label
_atom_site_fract_x
_atom_site_fract_y
_atom_site_fract_z
Si Si1 0.887232 0.170791 0.500000
Si Si2 0.584321 0.678802 0.916496
Si Si3 0.000000 0.178152 0.916472
Si Si4 0.297399 0.667825 0.356544
Si Si5 0.296579 0.167199 0.500000
Si Si6 0.114058 0.329698 0.648773
Si Si7 0.125222 0.177355 0.799579
Si Si8 0.711283 0.320952 0.803449
O O1 0.795335 0.174650 0.500000
O O2 0.911380 0.251635 0.425737
O O3 0.909400 0.000000 0.500000
O O4 0.500000 0.725598 0.894015
O O5 0.584239 0.500000 0.915690
O O6 0.651621 0.724321 0.864217
O O7 0.596367 0.724487 0.000000
O O8 0.927954 0.218931 0.867356
O O9 0.000000 0.000000 0.920087
O O10 0.000000 0.232458 0.000000
O O11 0.320922 0.500000 0.366047
O O12 0.322617 0.757659 0.425995
O O13 0.205747 0.670808 0.354426
O O14 0.320092 0.719189 0.276469
O O15 0.319093 0.000000 0.500000
O O16 0.090498 0.500000 0.651613
O O17 0.095200 0.244187 0.723126
O O18 0.208093 0.244126 0.812109
O O19 0.127831 0.000000 0.793457
O O20 0.721282 0.500000 0.804139
#
# Coordination Sequence:
#
# PCOD9383368 Si02
#       8
#     4   8   4   8   4   8   8   8
#     4   9  15  23  39  66  96 126 162 196 228 277
#     4   8  14  26  46  72 100 128 156 187 228 282
#     4   9  20  38  55  70  91 122 161 203 248 301
#     4   8  14  23  35  54  85 121 150 180 223 271
#     4   9  15  21  33  55  83 113 149 193 227 256
#     4   9  16  27  43  65  95 127 157 194 242 287
#     4  10  19  32  51  71  92 123 163 204 245 290
#     4   9  17  29  46  71 100 126 155 193 236 282
#
# _framework density 17.523588
#
# number of rings (size 3 to 8) (size 9 to 14) (size 15 to 20)
#    0.000    3.154    0.000    2.769    0.000    6.154 
#    0.000    1.538    0.000    4.154    0.000    4.846 
#    0.000    4.308    0.000    0.000    0.000    0.000 
#
# Total GULP energy -289675.650559 kJ/mol
# GULP energy per Si atom -5570.685588 kJ/mol
# Density = 1.748370 g / cm^3
# Si number density = 17.523588 Si / 1000 Ang^3
#
#
#
# Elastic Constant Matrix: (Units=GPa)
#
#
# Indices 1 2 3 4 5 6 
#
# 1 68.1556 29.7756 72.8422 0.0000 0.0000 0.0000
# 2 29.7756 64.4031 65.9220 0.0000 0.0000 0.0000
# 3 72.8422 65.9220 185.6948 0.0000 0.0000 0.0000
# 4 0.0000 0.0000 0.0000 21.3588 0.0000 0.0000
# 5 0.0000 0.0000 0.0000 0.0000 -33.6391 0.0000
# 6 0.0000 0.0000 0.0000 0.0000 0.0000 10.4292
#
#
#
# Elastic Compliance Matrix: (Units=1/GPa)
#
#
# Indices 1 2 3 4 5 6 
#
# 1 0.025505 -0.002436 -0.009140 0.000000 0.000000 0.000000
# 2 -0.002436 0.024623 -0.007785 0.000000 0.000000 0.000000
# 3 -0.009140 -0.007785 0.011734 0.000000 0.000000 0.000000
# 4 0.000000 0.000000 0.000000 0.046819 0.000000 0.000000
# 5 0.000000 0.000000 0.000000 0.000000 -0.029727 0.000000
# 6 0.000000 0.000000 0.000000 0.000000 0.000000 0.095884
#
#
# Mechanical properties :
#
#
# Convention : Reuss Voigt Hill
#
# Bulk Modulus (GPa) = 43.21761 72.81479 58.01620
# Shear Modulus (GPa) = 22.59639 9.61072 16.10355
#
# Velocity S-wave (km/s) = 3.59483 2.34443 3.03473
# Velocity P-wave (km/s) = 6.47661 6.99794 6.74232
#
# Compressibility (1/GPa) = 0.02313872
#
# Stress axis : x y z
#
# Youngs Moduli (GPa) = 39.20783 40.61311 85.22022
#
# Poissons Ratio (x) = 0.09895 0.77891
# Poissons Ratio (y) = 0.09552 0.66347
# Poissons Ratio (z) = 0.35836 0.31619
#
# Static dielectric constant tensor:
#      x y z
#    x 1.593750 0.000000 0.000000 
#    y 0.000000 1.588310 0.000000 
#    z 0.000000 0.000000 1.605730 
# 
# From -- ./inp_files/25084.got.cif
#   From: 2010.05.17/outbox.cif.g08.bks.cpg/sg47_13_cif.got.tgz:25084.got - 2010.06.03 20:15:42.
