data_PCOD9383489
_publ_section_title
;
Structure prediction by ZEFSAII (Michael W. Deem and Ramdas Pophale) SiO2 
 PCOD9383489
Probable space group: P M M M
;
_chemical_formula_sum "Si O2"
_cell_formula_units_Z 48
_cell_length_a 7.410160
_cell_length_b 18.667725
_cell_length_c 15.787895
_cell_angle_alpha 90.000000
_cell_angle_beta 90.000000
_cell_angle_gamma 90.000000
_cell_volume 2183.952605
_symmetry_space_group_name_H-M "P M M M"
_symmetry_group_IT_number 47
_symmetry_cell_setting 'orthorhombic'
loop_
_space_group_symop_operation_xyz
x,y,z
-x,-y,z
x,-y,-z
-x,y,-z
-x,-y,-z
x,y,-z
-x,y,z
x,-y,z
loop_
_atom_site_type_symbol
_atom_site_label
_atom_site_fract_x
_atom_site_fract_y
_atom_site_fract_z
Si Si1 0.720107 0.581760 0.500000
Si Si2 0.783123 0.500000 0.899737
Si Si3 0.717284 0.155156 0.405394
Si Si4 0.281266 0.314058 0.649812
Si Si5 0.779340 0.804827 0.095009
Si Si6 0.208536 0.652939 0.843024
Si Si7 0.213472 0.079591 0.231110
O O1 0.781141 0.500000 0.500000
O O2 0.500000 0.581191 0.500000
O O3 0.775862 0.626149 0.582557
O O4 0.711958 0.425058 0.862686
O O5 0.000000 0.500000 0.883308
O O6 0.754402 0.500000 0.000000
O O7 0.780856 0.135946 0.500000
O O8 0.500000 0.157043 0.408433
O O9 0.777870 0.235499 0.380965
O O10 0.765792 0.103456 0.328388
O O11 0.500000 0.313427 0.651992
O O12 0.215403 0.331540 0.743307
O O13 0.714673 0.723914 0.112772
O O14 0.715451 0.859287 0.167705
O O15 0.000000 0.802875 0.099508
O O16 0.730801 0.827486 0.000000
O O17 0.000000 0.649325 0.871695
O O18 0.000000 0.076098 0.214289
O O19 0.288370 0.000000 0.217551
#
# Coordination Sequence:
#
# PCOD9383489 Si02
#       7
#     4   4   8   8   8   8   8
#     4   9  18  32  51  75 102 135 174 212 253 307
#     4   9  18  32  51  76 105 136 170 211 255 301
#     4  10  20  36  57  78 103 138 178 216 256 310
#     4  10  19  33  53  76 101 133 174 215 254 301
#     4   9  17  31  53  78 103 136 176 212 251 306
#     4  10  19  32  52  77 105 135 171 212 256 306
#     4  10  21  36  54  80 111 137 168 216 268 313
#
# _framework density 21.978498999999999
#
# number of rings (size 3 to 8) (size 9 to 14) (size 15 to 20)
#    0.000    2.333    2.500    0.500    1.167    3.333 
#    0.000    3.750    0.000    4.500    0.000    1.167 
#    0.000    0.000    0.000    0.000    0.000    0.000 
#
# Total GULP energy -268147.128846 kJ/mol
# GULP energy per Si atom -5586.398518 kJ/mol
# Density = 2.192847 g / cm^3
# Si number density = 21.978499 Si / 1000 Ang^3
#
#
#
# Elastic Constant Matrix: (Units=GPa)
#
#
# Indices 1 2 3 4 5 6 
#
# 1 72.8942 9.9543 -6.6407 0.0000 0.0000 0.0000
# 2 9.9543 171.2509 78.1092 0.0000 0.0000 0.0000
# 3 -6.6407 78.1092 121.9487 0.0000 0.0000 0.0000
# 4 0.0000 0.0000 0.0000 2.6538 0.0000 0.0000
# 5 0.0000 0.0000 0.0000 0.0000 24.7456 0.0000
# 6 0.0000 0.0000 0.0000 0.0000 0.0000 2.8217
#
#
#
# Elastic Compliance Matrix: (Units=1/GPa)
#
#
# Indices 1 2 3 4 5 6 
#
# 1 0.014111 -0.001654 0.001828 0.000000 0.000000 0.000000
# 2 -0.001654 0.008443 -0.005498 0.000000 0.000000 0.000000
# 3 0.001828 -0.005498 0.011821 0.000000 0.000000 0.000000
# 4 0.000000 0.000000 0.000000 0.376822 0.000000 0.000000
# 5 0.000000 0.000000 0.000000 0.000000 0.040411 0.000000
# 6 0.000000 0.000000 0.000000 0.000000 0.000000 0.354393
#
#
# Mechanical properties :
#
#
# Convention : Reuss Voigt Hill
#
# Bulk Modulus (GPa) = 42.14609 58.77104 50.45857
# Shear Modulus (GPa) = 6.06385 25.02229 15.54307
#
# Velocity S-wave (km/s) = 1.66282 3.37781 2.66220
# Velocity P-wave (km/s) = 4.78585 6.48160 5.69717
#
# Compressibility (1/GPa) = 0.02372699
#
# Stress axis : x y z
#
# Youngs Moduli (GPa) = 70.86736 118.43823 84.59363
#
# Poissons Ratio (x) = 0.19588 -0.15461
# Poissons Ratio (y) = 0.11721 0.46510
# Poissons Ratio (z) = -0.12953 0.65118
#
# Static dielectric constant tensor:
#      x y z
#    x 1.871630 0.000000 0.000000 
#    y 0.000000 1.787280 0.000000 
#    z 0.000000 0.000000 1.750910 
# 
# From -- ./inp_files/21086.got.cif
#   From: 2010.05.17/outbox.cif.g08.bks.cpg/sg47_11_cif.got.tgz:21086.got - 2010.06.03 20:15:42.
