data_PCOD9383334
_publ_section_title
;
Structure prediction by ZEFSAII (Michael W. Deem and Ramdas Pophale) SiO2 
 PCOD9383334
Probable space group: P M M M
;
_chemical_formula_sum "Si O2"
_cell_formula_units_Z 40
_cell_length_a 13.597419
_cell_length_b 7.560137
_cell_length_c 19.747394
_cell_angle_alpha 90.000000
_cell_angle_beta 90.000000
_cell_angle_gamma 90.000000
_cell_volume 2029.999530
_symmetry_space_group_name_H-M "P M M M"
_symmetry_group_IT_number 47
_symmetry_cell_setting 'orthorhombic'
loop_
_space_group_symop_operation_xyz
x,y,z
-x,-y,z
x,-y,-z
-x,y,-z
-x,-y,-z
x,y,-z
-x,y,z
x,-y,z
loop_
_atom_site_type_symbol
_atom_site_label
_atom_site_fract_x
_atom_site_fract_y
_atom_site_fract_z
Si Si1 0.500000 0.715944 0.078101
Si Si2 0.260604 0.201125 0.577633
Si Si3 0.303258 0.716254 0.158108
Si Si4 0.110057 0.500000 0.582068
Si Si5 0.889478 0.284331 0.078597
Si Si6 0.611959 0.286109 0.298299
O O1 0.500000 0.500000 0.079284
O O2 0.400034 0.771126 0.115853
O O3 0.500000 0.771386 0.000000
O O4 0.288177 0.248386 0.500000
O O5 0.173948 0.330253 0.600946
O O6 0.348985 0.220891 0.629958
O O7 0.226116 0.000000 0.577397
O O8 0.302497 0.500000 0.157022
O O9 0.201533 0.775905 0.124316
O O10 0.320280 0.771208 0.235632
O O11 0.103866 0.500000 0.500000
O O12 0.000000 0.500000 0.609368
O O13 0.889018 0.500000 0.080007
O O14 0.000000 0.228424 0.098945
O O15 0.874244 0.233441 0.000000
O O16 0.500000 0.231085 0.285372
O O17 0.613529 0.500000 0.299986
#
# Coordination Sequence:
#
# PCOD9383334 Si02
#       6
#     4   8   8   4   8   8
#     4   9  14  20  34  58  86 121 170 227 276 326
#     4  10  21  37  58  85 114 146 189 235 279 337
#     4   9  15  24  37  58  90 131 176 223 277 338
#     4   9  18  36  61  87 115 145 180 227 284 335
#     4   8  13  21  34  54  85 127 170 215 272 332
#     4  10  19  32  50  71 104 148 187 233 289 344
#
# _framework density 19.704439000000001
#
# number of rings (size 3 to 8) (size 9 to 14) (size 15 to 20)
#    0.000    2.800    2.000    1.200    0.000    3.600 
#    0.000    5.000    0.000    0.000    0.000    0.000 
#    0.000    4.000    0.000    2.200    0.000    2.000 
#
# Total GULP energy -223159.691363 kJ/mol
# GULP energy per Si atom -5578.992284 kJ/mol
# Density = 1.965959 g / cm^3
# Si number density = 19.704439 Si / 1000 Ang^3
#
#
#
# Elastic Constant Matrix: (Units=GPa)
#
#
# Indices 1 2 3 4 5 6 
#
# 1 161.3031 23.4066 80.9743 0.0000 0.0000 0.0000
# 2 23.4066 54.2203 16.2427 0.0000 0.0000 0.0000
# 3 80.9743 16.2427 117.4916 0.0000 0.0000 0.0000
# 4 0.0000 0.0000 0.0000 -20.8450 0.0000 0.0000
# 5 0.0000 0.0000 0.0000 0.0000 31.0662 0.0000
# 6 0.0000 0.0000 0.0000 0.0000 0.0000 -31.8044
#
#
#
# Elastic Compliance Matrix: (Units=1/GPa)
#
#
# Indices 1 2 3 4 5 6 
#
# 1 0.009744 -0.002290 -0.006399 0.000000 0.000000 0.000000
# 2 -0.002290 0.019778 -0.001156 0.000000 0.000000 0.000000
# 3 -0.006399 -0.001156 0.013081 0.000000 0.000000 0.000000
# 4 0.000000 0.000000 0.000000 -0.047973 0.000000 0.000000
# 5 0.000000 0.000000 0.000000 0.000000 0.032189 0.000000
# 6 0.000000 0.000000 0.000000 0.000000 0.000000 -0.031442
#
#
# Mechanical properties :
#
#
# Convention : Reuss Voigt Hill
#
# Bulk Modulus (GPa) = 43.64210 63.80693 53.72451
# Shear Modulus (GPa) = 220.21792 9.84280 115.03036
#
# Velocity S-wave (km/s) = 10.58316 2.23742 7.64883
# Velocity P-wave (km/s) = 13.09710 6.25516 10.26307
#
# Compressibility (1/GPa) = 0.02291366
#
# Stress axis : x y z
#
# Youngs Moduli (GPa) = 102.62687 50.56117 76.44538
#
# Poissons Ratio (x) = 0.11576 0.48917
# Poissons Ratio (y) = 0.23496 0.08840
# Poissons Ratio (z) = 0.65671 0.05846
#
# Static dielectric constant tensor:
#      x y z
#    x 1.668160 0.000000 0.000000 
#    y 0.000000 1.709700 0.000000 
#    z 0.000000 0.000000 1.673840 
# 
# From -- ./inp_files/30353.got.cif
#   From: 2010.05.17/outbox.cif.g08.bks.cpg/sg47_16_cif.got.tgz:30353.got - 2010.06.03 20:15:42.
