data_PCOD9383258
_publ_section_title
;
Structure prediction by ZEFSAII (Michael W. Deem and Ramdas Pophale) SiO2 
 PCOD9383258
Probable space group: P M M M
;
_chemical_formula_sum "Si O2"
_cell_formula_units_Z 52
_cell_length_a 10.018994
_cell_length_b 15.053386
_cell_length_c 20.819673
_cell_angle_alpha 90.000000
_cell_angle_beta 90.000000
_cell_angle_gamma 90.000000
_cell_volume 3140.018585
_symmetry_space_group_name_H-M "P M M M"
_symmetry_group_IT_number 47
_symmetry_cell_setting 'orthorhombic'
loop_
_space_group_symop_operation_xyz
x,y,z
-x,-y,z
x,-y,-z
-x,y,-z
-x,-y,-z
x,y,-z
-x,y,z
x,-y,z
loop_
_atom_site_type_symbol
_atom_site_label
_atom_site_fract_x
_atom_site_fract_y
_atom_site_fract_z
Si Si1 0.149789 0.000000 0.422549
Si Si2 0.152248 0.399873 0.250499
Si Si3 0.657986 0.768548 0.072415
Si Si4 0.661515 0.102068 0.189635
Si Si5 0.652002 0.157786 0.425675
Si Si6 0.845851 0.398844 0.904324
Si Si7 0.654439 0.246573 0.294364
O O1 0.238422 0.085233 0.407376
O O2 0.139715 0.000000 0.500000
O O3 0.000000 0.000000 0.395946
O O4 0.186124 0.500000 0.271277
O O5 0.154998 0.398739 0.173149
O O6 0.253242 0.327299 0.275183
O O7 0.000000 0.380659 0.270433
O O8 0.500000 0.748519 0.082809
O O9 0.700515 0.838615 0.127497
O O10 0.745354 0.678785 0.075556
O O11 0.670904 0.805623 0.000000
O O12 0.500000 0.096715 0.187873
O O13 0.695383 0.158919 0.253391
O O14 0.711254 0.000000 0.189535
O O15 0.672265 0.185562 0.500000
O O16 0.500000 0.120736 0.422204
O O17 0.660727 0.230658 0.370488
O O18 0.810494 0.500000 0.924494
O O19 0.000000 0.381950 0.924151
O O20 0.500000 0.264018 0.276818
#
# Coordination Sequence:
#
# PCOD9383258 Si02
#       7
#     4   8   8   8   8   8   8
#     4   9  17  29  45  67  97 133 172 207 242 292
#     4   9  18  33  53  76 102 130 160 201 253 302
#     4  10  20  33  50  73 100 130 165 205 248 289
#     4   9  18  32  49  71  99 128 163 206 245 284
#     4   9  18  31  47  70 102 136 167 203 252 305
#     4   9  18  33  52  73  99 131 162 195 245 306
#     4  10  19  31  53  78  99 129 167 206 247 292
#
# _framework density 16.560411999999999
#
# number of rings (size 3 to 8) (size 9 to 14) (size 15 to 20)
#    0.000    2.692    1.538    1.154    1.077    3.077 
#    0.000    4.615    0.000    1.846    0.000    4.308 
#    0.000    0.000    0.000    0.000    0.000    0.000 
#
# Total GULP energy -289541.307618 kJ/mol
# GULP energy per Si atom -5568.102070 kJ/mol
# Density = 1.652272 g / cm^3
# Si number density = 16.560412 Si / 1000 Ang^3
#
#
#
# Elastic Constant Matrix: (Units=GPa)
#
#
# Indices 1 2 3 4 5 6 
#
# 1 69.5851 63.5038 38.0972 0.0000 0.0000 0.0000
# 2 63.5038 119.0761 51.9518 0.0000 0.0000 0.0000
# 3 38.0972 51.9518 88.9746 0.0000 0.0000 0.0000
# 4 0.0000 0.0000 0.0000 9.2243 0.0000 0.0000
# 5 0.0000 0.0000 0.0000 0.0000 14.4436 0.0000
# 6 0.0000 0.0000 0.0000 0.0000 0.0000 32.6896
#
#
#
# Elastic Compliance Matrix: (Units=1/GPa)
#
#
# Indices 1 2 3 4 5 6 
#
# 1 0.029334 -0.013638 -0.004597 0.000000 0.000000 0.000000
# 2 -0.013638 0.017610 -0.004442 0.000000 0.000000 0.000000
# 3 -0.004597 -0.004442 0.015801 0.000000 0.000000 0.000000
# 4 0.000000 0.000000 0.000000 0.108410 0.000000 0.000000
# 5 0.000000 0.000000 0.000000 0.000000 0.069235 0.000000
# 6 0.000000 0.000000 0.000000 0.000000 0.000000 0.030591
#
#
# Mechanical properties :
#
#
# Convention : Reuss Voigt Hill
#
# Bulk Modulus (GPa) = 57.50570 64.97128 61.23849
# Shear Modulus (GPa) = 15.52156 19.54370 17.53263
#
# Velocity S-wave (km/s) = 3.06481 3.43905 3.25731
# Velocity P-wave (km/s) = 6.87926 7.42210 7.15583
#
# Compressibility (1/GPa) = 0.01738958
#
# Stress axis : x y z
#
# Youngs Moduli (GPa) = 34.08989 56.78711 63.28558
#
# Poissons Ratio (x) = 0.77449 0.29092
# Poissons Ratio (y) = 0.46493 0.28114
# Poissons Ratio (z) = 0.15671 0.25227
#
# Static dielectric constant tensor:
#      x y z
#    x 1.558460 0.000000 0.000000 
#    y 0.000000 1.542330 0.000000 
#    z 0.000000 0.000000 1.575060 
# 
# From -- ./inp_files/11099.got.cif
#   From: 2010.05.17/outbox.cif.g08.bks.cpg/sg47_6_cif.got.tgz:11099.got - 2010.06.03 20:15:42.
