data_PCOD9383836
_publ_section_title
;
Structure prediction by ZEFSAII (Michael W. Deem and Ramdas Pophale) SiO2 
 PCOD9383836
Probable space group: P M M M
;
_chemical_formula_sum "Si O2"
_cell_formula_units_Z 52
_cell_length_a 20.761896
_cell_length_b 16.491262
_cell_length_c 8.560291
_cell_angle_alpha 90.000000
_cell_angle_beta 90.000000
_cell_angle_gamma 90.000000
_cell_volume 2930.956893
_symmetry_space_group_name_H-M "P M M M"
_symmetry_group_IT_number 47
_symmetry_cell_setting 'orthorhombic'
loop_
_space_group_symop_operation_xyz
x,y,z
-x,-y,z
x,-y,-z
-x,y,-z
-x,-y,-z
x,y,-z
-x,y,z
x,-y,z
loop_
_atom_site_type_symbol
_atom_site_label
_atom_site_fract_x
_atom_site_fract_y
_atom_site_fract_z
Si Si1 0.425343 0.408604 0.690465
Si Si2 0.308177 0.910879 0.686723
Si Si3 0.923592 0.000000 0.181884
Si Si4 0.070976 0.597087 0.315713
Si Si5 0.160945 0.138182 0.682568
Si Si6 0.811189 0.694105 0.819753
Si Si7 0.672390 0.270340 0.688075
O O1 0.423453 0.408047 0.500000
O O2 0.500000 0.397168 0.735569
O O3 0.405203 0.500000 0.738964
O O4 0.380127 0.335291 0.745172
O O5 0.321121 0.912102 0.500000
O O6 0.230903 0.903222 0.704611
O O7 0.334042 0.823364 0.746637
O O8 0.328717 0.000000 0.749033
O O9 0.894055 0.922884 0.268205
O O10 0.000000 0.000000 0.188447
O O11 0.903236 0.000000 0.000000
O O12 0.074097 0.616956 0.500000
O O13 0.071953 0.500000 0.301306
O O14 0.133866 0.632963 0.235805
O O15 0.000000 0.625114 0.257409
O O16 0.156494 0.160957 0.500000
O O17 0.159566 0.217290 0.788113
O O18 0.743445 0.696307 0.728407
O O19 0.796548 0.681258 0.000000
O O20 0.667763 0.265998 0.500000
#
# Coordination Sequence:
#
# PCOD9383836 Si02
#       7
#     8   8   4   8   8   8   8
#     4   8  14  26  46  73 103 134 170 212 255 299
#     4   8  13  24  44  67  88 115 155 202 246 288
#     4  11  23  35  47  69 101 131 162 207 262 313
#     4   9  19  37  58  75  92 122 167 211 249 301
#     4  10  19  34  53  69  89 125 170 209 247 298
#     4  11  22  34  50  75 106 133 160 206 265 314
#     4   9  17  29  48  73  98 129 171 213 253 304
#
# _framework density 17.741647
#
# number of rings (size 3 to 8) (size 9 to 14) (size 15 to 20)
#    0.000    2.692    0.769    3.923    0.000    2.462 
#    0.000    2.308    0.000    0.923    0.000    4.308 
#    0.000    0.000    0.000    4.000    0.000    5.231 
#
# Total GULP energy -289586.760767 kJ/mol
# GULP energy per Si atom -5568.976169 kJ/mol
# Density = 1.770127 g / cm^3
# Si number density = 17.741647 Si / 1000 Ang^3
#
#
#
# Elastic Constant Matrix: (Units=GPa)
#
#
# Indices 1 2 3 4 5 6 
#
# 1 67.2700 60.6541 5.3009 0.0000 0.0000 0.0000
# 2 60.6541 105.5060 15.2703 0.0000 0.0000 0.0000
# 3 5.3009 15.2703 9.7239 0.0000 0.0000 0.0000
# 4 0.0000 0.0000 0.0000 -6.8862 0.0000 0.0000
# 5 0.0000 0.0000 0.0000 0.0000 0.4873 0.0000
# 6 0.0000 0.0000 0.0000 0.0000 0.0000 26.4593
#
#
#
# Elastic Compliance Matrix: (Units=1/GPa)
#
#
# Indices 1 2 3 4 5 6 
#
# 1 0.032477 -0.020846 0.015032 0.000000 0.000000 0.000000
# 2 -0.020846 0.025647 -0.028911 0.000000 0.000000 0.000000
# 3 0.015032 -0.028911 0.140046 0.000000 0.000000 0.000000
# 4 0.000000 0.000000 0.000000 -0.145219 0.000000 0.000000
# 5 0.000000 0.000000 0.000000 0.000000 2.052109 0.000000
# 6 0.000000 0.000000 0.000000 0.000000 0.000000 0.037794
#
#
# Mechanical properties :
#
#
# Convention : Reuss Voigt Hill
#
# Bulk Modulus (GPa) = 7.76883 38.32783 23.04833
# Shear Modulus (GPa) = 2.21709 10.76373 6.49041
#
# Velocity S-wave (km/s) = 1.11909 2.46579 1.91474
# Velocity P-wave (km/s) = 2.46134 5.45500 4.23174
#
# Compressibility (1/GPa) = 0.12871952
#
# Stress axis : x y z
#
# Youngs Moduli (GPa) = 30.79089 38.99098 7.14050
#
# Poissons Ratio (x) = 0.81282 -0.10734
# Poissons Ratio (y) = 0.64188 0.20644
# Poissons Ratio (z) = -0.46286 1.12728
#
# Static dielectric constant tensor:
#      x y z
#    x 1.581960 0.000000 0.000000 
#    y 0.000000 1.629410 0.000000 
#    z 0.000000 0.000000 1.601960 
# 
# From -- ./inp_files/10994.got.cif
#   From: 2010.05.17/outbox.cif.g08.bks.cpg/sg47_6_cif.got.tgz:10994.got - 2010.06.03 20:15:42.
