data_PCOD9383033
_publ_section_title
;
Structure prediction by ZEFSAII (Michael W. Deem and Ramdas Pophale) SiO2 
 PCOD9383033
Probable space group: P M M M
;
_chemical_formula_sum "Si O2"
_cell_formula_units_Z 52
_cell_length_a 30.150197
_cell_length_b 11.163742
_cell_length_c 9.135993
_cell_angle_alpha 90.000000
_cell_angle_beta 90.000000
_cell_angle_gamma 90.000000
_cell_volume 3075.074936
_symmetry_space_group_name_H-M "P M M M"
_symmetry_group_IT_number 47
_symmetry_cell_setting 'orthorhombic'
loop_
_space_group_symop_operation_xyz
x,y,z
-x,-y,z
x,-y,-z
-x,y,-z
-x,-y,-z
x,y,-z
-x,y,z
x,-y,z
loop_
_atom_site_type_symbol
_atom_site_label
_atom_site_fract_x
_atom_site_fract_y
_atom_site_fract_z
Si Si1 0.288515 0.855084 0.167252
Si Si2 0.389060 0.138702 0.821364
Si Si3 0.448156 0.364968 0.822004
Si Si4 0.049725 0.642228 0.665236
Si Si5 0.947748 0.000000 0.675051
Si Si6 0.200220 0.145355 0.331030
Si Si7 0.110318 0.796612 0.171900
O O1 0.338353 0.829544 0.220343
O O2 0.247633 0.815362 0.266509
O O3 0.286462 0.000000 0.161720
O O4 0.283382 0.811522 0.000000
O O5 0.420893 0.247431 0.772782
O O6 0.399182 0.000000 0.775245
O O7 0.389924 0.135921 0.000000
O O8 0.500000 0.352897 0.782102
O O9 0.433280 0.500000 0.775883
O O10 0.445994 0.364612 0.000000
O O11 0.060628 0.686453 0.500000
O O12 0.046870 0.500000 0.656784
O O13 0.086657 0.674510 0.782359
O O14 0.000000 0.687801 0.701510
O O15 0.921877 0.110935 0.744902
O O16 0.942910 0.000000 0.500000
O O17 0.000000 0.000000 0.709533
O O18 0.195305 0.180299 0.500000
O O19 0.159439 0.192287 0.235929
O O20 0.198468 0.000000 0.324261
O O21 0.110554 0.819141 0.000000
#
# Coordination Sequence:
#
# PCOD9383033 Si02
#       7
#     8   8   8   8   4   8   8
#     4   8  14  25  41  60  84 112 146 190 236 277
#     4   8  13  21  34  53  77 109 148 188 231 278
#     4   8  13  20  30  48  79 118 154 185 222 274
#     4   9  19  37  58  75  93 123 161 196 233 281
#     4  11  23  37  51  69  99 135 165 193 230 283
#     4  10  19  31  48  68  93 124 158 192 231 286
#     4  12  23  33  50  75 102 128 156 195 241 285
#
# _framework density 16.910157000000002
#
# number of rings (size 3 to 8) (size 9 to 14) (size 15 to 20)
#    0.000    2.692    0.769    4.385    0.000    4.000 
#    0.000    2.308    0.000    0.923    0.000    2.154 
#    0.000    0.615    0.000    7.692    0.000    8.923 
#
# Total GULP energy -289489.118085 kJ/mol
# GULP energy per Si atom -5567.098425 kJ/mol
# Density = 1.687167 g / cm^3
# Si number density = 16.910157 Si / 1000 Ang^3
#
#
#
# Elastic Constant Matrix: (Units=GPa)
#
#
# Indices 1 2 3 4 5 6 
#
# 1 123.3850 57.2688 47.2196 0.0000 0.0000 0.0000
# 2 57.2688 71.6305 23.3979 0.0000 0.0000 0.0000
# 3 47.2196 23.3979 59.6110 0.0000 0.0000 0.0000
# 4 0.0000 0.0000 0.0000 10.3921 0.0000 0.0000
# 5 0.0000 0.0000 0.0000 0.0000 -31.1513 0.0000
# 6 0.0000 0.0000 0.0000 0.0000 0.0000 -36.6281
#
#
#
# Elastic Compliance Matrix: (Units=1/GPa)
#
#
# Indices 1 2 3 4 5 6 
#
# 1 0.016141 -0.010012 -0.008856 0.000000 0.000000 0.000000
# 2 -0.010012 0.022224 -0.000792 0.000000 0.000000 0.000000
# 3 -0.008856 -0.000792 0.024101 0.000000 0.000000 0.000000
# 4 0.000000 0.000000 0.000000 0.096227 0.000000 0.000000
# 5 0.000000 0.000000 0.000000 0.000000 -0.032101 0.000000
# 6 0.000000 0.000000 0.000000 0.000000 0.000000 -0.027301
#
#
# Mechanical properties :
#
#
# Convention : Reuss Voigt Hill
#
# Bulk Modulus (GPa) = 43.20420 56.71102 49.95761
# Shear Modulus (GPa) = 34.17028 -3.02811 15.57108
#
# Velocity S-wave (km/s) = 4.50009 -1.33962 3.03778
# Velocity P-wave (km/s) = 7.25299 5.58719 6.47389
#
# Compressibility (1/GPa) = 0.02314590
#
# Stress axis : x y z
#
# Youngs Moduli (GPa) = 61.95443 44.99657 41.49127
#
# Poissons Ratio (x) = 0.45050 0.36744
# Poissons Ratio (y) = 0.62028 0.03288
# Poissons Ratio (z) = 0.54866 0.03565
#
# Static dielectric constant tensor:
#      x y z
#    x 1.570290 0.000000 0.000000 
#    y 0.000000 1.665730 0.000000 
#    z 0.000000 0.000000 1.562980 
# 
# From -- ./inp_files/13270.got.cif
#   From: 2010.05.17/outbox.cif.g08.bks.cpg/sg47_7_cif.got.tgz:13270.got - 2010.06.03 20:15:42.
