data_PCOD9383186
_publ_section_title
;
Structure prediction by ZEFSAII (Michael W. Deem and Ramdas Pophale) SiO2 
 PCOD9383186
Probable space group: P M M M
;
_chemical_formula_sum "Si O2"
_cell_formula_units_Z 52
_cell_length_a 13.661046
_cell_length_b 7.516760
_cell_length_c 23.096385
_cell_angle_alpha 90.000000
_cell_angle_beta 90.000000
_cell_angle_gamma 90.000000
_cell_volume 2371.693963
_symmetry_space_group_name_H-M "P M M M"
_symmetry_group_IT_number 47
_symmetry_cell_setting 'orthorhombic'
loop_
_space_group_symop_operation_xyz
x,y,z
-x,-y,z
x,-y,-z
-x,y,-z
-x,-y,-z
x,y,-z
-x,y,z
x,-y,z
loop_
_atom_site_type_symbol
_atom_site_label
_atom_site_fract_x
_atom_site_fract_y
_atom_site_fract_z
Si Si1 0.187846 0.291198 0.563346
Si Si2 0.891147 0.283623 0.685079
Si Si3 0.305111 0.705485 0.126910
Si Si4 0.309568 0.203927 0.742280
Si Si5 0.390734 0.215727 0.620226
Si Si6 0.500000 0.717715 0.067204
Si Si7 0.109469 0.283377 0.932245
O O1 0.167804 0.213754 0.500000
O O2 0.163372 0.500000 0.560734
O O3 0.131098 0.220759 0.619435
O O4 0.302812 0.275471 0.579015
O O5 0.884836 0.500000 0.685790
O O6 0.804297 0.213786 0.724617
O O7 0.000000 0.232831 0.702868
O O8 0.301480 0.500000 0.107937
O O9 0.320440 0.709208 0.195638
O O10 0.400864 0.784483 0.096953
O O11 0.200379 0.780843 0.106468
O O12 0.365772 0.277353 0.685793
O O13 0.340762 0.000000 0.748789
O O14 0.500000 0.270929 0.603416
O O15 0.387477 0.000000 0.620822
O O16 0.500000 0.500000 0.072522
O O17 0.500000 0.761183 0.000000
O O18 0.106304 0.500000 0.928919
O O19 0.000000 0.221794 0.915591
O O20 0.125847 0.238642 0.000000
#
# Coordination Sequence:
#
# PCOD9383186 Si02
#       7
#     8   8   8   8   8   4   8
#     4   9  18  32  50  76 106 130 159 203 254 306
#     4   9  18  34  55  76 101 135 171 207 249 300
#     4  10  19  31  50  76 102 130 168 211 257 310
#     4  10  21  35  51  72 100 133 169 212 256 301
#     4   9  19  35  52  68  91 130 174 211 249 296
#     4   9  18  32  51  77 107 137 170 215 266 311
#     4   8  14  26  46  71  96 123 158 200 243 290
#
# _framework density 21.925257999999999
#
# number of rings (size 3 to 8) (size 9 to 14) (size 15 to 20)
#    0.000    2.846    0.000    1.385    1.077    4.615 
#    0.000    4.615    0.000    2.308    0.000    5.385 
#    0.000    0.000    0.000    0.000    0.000    0.000 
#
# Total GULP energy -290186.899787 kJ/mol
# GULP energy per Si atom -5580.517304 kJ/mol
# Density = 2.187536 g / cm^3
# Si number density = 21.925258 Si / 1000 Ang^3
#
#
#
# Elastic Constant Matrix: (Units=GPa)
#
#
# Indices 1 2 3 4 5 6 
#
# 1 50.4536 -0.6931 11.0019 0.0000 0.0000 0.0000
# 2 -0.6931 55.0516 -3.4686 0.0000 0.0000 0.0000
# 3 11.0019 -3.4686 78.9768 0.0000 0.0000 0.0000
# 4 0.0000 0.0000 0.0000 -0.7919 0.0000 0.0000
# 5 0.0000 0.0000 0.0000 0.0000 -0.9897 0.0000
# 6 0.0000 0.0000 0.0000 0.0000 0.0000 8.2636
#
#
#
# Elastic Compliance Matrix: (Units=1/GPa)
#
#
# Indices 1 2 3 4 5 6 
#
# 1 0.020441 0.000078 -0.002844 0.000000 0.000000 0.000000
# 2 0.000078 0.018215 0.000789 0.000000 0.000000 0.000000
# 3 -0.002844 0.000789 0.013093 0.000000 0.000000 0.000000
# 4 0.000000 0.000000 0.000000 -1.262859 0.000000 0.000000
# 5 0.000000 0.000000 0.000000 0.000000 -1.010362 0.000000
# 6 0.000000 0.000000 0.000000 0.000000 0.000000 0.121012
#
#
# Mechanical properties :
#
#
# Convention : Reuss Voigt Hill
#
# Bulk Modulus (GPa) = 20.92226 22.01803 21.47015
# Shear Modulus (GPa) = -2.40318 13.13919 5.36800
#
# Velocity S-wave (km/s) = -1.04807 2.45066 1.56641
# Velocity P-wave (km/s) = 2.84581 4.25109 3.61735
#
# Compressibility (1/GPa) = 0.04779598
#
# Stress axis : x y z
#
# Youngs Moduli (GPa) = 48.92013 54.89838 76.37772
#
# Poissons Ratio (x) = -0.00429 0.21723
# Poissons Ratio (y) = -0.00382 -0.06027
# Poissons Ratio (z) = 0.13914 -0.04332
#
# Static dielectric constant tensor:
#      x y z
#    x 1.795070 0.000000 0.000000 
#    y 0.000000 1.849960 0.000000 
#    z 0.000000 0.000000 1.763740 
# 
# From -- ./inp_files/6926.got.cif
#   From: 2010.05.17/outbox.cif.g08.bks.cpg/sg47_4_cif.got.tgz:6926.got - 2010.06.03 20:15:42.
