data_PCOD9383209
_publ_section_title
;
Structure prediction by ZEFSAII (Michael W. Deem and Ramdas Pophale) SiO2 
 PCOD9383209
Probable space group: P M M M
;
_chemical_formula_sum "Si O2"
_cell_formula_units_Z 56
_cell_length_a 21.070185
_cell_length_b 7.829700
_cell_length_c 16.153153
_cell_angle_alpha 90.000000
_cell_angle_beta 90.000000
_cell_angle_gamma 90.000000
_cell_volume 2664.837785
_symmetry_space_group_name_H-M "P M M M"
_symmetry_group_IT_number 47
_symmetry_cell_setting 'orthorhombic'
loop_
_space_group_symop_operation_xyz
x,y,z
-x,-y,z
x,-y,-z
-x,y,-z
-x,-y,-z
x,y,-z
-x,y,z
x,-y,z
loop_
_atom_site_type_symbol
_atom_site_label
_atom_site_fract_x
_atom_site_fract_y
_atom_site_fract_z
Si Si1 0.067676 0.800531 0.202848
Si Si2 0.322589 0.805160 0.092689
Si Si3 0.572427 0.208364 0.593946
Si Si4 0.069445 0.696609 0.613825
Si Si5 0.183191 0.694403 0.092977
Si Si6 0.787574 0.706269 0.591285
Si Si7 0.320610 0.206066 0.278871
O O1 0.069163 0.698710 0.287341
O O2 0.128585 0.756730 0.151299
O O3 0.000000 0.766095 0.159742
O O4 0.069157 0.000000 0.224755
O O5 0.246170 0.805276 0.094465
O O6 0.334331 0.728805 0.184879
O O7 0.346988 0.000000 0.092172
O O8 0.339105 0.730673 0.000000
O O9 0.587191 0.263087 0.500000
O O10 0.500000 0.259014 0.613087
O O11 0.623880 0.267325 0.659856
O O12 0.573839 0.000000 0.594298
O O13 0.069344 0.500000 0.586347
O O14 0.139007 0.770128 0.592825
O O15 0.000000 0.772305 0.589905
O O16 0.202138 0.500000 0.113587
O O17 0.157959 0.696063 0.000000
O O18 0.760743 0.757678 0.500000
O O19 0.790118 0.500000 0.593117
O O20 0.745056 0.756368 0.671026
O O21 0.322690 0.000000 0.272173
#
# Coordination Sequence:
#
# PCOD9383209 Si02
#       7
#     8   8   8   8   8   8   8
#     4  10  20  32  46  64  86 113 147 190 242 298
#     4   9  18  32  49  70  97 127 158 196 244 293
#     4   8  14  26  46  73 103 133 167 206 243 282
#     4   9  18  33  51  67  86 119 162 202 238 283
#     4  10  20  32  46  64  86 114 151 195 241 291
#     4  10  21  34  48  71 102 131 160 201 253 301
#     4  10  19  31  51  76 100 130 168 207 245 290
#
# _framework density 21.014413000000001
#
# number of rings (size 3 to 8) (size 9 to 14) (size 15 to 20)
#    0.000    2.571    0.000    2.571    0.000    6.571 
#    0.000    2.857    0.000    0.857    0.000    8.000 
#    0.000    0.000    0.000    4.857    0.000    5.286 
#
# Total GULP energy -311826.588140 kJ/mol
# GULP energy per Si atom -5568.331931 kJ/mol
# Density = 2.096658 g / cm^3
# Si number density = 21.014413 Si / 1000 Ang^3
#
#
#
# Elastic Constant Matrix: (Units=GPa)
#
#
# Indices 1 2 3 4 5 6 
#
# 1 92.3382 -2.1968 71.1971 0.0000 0.0000 0.0000
# 2 -2.1968 36.5349 15.1139 0.0000 0.0000 0.0000
# 3 71.1971 15.1139 138.9024 0.0000 0.0000 0.0000
# 4 0.0000 0.0000 0.0000 9.7021 0.0000 0.0000
# 5 0.0000 0.0000 0.0000 0.0000 35.2538 0.0000
# 6 0.0000 0.0000 0.0000 0.0000 0.0000 -64.4064
#
#
#
# Elastic Compliance Matrix: (Units=1/GPa)
#
#
# Indices 1 2 3 4 5 6 
#
# 1 0.018864 0.005376 -0.010254 0.000000 0.000000 0.000000
# 2 0.005376 0.030193 -0.006041 0.000000 0.000000 0.000000
# 3 -0.010254 -0.006041 0.013113 0.000000 0.000000 0.000000
# 4 0.000000 0.000000 0.000000 0.103071 0.000000 0.000000
# 5 0.000000 0.000000 0.000000 0.000000 0.028366 0.000000
# 6 0.000000 0.000000 0.000000 0.000000 0.000000 -0.015526
#
#
# Mechanical properties :
#
#
# Convention : Reuss Voigt Hill
#
# Bulk Modulus (GPa) = 24.79408 48.44489 36.61949
# Shear Modulus (GPa) = 23.43435 8.35399 15.89417
#
# Velocity S-wave (km/s) = 3.34302 1.99599 2.75316
# Velocity P-wave (km/s) = 5.16965 5.33059 5.25074
#
# Compressibility (1/GPa) = 0.04033221
#
# Stress axis : x y z
#
# Youngs Moduli (GPa) = 53.01080 33.11984 76.26271
#
# Poissons Ratio (x) = -0.17806 0.78201
# Poissons Ratio (y) = -0.28500 0.46070
# Poissons Ratio (z) = 0.54358 0.20008
#
# Static dielectric constant tensor:
#      x y z
#    x 1.746870 0.000000 0.000000 
#    y 0.000000 1.801900 0.000000 
#    z 0.000000 0.000000 1.801640 
# 
# From -- ./inp_files/11197.got.cif
#   From: 2010.05.17/outbox.cif.g08.bks.cpg/sg47_6_cif.got.tgz:11197.got - 2010.06.03 20:15:42.
