data_PCOD9383648
_publ_section_title
;
Structure prediction by ZEFSAII (Michael W. Deem and Ramdas Pophale) SiO2 
 PCOD9383648
Probable space group: P M M M
;
_chemical_formula_sum "Si O2"
_cell_formula_units_Z 52
_cell_length_a 7.656862
_cell_length_b 25.627592
_cell_length_c 13.107760
_cell_angle_alpha 90.000000
_cell_angle_beta 90.000000
_cell_angle_gamma 90.000000
_cell_volume 2572.095574
_symmetry_space_group_name_H-M "P M M M"
_symmetry_group_IT_number 47
_symmetry_cell_setting 'orthorhombic'
loop_
_space_group_symop_operation_xyz
x,y,z
-x,-y,z
x,-y,-z
-x,y,-z
-x,-y,-z
x,y,-z
-x,y,z
x,-y,z
loop_
_atom_site_type_symbol
_atom_site_label
_atom_site_fract_x
_atom_site_fract_y
_atom_site_fract_z
Si Si1 0.211306 0.725438 0.888368
Si Si2 0.710327 0.560235 0.113949
Si Si3 0.205904 0.195799 0.500000
Si Si4 0.214683 0.683256 0.500000
Si Si5 0.300660 0.000000 0.378956
Si Si6 0.707545 0.847080 0.889968
Si Si7 0.208538 0.353690 0.279418
Si Si8 0.711386 0.886533 0.323243
O O1 0.266078 0.785202 0.880666
O O2 0.278368 0.692096 0.794104
O O3 0.000000 0.723544 0.887145
O O4 0.269675 0.705721 0.000000
O O5 0.500000 0.560877 0.110653
O O6 0.766387 0.500000 0.125731
O O7 0.761623 0.594721 0.211367
O O8 0.771994 0.578064 0.000000
O O9 0.274458 0.255628 0.500000
O O10 0.250104 0.159877 0.402482
O O11 0.000000 0.202376 0.500000
O O12 0.272243 0.654302 0.604587
O O13 0.000000 0.683193 0.500000
O O14 0.220988 0.944075 0.351295
O O15 0.500000 0.000000 0.336472
O O16 0.312929 0.000000 0.500000
O O17 0.500000 0.857150 0.891503
O O18 0.779069 0.872731 0.788605
O O19 0.780288 0.863491 0.000000
O O20 0.000000 0.347563 0.286162
O O21 0.500000 0.889452 0.323017
#
# Coordination Sequence:
#
# PCOD9383648 Si02
#       8
#     8   8   4   4   4   8   8   8
#     4   9  17  29  47  71  98 129 165 204 248 295
#     4   9  19  36  56  78 104 131 160 201 253 297
#     4  11  21  34  54  76  99 128 165 206 249 292
#     4   9  20  35  49  71 105 139 165 198 245 292
#     4   9  16  30  51  71  93 124 161 200 251 303
#     4   9  18  31  47  70  99 129 163 201 239 289
#     4  10  19  33  52  73 100 133 170 206 240 284
#     4  10  19  33  52  72  97 129 163 201 248 298
#
# _framework density 20.216977
#
# number of rings (size 3 to 8) (size 9 to 14) (size 15 to 20)
#    0.000    2.538    0.769    2.077    0.000    3.692 
#    0.000    5.769    0.000    4.615    0.000    0.000 
#    0.000    3.692    0.000    0.000    0.000    0.000 
#
# Total GULP energy -289843.607799 kJ/mol
# GULP energy per Si atom -5573.915535 kJ/mol
# Density = 2.017096 g / cm^3
# Si number density = 20.216977 Si / 1000 Ang^3
#
#
#
# Elastic Constant Matrix: (Units=GPa)
#
#
# Indices 1 2 3 4 5 6 
#
# 1 38.1903 -1.7850 11.8031 0.0000 0.0000 0.0000
# 2 -1.7850 114.6032 95.4553 0.0000 0.0000 0.0000
# 3 11.8031 95.4553 215.1838 0.0000 0.0000 0.0000
# 4 0.0000 0.0000 0.0000 53.8815 0.0000 0.0000
# 5 0.0000 0.0000 0.0000 0.0000 112.7550 0.0000
# 6 0.0000 0.0000 0.0000 0.0000 0.0000 29.4162
#
#
#
# Elastic Compliance Matrix: (Units=1/GPa)
#
#
# Indices 1 2 3 4 5 6 
#
# 1 0.027129 0.002636 -0.002657 0.000000 0.000000 0.000000
# 2 0.002636 0.014095 -0.006397 0.000000 0.000000 0.000000
# 3 -0.002657 -0.006397 0.007631 0.000000 0.000000 0.000000
# 4 0.000000 0.000000 0.000000 0.018559 0.000000 0.000000
# 5 0.000000 0.000000 0.000000 0.000000 0.008869 0.000000
# 6 0.000000 0.000000 0.000000 0.000000 0.000000 0.033995
#
#
# Mechanical properties :
#
#
# Convention : Reuss Voigt Hill
#
# Bulk Modulus (GPa) = 27.76404 64.32489 46.04447
# Shear Modulus (GPa) = 37.00384 56.71080 46.85732
#
# Velocity S-wave (km/s) = 4.28288 5.30207 4.81949
# Velocity P-wave (km/s) = 6.18226 8.32880 7.33448
#
# Compressibility (1/GPa) = 0.03601781
#
# Stress axis : x y z
#
# Youngs Moduli (GPa) = 36.86071 70.94640 131.04910
#
# Poissons Ratio (x) = -0.18701 0.34825
# Poissons Ratio (y) = -0.09716 0.83834
# Poissons Ratio (z) = 0.09795 0.45386
#
# Static dielectric constant tensor:
#      x y z
#    x 1.758050 0.000000 0.000000 
#    y 0.000000 1.708470 0.000000 
#    z 0.000000 0.000000 1.762850 
# 
# From -- ./inp_files/15577.got.cif
#   From: 2010.05.17/outbox.cif.g08.bks.cpg/sg47_8_cif.got.tgz:15577.got - 2010.06.03 20:15:42.
