data_PCOD9383629
_publ_section_title
;
Structure prediction by ZEFSAII (Michael W. Deem and Ramdas Pophale) SiO2 
 PCOD9383629
Probable space group: P M M M
;
_chemical_formula_sum "Si O2"
_cell_formula_units_Z 52
_cell_length_a 7.650092
_cell_length_b 16.474228
_cell_length_c 21.101687
_cell_angle_alpha 90.000000
_cell_angle_beta 90.000000
_cell_angle_gamma 90.000000
_cell_volume 2659.432104
_symmetry_space_group_name_H-M "P M M M"
_symmetry_group_IT_number 47
_symmetry_cell_setting 'orthorhombic'
loop_
_space_group_symop_operation_xyz
x,y,z
-x,-y,z
x,-y,-z
-x,y,-z
-x,-y,-z
x,y,-z
-x,y,z
x,-y,z
loop_
_atom_site_type_symbol
_atom_site_label
_atom_site_fract_x
_atom_site_fract_y
_atom_site_fract_z
Si Si1 0.301449 0.188184 0.189364
Si Si2 0.289957 0.771962 0.329222
Si Si3 0.205397 0.363052 0.830488
Si Si4 0.287575 0.095642 0.069096
Si Si5 0.713316 0.908495 0.426822
Si Si6 0.209728 0.411463 0.690166
Si Si7 0.709401 0.500000 0.071628
O O1 0.500000 0.157481 0.198913
O O2 0.222809 0.199927 0.259673
O O3 0.304249 0.279092 0.162219
O O4 0.218370 0.135442 0.133519
O O5 0.500000 0.778147 0.326788
O O6 0.226463 0.835253 0.382048
O O7 0.255112 0.676043 0.339949
O O8 0.263836 0.403094 0.764028
O O9 0.231062 0.422608 0.888498
O O10 0.000000 0.344864 0.823686
O O11 0.500000 0.105732 0.069658
O O12 0.252041 0.000000 0.070670
O O13 0.227043 0.127294 0.000000
O O14 0.766484 0.897270 0.500000
O O15 0.500000 0.907673 0.425976
O O16 0.766062 0.000000 0.406668
O O17 0.274070 0.500000 0.666026
O O18 0.000000 0.415065 0.688491
O O19 0.500000 0.500000 0.070363
O O20 0.775257 0.500000 0.000000
#
# Coordination Sequence:
#
# PCOD9383629 Si02
#       7
#     8   8   8   8   8   8   4
#     4   9  17  28  43  67  94 116 145 192 241 276
#     4   9  17  27  43  72  98 117 153 199 238 275
#     4  10  19  33  49  65  87 117 153 188 227 281
#     4   8  14  25  41  60  83 114 149 182 222 275
#     4   8  14  26  45  69  99 133 162 191 235 289
#     4   9  17  31  49  67  90 123 157 188 232 285
#     4  11  23  35  47  65  89 117 150 191 238 281
#
# _framework density 19.553045999999998
#
# number of rings (size 3 to 8) (size 9 to 14) (size 15 to 20)
#    0.000    3.000    0.769    1.615    0.000    2.769 
#    0.000    4.615    0.000    1.846    0.000    9.692 
#    0.000    0.000    0.000    0.000    0.000    0.000 
#
# Total GULP energy -289573.453610 kJ/mol
# GULP energy per Si atom -5568.720262 kJ/mol
# Density = 1.950854 g / cm^3
# Si number density = 19.553046 Si / 1000 Ang^3
#
#
#
# Elastic Constant Matrix: (Units=GPa)
#
#
# Indices 1 2 3 4 5 6 
#
# 1 41.2155 4.0961 3.6556 0.0000 0.0000 0.0000
# 2 4.0961 142.1558 92.8562 0.0000 0.0000 0.0000
# 3 3.6556 92.8562 102.8921 0.0000 0.0000 0.0000
# 4 0.0000 0.0000 0.0000 26.6081 0.0000 0.0000
# 5 0.0000 0.0000 0.0000 0.0000 3.4564 0.0000
# 6 0.0000 0.0000 0.0000 0.0000 0.0000 76.7598
#
#
#
# Elastic Compliance Matrix: (Units=1/GPa)
#
#
# Indices 1 2 3 4 5 6 
#
# 1 0.024346 -0.000333 -0.000565 0.000000 0.000000 0.000000
# 2 -0.000333 0.017141 -0.015457 0.000000 0.000000 0.000000
# 3 -0.000565 -0.015457 0.023688 0.000000 0.000000 0.000000
# 4 0.000000 0.000000 0.000000 0.037583 0.000000 0.000000
# 5 0.000000 0.000000 0.000000 0.000000 0.289315 0.000000
# 6 0.000000 0.000000 0.000000 0.000000 0.000000 0.013028
#
#
# Mechanical properties :
#
#
# Convention : Reuss Voigt Hill
#
# Bulk Modulus (GPa) = 30.80138 54.16435 42.48287
# Shear Modulus (GPa) = 11.14503 33.74190 22.44346
#
# Velocity S-wave (km/s) = 2.39004 4.15861 3.39163
# Velocity P-wave (km/s) = 4.83769 7.12882 6.09194
#
# Compressibility (1/GPa) = 0.03246608
#
# Stress axis : x y z
#
# Youngs Moduli (GPa) = 41.07474 58.34118 42.21507
#
# Poissons Ratio (x) = 0.01940 0.02385
# Poissons Ratio (y) = 0.01366 0.65251
# Poissons Ratio (z) = 0.02320 0.90177
#
# Static dielectric constant tensor:
#      x y z
#    x 1.743290 0.000000 0.000000 
#    y 0.000000 1.687690 0.000000 
#    z 0.000000 0.000000 1.690810 
# 
# From -- ./inp_files/26732.got.cif
#   From: 2010.05.17/outbox.cif.g08.bks.cpg/sg47_14_cif.got.tgz:26732.got - 2010.06.03 20:15:42.
