data_PCOD9383388
_publ_section_title
;
Structure prediction by ZEFSAII (Michael W. Deem and Ramdas Pophale) SiO2 
 PCOD9383388
Probable space group: P M M M
;
_chemical_formula_sum "Si O2"
_cell_formula_units_Z 56
_cell_length_a 19.907054
_cell_length_b 16.622914
_cell_length_c 7.770031
_cell_angle_alpha 90.000000
_cell_angle_beta 90.000000
_cell_angle_gamma 90.000000
_cell_volume 2571.206185
_symmetry_space_group_name_H-M "P M M M"
_symmetry_group_IT_number 47
_symmetry_cell_setting 'orthorhombic'
loop_
_space_group_symop_operation_xyz
x,y,z
-x,-y,z
x,-y,-z
-x,y,-z
-x,-y,-z
x,y,-z
-x,y,z
x,-y,z
loop_
_atom_site_type_symbol
_atom_site_label
_atom_site_fract_x
_atom_site_fract_y
_atom_site_fract_z
Si Si1 0.352530 0.663461 0.300153
Si Si2 0.074013 0.367851 0.697902
Si Si3 0.206038 0.908797 0.292982
Si Si4 0.778057 0.588811 0.201172
Si Si5 0.345144 0.839044 0.288724
Si Si6 0.421227 0.500000 0.289770
Si Si7 0.926684 0.814947 0.203301
Si Si8 0.577120 0.000000 0.289875
O O1 0.372832 0.665606 0.500000
O O2 0.271838 0.651216 0.290160
O O3 0.369107 0.751480 0.226986
O O4 0.386133 0.582471 0.226418
O O5 0.075232 0.394487 0.500000
O O6 0.142418 0.397942 0.781791
O O7 0.078263 0.271017 0.704972
O O8 0.000000 0.389885 0.770725
O O9 0.210074 0.911554 0.500000
O O10 0.268436 0.855056 0.233743
O O11 0.134941 0.871523 0.245723
O O12 0.213094 0.000000 0.228830
O O13 0.762602 0.500000 0.271749
O O14 0.761654 0.591391 0.000000
O O15 0.346654 0.837068 0.500000
O O16 0.386727 0.917643 0.234907
O O17 0.500000 0.500000 0.247697
O O18 0.415193 0.500000 0.500000
O O19 0.000000 0.850553 0.245445
O O20 0.925140 0.797433 0.000000
O O21 0.500000 0.000000 0.236877
O O22 0.579748 0.000000 0.500000
#
# Coordination Sequence:
#
# PCOD9383388 Si02
#       8
#     8   8   8   8   8   4   8   4
#     4  10  19  33  56  81 110 151 194 234 281 337
#     4  10  21  37  57  80 107 142 186 232 279 337
#     4  10  19  32  51  73 103 141 184 236 285 333
#     4  11  23  37  55  80 112 147 186 235 285 333
#     4   9  17  30  49  76 108 144 184 226 275 326
#     4   9  18  32  51  81 118 147 180 235 291 338
#     4  10  21  36  53  75 106 141 180 231 285 336
#     4   9  16  28  48  78 116 147 174 218 275 333
#
# _framework density 21.77966
#
# number of rings (size 3 to 8) (size 9 to 14) (size 15 to 20)
#    0.000    2.143    1.429    2.143    0.000    5.143 
#    0.000    5.714    0.000    0.857    0.000    0.000 
#    0.000    4.000    0.000    0.000    0.000    0.000 
#
# Total GULP energy -312648.242753 kJ/mol
# GULP energy per Si atom -5583.004335 kJ/mol
# Density = 2.173009 g / cm^3
# Si number density = 21.779660 Si / 1000 Ang^3
#
#
#
# Elastic Constant Matrix: (Units=GPa)
#
#
# Indices 1 2 3 4 5 6 
#
# 1 127.3113 74.1213 -0.4917 0.0000 0.0000 0.0000
# 2 74.1213 172.6055 6.5942 0.0000 0.0000 0.0000
# 3 -0.4917 6.5942 32.8715 0.0000 0.0000 0.0000
# 4 0.0000 0.0000 0.0000 17.2214 0.0000 0.0000
# 5 0.0000 0.0000 0.0000 0.0000 -73.6151 0.0000
# 6 0.0000 0.0000 0.0000 0.0000 0.0000 15.3069
#
#
#
# Elastic Compliance Matrix: (Units=1/GPa)
#
#
# Indices 1 2 3 4 5 6 
#
# 1 0.010510 -0.004554 0.001071 0.000000 0.000000 0.000000
# 2 -0.004554 0.007812 -0.001635 0.000000 0.000000 0.000000
# 3 0.001071 -0.001635 0.030766 0.000000 0.000000 0.000000
# 4 0.000000 0.000000 0.000000 0.058067 0.000000 0.000000
# 5 0.000000 0.000000 0.000000 0.000000 -0.013584 0.000000
# 6 0.000000 0.000000 0.000000 0.000000 0.000000 0.065330
#
#
# Mechanical properties :
#
#
# Convention : Reuss Voigt Hill
#
# Bulk Modulus (GPa) = 25.73981 54.80399 40.27190
# Shear Modulus (GPa) = 27.45918 8.62029 18.03974
#
# Velocity S-wave (km/s) = 3.55459 1.99162 2.88111
# Velocity P-wave (km/s) = 5.35637 5.52325 5.44045
#
# Compressibility (1/GPa) = 0.03885032
#
# Stress axis : x y z
#
# Youngs Moduli (GPa) = 95.14314 128.01144 32.50390
#
# Poissons Ratio (x) = 0.58301 -0.03481
# Poissons Ratio (y) = 0.43332 0.05315
# Poissons Ratio (z) = -0.10188 0.20933
#
# Static dielectric constant tensor:
#      x y z
#    x 1.779010 0.000000 0.000000 
#    y 0.000000 1.796610 0.000000 
#    z 0.000000 0.000000 1.796550 
# 
# From -- ./inp_files/11287.got.cif
#   From: 2010.05.17/outbox.cif.g08.bks.cpg/sg47_6_cif.got.tgz:11287.got - 2010.06.03 20:15:42.
