data_PCOD9383893
_publ_section_title
;
Structure prediction by ZEFSAII (Michael W. Deem and Ramdas Pophale) SiO2 
 PCOD9383893
Probable space group: P M M M
;
_chemical_formula_sum "Si O2"
_cell_formula_units_Z 52
_cell_length_a 21.422886
_cell_length_b 15.039753
_cell_length_c 7.944979
_cell_angle_alpha 90.000000
_cell_angle_beta 90.000000
_cell_angle_gamma 90.000000
_cell_volume 2559.831826
_symmetry_space_group_name_H-M "P M M M"
_symmetry_group_IT_number 47
_symmetry_cell_setting 'orthorhombic'
loop_
_space_group_symop_operation_xyz
x,y,z
-x,-y,z
x,-y,-z
-x,y,-z
-x,-y,-z
x,y,-z
-x,y,z
x,-y,z
loop_
_atom_site_type_symbol
_atom_site_label
_atom_site_fract_x
_atom_site_fract_y
_atom_site_fract_z
Si Si1 0.609908 0.234736 0.688007
Si Si2 0.069064 0.000000 0.294752
Si Si3 0.926899 0.500000 0.205463
Si Si4 0.500000 0.895273 0.293328
Si Si5 0.171650 0.349368 0.796120
Si Si6 0.687587 0.400696 0.201572
Si Si7 0.835260 0.146496 0.699794
Si Si8 0.700965 0.098869 0.194070
O O1 0.588125 0.254279 0.500000
O O2 0.558702 0.166051 0.762355
O O3 0.634547 0.327429 0.761905
O O4 0.671199 0.173701 0.692069
O O5 0.106400 0.087821 0.245657
O O6 0.066758 0.000000 0.500000
O O7 0.000000 0.000000 0.227615
O O8 0.883841 0.415871 0.257381
O O9 0.000000 0.500000 0.260964
O O10 0.928734 0.500000 0.000000
O O11 0.500000 0.899740 0.500000
O O12 0.500000 0.000000 0.238158
O O13 0.242119 0.375366 0.737704
O O14 0.158164 0.249838 0.738552
O O15 0.173273 0.351927 0.000000
O O16 0.672179 0.500000 0.263587
O O17 0.692539 0.404009 0.000000
O O18 0.825999 0.133835 0.500000
O O19 0.774659 0.108416 0.791482
O O20 0.681056 0.000000 0.244695
O O21 0.682686 0.114411 0.000000
#
# Coordination Sequence:
#
# PCOD9383893 Si02
#       8
#     8   4   4   4   8   8   8   8
#     4  11  22  37  61  90 118 151 194 241 288 340
#     4   9  20  38  55  73 107 152 191 230 285 353
#     4   9  18  34  57  83 111 150 197 238 286 350
#     4   9  20  40  62  87 122 160 193 233 288 347
#     4  10  19  34  56  81 111 147 186 238 293 341
#     4  10  20  36  58  84 116 157 196 236 292 345
#     4  11  21  34  55  82 108 143 190 236 286 345
#     4  11  22  35  54  82 116 149 184 234 290 340
#
# _framework density 20.313834
#
# number of rings (size 3 to 8) (size 9 to 14) (size 15 to 20)
#    0.000    1.769    3.077    1.846    0.000    2.462 
#    0.000    2.308    0.000    8.769    0.000    0.000 
#    0.000    0.000    0.000    0.000    0.000    0.000 
#
# Total GULP energy -290018.197763 kJ/mol
# GULP energy per Si atom -5577.273034 kJ/mol
# Density = 2.026760 g / cm^3
# Si number density = 20.313834 Si / 1000 Ang^3
#
#
#
# Elastic Constant Matrix: (Units=GPa)
#
#
# Indices 1 2 3 4 5 6 
#
# 1 119.2807 67.9042 4.4731 0.0000 0.0000 0.0000
# 2 67.9042 186.3810 17.1408 0.0000 0.0000 0.0000
# 3 4.4731 17.1408 24.6687 0.0000 0.0000 0.0000
# 4 0.0000 0.0000 0.0000 27.5276 0.0000 0.0000
# 5 0.0000 0.0000 0.0000 0.0000 14.0105 0.0000
# 6 0.0000 0.0000 0.0000 0.0000 0.0000 18.2939
#
#
#
# Elastic Compliance Matrix: (Units=1/GPa)
#
#
# Indices 1 2 3 4 5 6 
#
# 1 0.010593 -0.003934 0.000813 0.000000 0.000000 0.000000
# 2 -0.003934 0.007193 -0.004284 0.000000 0.000000 0.000000
# 3 0.000813 -0.004284 0.043367 0.000000 0.000000 0.000000
# 4 0.000000 0.000000 0.000000 0.036327 0.000000 0.000000
# 5 0.000000 0.000000 0.000000 0.000000 0.071375 0.000000
# 6 0.000000 0.000000 0.000000 0.000000 0.000000 0.054663
#
#
# Mechanical properties :
#
#
# Convention : Reuss Voigt Hill
#
# Bulk Modulus (GPa) = 21.57924 56.59629 39.08777
# Shear Modulus (GPa) = 19.70244 28.02055 23.86149
#
# Velocity S-wave (km/s) = 3.11770 3.71803 3.43102
# Velocity P-wave (km/s) = 4.85861 6.80831 5.91436
#
# Compressibility (1/GPa) = 0.04634083
#
# Stress axis : x y z
#
# Youngs Moduli (GPa) = 94.40521 139.03115 23.05911
#
# Poissons Ratio (x) = 0.54694 -0.01874
# Poissons Ratio (y) = 0.37139 0.09879
# Poissons Ratio (z) = -0.07672 0.59566
#
# Static dielectric constant tensor:
#      x y z
#    x 1.742070 0.000000 0.000000 
#    y 0.000000 1.716710 0.000000 
#    z 0.000000 0.000000 1.748940 
# 
# From -- ./inp_files/11111.got.cif
#   From: 2010.05.17/outbox.cif.g08.bks.cpg/sg47_6_cif.got.tgz:11111.got - 2010.06.03 20:15:42.
