data_PCOD9383714
_publ_section_title
;
Structure prediction by ZEFSAII (Michael W. Deem and Ramdas Pophale) SiO2 
 PCOD9383714
Probable space group: P M M M
;
_chemical_formula_sum "Si O2"
_cell_formula_units_Z 52
_cell_length_a 13.182926
_cell_length_b 8.541725
_cell_length_c 26.916604
_cell_angle_alpha 90.000000
_cell_angle_beta 90.000000
_cell_angle_gamma 90.000000
_cell_volume 3030.942271
_symmetry_space_group_name_H-M "P M M M"
_symmetry_group_IT_number 47
_symmetry_cell_setting 'orthorhombic'
loop_
_space_group_symop_operation_xyz
x,y,z
-x,-y,z
x,-y,-z
-x,y,-z
-x,-y,-z
x,y,-z
-x,y,z
x,-y,z
loop_
_atom_site_type_symbol
_atom_site_label
_atom_site_fract_x
_atom_site_fract_y
_atom_site_fract_z
Si Si1 0.500000 0.810938 0.216646
Si Si2 0.617696 0.812604 0.500000
Si Si3 0.307889 0.310520 0.604505
Si Si4 0.116055 0.688888 0.780280
Si Si5 0.114800 0.309214 0.666152
Si Si6 0.382267 0.688783 0.056077
Si Si7 0.300842 0.186958 0.156325
Si Si8 0.500000 0.688954 0.328556
O O1 0.600948 0.756495 0.187791
O O2 0.500000 0.754337 0.273151
O O3 0.500000 0.000000 0.216203
O O4 0.500000 0.757968 0.500000
O O5 0.671067 0.752150 0.549736
O O6 0.617685 0.000000 0.500000
O O7 0.307635 0.500000 0.602629
O O8 0.202118 0.257108 0.628751
O O9 0.400453 0.262757 0.640581
O O10 0.119995 0.500000 0.781595
O O11 0.137648 0.737224 0.723124
O O12 0.199315 0.754449 0.817324
O O13 0.000000 0.735733 0.791788
O O14 0.114835 0.500000 0.665731
O O15 0.000000 0.258894 0.653871
O O16 0.500000 0.737037 0.064083
O O17 0.379765 0.500000 0.057755
O O18 0.314958 0.754927 0.100192
O O19 0.353455 0.736919 0.000000
O O20 0.302050 0.000000 0.156700
O O21 0.500000 0.500000 0.325641
#
# Coordination Sequence:
#
# PCOD9383714 Si02
#       8
#     4   4   8   8   8   8   8   4
#     4  10  22  34  44  70 110 145 169 199 250 309
#     4  11  23  37  52  71  98 134 169 200 247 306
#     4  10  19  33  54  77  99 125 163 211 252 292
#     4   9  18  34  56  79 104 137 177 218 259 305
#     4   8  15  30  53  79 103 128 163 207 253 300
#     4   9  18  33  53  76 101 134 178 223 265 310
#     4  11  21  33  49  74 110 144 175 211 255 311
#     4  10  20  31  49  75  98 126 168 210 252 297
#
# _framework density 17.156381
#
# number of rings (size 3 to 8) (size 9 to 14) (size 15 to 20)
#    0.000    2.385    1.538    3.000    0.000    4.000 
#    0.000    1.923    0.000    4.154    0.000    3.231 
#    0.000    0.000    0.000    0.000    0.000    0.000 
#
# Total GULP energy -290121.883899 kJ/mol
# GULP energy per Si atom -5579.266998 kJ/mol
# Density = 1.711733 g / cm^3
# Si number density = 17.156381 Si / 1000 Ang^3
#
#
#
# Elastic Constant Matrix: (Units=GPa)
#
#
# Indices 1 2 3 4 5 6 
#
# 1 146.2792 28.6793 112.1207 0.0000 0.0000 0.0000
# 2 28.6793 11.8557 27.7176 0.0000 0.0000 0.0000
# 3 112.1207 27.7176 171.4480 0.0000 0.0000 0.0000
# 4 0.0000 0.0000 0.0000 -58.9752 0.0000 0.0000
# 5 0.0000 0.0000 0.0000 0.0000 22.8935 0.0000
# 6 0.0000 0.0000 0.0000 0.0000 0.0000 14.7682
#
#
#
# Elastic Compliance Matrix: (Units=1/GPa)
#
#
# Indices 1 2 3 4 5 6 
#
# 1 0.017285 -0.024734 -0.007305 0.000000 0.000000 0.000000
# 2 -0.024734 0.170993 -0.011469 0.000000 0.000000 0.000000
# 3 -0.007305 -0.011469 0.012464 0.000000 0.000000 0.000000
# 4 0.000000 0.000000 0.000000 -0.016956 0.000000 0.000000
# 5 0.000000 0.000000 0.000000 0.000000 0.043681 0.000000
# 6 0.000000 0.000000 0.000000 0.000000 0.000000 0.067713
#
#
# Mechanical properties :
#
#
# Convention : Reuss Voigt Hill
#
# Bulk Modulus (GPa) = 8.79307 74.06868 41.43087
# Shear Modulus (GPa) = 11.90187 6.47500 9.18844
#
# Velocity S-wave (km/s) = 2.63673 1.94481 2.31675
# Velocity P-wave (km/s) = 3.79555 6.95050 5.59980
#
# Compressibility (1/GPa) = 0.11372596
#
# Stress axis : x y z
#
# Youngs Moduli (GPa) = 57.85521 5.84820 80.23184
#
# Poissons Ratio (x) = 0.14465 0.58608
# Poissons Ratio (y) = 1.43098 0.92017
# Poissons Ratio (z) = 0.42262 0.06707
#
# Static dielectric constant tensor:
#      x y z
#    x 1.576780 0.000000 0.000000 
#    y 0.000000 1.581830 0.000000 
#    z 0.000000 0.000000 1.554690 
# 
# From -- ./inp_files/33615.got.cif
#   From: 2010.05.17/outbox.cif.g08.bks.cpg/sg47_17_cif.got.tgz:33615.got - 2010.06.03 20:15:42.
