data_PCOD9383940
_publ_section_title
;
Structure prediction by ZEFSAII (Michael W. Deem and Ramdas Pophale) SiO2 
 PCOD9383940
Probable space group: P M M M
;
_chemical_formula_sum "Si O2"
_cell_formula_units_Z 33
_cell_length_a 24.505917
_cell_length_b 8.475068
_cell_length_c 7.680612
_cell_angle_alpha 90.000000
_cell_angle_beta 90.000000
_cell_angle_gamma 90.000000
_cell_volume 1595.181030
_symmetry_space_group_name_H-M "P M M M"
_symmetry_group_IT_number 47
_symmetry_cell_setting 'orthorhombic'
loop_
_space_group_symop_operation_xyz
x,y,z
-x,-y,z
x,-y,-z
-x,y,-z
-x,-y,-z
x,y,-z
-x,y,z
x,-y,z
loop_
_atom_site_type_symbol
_atom_site_label
_atom_site_fract_x
_atom_site_fract_y
_atom_site_fract_z
Si Si1 0.771361 0.173596 0.706372
Si Si2 0.883821 0.675216 0.793903
Si Si3 0.598047 0.000000 0.286920
Si Si4 0.000000 0.822680 0.707716
Si Si5 0.500000 0.000000 0.000000
Si Si6 0.336498 0.325619 0.711071
O O1 0.761636 0.164105 0.500000
O O2 0.834003 0.220565 0.728219
O O3 0.725961 0.295706 0.771187
O O4 0.761958 0.000000 0.782017
O O5 0.878799 0.500000 0.718408
O O6 0.944252 0.738547 0.760231
O O7 0.876973 0.667586 0.000000
O O8 0.630889 0.836079 0.248766
O O9 0.587027 0.000000 0.500000
O O10 0.547312 0.000000 0.155928
O O11 0.000000 0.829748 0.500000
O O12 0.000000 0.000000 0.779205
O O13 0.337763 0.333964 0.500000
O O14 0.355618 0.500000 0.773030
#
# Coordination Sequence:
#
# PCOD9383940 Si02
#       6
#     8   8   4   4   1   8
#     4  10  19  34  58  89 120 152 200 254 302 365
#     4  11  24  39  54  79 114 152 194 243 303 371
#     4  10  21  43  67  96 135 172 219 270 311 375
#     4  11  24  41  60  80 102 139 194 251 306 368
#     4  12  26  44  70 102 132 182 222 258 326 370
#     4   9  17  34  63  93 124 167 211 258 319 373
#
# _framework density 20.687308000000002
#
# number of rings (size 3 to 8) (size 9 to 14) (size 15 to 20)
#    0.000    1.818    1.212    3.091    0.000    8.727 
#    2.182    1.818    0.000    2.909    0.000    0.000 
#    0.000    0.000    0.000    0.000    0.000    0.000 
#
# Total GULP energy -183783.863330 kJ/mol
# GULP energy per Si atom -5569.207980 kJ/mol
# Density = 2.064022 g / cm^3
# Si number density = 20.687308 Si / 1000 Ang^3
#
#
#
# Elastic Constant Matrix: (Units=GPa)
#
#
# Indices 1 2 3 4 5 6 
#
# 1 126.7774 62.3772 14.5961 0.0000 0.0000 0.0000
# 2 62.3772 165.4216 14.6627 0.0000 0.0000 0.0000
# 3 14.5961 14.6627 51.7323 0.0000 0.0000 0.0000
# 4 0.0000 0.0000 0.0000 12.7359 0.0000 0.0000
# 5 0.0000 0.0000 0.0000 0.0000 35.8753 0.0000
# 6 0.0000 0.0000 0.0000 0.0000 0.0000 -9.4036
#
#
#
# Elastic Compliance Matrix: (Units=1/GPa)
#
#
# Indices 1 2 3 4 5 6 
#
# 1 0.009840 -0.003554 -0.001769 0.000000 0.000000 0.000000
# 2 -0.003554 0.007484 -0.001119 0.000000 0.000000 0.000000
# 3 -0.001769 -0.001119 0.020146 0.000000 0.000000 0.000000
# 4 0.000000 0.000000 0.000000 0.078518 0.000000 0.000000
# 5 0.000000 0.000000 0.000000 0.000000 0.027874 0.000000
# 6 0.000000 0.000000 0.000000 0.000000 0.000000 -0.106342
#
#
# Mechanical properties :
#
#
# Convention : Reuss Voigt Hill
#
# Bulk Modulus (GPa) = 40.67025 58.57814 49.62420
# Shear Modulus (GPa) = 85.32324 24.66120 54.99222
#
# Velocity S-wave (km/s) = 6.42914 3.45642 5.16142
# Velocity P-wave (km/s) = 8.64950 6.65632 7.71753
#
# Compressibility (1/GPa) = 0.02458799
#
# Stress axis : x y z
#
# Youngs Moduli (GPa) = 101.62612 133.61250 49.63644
#
# Poissons Ratio (x) = 0.47481 0.08781
# Poissons Ratio (y) = 0.36114 0.05553
# Poissons Ratio (z) = 0.17979 0.14947
#
# Static dielectric constant tensor:
#      x y z
#    x 1.539830 0.000000 0.000000 
#    y 0.000000 1.791560 0.000000 
#    z 0.000000 0.000000 1.754740 
# 
# From -- ./inp_files/10466.got.cif
#   From: 2010.05.17/outbox.cif.g08.bks.cpg/sg47_6_cif.got.tgz:10466.got - 2010.06.03 20:15:42.
