data_PCOD9383310
_publ_section_title
;
Structure prediction by ZEFSAII (Michael W. Deem and Ramdas Pophale) SiO2 
 PCOD9383310
Probable space group: P M M M
;
_chemical_formula_sum "Si O2"
_cell_formula_units_Z 64
_cell_length_a 7.698679
_cell_length_b 15.132504
_cell_length_c 32.613867
_cell_angle_alpha 90.000000
_cell_angle_beta 90.000000
_cell_angle_gamma 90.000000
_cell_volume 3799.524988
_symmetry_space_group_name_H-M "P M M M"
_symmetry_group_IT_number 47
_symmetry_cell_setting 'orthorhombic'
loop_
_space_group_symop_operation_xyz
x,y,z
-x,-y,z
x,-y,-z
-x,y,-z
-x,-y,-z
x,y,-z
-x,y,z
x,-y,z
loop_
_atom_site_type_symbol
_atom_site_label
_atom_site_fract_x
_atom_site_fract_y
_atom_site_fract_z
Si Si1 0.790164 0.718253 0.454464
Si Si2 0.709391 0.602368 0.867659
Si Si3 0.705924 0.714713 0.699641
Si Si4 0.210185 0.902399 0.582254
Si Si5 0.709529 0.393820 0.044157
Si Si6 0.292944 0.096691 0.321512
Si Si7 0.794617 0.398979 0.222038
Si Si8 0.292015 0.600063 0.376510
O O1 0.729408 0.693735 0.500000
O O2 0.728708 0.816986 0.442537
O O3 0.740210 0.650696 0.418860
O O4 0.000000 0.720872 0.455165
O O5 0.500000 0.601712 0.869144
O O6 0.769624 0.500000 0.866516
O O7 0.771631 0.640503 0.911467
O O8 0.760015 0.639092 0.823452
O O9 0.500000 0.723622 0.692006
O O10 0.777478 0.814566 0.699468
O O11 0.727249 0.661943 0.741646
O O12 0.777908 0.657623 0.661590
O O13 0.264393 0.892509 0.629677
O O14 0.000000 0.902271 0.580905
O O15 0.268594 0.000000 0.568102
O O16 0.500000 0.382366 0.043492
O O17 0.739055 0.500000 0.044745
O O18 0.776769 0.360689 0.000000
O O19 0.500000 0.092832 0.314202
O O20 0.220364 0.000000 0.309969
O O21 0.722506 0.500000 0.224376
O O22 0.000000 0.405030 0.227142
O O23 0.500000 0.594344 0.371259
O O24 0.223293 0.500000 0.376590
#
# Coordination Sequence:
#
# PCOD9383310 Si02
#       8
#     8   8   8   8   8   8   8   8
#     4  10  21  35  50  69  92 116 141 168 199 239
#     4   8  13  22  36  52  73 104 140 178 219 258
#     4  10  19  32  50  68  86 108 135 168 205 249
#     4   9  17  30  49  71  93 115 136 160 194 237
#     4   7   9  14  27  48  70  93 129 177 220 254
#     4   9  17  30  50  73  92 108 128 159 201 246
#     4  10  20  30  40  58  84 113 145 181 217 249
#     4  10  21  36  52  69  87 109 140 176 210 243
#
# _framework density 16.844211999999999
#
# number of rings (size 3 to 8) (size 9 to 14) (size 15 to 20)
#    0.000    2.875    1.250    1.875    0.000    3.250 
#    0.000    2.500    0.000    0.375    0.000    5.250 
#    0.000    0.000    0.000    0.000    0.000    0.625 
#
# Total GULP energy -356398.469120 kJ/mol
# GULP energy per Si atom -5568.726080 kJ/mol
# Density = 1.680587 g / cm^3
# Si number density = 16.844212 Si / 1000 Ang^3
#
#
#
# Elastic Constant Matrix: (Units=GPa)
#
#
# Indices 1 2 3 4 5 6 
#
# 1 23.9319 9.7025 -8.2434 0.0000 0.0000 0.0000
# 2 9.7025 108.0685 72.2270 0.0000 0.0000 0.0000
# 3 -8.2434 72.2270 129.0989 0.0000 0.0000 0.0000
# 4 0.0000 0.0000 0.0000 86.3669 0.0000 0.0000
# 5 0.0000 0.0000 0.0000 0.0000 19.4996 0.0000
# 6 0.0000 0.0000 0.0000 0.0000 0.0000 9.6394
#
#
#
# Elastic Compliance Matrix: (Units=1/GPa)
#
#
# Indices 1 2 3 4 5 6 
#
# 1 0.049075 -0.010383 0.008942 0.000000 0.000000 0.000000
# 2 -0.010383 0.016976 -0.010161 0.000000 0.000000 0.000000
# 3 0.008942 -0.010161 0.014002 0.000000 0.000000 0.000000
# 4 0.000000 0.000000 0.000000 0.011579 0.000000 0.000000
# 5 0.000000 0.000000 0.000000 0.000000 0.051283 0.000000
# 6 0.000000 0.000000 0.000000 0.000000 0.000000 0.103741
#
#
# Mechanical properties :
#
#
# Convention : Reuss Voigt Hill
#
# Bulk Modulus (GPa) = 17.58991 45.38573 31.48782
# Shear Modulus (GPa) = 17.31257 35.59538 26.45397
#
# Velocity S-wave (km/s) = 3.20942 4.60195 3.96726
# Velocity P-wave (km/s) = 4.91927 7.43238 6.30236
#
# Compressibility (1/GPa) = 0.05685079
#
# Stress axis : x y z
#
# Youngs Moduli (GPa) = 20.37709 58.90513 71.42014
#
# Poissons Ratio (x) = 0.61158 -0.63866
# Poissons Ratio (y) = 0.21157 0.72568
# Poissons Ratio (z) = -0.18222 0.59852
#
# Static dielectric constant tensor:
#      x y z
#    x 1.637900 0.000000 0.000000 
#    y 0.000000 1.580010 0.000000 
#    z 0.000000 0.000000 1.593270 
# 
# From -- ./inp_files/34457.got.cif
#   From: 2010.05.17/outbox.cif.g08.bks.cpg/sg47_18_cif.got.tgz:34457.got - 2010.06.03 20:15:42.
