data_PCOD9383677
_publ_section_title
;
Structure prediction by ZEFSAII (Michael W. Deem and Ramdas Pophale) SiO2 
 PCOD9383677
Probable space group: P M M M
;
_chemical_formula_sum "Si O2"
_cell_formula_units_Z 44
_cell_length_a 7.867670
_cell_length_b 29.646349
_cell_length_c 10.291938
_cell_angle_alpha 90.000000
_cell_angle_beta 90.000000
_cell_angle_gamma 90.000000
_cell_volume 2400.570771
_symmetry_space_group_name_H-M "P M M M"
_symmetry_group_IT_number 47
_symmetry_cell_setting 'orthorhombic'
loop_
_space_group_symop_operation_xyz
x,y,z
-x,-y,z
x,-y,-z
-x,y,-z
-x,-y,-z
x,y,-z
-x,y,z
x,-y,z
loop_
_atom_site_type_symbol
_atom_site_label
_atom_site_fract_x
_atom_site_fract_y
_atom_site_fract_z
Si Si1 0.694768 0.615829 0.342463
Si Si2 0.291709 0.948604 0.000000
Si Si3 0.708577 0.052605 0.500000
Si Si4 0.000000 0.552020 0.341267
Si Si5 0.798175 0.204978 0.850739
Si Si6 0.295315 0.106956 0.247561
Si Si7 0.704197 0.717607 0.352090
O O1 0.688031 0.613778 0.500000
O O2 0.500000 0.609265 0.296179
O O3 0.756400 0.666775 0.313869
O O4 0.831406 0.579019 0.298813
O O5 0.233818 0.921817 0.125524
O O6 0.500000 0.948627 0.000000
O O7 0.236374 0.000000 0.000000
O O8 0.500000 0.051564 0.500000
O O9 0.765201 0.081394 0.624223
O O10 0.761984 0.000000 0.500000
O O11 0.000000 0.500000 0.300409
O O12 0.000000 0.552536 0.500000
O O13 0.749050 0.158698 0.778315
O O14 0.748475 0.246227 0.757325
O O15 0.000000 0.205530 0.861784
O O16 0.728334 0.206306 0.000000
O O17 0.500000 0.104779 0.250671
O O18 0.767033 0.727914 0.500000
O O19 0.500000 0.716063 0.360759
#
# Coordination Sequence:
#
# PCOD9383677 Si02
#       7
#     8   4   4   4   8   8   8
#     4   8  15  28  44  67 101 137 178 229 272 321
#     4   9  16  28  51  77  95 123 169 209 249 302
#     4   9  18  32  53  81 105 125 159 211 261 304
#     4   9  16  24  40  68 103 147 189 223 266 323
#     4  11  24  38  51  73 107 141 173 214 263 320
#     4  10  19  33  53  75 102 131 161 208 259 305
#     4   9  19  35  56  79 101 133 179 224 270 321
#
# _framework density 18.328975
#
# number of rings (size 3 to 8) (size 9 to 14) (size 15 to 20)
#    0.000    2.636    0.909    2.182    2.545    4.000 
#    0.000    1.818    0.000    3.273    0.000    0.000 
#    0.000    1.455    0.000    4.000    0.000    4.000 
#
# Total GULP energy -245243.890899 kJ/mol
# GULP energy per Si atom -5573.724793 kJ/mol
# Density = 1.828726 g / cm^3
# Si number density = 18.328975 Si / 1000 Ang^3
#
#
#
# Elastic Constant Matrix: (Units=GPa)
#
#
# Indices 1 2 3 4 5 6 
#
# 1 42.8257 47.8747 24.6915 0.0000 0.0000 0.0000
# 2 47.8747 193.6141 84.6847 0.0000 0.0000 0.0000
# 3 24.6915 84.6847 117.8495 0.0000 0.0000 0.0000
# 4 0.0000 0.0000 0.0000 19.3823 0.0000 0.0000
# 5 0.0000 0.0000 0.0000 0.0000 5.0837 0.0000
# 6 0.0000 0.0000 0.0000 0.0000 0.0000 51.7299
#
#
#
# Elastic Compliance Matrix: (Units=1/GPa)
#
#
# Indices 1 2 3 4 5 6 
#
# 1 0.032453 -0.007366 -0.001507 0.000000 0.000000 0.000000
# 2 -0.007366 0.009204 -0.005071 0.000000 0.000000 0.000000
# 3 -0.001507 -0.005071 0.012445 0.000000 0.000000 0.000000
# 4 0.000000 0.000000 0.000000 0.051593 0.000000 0.000000
# 5 0.000000 0.000000 0.000000 0.000000 0.196707 0.000000
# 6 0.000000 0.000000 0.000000 0.000000 0.000000 0.019331
#
#
# Mechanical properties :
#
#
# Convention : Reuss Voigt Hill
#
# Bulk Modulus (GPa) = 38.14454 74.31012 56.22733
# Shear Modulus (GPa) = 13.95253 28.37509 21.16381
#
# Velocity S-wave (km/s) = 2.76203 3.93886 3.40172
# Velocity P-wave (km/s) = 5.57028 7.83049 6.79502
#
# Compressibility (1/GPa) = 0.02621607
#
# Stress axis : x y z
#
# Youngs Moduli (GPa) = 30.81360 108.64770 80.35519
#
# Poissons Ratio (x) = 0.80026 0.12107
# Poissons Ratio (y) = 0.22696 0.40745
# Poissons Ratio (z) = 0.04643 0.55091
#
# Static dielectric constant tensor:
#      x y z
#    x 1.662390 0.000000 0.000000 
#    y 0.000000 1.625690 0.000000 
#    z 0.000000 0.000000 1.576870 
# 
# From -- ./inp_files/2395.got.cif
#   From: 2010.05.17/outbox.cif.g08.bks.cpg/sg47_2_cif.got.tgz:2395.got - 2010.06.03 20:15:42.
