data_PCOD9383828
_publ_section_title
;
Structure prediction by ZEFSAII (Michael W. Deem and Ramdas Pophale) SiO2 
 PCOD9383828
Probable space group: P M M M
;
_chemical_formula_sum "Si O2"
_cell_formula_units_Z 44
_cell_length_a 14.477447
_cell_length_b 7.882120
_cell_length_c 20.088349
_cell_angle_alpha 90.000000
_cell_angle_beta 90.000000
_cell_angle_gamma 90.000000
_cell_volume 2292.341258
_symmetry_space_group_name_H-M "P M M M"
_symmetry_group_IT_number 47
_symmetry_cell_setting 'orthorhombic'
loop_
_space_group_symop_operation_xyz
x,y,z
-x,-y,z
x,-y,-z
-x,y,-z
-x,-y,-z
x,y,-z
-x,y,z
x,-y,z
loop_
_atom_site_type_symbol
_atom_site_label
_atom_site_fract_x
_atom_site_fract_y
_atom_site_fract_z
Si Si1 0.104879 0.203209 0.209710
Si Si2 0.708205 0.801174 0.572867
Si Si3 0.896343 0.296652 0.635260
Si Si4 0.608618 0.000000 0.079690
Si Si5 0.396865 0.298410 0.705247
Si Si6 0.703150 0.699311 0.159447
O O1 0.119818 0.249202 0.287466
O O2 0.186414 0.282525 0.166329
O O3 0.000000 0.257805 0.193014
O O4 0.109907 0.000000 0.203553
O O5 0.687140 0.726899 0.500000
O O6 0.815839 0.776412 0.590024
O O7 0.651526 0.730990 0.634922
O O8 0.688335 0.000000 0.570705
O O9 0.892653 0.500000 0.630384
O O10 0.000000 0.239392 0.617705
O O11 0.658688 0.831610 0.108139
O O12 0.500000 0.000000 0.099440
O O13 0.613347 0.000000 0.000000
O O14 0.500000 0.224835 0.706841
O O15 0.403717 0.500000 0.713129
O O16 0.336778 0.242750 0.768362
O O17 0.680114 0.500000 0.147465
#
# Coordination Sequence:
#
# PCOD9383828 Si02
#       6
#     8   8   8   4   8   8
#     4  10  19  33  58  93 129 163 205 257 310 368
#     4  11  24  38  52  75 110 151 195 249 312 371
#     4  10  20  34  53  79 111 149 197 251 307 367
#     4  11  26  46  69 101 136 172 212 249 301 371
#     4  10  22  39  59  84 111 147 200 254 304 360
#     4  11  22  40  67  98 132 167 209 260 311 366
#
# _framework density 19.194348999999999
#
# number of rings (size 3 to 8) (size 9 to 14) (size 15 to 20)
#    0.000    1.545    2.727    2.182    1.273    6.182 
#    0.000    4.545    0.000    1.091    0.000    1.273 
#    0.000    0.000    0.000    0.000    0.000    0.000 
#
# Total GULP energy -245694.753765 kJ/mol
# GULP energy per Si atom -5583.971676 kJ/mol
# Density = 1.915066 g / cm^3
# Si number density = 19.194349 Si / 1000 Ang^3
#
#
#
# Elastic Constant Matrix: (Units=GPa)
#
#
# Indices 1 2 3 4 5 6 
#
# 1 102.4858 12.0585 47.4338 0.0000 0.0000 0.0000
# 2 12.0585 56.9319 27.6706 0.0000 0.0000 0.0000
# 3 47.4338 27.6706 85.6930 0.0000 0.0000 0.0000
# 4 0.0000 0.0000 0.0000 66.1074 0.0000 0.0000
# 5 0.0000 0.0000 0.0000 0.0000 12.7376 0.0000
# 6 0.0000 0.0000 0.0000 0.0000 0.0000 18.0877
#
#
#
# Elastic Compliance Matrix: (Units=1/GPa)
#
#
# Indices 1 2 3 4 5 6 
#
# 1 0.013156 0.000893 -0.007571 0.000000 0.000000 0.000000
# 2 0.000893 0.020895 -0.007242 0.000000 0.000000 0.000000
# 3 -0.007571 -0.007242 0.018199 0.000000 0.000000 0.000000
# 4 0.000000 0.000000 0.000000 0.015127 0.000000 0.000000
# 5 0.000000 0.000000 0.000000 0.000000 0.078508 0.000000
# 6 0.000000 0.000000 0.000000 0.000000 0.000000 0.055286
#
#
# Mechanical properties :
#
#
# Convention : Reuss Voigt Hill
#
# Bulk Modulus (GPa) = 40.96403 46.60406 43.78405
# Shear Modulus (GPa) = 21.08400 29.91641 25.50021
#
# Velocity S-wave (km/s) = 3.31788 3.95220 3.64885
# Velocity P-wave (km/s) = 6.00548 6.72007 6.37280
#
# Compressibility (1/GPa) = 0.02441166
#
# Stress axis : x y z
#
# Youngs Moduli (GPa) = 76.00849 47.85773 54.94929
#
# Poissons Ratio (x) = -0.04274 0.41601
# Poissons Ratio (y) = -0.06788 0.39792
# Poissons Ratio (z) = 0.57545 0.34656
#
# Static dielectric constant tensor:
#      x y z
#    x 1.698670 0.000000 0.000000 
#    y 0.000000 1.679950 0.000000 
#    z 0.000000 0.000000 1.661590 
# 
# From -- ./inp_files/27975.got.cif
#   From: 2010.05.17/outbox.cif.g08.bks.cpg/sg47_14_cif.got.tgz:27975.got - 2010.06.03 20:15:42.
