data_PCOD9383558
_publ_section_title
;
Structure prediction by ZEFSAII (Michael W. Deem and Ramdas Pophale) SiO2 
 PCOD9383558
Probable space group: P M M M
;
_chemical_formula_sum "Si O2"
_cell_formula_units_Z 40
_cell_length_a 7.766474
_cell_length_b 28.354403
_cell_length_c 9.259036
_cell_angle_alpha 90.000000
_cell_angle_beta 90.000000
_cell_angle_gamma 90.000000
_cell_volume 2038.966888
_symmetry_space_group_name_H-M "P M M M"
_symmetry_group_IT_number 47
_symmetry_cell_setting 'orthorhombic'
loop_
_space_group_symop_operation_xyz
x,y,z
-x,-y,z
x,-y,-z
-x,y,-z
-x,-y,-z
x,y,-z
-x,y,z
x,-y,z
loop_
_atom_site_type_symbol
_atom_site_label
_atom_site_fract_x
_atom_site_fract_y
_atom_site_fract_z
Si Si1 0.210760 0.812981 0.833612
Si Si2 0.000000 0.553733 0.175688
Si Si3 0.294626 0.000000 0.836169
Si Si4 0.208897 0.281461 0.667276
Si Si5 0.304045 0.376868 0.171223
Si Si6 0.206548 0.905554 0.336092
O O1 0.264395 0.765385 0.752380
O O2 0.270327 0.859599 0.749450
O O3 0.000000 0.813401 0.833263
O O4 0.265999 0.813384 0.000000
O O5 0.832689 0.583797 0.218455
O O6 0.000000 0.500000 0.228297
O O7 0.000000 0.551844 0.000000
O O8 0.241809 0.953233 0.750617
O O9 0.500000 0.000000 0.844198
O O10 0.224883 0.000000 0.000000
O O11 0.260842 0.279185 0.500000
O O12 0.275659 0.328516 0.743375
O O13 0.000000 0.283018 0.672203
O O14 0.500000 0.393168 0.189338
O O15 0.275431 0.367645 0.000000
O O16 0.273599 0.907898 0.500000
O O17 0.000000 0.900726 0.344931
#
# Coordination Sequence:
#
# PCOD9383558 Si02
#       6
#     8   4   4   8   8   8
#     4   9  17  30  52  81 111 143 179 222 273 328
#     4   9  18  34  57  85 117 151 189 238 291 338
#     4  11  24  39  54  74 102 139 182 227 278 334
#     4  10  19  32  53  80 111 148 186 226 276 333
#     4  10  20  34  55  83 114 150 192 236 284 340
#     4  10  20  35  56  82 109 138 178 226 275 331
#
# _framework density 19.617777
#
# number of rings (size 3 to 8) (size 9 to 14) (size 15 to 20)
#    0.000    2.200    1.000    2.400    0.000    7.200 
#    0.000    3.000    0.000    7.200    0.000    1.400 
#    0.000    0.000    0.000    0.000    0.000    0.000 
#
# Total GULP energy -223446.655471 kJ/mol
# GULP energy per Si atom -5586.166387 kJ/mol
# Density = 1.957313 g / cm^3
# Si number density = 19.617777 Si / 1000 Ang^3
#
#
#
# Elastic Constant Matrix: (Units=GPa)
#
#
# Indices 1 2 3 4 5 6 
#
# 1 57.1835 48.4730 42.5967 0.0000 0.0000 0.0000
# 2 48.4730 209.7271 103.1498 0.0000 0.0000 0.0000
# 3 42.5967 103.1498 152.8785 0.0000 0.0000 0.0000
# 4 0.0000 0.0000 0.0000 -11.6240 0.0000 0.0000
# 5 0.0000 0.0000 0.0000 0.0000 11.0455 0.0000
# 6 0.0000 0.0000 0.0000 0.0000 0.0000 -18.0315
#
#
#
# Elastic Compliance Matrix: (Units=1/GPa)
#
#
# Indices 1 2 3 4 5 6 
#
# 1 0.023509 -0.003310 -0.004317 0.000000 0.000000 0.000000
# 2 -0.003310 0.007602 -0.004207 0.000000 0.000000 0.000000
# 3 -0.004317 -0.004207 0.010583 0.000000 0.000000 0.000000
# 4 0.000000 0.000000 0.000000 -0.086029 0.000000 0.000000
# 5 0.000000 0.000000 0.000000 0.000000 0.090535 0.000000
# 6 0.000000 0.000000 0.000000 0.000000 0.000000 -0.055459
#
#
# Mechanical properties :
#
#
# Convention : Reuss Voigt Hill
#
# Bulk Modulus (GPa) = 55.47658 89.80311 72.63985
# Shear Modulus (GPa) = 244.87318 11.31597 128.09458
#
# Velocity S-wave (km/s) = 11.18450 2.40432 8.08931
# Velocity P-wave (km/s) = 13.96893 7.32007 11.15155
#
# Compressibility (1/GPa) = 0.01802562
#
# Stress axis : x y z
#
# Youngs Moduli (GPa) = 42.53617 131.53769 94.49536
#
# Poissons Ratio (x) = 0.43545 0.40792
# Poissons Ratio (y) = 0.14081 0.39755
# Poissons Ratio (z) = 0.18362 0.55339
#
# Static dielectric constant tensor:
#      x y z
#    x 1.718900 0.000000 0.000000 
#    y 0.000000 1.637220 0.000000 
#    z 0.000000 0.000000 1.670940 
# 
# From -- ./inp_files/1683.got.cif
#   From: 2010.05.17/outbox.cif.g08.bks.cpg/sg47_1_cif.got.tgz:1683.got - 2010.06.03 20:15:42.
