data_PCOD9383037
_publ_section_title
;
Structure prediction by ZEFSAII (Michael W. Deem and Ramdas Pophale) SiO2 
 PCOD9383037
Probable space group: P M M M
;
_chemical_formula_sum "Si O2"
_cell_formula_units_Z 64
_cell_length_a 8.058998
_cell_length_b 18.424287
_cell_length_c 20.941875
_cell_angle_alpha 90.000000
_cell_angle_beta 90.000000
_cell_angle_gamma 90.000000
_cell_volume 3109.476659
_symmetry_space_group_name_H-M "P M M M"
_symmetry_group_IT_number 47
_symmetry_cell_setting 'orthorhombic'
loop_
_space_group_symop_operation_xyz
x,y,z
-x,-y,z
x,-y,-z
-x,y,-z
-x,-y,-z
x,y,-z
-x,y,z
x,-y,z
loop_
_atom_site_type_symbol
_atom_site_label
_atom_site_fract_x
_atom_site_fract_y
_atom_site_fract_z
Si Si1 0.300675 0.577471 0.872321
Si Si2 0.201607 0.782149 0.290082
Si Si3 0.819034 0.270765 0.924216
Si Si4 0.310153 0.882472 0.072863
Si Si5 0.193519 0.421199 0.595391
Si Si6 0.304219 0.380154 0.731287
Si Si7 0.196870 0.921504 0.789443
Si Si8 0.202542 0.740483 0.430797
O O1 0.500000 0.579996 0.879555
O O2 0.241576 0.500000 0.898784
O O3 0.230117 0.650519 0.901107
O O4 0.263091 0.581786 0.797338
O O5 0.265349 0.705524 0.262733
O O6 0.261273 0.851326 0.249300
O O7 0.252321 0.780394 0.365261
O O8 0.000000 0.780047 0.287853
O O9 0.697753 0.203865 0.912870
O O10 0.000000 0.250114 0.897159
O O11 0.830416 0.275558 0.000000
O O12 0.500000 0.906914 0.072266
O O13 0.222438 0.915700 0.134266
O O14 0.242934 0.893954 0.000000
O O15 0.265750 0.500000 0.577097
O O16 0.207046 0.412555 0.671677
O O17 0.262017 0.343710 0.572074
O O18 0.000000 0.422395 0.576835
O O19 0.500000 0.389501 0.718729
O O20 0.000000 0.921986 0.777713
O O21 0.265660 0.000000 0.768576
O O22 0.251770 0.771160 0.500000
O O23 0.000000 0.738406 0.429164
#
# Coordination Sequence:
#
# PCOD9383037 Si02
#       8
#     8   8   8   8   8   8   8   8
#     4  10  21  34  47  66  93 126 165 210 259 306
#     4   9  18  33  52  74 100 130 166 206 247 295
#     4  10  21  36  53  72  94 123 162 206 250 298
#     4  10  21  37  57  80 106 136 169 204 242 290
#     4   9  17  28  43  66  96 129 165 205 250 298
#     4  10  19  31  48  69  93 123 162 204 246 294
#     4  10  21  36  55  80 109 138 165 198 244 296
#     4   8  14  26  46  71  97 129 171 214 252 292
#
# _framework density 20.582241
#
# number of rings (size 3 to 8) (size 9 to 14) (size 15 to 20)
#    0.000    2.500    0.000    3.000    0.000    7.000 
#    0.000    3.750    0.000    6.375    0.000    6.125 
#    0.000    0.000    0.000    5.625    0.000    6.250 
#
# Total GULP energy -356861.399672 kJ/mol
# GULP energy per Si atom -5575.959370 kJ/mol
# Density = 2.053540 g / cm^3
# Si number density = 20.582241 Si / 1000 Ang^3
#
#
#
# Elastic Constant Matrix: (Units=GPa)
#
#
# Indices 1 2 3 4 5 6 
#
# 1 11.6360 3.2871 8.9751 0.0000 0.0000 0.0000
# 2 3.2871 116.3046 54.5517 0.0000 0.0000 0.0000
# 3 8.9751 54.5517 57.4387 0.0000 0.0000 0.0000
# 4 0.0000 0.0000 0.0000 -14.5136 0.0000 0.0000
# 5 0.0000 0.0000 0.0000 0.0000 -33.0313 0.0000
# 6 0.0000 0.0000 0.0000 0.0000 0.0000 2.2162
#
#
#
# Elastic Compliance Matrix: (Units=1/GPa)
#
#
# Indices 1 2 3 4 5 6 
#
# 1 0.101954 0.008278 -0.023793 0.000000 0.000000 0.000000
# 2 0.008278 0.016177 -0.016658 0.000000 0.000000 0.000000
# 3 -0.023793 -0.016658 0.036948 0.000000 0.000000 0.000000
# 4 0.000000 0.000000 0.000000 -0.068901 0.000000 0.000000
# 5 0.000000 0.000000 0.000000 0.000000 -0.030274 0.000000
# 6 0.000000 0.000000 0.000000 0.000000 0.000000 0.451227
#
#
# Mechanical properties :
#
#
# Convention : Reuss Voigt Hill
#
# Bulk Modulus (GPa) = 11.02117 35.44521 23.23319
# Shear Modulus (GPa) = 8.30951 -1.16137 3.57407
#
# Velocity S-wave (km/s) = 2.01146 -0.75199 1.31919
# Velocity P-wave (km/s) = 3.28039 4.06259 3.69226
#
# Compressibility (1/GPa) = 0.09073446
#
# Stress axis : x y z
#
# Youngs Moduli (GPa) = 9.80836 61.81500 27.06495
#
# Poissons Ratio (x) = -0.51173 0.64396
# Poissons Ratio (y) = -0.08120 0.45084
# Poissons Ratio (z) = 0.23337 1.02970
#
# Static dielectric constant tensor:
#      x y z
#    x 1.753080 0.000000 0.000000 
#    y 0.000000 1.761930 0.000000 
#    z 0.000000 0.000000 1.749720 
# 
# From -- ./inp_files/26988.got.cif
#   From: 2010.05.17/outbox.cif.g08.bks.cpg/sg47_14_cif.got.tgz:26988.got - 2010.06.03 20:15:42.
