data_PCOD9383977
_publ_section_title
;
Structure prediction by ZEFSAII (Michael W. Deem and Ramdas Pophale) SiO2 
 PCOD9383977
Probable space group: P M M M
;
_chemical_formula_sum "Si O2"
_cell_formula_units_Z 48
_cell_length_a 9.742572
_cell_length_b 17.268947
_cell_length_c 14.725645
_cell_angle_alpha 90.000000
_cell_angle_beta 90.000000
_cell_angle_gamma 90.000000
_cell_volume 2477.500821
_symmetry_space_group_name_H-M "P M M M"
_symmetry_group_IT_number 47
_symmetry_cell_setting 'orthorhombic'
loop_
_space_group_symop_operation_xyz
x,y,z
-x,-y,z
x,-y,-z
-x,y,-z
-x,-y,-z
x,y,-z
-x,y,z
x,-y,z
loop_
_atom_site_type_symbol
_atom_site_label
_atom_site_fract_x
_atom_site_fract_y
_atom_site_fract_z
Si Si1 0.665726 0.373709 0.777640
Si Si2 0.849645 0.843934 0.354598
Si Si3 0.842562 0.089762 0.151155
Si Si4 0.834465 0.500000 0.890519
Si Si5 0.841444 0.660156 0.608008
Si Si6 0.349393 0.091789 0.500000
Si Si7 0.659198 0.771732 0.098591
O O1 0.500000 0.389371 0.777807
O O2 0.754359 0.428543 0.843760
O O3 0.733637 0.378203 0.677470
O O4 0.686540 0.288048 0.820340
O O5 0.841889 0.878088 0.254069
O O6 0.840146 0.751412 0.365955
O O7 0.731172 0.880614 0.412784
O O8 0.000000 0.866223 0.390898
O O9 0.748243 0.151284 0.101559
O O10 0.000000 0.093412 0.118741
O O11 0.798764 0.000000 0.146968
O O12 0.000000 0.500000 0.871804
O O13 0.818454 0.500000 0.000000
O O14 0.811116 0.652078 0.500000
O O15 0.000000 0.633253 0.622538
O O16 0.500000 0.126413 0.500000
O O17 0.356213 0.000000 0.500000
O O18 0.500000 0.793407 0.105297
O O19 0.680390 0.732524 0.000000
#
# Coordination Sequence:
#
# PCOD9383977 Si02
#       7
#     8   8   8   4   8   4   8
#     4  11  23  41  67  97 131 166 201 251 307 366
#     4  10  19  35  56  77 107 151 202 255 311 370
#     4  10  21  36  55  80 111 151 203 261 313 362
#     4  11  25  45  72 105 136 167 203 246 300 361
#     4  10  20  37  62  91 123 162 208 255 303 362
#     4  11  23  33  45  73 111 148 195 258 319 373
#     4  10  22  39  59  85 118 159 203 248 307 373
#
# _framework density 19.374362000000001
#
# number of rings (size 3 to 8) (size 9 to 14) (size 15 to 20)
#    0.000    1.667    2.500    2.000    0.000    6.000 
#    0.000    2.083    0.000    2.500    0.000    0.000 
#    0.000    0.000    0.000    0.000    0.000    0.000 
#
# Total GULP energy -267718.874871 kJ/mol
# GULP energy per Si atom -5577.476560 kJ/mol
# Density = 1.933027 g / cm^3
# Si number density = 19.374362 Si / 1000 Ang^3
#
#
#
# Elastic Constant Matrix: (Units=GPa)
#
#
# Indices 1 2 3 4 5 6 
#
# 1 136.0235 54.0166 79.1442 0.0000 0.0000 0.0000
# 2 54.0166 65.4620 31.7783 0.0000 0.0000 0.0000
# 3 79.1442 31.7783 125.0152 0.0000 0.0000 0.0000
# 4 0.0000 0.0000 0.0000 28.4567 0.0000 0.0000
# 5 0.0000 0.0000 0.0000 0.0000 53.8239 0.0000
# 6 0.0000 0.0000 0.0000 0.0000 0.0000 29.8711
#
#
#
# Elastic Compliance Matrix: (Units=1/GPa)
#
#
# Indices 1 2 3 4 5 6 
#
# 1 0.015176 -0.008965 -0.007329 0.000000 0.000000 0.000000
# 2 -0.008965 0.022722 -0.000100 0.000000 0.000000 0.000000
# 3 -0.007329 -0.000100 0.012664 0.000000 0.000000 0.000000
# 4 0.000000 0.000000 0.000000 0.035141 0.000000 0.000000
# 5 0.000000 0.000000 0.000000 0.000000 0.018579 0.000000
# 6 0.000000 0.000000 0.000000 0.000000 0.000000 0.033477
#
#
# Mechanical properties :
#
#
# Convention : Reuss Voigt Hill
#
# Bulk Modulus (GPa) = 56.26088 72.93099 64.59593
# Shear Modulus (GPa) = 28.33309 33.20112 30.76711
#
# Velocity S-wave (km/s) = 3.82828 4.14413 3.98934
# Velocity P-wave (km/s) = 6.97444 7.78609 7.39142
#
# Compressibility (1/GPa) = 0.01777434
#
# Stress axis : x y z
#
# Youngs Moduli (GPa) = 65.89437 44.00982 78.96303
#
# Poissons Ratio (x) = 0.39454 0.57869
# Poissons Ratio (y) = 0.59073 0.00793
# Poissons Ratio (z) = 0.48292 0.00442
#
# Static dielectric constant tensor:
#      x y z
#    x 1.669150 0.000000 0.000000 
#    y 0.000000 1.673110 0.000000 
#    z 0.000000 0.000000 1.686590 
# 
# From -- ./inp_files/6518.got.cif
#   From: 2010.05.17/outbox.cif.g08.bks.cpg/sg47_4_cif.got.tgz:6518.got - 2010.06.03 20:15:42.
