data_PCOD9383702
_publ_section_title
;
Structure prediction by ZEFSAII (Michael W. Deem and Ramdas Pophale) SiO2 
 PCOD9383702
Probable space group: P M M M
;
_chemical_formula_sum "Si O2"
_cell_formula_units_Z 44
_cell_length_a 7.586207
_cell_length_b 30.495775
_cell_length_c 8.612623
_cell_angle_alpha 90.000000
_cell_angle_beta 90.000000
_cell_angle_gamma 90.000000
_cell_volume 1992.506748
_symmetry_space_group_name_H-M "P M M M"
_symmetry_group_IT_number 47
_symmetry_cell_setting 'orthorhombic'
loop_
_space_group_symop_operation_xyz
x,y,z
-x,-y,z
x,-y,-z
-x,y,-z
-x,-y,-z
x,y,-z
-x,y,z
x,-y,z
loop_
_atom_site_type_symbol
_atom_site_label
_atom_site_fract_x
_atom_site_fract_y
_atom_site_fract_z
Si Si1 0.285777 0.551018 0.500000
Si Si2 0.287561 0.861417 0.673958
Si Si3 0.285261 0.047868 0.181726
Si Si4 0.715195 0.403792 0.173457
Si Si5 0.292345 0.318159 0.670431
Si Si6 0.208553 0.229932 0.171054
O O1 0.238237 0.500000 0.500000
O O2 0.500000 0.554799 0.500000
O O3 0.228993 0.572062 0.334138
O O4 0.223463 0.853392 0.500000
O O5 0.500000 0.864234 0.670754
O O6 0.221921 0.908339 0.734762
O O7 0.243556 0.819598 0.777050
O O8 0.500000 0.048022 0.189747
O O9 0.227602 0.000000 0.242007
O O10 0.238917 0.050401 0.000000
O O11 0.500000 0.407047 0.169544
O O12 0.770867 0.353131 0.203018
O O13 0.774217 0.418228 0.000000
O O14 0.214343 0.326214 0.500000
O O15 0.500000 0.327057 0.659393
O O16 0.274177 0.267614 0.715394
O O17 0.000000 0.235476 0.164976
O O18 0.284655 0.237224 0.000000
#
# Coordination Sequence:
#
# PCOD9383702 Si02
#       6
#     4   8   8   8   8   8
#     4   9  16  26  40  64 101 139 175 215 258 309
#     4  10  20  33  51  76 103 132 167 205 249 303
#     4   8  14  26  46  72 100 129 161 199 243 290
#     4   9  16  27  44  67  97 134 174 215 259 306
#     4  10  19  33  54  77 101 131 171 216 259 309
#     4  11  24  38  51  71 100 133 170 212 258 309
#
# _framework density 22.082735
#
# number of rings (size 3 to 8) (size 9 to 14) (size 15 to 20)
#    0.000    2.455    0.909    2.727    0.000    6.545 
#    0.000    3.636    0.000    0.545    0.000    3.818 
#    0.000    1.455    0.000    3.818    0.000    3.636 
#
# Total GULP energy -245457.867850 kJ/mol
# GULP energy per Si atom -5578.587906 kJ/mol
# Density = 2.203247 g / cm^3
# Si number density = 22.082735 Si / 1000 Ang^3
#
#
#
# Elastic Constant Matrix: (Units=GPa)
#
#
# Indices 1 2 3 4 5 6 
#
# 1 45.0573 -5.6685 5.0791 0.0000 0.0000 0.0000
# 2 -5.6685 112.0653 52.2345 0.0000 0.0000 0.0000
# 3 5.0791 52.2345 146.5303 0.0000 0.0000 0.0000
# 4 0.0000 0.0000 0.0000 33.9548 0.0000 0.0000
# 5 0.0000 0.0000 0.0000 0.0000 -54.8748 0.0000
# 6 0.0000 0.0000 0.0000 0.0000 0.0000 -73.6817
#
#
#
# Elastic Compliance Matrix: (Units=1/GPa)
#
#
# Indices 1 2 3 4 5 6 
#
# 1 0.022582 0.001807 -0.001427 0.000000 0.000000 0.000000
# 2 0.001807 0.010846 -0.003929 0.000000 0.000000 0.000000
# 3 -0.001427 -0.003929 0.008275 0.000000 0.000000 0.000000
# 4 0.000000 0.000000 0.000000 0.029451 0.000000 0.000000
# 5 0.000000 0.000000 0.000000 0.000000 -0.018223 0.000000
# 6 0.000000 0.000000 0.000000 0.000000 0.000000 -0.013572
#
#
# Mechanical properties :
#
#
# Convention : Reuss Voigt Hill
#
# Bulk Modulus (GPa) = 28.89705 45.21590 37.05647
# Shear Modulus (GPa) = 86.21992 -2.11982 42.05005
#
# Velocity S-wave (km/s) = 6.25530 -0.98083 4.36845
# Velocity P-wave (km/s) = 8.07997 4.38605 6.50090
#
# Compressibility (1/GPa) = 0.03460561
#
# Stress axis : x y z
#
# Youngs Moduli (GPa) = 44.28264 92.19865 120.85174
#
# Poissons Ratio (x) = -0.16664 0.17246
# Poissons Ratio (y) = -0.08004 0.47483
# Poissons Ratio (z) = 0.06319 0.36225
#
# Static dielectric constant tensor:
#      x y z
#    x 1.834350 0.000000 0.000000 
#    y 0.000000 1.785600 0.000000 
#    z 0.000000 0.000000 1.817950 
# 
# From -- ./inp_files/2281.got.cif
#   From: 2010.05.17/outbox.cif.g08.bks.cpg/sg47_2_cif.got.tgz:2281.got - 2010.06.03 20:15:42.
