data_PCOD9383171
_publ_section_title
;
Structure prediction by ZEFSAII (Michael W. Deem and Ramdas Pophale) SiO2 
 PCOD9383171
Probable space group: P M M M
;
_chemical_formula_sum "Si O2"
_cell_formula_units_Z 48
_cell_length_a 19.218712
_cell_length_b 8.869951
_cell_length_c 16.263060
_cell_angle_alpha 90.000000
_cell_angle_beta 90.000000
_cell_angle_gamma 90.000000
_cell_volume 2772.348124
_symmetry_space_group_name_H-M "P M M M"
_symmetry_group_IT_number 47
_symmetry_cell_setting 'orthorhombic'
loop_
_space_group_symop_operation_xyz
x,y,z
-x,-y,z
x,-y,-z
-x,y,-z
-x,-y,-z
x,y,-z
-x,y,z
x,-y,z
loop_
_atom_site_type_symbol
_atom_site_label
_atom_site_fract_x
_atom_site_fract_y
_atom_site_fract_z
Si Si1 0.835836 0.822612 0.590796
Si Si2 0.332946 0.821966 0.412164
Si Si3 0.083028 0.179393 0.093242
Si Si4 0.829692 0.321074 0.760886
Si Si5 0.676021 0.818434 0.234328
Si Si6 0.581713 0.680693 0.094261
O O1 0.860294 0.771245 0.500000
O O2 0.751374 0.811874 0.589048
O O3 0.858317 0.735492 0.672343
O O4 0.852591 0.000000 0.599162
O O5 0.356716 0.755615 0.500000
O O6 0.354772 0.763908 0.322776
O O7 0.350166 0.000000 0.413965
O O8 0.122474 0.267343 0.164252
O O9 0.000000 0.201625 0.099635
O O10 0.096233 0.000000 0.102233
O O11 0.104074 0.222871 0.000000
O O12 0.822971 0.500000 0.759552
O O13 0.753658 0.247086 0.772800
O O14 0.628994 0.764096 0.159799
O O15 0.680475 0.000000 0.236557
O O16 0.500000 0.714387 0.106642
O O17 0.590314 0.500000 0.102407
O O18 0.599497 0.721015 0.000000
#
# Coordination Sequence:
#
# PCOD9383171 Si02
#       6
#     8   8   8   8   8   8
#     4   8  14  27  47  69  96 131 168 204 241 284
#     4   7  11  22  41  65  92 121 153 190 232 275
#     4   9  19  37  58  75  93 124 167 210 250 296
#     4  11  21  31  48  76 108 136 162 199 248 298
#     4  10  19  31  50  75 100 127 164 207 244 281
#     4   9  19  36  54  70  93 127 162 198 249 309
#
# _framework density 17.313842999999999
#
# number of rings (size 3 to 8) (size 9 to 14) (size 15 to 20)
#    0.000    3.000    0.000    5.000    0.000    2.333 
#    0.000    1.667    0.000    2.500    0.000    7.000 
#    0.000    0.000    0.000    0.000    0.000    0.000 
#
# Total GULP energy -267251.230337 kJ/mol
# GULP energy per Si atom -5567.733965 kJ/mol
# Density = 1.727444 g / cm^3
# Si number density = 17.313843 Si / 1000 Ang^3
#
#
#
# Elastic Constant Matrix: (Units=GPa)
#
#
# Indices 1 2 3 4 5 6 
#
# 1 26.1852 29.4790 57.6728 0.0000 0.0000 0.0000
# 2 29.4790 58.4067 73.2702 0.0000 0.0000 0.0000
# 3 57.6728 73.2702 193.3365 0.0000 0.0000 0.0000
# 4 0.0000 0.0000 0.0000 10.3027 0.0000 0.0000
# 5 0.0000 0.0000 0.0000 0.0000 -21.7928 0.0000
# 6 0.0000 0.0000 0.0000 0.0000 0.0000 24.5730
#
#
#
# Elastic Compliance Matrix: (Units=1/GPa)
#
#
# Indices 1 2 3 4 5 6 
#
# 1 0.141142 -0.035113 -0.028796 0.000000 0.000000 0.000000
# 2 -0.035113 0.041373 -0.005205 0.000000 0.000000 0.000000
# 3 -0.028796 -0.005205 0.015735 0.000000 0.000000 0.000000
# 4 0.000000 0.000000 0.000000 0.097062 0.000000 0.000000
# 5 0.000000 0.000000 0.000000 0.000000 -0.045887 0.000000
# 6 0.000000 0.000000 0.000000 0.000000 0.000000 0.040695
#
#
# Mechanical properties :
#
#
# Convention : Reuss Voigt Hill
#
# Bulk Modulus (GPa) = 16.66054 66.53027 41.59541
# Shear Modulus (GPa) = 11.15183 10.45033 10.80108
#
# Velocity S-wave (km/s) = 2.54066 2.45946 2.50039
# Velocity P-wave (km/s) = 4.27202 6.82457 5.69319
#
# Compressibility (1/GPa) = 0.06002205
#
# Stress axis : x y z
#
# Youngs Moduli (GPa) = 7.08505 24.17011 63.55249
#
# Poissons Ratio (x) = 0.84868 1.83007
# Poissons Ratio (y) = 0.24878 0.33081
# Poissons Ratio (z) = 0.20402 0.12581
#
# Static dielectric constant tensor:
#      x y z
#    x 1.558080 0.000000 0.000000 
#    y 0.000000 1.573540 0.000000 
#    z 0.000000 0.000000 1.635640 
# 
# From -- ./inp_files/6358.got.cif
#   From: 2010.05.17/outbox.cif.g08.bks.cpg/sg47_4_cif.got.tgz:6358.got - 2010.06.03 20:15:42.
