data_PCOD9383189
_publ_section_title
;
Structure prediction by ZEFSAII (Michael W. Deem and Ramdas Pophale) SiO2 
 PCOD9383189
Probable space group: P M M M
;
_chemical_formula_sum "Si O2"
_cell_formula_units_Z 64
_cell_length_a 25.580323
_cell_length_b 8.910541
_cell_length_c 15.656118
_cell_angle_alpha 90.000000
_cell_angle_beta 90.000000
_cell_angle_gamma 90.000000
_cell_volume 3568.569693
_symmetry_space_group_name_H-M "P M M M"
_symmetry_group_IT_number 47
_symmetry_cell_setting 'orthorhombic'
loop_
_space_group_symop_operation_xyz
x,y,z
-x,-y,z
x,-y,-z
-x,y,-z
-x,-y,-z
x,y,-z
-x,y,z
x,-y,z
loop_
_atom_site_type_symbol
_atom_site_label
_atom_site_fract_x
_atom_site_fract_y
_atom_site_fract_z
Si Si1 0.902794 0.320723 0.905256
Si Si2 0.792593 0.825525 0.869022
Si Si3 0.440528 0.682748 0.597815
Si Si4 0.861638 0.678768 0.403652
Si Si5 0.060004 0.822784 0.267763
Si Si6 0.681802 0.319565 0.092849
Si Si7 0.237411 0.174298 0.328712
Si Si8 0.346803 0.318495 0.719035
O O1 0.905293 0.500000 0.896315
O O2 0.842717 0.266673 0.898505
O O3 0.931846 0.244375 0.826454
O O4 0.922641 0.280293 0.000000
O O5 0.738702 0.756022 0.902470
O O6 0.787689 0.818317 0.766314
O O7 0.797608 0.000000 0.893440
O O8 0.428232 0.727578 0.500000
O O9 0.500000 0.730471 0.617501
O O10 0.440505 0.500000 0.598909
O O11 0.397089 0.732284 0.665328
O O12 0.878953 0.714851 0.500000
O O13 0.860380 0.500000 0.393197
O O14 0.900417 0.747845 0.334015
O O15 0.803604 0.742808 0.388855
O O16 0.000000 0.799255 0.294355
O O17 0.070876 0.000000 0.264363
O O18 0.688268 0.500000 0.096045
O O19 0.652311 0.275931 0.180285
O O20 0.657919 0.282046 0.000000
O O21 0.293815 0.251576 0.320816
O O22 0.243004 0.000000 0.352001
O O23 0.344009 0.500000 0.714685
#
# Coordination Sequence:
#
# PCOD9383189 Si02
#       8
#     8   8   8   8   8   8   8   8
#     4  11  23  37  57  84 112 144 181 222 270 323
#     4  10  19  31  50  76 105 138 176 217 262 314
#     4   8  14  26  46  72  99 128 169 222 273 318
#     4  11  24  41  63  88 112 142 180 221 268 326
#     4  11  25  44  64  85 110 142 180 225 275 325
#     4   9  17  28  42  64  98 138 175 210 254 309
#     4  10  20  34  53  79 112 145 175 213 266 322
#     4   9  17  29  48  73 102 137 176 219 263 314
#
# _framework density 17.934356000000001
#
# number of rings (size 3 to 8) (size 9 to 14) (size 15 to 20)
#    0.000    2.125    1.250    2.625    0.000    6.750 
#    0.000    3.750    0.000    0.750    0.000    3.500 
#    0.000    0.000    0.000    6.250    0.000    6.500 
#
# Total GULP energy -357154.132605 kJ/mol
# GULP energy per Si atom -5580.533322 kJ/mol
# Density = 1.789354 g / cm^3
# Si number density = 17.934356 Si / 1000 Ang^3
#
#
#
# Elastic Constant Matrix: (Units=GPa)
#
#
# Indices 1 2 3 4 5 6 
#
# 1 85.2043 34.8766 70.9243 0.0000 0.0000 0.0000
# 2 34.8766 38.4777 44.1707 0.0000 0.0000 0.0000
# 3 70.9243 44.1707 118.7565 0.0000 0.0000 0.0000
# 4 0.0000 0.0000 0.0000 5.2101 0.0000 0.0000
# 5 0.0000 0.0000 0.0000 0.0000 1.8742 0.0000
# 6 0.0000 0.0000 0.0000 0.0000 0.0000 33.4853
#
#
#
# Elastic Compliance Matrix: (Units=1/GPa)
#
#
# Indices 1 2 3 4 5 6 
#
# 1 0.025270 -0.009738 -0.011470 0.000000 0.000000 0.000000
# 2 -0.009738 0.049107 -0.012449 0.000000 0.000000 0.000000
# 3 -0.011470 -0.012449 0.019901 0.000000 0.000000 0.000000
# 4 0.000000 0.000000 0.000000 0.191934 0.000000 0.000000
# 5 0.000000 0.000000 0.000000 0.000000 0.533566 0.000000
# 6 0.000000 0.000000 0.000000 0.000000 0.000000 0.029864
#
#
# Mechanical properties :
#
#
# Convention : Reuss Voigt Hill
#
# Bulk Modulus (GPa) = 37.08691 60.26462 48.67576
# Shear Modulus (GPa) = 5.39989 14.27839 9.83914
#
# Velocity S-wave (km/s) = 1.73708 2.82467 2.34480
# Velocity P-wave (km/s) = 4.97468 6.65689 5.87629
#
# Compressibility (1/GPa) = 0.02696369
#
# Stress axis : x y z
#
# Youngs Moduli (GPa) = 39.57218 20.36377 50.24861
#
# Poissons Ratio (x) = 0.19831 0.57635
# Poissons Ratio (y) = 0.38536 0.62555
# Poissons Ratio (z) = 0.45389 0.25351
#
# Static dielectric constant tensor:
#      x y z
#    x 1.583120 0.000000 0.000000 
#    y 0.000000 1.595520 0.000000 
#    z 0.000000 0.000000 1.647830 
# 
# From -- ./inp_files/25613.got.cif
#   From: 2010.05.17/outbox.cif.g08.bks.cpg/sg47_13_cif.got.tgz:25613.got - 2010.06.03 20:15:42.
