data_PCOD9383661
_publ_section_title
;
Structure prediction by ZEFSAII (Michael W. Deem and Ramdas Pophale) SiO2 
 PCOD9383661
Probable space group: P M M M
;
_chemical_formula_sum "Si O2"
_cell_formula_units_Z 52
_cell_length_a 7.677776
_cell_length_b 20.303222
_cell_length_c 15.848731
_cell_angle_alpha 90.000000
_cell_angle_beta 90.000000
_cell_angle_gamma 90.000000
_cell_volume 2470.557095
_symmetry_space_group_name_H-M "P M M M"
_symmetry_group_IT_number 47
_symmetry_cell_setting 'orthorhombic'
loop_
_space_group_symop_operation_xyz
x,y,z
-x,-y,z
x,-y,-z
-x,y,-z
-x,-y,-z
x,y,-z
-x,y,z
x,-y,z
loop_
_atom_site_type_symbol
_atom_site_label
_atom_site_fract_x
_atom_site_fract_y
_atom_site_fract_z
Si Si1 0.804757 0.000000 0.598370
Si Si2 0.213701 0.210355 0.909502
Si Si3 0.289952 0.575896 0.094440
Si Si4 0.799373 0.074300 0.144934
Si Si5 0.205338 0.731885 0.404474
Si Si6 0.792448 0.313241 0.228010
Si Si7 0.698417 0.868880 0.321739
O O1 0.706699 0.065921 0.622518
O O2 0.825953 0.000000 0.500000
O O3 0.000000 0.000000 0.638141
O O4 0.277899 0.135059 0.906703
O O5 0.275179 0.253137 0.830253
O O6 0.000000 0.209178 0.905774
O O7 0.262239 0.240224 0.000000
O O8 0.500000 0.576821 0.092545
O O9 0.234914 0.500000 0.106849
O O10 0.235220 0.622392 0.171156
O O11 0.228874 0.596499 0.000000
O O12 0.794702 0.106273 0.237988
O O13 0.000000 0.067717 0.118190
O O14 0.723878 0.000000 0.144120
O O15 0.278559 0.724708 0.500000
O O16 0.276434 0.690052 0.324169
O O17 0.223948 0.807077 0.371511
O O18 0.000000 0.717192 0.411374
O O19 0.000000 0.303487 0.235383
O O20 0.500000 0.852887 0.299922
#
# Coordination Sequence:
#
# PCOD9383661 Si02
#       7
#     4   8   8   8   8   8   8
#     4  11  23  37  53  71  94 129 172 219 279 346
#     4   9  17  30  50  78 107 133 173 229 276 317
#     4   9  19  36  57  84 120 157 187 216 260 322
#     4  10  19  33  53  71  97 140 183 219 269 336
#     4  10  21  38  58  78 105 143 182 220 269 327
#     4  10  19  33  56  84 113 144 182 229 273 316
#     4  12  23  34  51  75 102 131 171 225 279 326
#
# _framework density 21.047885999999998
#
# number of rings (size 3 to 8) (size 9 to 14) (size 15 to 20)
#    0.000    1.923    2.308    3.000    0.000    4.923 
#    0.000    2.308    0.000    0.923    0.000    4.308 
#    0.000    0.000    0.000    0.000    0.000    0.000 
#
# Total GULP energy -289963.735696 kJ/mol
# GULP energy per Si atom -5576.225686 kJ/mol
# Density = 2.099998 g / cm^3
# Si number density = 21.047886 Si / 1000 Ang^3
#
#
#
# Elastic Constant Matrix: (Units=GPa)
#
#
# Indices 1 2 3 4 5 6 
#
# 1 48.1450 -4.0674 5.4150 0.0000 0.0000 0.0000
# 2 -4.0674 113.4118 77.7246 0.0000 0.0000 0.0000
# 3 5.4150 77.7246 182.2108 0.0000 0.0000 0.0000
# 4 0.0000 0.0000 0.0000 54.4511 0.0000 0.0000
# 5 0.0000 0.0000 0.0000 0.0000 -8.5344 0.0000
# 6 0.0000 0.0000 0.0000 0.0000 0.0000 59.0859
#
#
#
# Elastic Compliance Matrix: (Units=1/GPa)
#
#
# Indices 1 2 3 4 5 6 
#
# 1 0.021063 0.001674 -0.001340 0.000000 0.000000 0.000000
# 2 0.001674 0.012593 -0.005421 0.000000 0.000000 0.000000
# 3 -0.001340 -0.005421 0.007841 0.000000 0.000000 0.000000
# 4 0.000000 0.000000 0.000000 0.018365 0.000000 0.000000
# 5 0.000000 0.000000 0.000000 0.000000 -0.117174 0.000000
# 6 0.000000 0.000000 0.000000 0.000000 0.000000 0.016925
#
#
# Mechanical properties :
#
#
# Convention : Reuss Voigt Hill
#
# Bulk Modulus (GPa) = 31.92761 55.76802 43.84782
# Shear Modulus (GPa) = -252.88103 38.64688 -107.11708
#
# Velocity S-wave (km/s) = -10.97299 4.28967 -7.14161
# Velocity P-wave (km/s) = 12.05570 7.14761 6.86482
#
# Compressibility (1/GPa) = 0.03132085
#
# Stress axis : x y z
#
# Youngs Moduli (GPa) = 47.47734 79.40972 127.54195
#
# Poissons Ratio (x) = -0.13290 0.17089
# Poissons Ratio (y) = -0.07946 0.69146
# Poissons Ratio (z) = 0.06361 0.43051
#
# Static dielectric constant tensor:
#      x y z
#    x 1.809760 0.000000 0.000000 
#    y 0.000000 1.740760 0.000000 
#    z 0.000000 0.000000 1.825350 
# 
# From -- ./inp_files/6998.got.cif
#   From: 2010.05.17/outbox.cif.g08.bks.cpg/sg47_4_cif.got.tgz:6998.got - 2010.06.03 20:15:42.
