data_PCOD9383500
_publ_section_title
;
Structure prediction by ZEFSAII (Michael W. Deem and Ramdas Pophale) SiO2 
 PCOD9383500
Probable space group: P M M M
;
_chemical_formula_sum "Si O2"
_cell_formula_units_Z 48
_cell_length_a 8.634622
_cell_length_b 36.335274
_cell_length_c 7.923305
_cell_angle_alpha 90.000000
_cell_angle_beta 90.000000
_cell_angle_gamma 90.000000
_cell_volume 2485.868457
_symmetry_space_group_name_H-M "P M M M"
_symmetry_group_IT_number 47
_symmetry_cell_setting 'orthorhombic'
loop_
_space_group_symop_operation_xyz
x,y,z
-x,-y,z
x,-y,-z
-x,y,-z
-x,-y,-z
x,y,-z
-x,y,z
x,-y,z
loop_
_atom_site_type_symbol
_atom_site_label
_atom_site_fract_x
_atom_site_fract_y
_atom_site_fract_z
Si Si1 0.688436 0.093631 0.500000
Si Si2 0.173622 0.382443 0.700364
Si Si3 0.688532 0.042151 0.808535
Si Si4 0.184847 0.823932 0.500000
Si Si5 0.326366 0.693965 0.797621
Si Si6 0.180909 0.539621 0.202721
Si Si7 0.311527 0.774788 0.197517
O O1 0.500000 0.095876 0.500000
O O2 0.737375 0.070590 0.665488
O O3 0.756747 0.134209 0.500000
O O4 0.164526 0.382010 0.500000
O O5 0.246200 0.344086 0.754256
O O6 0.252735 0.421293 0.747011
O O7 0.000000 0.383522 0.774679
O O8 0.500000 0.042149 0.807809
O O9 0.736096 0.000000 0.771296
O O10 0.737413 0.051361 0.000000
O O11 0.248805 0.803594 0.332442
O O12 0.000000 0.822419 0.500000
O O13 0.500000 0.692286 0.727128
O O14 0.256986 0.733576 0.748921
O O15 0.335211 0.696042 0.000000
O O16 0.246761 0.500000 0.260380
O O17 0.000000 0.540189 0.260662
O O18 0.179703 0.538997 0.000000
O O19 0.500000 0.774473 0.202710
O O20 0.268709 0.781582 0.000000
#
# Coordination Sequence:
#
# PCOD9383500 Si02
#       7
#     4   8   8   4   8   8   8
#     4  10  19  32  52  78 108 148 194 233 277 334
#     4  10  20  30  44  73 107 133 160 197 247 305
#     4   8  14  26  48  80 112 140 180 239 294 329
#     4  12  26  39  55  83 120 156 189 233 290 346
#     4   9  19  36  57  78  98 125 164 210 260 313
#     4   8  14  26  44  64  89 127 171 207 239 281
#     4   9  20  41  65  84 104 139 190 239 282 336
#
# _framework density 19.309148
#
# number of rings (size 3 to 8) (size 9 to 14) (size 15 to 20)
#    0.000    2.833    0.000    3.500    1.167    4.333 
#    0.000    5.000    0.000    1.500    0.000    4.667 
#    0.000    0.000    0.000    0.000    0.000    0.000 
#
# Total GULP energy -267366.565179 kJ/mol
# GULP energy per Si atom -5570.136775 kJ/mol
# Density = 1.926520 g / cm^3
# Si number density = 19.309148 Si / 1000 Ang^3
#
#
#
# Elastic Constant Matrix: (Units=GPa)
#
#
# Indices 1 2 3 4 5 6 
#
# 1 18.0904 35.3986 20.7212 0.0000 0.0000 0.0000
# 2 35.3986 221.2247 97.9309 0.0000 0.0000 0.0000
# 3 20.7212 97.9309 91.0513 0.0000 0.0000 0.0000
# 4 0.0000 0.0000 0.0000 20.2209 0.0000 0.0000
# 5 0.0000 0.0000 0.0000 0.0000 10.1018 0.0000
# 6 0.0000 0.0000 0.0000 0.0000 0.0000 21.8746
#
#
#
# Elastic Compliance Matrix: (Units=1/GPa)
#
#
# Indices 1 2 3 4 5 6 
#
# 1 0.084095 -0.009514 -0.008905 0.000000 0.000000 0.000000
# 2 -0.009514 0.009705 -0.008273 0.000000 0.000000 0.000000
# 3 -0.008905 -0.008273 0.021907 0.000000 0.000000 0.000000
# 4 0.000000 0.000000 0.000000 0.049454 0.000000 0.000000
# 5 0.000000 0.000000 0.000000 0.000000 0.098992 0.000000
# 6 0.000000 0.000000 0.000000 0.000000 0.000000 0.045715
#
#
# Mechanical properties :
#
#
# Convention : Reuss Voigt Hill
#
# Bulk Modulus (GPa) = 16.04551 70.94085 43.49318
# Shear Modulus (GPa) = 13.01993 22.19385 17.60689
#
# Velocity S-wave (km/s) = 2.59952 3.39395 3.02295
# Velocity P-wave (km/s) = 4.16388 7.22342 5.89558
#
# Compressibility (1/GPa) = 0.06232274
#
# Stress axis : x y z
#
# Youngs Moduli (GPa) = 11.89137 103.04051 45.64650
#
# Poissons Ratio (x) = 0.98034 0.40648
# Poissons Ratio (y) = 0.11314 0.37763
# Poissons Ratio (z) = 0.10589 0.85246
#
# Static dielectric constant tensor:
#      x y z
#    x 1.728130 0.000000 0.000000 
#    y 0.000000 1.705310 0.000000 
#    z 0.000000 0.000000 1.669660 
# 
# From -- ./inp_files/2666.got.cif
#   From: 2010.05.17/outbox.cif.g08.bks.cpg/sg47_2_cif.got.tgz:2666.got - 2010.06.03 20:15:42.
