data_PCOD9383507
_publ_section_title
;
Structure prediction by ZEFSAII (Michael W. Deem and Ramdas Pophale) SiO2 
 PCOD9383507
Probable space group: P M M M
;
_chemical_formula_sum "Si O2"
_cell_formula_units_Z 40
_cell_length_a 29.583247
_cell_length_b 9.108712
_cell_length_c 7.981971
_cell_angle_alpha 90.000000
_cell_angle_beta 90.000000
_cell_angle_gamma 90.000000
_cell_volume 2150.864026
_symmetry_space_group_name_H-M "P M M M"
_symmetry_group_IT_number 47
_symmetry_cell_setting 'orthorhombic'
loop_
_space_group_symop_operation_xyz
x,y,z
-x,-y,z
x,-y,-z
-x,y,-z
-x,-y,-z
x,y,-z
-x,y,z
x,-y,z
loop_
_atom_site_type_symbol
_atom_site_label
_atom_site_fract_x
_atom_site_fract_y
_atom_site_fract_z
Si Si1 0.049491 0.327184 0.298307
Si Si2 0.763973 0.821291 0.684599
Si Si3 0.859927 0.831664 0.803082
Si Si4 0.604782 0.675491 0.000000
Si Si5 0.702855 0.821607 0.000000
Si Si6 0.554196 0.173810 0.692636
O O1 0.051077 0.312661 0.500000
O O2 0.051155 0.500000 0.259037
O O3 0.093368 0.250592 0.225725
O O4 0.000000 0.270751 0.242125
O O5 0.747837 0.778298 0.500000
O O6 0.815536 0.769601 0.712399
O O7 0.731469 0.778025 0.835689
O O8 0.766090 0.000000 0.690921
O O9 0.866267 0.000000 0.746942
O O10 0.848997 0.832689 0.000000
O O11 0.654486 0.745983 0.000000
O O12 0.579014 0.734159 0.834683
O O13 0.606488 0.500000 0.000000
O O14 0.698002 0.000000 0.000000
O O15 0.566595 0.211793 0.500000
O O16 0.500000 0.191519 0.708074
O O17 0.564015 0.000000 0.716297
#
# Coordination Sequence:
#
# PCOD9383507 Si02
#       6
#     8   8   8   4   4   8
#     4   9  19  35  51  69  98 136 176 214 254 311
#     4   9  17  32  56  81 103 131 172 227 284 328
#     4  10  19  32  52  79 107 131 164 216 271 325
#     4  12  25  37  54  85 126 165 195 234 295 355
#     4  10  20  37  57  78 105 142 192 239 275 330
#     4   9  19  38  64  91 118 154 204 253 290 333
#
# _framework density 18.597176000000001
#
# number of rings (size 3 to 8) (size 9 to 14) (size 15 to 20)
#    0.000    2.400    1.000    3.000    0.000    5.200 
#    0.000    7.000    0.000    1.200    0.000    0.000 
#    0.000    0.000    0.000    0.000    0.000    0.000 
#
# Total GULP energy -223152.253821 kJ/mol
# GULP energy per Si atom -5578.806346 kJ/mol
# Density = 1.855485 g / cm^3
# Si number density = 18.597176 Si / 1000 Ang^3
#
#
#
# Elastic Constant Matrix: (Units=GPa)
#
#
# Indices 1 2 3 4 5 6 
#
# 1 111.4652 47.9237 78.7729 0.0000 0.0000 0.0000
# 2 47.9237 43.4197 47.6912 0.0000 0.0000 0.0000
# 3 78.7729 47.6912 131.7145 0.0000 0.0000 0.0000
# 4 0.0000 0.0000 0.0000 11.4332 0.0000 0.0000
# 5 0.0000 0.0000 0.0000 0.0000 -24.5503 0.0000
# 6 0.0000 0.0000 0.0000 0.0000 0.0000 -678.3509
#
#
#
# Elastic Compliance Matrix: (Units=1/GPa)
#
#
# Indices 1 2 3 4 5 6 
#
# 1 0.020016 -0.014850 -0.006594 0.000000 0.000000 0.000000
# 2 -0.014850 0.049255 -0.008953 0.000000 0.000000 0.000000
# 3 -0.006594 -0.008953 0.014778 0.000000 0.000000 0.000000
# 4 0.000000 0.000000 0.000000 0.087464 0.000000 0.000000
# 5 0.000000 0.000000 0.000000 0.000000 -0.040733 0.000000
# 6 0.000000 0.000000 0.000000 0.000000 0.000000 -0.001474
#
#
# Mechanical properties :
#
#
# Convention : Reuss Voigt Hill
#
# Bulk Modulus (GPa) = 43.00176 70.59723 56.79949
# Shear Modulus (GPa) = 25.27149 -130.81283 -52.77067
#
# Velocity S-wave (km/s) = 3.69031 -8.39600 -5.33266
# Velocity P-wave (km/s) = 6.42890 7.47976 2.70333
#
# Compressibility (1/GPa) = 0.02325486
#
# Stress axis : x y z
#
# Youngs Moduli (GPa) = 49.96058 20.30240 67.67012
#
# Poissons Ratio (x) = 0.30148 0.44621
# Poissons Ratio (y) = 0.74189 0.60588
# Poissons Ratio (z) = 0.32943 0.18178
#
# Static dielectric constant tensor:
#      x y z
#    x 1.642170 0.000000 0.000000 
#    y 0.000000 1.620510 0.000000 
#    z 0.000000 0.000000 1.658350 
# 
# From -- ./inp_files/1892.got.cif
#   From: 2010.05.17/outbox.cif.g08.bks.cpg/sg47_1_cif.got.tgz:1892.got - 2010.06.03 20:15:42.
