data_PCOD9383545
_publ_section_title
;
Structure prediction by ZEFSAII (Michael W. Deem and Ramdas Pophale) SiO2 
 PCOD9383545
Probable space group: P M M M
;
_chemical_formula_sum "Si O2"
_cell_formula_units_Z 48
_cell_length_a 33.752869
_cell_length_b 7.625739
_cell_length_c 9.281383
_cell_angle_alpha 90.000000
_cell_angle_beta 90.000000
_cell_angle_gamma 90.000000
_cell_volume 2388.940456
_symmetry_space_group_name_H-M "P M M M"
_symmetry_group_IT_number 47
_symmetry_cell_setting 'orthorhombic'
loop_
_space_group_symop_operation_xyz
x,y,z
-x,-y,z
x,-y,-z
-x,y,-z
-x,-y,-z
x,y,-z
-x,y,z
x,-y,z
loop_
_atom_site_type_symbol
_atom_site_label
_atom_site_fract_x
_atom_site_fract_y
_atom_site_fract_z
Si Si1 0.577939 0.210620 0.163892
Si Si2 0.185558 0.287425 0.665998
Si Si3 0.500000 0.214838 0.666234
Si Si4 0.735648 0.285400 0.166025
Si Si5 0.342157 0.710684 0.663822
Si Si6 0.045054 0.500000 0.824767
Si Si7 0.894596 0.799494 0.830998
O O1 0.539423 0.273716 0.250646
O O2 0.618050 0.249984 0.249058
O O3 0.574448 0.000000 0.156245
O O4 0.579250 0.277813 0.000000
O O5 0.187656 0.230904 0.500000
O O6 0.185254 0.500000 0.667863
O O7 0.224282 0.229679 0.753966
O O8 0.145373 0.226455 0.741469
O O9 0.500000 0.270460 0.500000
O O10 0.500000 0.000000 0.666227
O O11 0.735426 0.500000 0.166430
O O12 0.696679 0.225770 0.251536
O O13 0.734876 0.229405 0.000000
O O14 0.344070 0.777710 0.500000
O O15 0.338695 0.500000 0.656190
O O16 0.070946 0.331582 0.782401
O O17 0.000000 0.500000 0.771462
O O18 0.043159 0.500000 0.000000
O O19 0.907769 0.000000 0.820619
O O20 0.885848 0.761185 0.000000
#
# Coordination Sequence:
#
# PCOD9383545 Si02
#       7
#     8   8   4   8   8   4   8
#     4  10  20  34  53  76 101 131 169 214 264 319
#     4  10  19  32  53  79 107 142 183 226 273 326
#     4   9  17  31  52  75  98 127 166 212 264 323
#     4   9  17  30  51  77 105 140 180 220 264 317
#     4  10  20  34  52  76 107 141 177 217 263 318
#     4   9  18  34  57  85 117 151 189 237 289 340
#     4  10  20  34  55  83 114 149 189 234 285 339
#
# _framework density 20.092590000000001
#
# number of rings (size 3 to 8) (size 9 to 14) (size 15 to 20)
#    0.000    2.333    0.833    2.250    0.000    6.333 
#    0.000    2.917    0.000    8.500    0.000    1.167 
#    0.000    0.000    0.000    0.000    0.000    0.000 
#
# Total GULP energy -268171.775279 kJ/mol
# GULP energy per Si atom -5586.911985 kJ/mol
# Density = 2.004686 g / cm^3
# Si number density = 20.092590 Si / 1000 Ang^3
#
#
#
# Elastic Constant Matrix: (Units=GPa)
#
#
# Indices 1 2 3 4 5 6 
#
# 1 222.8409 35.8881 116.7872 0.0000 0.0000 0.0000
# 2 35.8881 52.9865 32.1910 0.0000 0.0000 0.0000
# 3 116.7872 32.1910 181.0529 0.0000 0.0000 0.0000
# 4 0.0000 0.0000 0.0000 12.8083 0.0000 0.0000
# 5 0.0000 0.0000 0.0000 0.0000 360.7583 0.0000
# 6 0.0000 0.0000 0.0000 0.0000 0.0000 31.9929
#
#
#
# Elastic Compliance Matrix: (Units=1/GPa)
#
#
# Indices 1 2 3 4 5 6 
#
# 1 0.007009 -0.002243 -0.004122 0.000000 0.000000 0.000000
# 2 -0.002243 0.021876 -0.002443 0.000000 0.000000 0.000000
# 3 -0.004122 -0.002443 0.008617 0.000000 0.000000 0.000000
# 4 0.000000 0.000000 0.000000 0.078074 0.000000 0.000000
# 5 0.000000 0.000000 0.000000 0.000000 0.002772 0.000000
# 6 0.000000 0.000000 0.000000 0.000000 0.000000 0.031257
#
#
# Mechanical properties :
#
#
# Convention : Reuss Voigt Hill
#
# Bulk Modulus (GPa) = 50.28751 91.84588 71.06669
# Shear Modulus (GPa) = 28.76042 99.24615 64.00329
#
# Velocity S-wave (km/s) = 3.78748 7.03574 5.65007
# Velocity P-wave (km/s) = 6.64898 10.57415 8.83237
#
# Compressibility (1/GPa) = 0.01988565
#
# Stress axis : x y z
#
# Youngs Moduli (GPa) = 142.66863 45.71241 116.05284
#
# Poissons Ratio (x) = 0.10253 0.47843
# Poissons Ratio (y) = 0.31999 0.28349
# Poissons Ratio (z) = 0.58815 0.11166
#
# Static dielectric constant tensor:
#      x y z
#    x 1.652740 0.000000 0.000000 
#    y 0.000000 1.758900 0.000000 
#    z 0.000000 0.000000 1.689160 
# 
# From -- ./inp_files/13907.got.cif
#   From: 2010.05.17/outbox.cif.g08.bks.cpg/sg47_7_cif.got.tgz:13907.got - 2010.06.03 20:15:42.
