data_PCOD9383262
_publ_section_title
;
Structure prediction by ZEFSAII (Michael W. Deem and Ramdas Pophale) SiO2 
 PCOD9383262
Probable space group: P M M M
;
_chemical_formula_sum "Si O2"
_cell_formula_units_Z 56
_cell_length_a 7.702984
_cell_length_b 18.179992
_cell_length_c 19.606605
_cell_angle_alpha 90.000000
_cell_angle_beta 90.000000
_cell_angle_gamma 90.000000
_cell_volume 2745.712640
_symmetry_space_group_name_H-M "P M M M"
_symmetry_group_IT_number 47
_symmetry_cell_setting 'orthorhombic'
loop_
_space_group_symop_operation_xyz
x,y,z
-x,-y,z
x,-y,-z
-x,y,-z
-x,-y,-z
x,y,-z
-x,y,z
x,-y,z
loop_
_atom_site_type_symbol
_atom_site_label
_atom_site_fract_x
_atom_site_fract_y
_atom_site_fract_z
Si Si1 0.212236 0.500000 0.921085
Si Si2 0.212380 0.630947 0.820897
Si Si3 0.706961 0.716275 0.424011
Si Si4 0.793463 0.799763 0.813553
Si Si5 0.706756 0.147600 0.662491
Si Si6 0.793659 0.000000 0.579141
Si Si7 0.790576 0.419266 0.670780
Si Si8 0.212178 0.082815 0.078264
O O1 0.266475 0.573736 0.879879
O O2 0.000000 0.500000 0.920701
O O3 0.267821 0.500000 0.000000
O O4 0.272729 0.716002 0.821923
O O5 0.266019 0.598808 0.747638
O O6 0.000000 0.631775 0.822311
O O7 0.778415 0.710014 0.500000
O O8 0.500000 0.727268 0.429077
O O9 0.779053 0.786371 0.383967
O O10 0.735706 0.643809 0.380310
O O11 0.768924 0.836363 0.739289
O O12 0.723327 0.855403 0.870384
O O13 0.000000 0.794148 0.824026
O O14 0.500000 0.153701 0.666446
O O15 0.744937 0.071475 0.623876
O O16 0.724320 0.000000 0.500000
O O17 0.000000 0.000000 0.573247
O O18 0.728881 0.500000 0.650366
O O19 0.000000 0.419844 0.671894
O O20 0.000000 0.083333 0.079693
O O21 0.265803 0.000000 0.097746
O O22 0.263410 0.096115 0.000000
#
# Coordination Sequence:
#
# PCOD9383262 Si02
#       8
#     4   8   8   8   8   4   8   8
#     4   9  16  26  44  74 112 151 186 226 283 341
#     4   9  16  28  45  70 105 141 177 223 273 320
#     4  10  22  39  57  78 107 142 180 224 273 326
#     4  10  19  31  53  81 108 141 186 235 278 326
#     4  11  23  39  59  84 115 149 186 228 280 337
#     4  11  25  43  63  87 114 147 188 231 279 338
#     4  10  19  33  54  77 107 143 180 222 274 329
#     4   8  15  28  46  72 106 139 171 215 272 324
#
# _framework density 20.395434999999999
#
# number of rings (size 3 to 8) (size 9 to 14) (size 15 to 20)
#    0.000    2.286    2.143    1.500    1.000    3.143 
#    0.000    4.286    0.000    0.429    0.000    1.000 
#    0.000    2.857    0.000    0.000    0.000    0.000 
#
# Total GULP energy -312507.679569 kJ/mol
# GULP energy per Si atom -5580.494278 kJ/mol
# Density = 2.034901 g / cm^3
# Si number density = 20.395435 Si / 1000 Ang^3
#
#
#
# Elastic Constant Matrix: (Units=GPa)
#
#
# Indices 1 2 3 4 5 6 
#
# 1 29.2190 -7.0221 -8.9509 0.0000 0.0000 0.0000
# 2 -7.0221 201.3442 103.8098 0.0000 0.0000 0.0000
# 3 -8.9509 103.8098 147.7087 0.0000 0.0000 0.0000
# 4 0.0000 0.0000 0.0000 64.8648 0.0000 0.0000
# 5 0.0000 0.0000 0.0000 0.0000 -45.6525 0.0000
# 6 0.0000 0.0000 0.0000 0.0000 0.0000 10.4954
#
#
#
# Elastic Compliance Matrix: (Units=1/GPa)
#
#
# Indices 1 2 3 4 5 6 
#
# 1 0.034877 0.000199 0.001974 0.000000 0.000000 0.000000
# 2 0.000199 0.007790 -0.005463 0.000000 0.000000 0.000000
# 3 0.001974 -0.005463 0.010729 0.000000 0.000000 0.000000
# 4 0.000000 0.000000 0.000000 0.015417 0.000000 0.000000
# 5 0.000000 0.000000 0.000000 0.000000 -0.021905 0.000000
# 6 0.000000 0.000000 0.000000 0.000000 0.000000 0.095280
#
#
# Mechanical properties :
#
#
# Convention : Reuss Voigt Hill
#
# Bulk Modulus (GPa) = 21.36062 61.54948 41.45505
# Shear Modulus (GPa) = 30.41854 25.30388 27.86121
#
# Velocity S-wave (km/s) = 3.86610 3.52613 3.70002
# Velocity P-wave (km/s) = 5.51589 6.84264 6.21477
#
# Compressibility (1/GPa) = 0.04681511
#
# Stress axis : x y z
#
# Youngs Moduli (GPa) = 28.67247 128.36795 93.20538
#
# Poissons Ratio (x) = -0.02551 -0.18397
# Poissons Ratio (y) = -0.00570 0.50917
# Poissons Ratio (z) = -0.05659 0.70126
#
# Static dielectric constant tensor:
#      x y z
#    x 1.787930 0.000000 0.000000 
#    y 0.000000 1.718390 0.000000 
#    z 0.000000 0.000000 1.700500 
# 
# From -- ./inp_files/29751.got.cif
#   From: 2010.05.17/outbox.cif.g08.bks.cpg/sg47_15_cif.got.tgz:29751.got - 2010.06.03 20:15:42.
