data_PCOD9383512
_publ_section_title
;
Structure prediction by ZEFSAII (Michael W. Deem and Ramdas Pophale) SiO2 
 PCOD9383512
Probable space group: P M M M
;
_chemical_formula_sum "Si O2"
_cell_formula_units_Z 40
_cell_length_a 27.109027
_cell_length_b 11.107806
_cell_length_c 7.561913
_cell_angle_alpha 90.000000
_cell_angle_beta 90.000000
_cell_angle_gamma 90.000000
_cell_volume 2277.056951
_symmetry_space_group_name_H-M "P M M M"
_symmetry_group_IT_number 47
_symmetry_cell_setting 'orthorhombic'
loop_
_space_group_symop_operation_xyz
x,y,z
-x,-y,z
x,-y,-z
-x,y,-z
-x,-y,-z
x,y,-z
-x,y,z
x,-y,z
loop_
_atom_site_type_symbol
_atom_site_label
_atom_site_fract_x
_atom_site_fract_y
_atom_site_fract_z
Si Si1 0.365652 0.852739 0.500000
Si Si2 0.201452 0.641704 0.205263
Si Si3 0.900186 0.745126 0.205396
Si Si4 0.283912 0.642570 0.500000
Si Si5 0.057876 0.000000 0.713287
Si Si6 0.445046 0.145500 0.201565
Si Si7 0.000000 0.358219 0.795814
O O1 0.322562 0.752990 0.500000
O O2 0.400664 0.826445 0.668270
O O3 0.353480 0.000000 0.500000
O O4 0.188547 0.500000 0.208718
O O5 0.153439 0.711919 0.276065
O O6 0.248634 0.657396 0.329086
O O7 0.211431 0.675259 0.000000
O O8 0.948734 0.683789 0.287266
O O9 0.913589 0.884122 0.217910
O O10 0.897594 0.704477 0.000000
O O11 0.301417 0.500000 0.500000
O O12 0.058389 0.000000 0.500000
O O13 0.000000 0.000000 0.768149
O O14 0.500000 0.186051 0.259459
O O15 0.447061 0.000000 0.198529
O O16 0.437046 0.186542 0.000000
O O17 0.000000 0.500000 0.803361
O O18 0.000000 0.309926 0.000000
#
# Coordination Sequence:
#
# PCOD9383512 Si02
#       7
#     4   8   8   4   4   8   4
#     4  10  19  32  52  80 109 141 182 227 267 305
#     4   9  19  37  58  77  97 126 170 220 264 310
#     4  10  19  33  54  74  94 123 159 199 248 307
#     4  10  22  39  57  76 103 142 183 221 270 319
#     4  11  23  35  47  69 105 137 157 185 237 313
#     4   8  14  26  48  80 115 148 181 219 263 309
#     4   9  16  27  49  78  98 113 144 195 250 304
#
# _framework density 17.566534999999998
#
# number of rings (size 3 to 8) (size 9 to 14) (size 15 to 20)
#    0.000    2.600    1.000    1.800    1.400    4.800 
#    1.800    0.000    0.000    1.800    0.000    1.400 
#    0.000    0.000    0.000    0.000    0.000    0.000 
#
# Total GULP energy -222732.358876 kJ/mol
# GULP energy per Si atom -5568.308972 kJ/mol
# Density = 1.752655 g / cm^3
# Si number density = 17.566535 Si / 1000 Ang^3
#
#
#
# Elastic Constant Matrix: (Units=GPa)
#
#
# Indices 1 2 3 4 5 6 
#
# 1 133.6574 73.8141 50.6294 0.0000 0.0000 0.0000
# 2 73.8141 80.9060 23.4217 0.0000 0.0000 0.0000
# 3 50.6294 23.4217 76.3278 0.0000 0.0000 0.0000
# 4 0.0000 0.0000 0.0000 -2.5440 0.0000 0.0000
# 5 0.0000 0.0000 0.0000 0.0000 4.3384 0.0000
# 6 0.0000 0.0000 0.0000 0.0000 0.0000 -0.4694
#
#
#
# Elastic Compliance Matrix: (Units=1/GPa)
#
#
# Indices 1 2 3 4 5 6 
#
# 1 0.018518 -0.014639 -0.007791 0.000000 0.000000 0.000000
# 2 -0.014639 0.025138 0.001997 0.000000 0.000000 0.000000
# 3 -0.007791 0.001997 0.017657 0.000000 0.000000 0.000000
# 4 0.000000 0.000000 0.000000 -0.393076 0.000000 0.000000
# 5 0.000000 0.000000 0.000000 0.000000 0.230499 0.000000
# 6 0.000000 0.000000 0.000000 0.000000 0.000000 -2.130566
#
#
# Mechanical properties :
#
#
# Convention : Reuss Voigt Hill
#
# Bulk Modulus (GPa) = 48.91107 65.18018 57.04563
# Shear Modulus (GPa) = -2.28922 9.80007 3.75542
#
# Velocity S-wave (km/s) = -1.14280 2.36452 1.46372
# Velocity P-wave (km/s) = 5.11492 6.68131 5.94989
#
# Compressibility (1/GPa) = 0.02044527
#
# Stress axis : x y z
#
# Youngs Moduli (GPa) = 54.00261 39.78062 56.63611
#
# Poissons Ratio (x) = 0.58235 0.44125
# Poissons Ratio (y) = 0.79055 -0.11308
# Poissons Ratio (z) = 0.42073 -0.07942
#
# Static dielectric constant tensor:
#      x y z
#    x 1.605450 0.000000 0.000000 
#    y 0.000000 1.539600 0.000000 
#    z 0.000000 0.000000 1.660100 
# 
# From -- ./inp_files/10745.got.cif
#   From: 2010.05.17/outbox.cif.g08.bks.cpg/sg47_6_cif.got.tgz:10745.got - 2010.06.03 20:15:42.
