data_PCOD9383768
_publ_section_title
;
Structure prediction by ZEFSAII (Michael W. Deem and Ramdas Pophale) SiO2 
 PCOD9383768
Probable space group: P M M M
;
_chemical_formula_sum "Si O2"
_cell_formula_units_Z 52
_cell_length_a 8.325216
_cell_length_b 12.464191
_cell_length_c 26.231604
_cell_angle_alpha 90.000000
_cell_angle_beta 90.000000
_cell_angle_gamma 90.000000
_cell_volume 2721.977012
_symmetry_space_group_name_H-M "P M M M"
_symmetry_group_IT_number 47
_symmetry_cell_setting 'orthorhombic'
loop_
_space_group_symop_operation_xyz
x,y,z
-x,-y,z
x,-y,-z
-x,y,-z
-x,-y,-z
x,y,-z
-x,y,z
x,-y,z
loop_
_atom_site_type_symbol
_atom_site_label
_atom_site_fract_x
_atom_site_fract_y
_atom_site_fract_z
Si Si1 0.690460 0.717480 0.835599
Si Si2 0.805935 0.262418 0.653045
Si Si3 0.189400 0.768495 0.941847
Si Si4 0.195809 0.875912 0.443151
Si Si5 0.680709 0.000000 0.938918
Si Si6 0.806725 0.124245 0.248288
Si Si7 0.691946 0.500000 0.666818
Si Si8 0.304242 0.500000 0.215549
O O1 0.500000 0.724125 0.828816
O O2 0.727472 0.708907 0.895456
O O3 0.761851 0.818507 0.804906
O O4 0.753950 0.608884 0.810001
O O5 0.749454 0.195780 0.603815
O O6 0.749665 0.201274 0.704918
O O7 0.754082 0.385746 0.647085
O O8 0.000000 0.259926 0.654471
O O9 0.000000 0.748354 0.941413
O O10 0.223905 0.892470 0.927919
O O11 0.248420 0.749355 0.000000
O O12 0.246712 0.841216 0.500000
O O13 0.000000 0.873992 0.442745
O O14 0.243074 0.000000 0.436076
O O15 0.500000 0.000000 0.916711
O O16 0.663878 0.000000 0.000000
O O17 0.000000 0.120559 0.251617
O O18 0.749566 0.000000 0.251875
O O19 0.500000 0.500000 0.663125
O O20 0.741356 0.500000 0.725932
O O21 0.500000 0.500000 0.212331
#
# Coordination Sequence:
#
# PCOD9383768 Si02
#       8
#     8   8   8   8   4   8   4   4
#     4  11  22  38  59  80 105 139 183 227 269 324
#     4  10  19  33  55  83 110 142 187 231 272 325
#     4  10  21  37  55  78 109 142 175 217 272 328
#     4   8  14  27  51  83 116 148 183 228 280 327
#     4   9  17  31  53  79 105 139 181 217 254 311
#     4  10  21  35  52  79 114 144 171 215 277 334
#     4  11  21  37  56  75 106 146 187 229 275 324
#     4   9  20  39  58  77 102 138 183 229 272 315
#
# _framework density 19.103763000000001
#
# number of rings (size 3 to 8) (size 9 to 14) (size 15 to 20)
#    0.000    2.231    1.538    2.308    1.077    4.000 
#    0.000    2.308    0.000    6.462    0.000    1.077 
#    0.000    0.000    0.000    0.000    0.000    0.000 
#
# Total GULP energy -289908.827340 kJ/mol
# GULP energy per Si atom -5575.169757 kJ/mol
# Density = 1.906028 g / cm^3
# Si number density = 19.103763 Si / 1000 Ang^3
#
#
#
# Elastic Constant Matrix: (Units=GPa)
#
#
# Indices 1 2 3 4 5 6 
#
# 1 15.4574 10.9949 7.8150 0.0000 0.0000 0.0000
# 2 10.9949 109.1536 60.5667 0.0000 0.0000 0.0000
# 3 7.8150 60.5667 127.5185 0.0000 0.0000 0.0000
# 4 0.0000 0.0000 0.0000 74.6435 0.0000 0.0000
# 5 0.0000 0.0000 0.0000 0.0000 10.3738 0.0000
# 6 0.0000 0.0000 0.0000 0.0000 0.0000 23.0584
#
#
#
# Elastic Compliance Matrix: (Units=1/GPa)
#
#
# Indices 1 2 3 4 5 6 
#
# 1 0.069839 -0.006327 -0.001275 0.000000 0.000000 0.000000
# 2 -0.006327 0.013013 -0.005793 0.000000 0.000000 0.000000
# 3 -0.001275 -0.005793 0.010672 0.000000 0.000000 0.000000
# 4 0.000000 0.000000 0.000000 0.013397 0.000000 0.000000
# 5 0.000000 0.000000 0.000000 0.000000 0.096396 0.000000
# 6 0.000000 0.000000 0.000000 0.000000 0.000000 0.043368
#
#
# Mechanical properties :
#
#
# Convention : Reuss Voigt Hill
#
# Bulk Modulus (GPa) = 14.98499 45.65363 30.31931
# Shear Modulus (GPa) = 16.90785 33.13200 25.01992
#
# Velocity S-wave (km/s) = 2.97821 4.16903 3.62288
# Velocity P-wave (km/s) = 4.43704 6.86469 5.77977
#
# Compressibility (1/GPa) = 0.06673343
#
# Stress axis : x y z
#
# Youngs Moduli (GPa) = 14.31861 76.84518 93.70665
#
# Poissons Ratio (x) = 0.48624 0.11945
# Poissons Ratio (y) = 0.09060 0.54284
# Poissons Ratio (z) = 0.01825 0.44517
#
# Static dielectric constant tensor:
#      x y z
#    x 1.668230 0.000000 0.000000 
#    y 0.000000 1.676550 0.000000 
#    z 0.000000 0.000000 1.671490 
# 
# From -- ./inp_files/33332.got.cif
#   From: 2010.05.17/outbox.cif.g08.bks.cpg/sg47_17_cif.got.tgz:33332.got - 2010.06.03 20:15:42.
