data_PCOD9383456
_publ_section_title
;
Structure prediction by ZEFSAII (Michael W. Deem and Ramdas Pophale) SiO2 
 PCOD9383456
Probable space group: P M M M
;
_chemical_formula_sum "Si O2"
_cell_formula_units_Z 64
_cell_length_a 8.538992
_cell_length_b 19.136225
_cell_length_c 20.927553
_cell_angle_alpha 90.000000
_cell_angle_beta 90.000000
_cell_angle_gamma 90.000000
_cell_volume 3419.647381
_symmetry_space_group_name_H-M "P M M M"
_symmetry_group_IT_number 47
_symmetry_cell_setting 'orthorhombic'
loop_
_space_group_symop_operation_xyz
x,y,z
-x,-y,z
x,-y,-z
-x,y,-z
-x,-y,-z
x,y,-z
-x,y,z
x,-y,z
loop_
_atom_site_type_symbol
_atom_site_label
_atom_site_fract_x
_atom_site_fract_y
_atom_site_fract_z
Si Si1 0.814168 0.330560 0.690897
Si Si2 0.308847 0.080015 0.188971
Si Si3 0.689235 0.823218 0.073064
Si Si4 0.812475 0.668427 0.073527
Si Si5 0.310243 0.173525 0.690208
Si Si6 0.687622 0.419673 0.809699
Si Si7 0.689077 0.581069 0.573360
Si Si8 0.690845 0.079976 0.427535
O O1 0.749929 0.252001 0.694231
O O2 0.750953 0.375041 0.750543
O O3 0.759944 0.368079 0.625748
O O4 0.000000 0.329052 0.693676
O O5 0.500000 0.078468 0.189375
O O6 0.260413 0.119055 0.124111
O O7 0.260733 0.126674 0.249376
O O8 0.255195 0.000000 0.192959
O O9 0.500000 0.818483 0.075444
O O10 0.756755 0.747046 0.089178
O O11 0.734290 0.840012 0.000000
O O12 0.742244 0.615277 0.124394
O O13 0.000000 0.665699 0.076546
O O14 0.763868 0.654100 0.000000
O O15 0.500000 0.175444 0.690056
O O16 0.257071 0.134500 0.625658
O O17 0.500000 0.418620 0.807099
O O18 0.741075 0.500000 0.805331
O O19 0.733885 0.597497 0.500000
O O20 0.500000 0.585063 0.577010
O O21 0.732526 0.500000 0.586084
O O22 0.740724 0.096296 0.500000
O O23 0.500000 0.080529 0.427232
O O24 0.737365 0.000000 0.412388
#
# Coordination Sequence:
#
# PCOD9383456 Si02
#       8
#     8   8   8   8   8   8   8   8
#     4  12  25  38  55  81 114 149 184 226 274 325
#     4   9  17  29  48  75 102 129 170 226 278 317
#     4   9  17  30  50  75 104 140 179 218 262 315
#     4  10  21  37  58  84 115 149 182 220 268 323
#     4  10  19  32  52  75 101 137 179 222 268 319
#     4  11  24  41  61  83 108 141 183 230 276 325
#     4   9  19  38  63  87 111 142 181 224 270 323
#     4   8  14  26  47  76 105 132 170 222 272 314
#
# _framework density 18.715381000000001
#
# number of rings (size 3 to 8) (size 9 to 14) (size 15 to 20)
#    0.000    2.250    0.000    4.125    0.000    7.250 
#    0.000    4.375    0.000    2.625    0.000    2.625 
#    0.000    0.000    0.000    0.000    0.000    0.000 
#
# Total GULP energy -357361.767375 kJ/mol
# GULP energy per Si atom -5583.777615 kJ/mol
# Density = 1.867278 g / cm^3
# Si number density = 18.715381 Si / 1000 Ang^3
#
#
#
# Elastic Constant Matrix: (Units=GPa)
#
#
# Indices 1 2 3 4 5 6 
#
# 1 25.8658 36.9146 33.2902 0.0000 0.0000 0.0000
# 2 36.9146 195.8371 135.6430 0.0000 0.0000 0.0000
# 3 33.2902 135.6430 147.4802 0.0000 0.0000 0.0000
# 4 0.0000 0.0000 0.0000 42.5721 0.0000 0.0000
# 5 0.0000 0.0000 0.0000 0.0000 -12.6867 0.0000
# 6 0.0000 0.0000 0.0000 0.0000 0.0000 -23.8097
#
#
#
# Elastic Compliance Matrix: (Units=1/GPa)
#
#
# Indices 1 2 3 4 5 6 
#
# 1 0.056200 -0.004978 -0.008107 0.000000 0.000000 0.000000
# 2 -0.004978 0.014509 -0.012221 0.000000 0.000000 0.000000
# 3 -0.008107 -0.012221 0.019851 0.000000 0.000000 0.000000
# 4 0.000000 0.000000 0.000000 0.023490 0.000000 0.000000
# 5 0.000000 0.000000 0.000000 0.000000 -0.078823 0.000000
# 6 0.000000 0.000000 0.000000 0.000000 0.000000 -0.042000
#
#
# Mechanical properties :
#
#
# Convention : Reuss Voigt Hill
#
# Bulk Modulus (GPa) = 25.03304 86.76428 55.89866
# Shear Modulus (GPa) = 87.47975 12.10417 49.79196
#
# Velocity S-wave (km/s) = 6.84424 2.54589 5.16358
# Velocity P-wave (km/s) = 8.70993 7.42311 8.09214
#
# Compressibility (1/GPa) = 0.03994721
#
# Stress axis : x y z
#
# Youngs Moduli (GPa) = 17.79357 68.92091 50.37579
#
# Poissons Ratio (x) = 0.34310 0.40841
# Poissons Ratio (y) = 0.08858 0.61565
# Poissons Ratio (z) = 0.14426 0.84229
#
# Static dielectric constant tensor:
#      x y z
#    x 1.630090 0.000000 0.000000 
#    y 0.000000 1.618110 0.000000 
#    z 0.000000 0.000000 1.642680 
# 
# From -- ./inp_files/29969.got.cif
#   From: 2010.05.17/outbox.cif.g08.bks.cpg/sg47_15_cif.got.tgz:29969.got - 2010.06.03 20:15:42.
