data_PCOD9383657
_publ_section_title
;
Structure prediction by ZEFSAII (Michael W. Deem and Ramdas Pophale) SiO2 
 PCOD9383657
Probable space group: P M M M
;
_chemical_formula_sum "Si O2"
_cell_formula_units_Z 48
_cell_length_a 15.739037
_cell_length_b 8.748049
_cell_length_c 18.061732
_cell_angle_alpha 90.000000
_cell_angle_beta 90.000000
_cell_angle_gamma 90.000000
_cell_volume 2486.845228
_symmetry_space_group_name_H-M "P M M M"
_symmetry_group_IT_number 47
_symmetry_cell_setting 'orthorhombic'
loop_
_space_group_symop_operation_xyz
x,y,z
-x,-y,z
x,-y,-z
-x,y,-z
-x,-y,-z
x,y,-z
-x,y,z
x,-y,z
loop_
_atom_site_type_symbol
_atom_site_label
_atom_site_fract_x
_atom_site_fract_y
_atom_site_fract_z
Si Si1 0.407464 0.683202 0.669901
Si Si2 0.599546 0.182102 0.913665
Si Si3 0.905628 0.819433 0.209003
Si Si4 0.095376 0.674478 0.367637
Si Si5 0.361906 0.319413 0.500000
Si Si6 0.810165 0.174140 0.500000
Si Si7 0.722702 0.318783 0.793548
O O1 0.500000 0.743819 0.695980
O O2 0.408088 0.500000 0.681899
O O3 0.403867 0.702123 0.580789
O O4 0.325593 0.738330 0.717641
O O5 0.500000 0.215234 0.901384
O O6 0.657991 0.275674 0.858541
O O7 0.612116 0.000000 0.901689
O O8 0.618314 0.213638 0.000000
O O9 0.904978 0.780130 0.296125
O O10 0.815232 0.748983 0.186075
O O11 0.000000 0.763263 0.182037
O O12 0.903283 0.000000 0.196096
O O13 0.116304 0.500000 0.346058
O O14 0.157253 0.737486 0.428526
O O15 0.000000 0.674245 0.399016
O O16 0.333352 0.500000 0.500000
O O17 0.289430 0.193312 0.500000
O O18 0.839571 0.000000 0.500000
O O19 0.733502 0.500000 0.786729
#
# Coordination Sequence:
#
# PCOD9383657 Si02
#       7
#     8   8   8   8   4   4   8
#     4   9  18  32  51  77 106 138 181 229 274 323
#     4   9  19  37  60  86 118 155 192 231 279 336
#     4  10  21  37  56  78 107 144 185 228 274 328
#     4  10  20  34  51  70  94 126 169 225 285 339
#     4  10  19  33  53  70  93 137 186 229 271 316
#     4  12  23  32  45  66  95 130 171 221 277 341
#     4  11  21  33  55  86 118 150 186 232 283 337
#
# _framework density 19.301562000000001
#
# number of rings (size 3 to 8) (size 9 to 14) (size 15 to 20)
#    0.000    2.000    0.000    4.750    0.000    6.667 
#    0.000    1.667    0.000    3.500    0.000    3.500 
#    0.000    0.000    0.000    0.000    0.000    0.000 
#
# Total GULP energy -267471.793496 kJ/mol
# GULP energy per Si atom -5572.329031 kJ/mol
# Density = 1.925763 g / cm^3
# Si number density = 19.301562 Si / 1000 Ang^3
#
#
#
# Elastic Constant Matrix: (Units=GPa)
#
#
# Indices 1 2 3 4 5 6 
#
# 1 106.5509 38.5336 32.3076 0.0000 0.0000 0.0000
# 2 38.5336 28.9194 15.1898 0.0000 0.0000 0.0000
# 3 32.3076 15.1898 45.9532 0.0000 0.0000 0.0000
# 4 0.0000 0.0000 0.0000 18.9333 0.0000 0.0000
# 5 0.0000 0.0000 0.0000 0.0000 24.3311 0.0000
# 6 0.0000 0.0000 0.0000 0.0000 0.0000 26.9787
#
#
#
# Elastic Compliance Matrix: (Units=1/GPa)
#
#
# Indices 1 2 3 4 5 6 
#
# 1 0.019466 -0.022688 -0.006186 0.000000 0.000000 0.000000
# 2 -0.022688 0.068287 -0.006621 0.000000 0.000000 0.000000
# 3 -0.006186 -0.006621 0.028299 0.000000 0.000000 0.000000
# 4 0.000000 0.000000 0.000000 0.052817 0.000000 0.000000
# 5 0.000000 0.000000 0.000000 0.000000 0.041100 0.000000
# 6 0.000000 0.000000 0.000000 0.000000 0.000000 0.037066
#
#
# Mechanical properties :
#
#
# Convention : Reuss Voigt Hill
#
# Bulk Modulus (GPa) = 22.19194 39.27617 30.73405
# Shear Modulus (GPa) = 15.01289 20.40813 17.71051
#
# Velocity S-wave (km/s) = 2.79195 3.25519 3.03243
# Velocity P-wave (km/s) = 4.68142 5.87548 5.31211
#
# Compressibility (1/GPa) = 0.04506141
#
# Stress axis : x y z
#
# Youngs Moduli (GPa) = 51.37166 14.64397 35.33686
#
# Poissons Ratio (x) = 0.33225 0.21860
# Poissons Ratio (y) = 1.16553 0.23397
# Poissons Ratio (z) = 0.31779 0.09696
#
# Static dielectric constant tensor:
#      x y z
#    x 1.746920 0.000000 0.000000 
#    y 0.000000 1.650390 0.000000 
#    z 0.000000 0.000000 1.637310 
# 
# From -- ./inp_files/24435.got.cif
#   From: 2010.05.17/outbox.cif.g08.bks.cpg/sg47_13_cif.got.tgz:24435.got - 2010.06.03 20:15:42.
