data_PCOD9383161
_publ_section_title
;
Structure prediction by ZEFSAII (Michael W. Deem and Ramdas Pophale) SiO2 
 PCOD9383161
Probable space group: P M M M
;
_chemical_formula_sum "Si O2"
_cell_formula_units_Z 64
_cell_length_a 23.652335
_cell_length_b 8.809848
_cell_length_c 16.136600
_cell_angle_alpha 90.000000
_cell_angle_beta 90.000000
_cell_angle_gamma 90.000000
_cell_volume 3362.439436
_symmetry_space_group_name_H-M "P M M M"
_symmetry_group_IT_number 47
_symmetry_cell_setting 'orthorhombic'
loop_
_space_group_symop_operation_xyz
x,y,z
-x,-y,z
x,-y,-z
-x,y,-z
-x,-y,-z
x,y,-z
-x,y,z
x,-y,z
loop_
_atom_site_type_symbol
_atom_site_label
_atom_site_fract_x
_atom_site_fract_y
_atom_site_fract_z
Si Si1 0.718310 0.333217 0.402336
Si Si2 0.349219 0.684473 0.093246
Si Si3 0.223349 0.319812 0.849683
Si Si4 0.061741 0.182780 0.738130
Si Si5 0.098798 0.319880 0.909936
Si Si6 0.181901 0.820308 0.681232
Si Si7 0.563283 0.682141 0.765236
Si Si8 0.397340 0.179617 0.596260
O O1 0.714042 0.348664 0.500000
O O2 0.709408 0.500000 0.363271
O O3 0.779312 0.268422 0.382228
O O4 0.667569 0.220464 0.380675
O O5 0.352664 0.500000 0.092797
O O6 0.283362 0.721208 0.110645
O O7 0.389731 0.736978 0.168389
O O8 0.364898 0.735881 0.000000
O O9 0.225690 0.500000 0.827858
O O10 0.166916 0.301183 0.904363
O O11 0.210796 0.220241 0.768967
O O12 0.071637 0.236984 0.832074
O O13 0.116937 0.233190 0.687294
O O14 0.000000 0.234699 0.709004
O O15 0.062626 0.000000 0.737122
O O16 0.087485 0.500000 0.902543
O O17 0.078899 0.267377 0.000000
O O18 0.183292 0.000000 0.666232
O O19 0.500000 0.716924 0.796068
O O20 0.569076 0.500000 0.759359
O O21 0.569242 0.745877 0.672046
O O22 0.408408 0.231547 0.500000
O O23 0.406066 0.000000 0.596733
#
# Coordination Sequence:
#
# PCOD9383161 Si02
#       8
#     8   8   8   8   8   8   8   8
#     4  10  20  34  54  80 108 133 156 189 240 302
#     4   9  17  30  50  74  99 132 176 222 263 304
#     4   9  16  28  48  71  95 126 165 209 259 310
#     4   9  19  34  48  64  90 127 170 210 247 289
#     4   9  17  28  43  66  94 121 155 205 260 308
#     4  10  19  31  50  74 100 131 166 206 249 294
#     4  10  21  35  52  77 108 142 180 221 264 309
#     4  10  21  37  58  83 109 137 170 210 257 310
#
# _framework density 19.033798999999998
#
# number of rings (size 3 to 8) (size 9 to 14) (size 15 to 20)
#    0.000    2.500    0.000    2.250    0.000    6.000 
#    0.000    3.750    0.000    2.625    0.000    3.500 
#    0.000    0.000    0.000    0.000    0.000    0.000 
#
# Total GULP energy -356649.066698 kJ/mol
# GULP energy per Si atom -5572.641667 kJ/mol
# Density = 1.899048 g / cm^3
# Si number density = 19.033799 Si / 1000 Ang^3
#
#
#
# Elastic Constant Matrix: (Units=GPa)
#
#
# Indices 1 2 3 4 5 6 
#
# 1 86.7449 7.8052 28.2411 0.0000 0.0000 0.0000
# 2 7.8052 8.4942 6.2634 0.0000 0.0000 0.0000
# 3 28.2411 6.2634 43.4904 0.0000 0.0000 0.0000
# 4 0.0000 0.0000 0.0000 10.9245 0.0000 0.0000
# 5 0.0000 0.0000 0.0000 0.0000 6.4676 0.0000
# 6 0.0000 0.0000 0.0000 0.0000 0.0000 16.6576
#
#
#
# Elastic Compliance Matrix: (Units=1/GPa)
#
#
# Indices 1 2 3 4 5 6 
#
# 1 0.015023 -0.007396 -0.008690 0.000000 0.000000 0.000000
# 2 -0.007396 0.135356 -0.014691 0.000000 0.000000 0.000000
# 3 -0.008690 -0.014691 0.030752 0.000000 0.000000 0.000000
# 4 0.000000 0.000000 0.000000 0.091537 0.000000 0.000000
# 5 0.000000 0.000000 0.000000 0.000000 0.154616 0.000000
# 6 0.000000 0.000000 0.000000 0.000000 0.000000 0.060033
#
#
# Mechanical properties :
#
#
# Convention : Reuss Voigt Hill
#
# Bulk Modulus (GPa) = 8.36281 24.81651 16.58966
# Shear Modulus (GPa) = 8.49285 13.23793 10.86539
#
# Velocity S-wave (km/s) = 2.11463 2.64009 2.39183
# Velocity P-wave (km/s) = 3.21954 4.72862 4.04508
#
# Compressibility (1/GPa) = 0.11957700
#
# Stress axis : x y z
#
# Youngs Moduli (GPa) = 66.56577 7.38792 32.51788
#
# Poissons Ratio (x) = 0.05464 0.28258
# Poissons Ratio (y) = 0.49234 0.47771
# Poissons Ratio (z) = 0.57846 0.10853
#
# Static dielectric constant tensor:
#      x y z
#    x 1.687370 0.000000 0.000000 
#    y 0.000000 1.654300 0.000000 
#    z 0.000000 0.000000 1.691100 
# 
# From -- ./inp_files/21936.got.cif
#   From: 2010.05.17/outbox.cif.g08.bks.cpg/sg47_11_cif.got.tgz:21936.got - 2010.06.03 20:15:42.
