data_PCOD9383139
_publ_section_title
;
Structure prediction by ZEFSAII (Michael W. Deem and Ramdas Pophale) SiO2 
 PCOD9383139
Probable space group: P M M M
;
_chemical_formula_sum "Si O2"
_cell_formula_units_Z 52
_cell_length_a 28.659887
_cell_length_b 7.855855
_cell_length_c 13.121167
_cell_angle_alpha 90.000000
_cell_angle_beta 90.000000
_cell_angle_gamma 90.000000
_cell_volume 2954.203413
_symmetry_space_group_name_H-M "P M M M"
_symmetry_group_IT_number 47
_symmetry_cell_setting 'orthorhombic'
loop_
_space_group_symop_operation_xyz
x,y,z
-x,-y,z
x,-y,-z
-x,y,-z
-x,-y,-z
x,y,-z
-x,y,z
x,-y,z
loop_
_atom_site_type_symbol
_atom_site_label
_atom_site_fract_x
_atom_site_fract_y
_atom_site_fract_z
Si Si1 0.380736 0.809135 0.621402
Si Si2 0.947054 0.795378 0.700528
Si Si3 0.223651 0.205933 0.883628
Si Si4 0.718648 0.299826 0.311684
Si Si5 0.110584 0.703260 0.500000
Si Si6 0.217206 0.707967 0.500000
Si Si7 0.446670 0.500000 0.376059
Si Si8 0.883370 0.792135 0.884563
O O1 0.371836 0.784226 0.500000
O O2 0.331150 0.788456 0.676059
O O3 0.417451 0.666464 0.654437
O O4 0.398930 0.000000 0.635561
O O5 0.917539 0.757839 0.599867
O O6 0.919070 0.730943 0.799238
O O7 0.000000 0.729920 0.693544
O O8 0.949707 0.000000 0.709900
O O9 0.257789 0.274032 0.797588
O O10 0.170054 0.258933 0.862095
O O11 0.224889 0.000000 0.880266
O O12 0.234760 0.257420 0.000000
O O13 0.710592 0.500000 0.330051
O O14 0.754380 0.238466 0.399486
O O15 0.112984 0.500000 0.500000
O O16 0.163840 0.769056 0.500000
O O17 0.215970 0.500000 0.500000
O O18 0.500000 0.500000 0.339912
O O19 0.448176 0.500000 0.500000
O O20 0.883774 0.000000 0.883740
O O21 0.894958 0.739332 0.000000
#
# Coordination Sequence:
#
# PCOD9383139 Si02
#       8
#     8   8   8   8   4   4   4   8
#     4  10  19  31  49  74 106 143 184 225 268 318
#     4  10  20  33  50  71  93 118 152 200 252 300
#     4   9  18  32  48  68  97 130 165 207 254 308
#     4  11  19  31  50  71 102 136 170 213 261 311
#     4  11  22  36  49  66  92 126 165 197 240 300
#     4   9  20  32  48  71  96 128 162 207 255 297
#     4   9  18  32  50  72 105 149 189 229 272 308
#     4   8  15  30  51  72  94 120 152 198 252 305
#
# _framework density 17.602035999999998
#
# number of rings (size 3 to 8) (size 9 to 14) (size 15 to 20)
#    0.000    2.385    1.538    2.769    0.000    2.154 
#    0.000    5.385    0.000    1.385    0.000    1.077 
#    0.000    1.231    0.000    3.231    0.000    0.154 
#
# Total GULP energy -290210.831780 kJ/mol
# GULP energy per Si atom -5580.977534 kJ/mol
# Density = 1.756197 g / cm^3
# Si number density = 17.602036 Si / 1000 Ang^3
#
#
#
# Elastic Constant Matrix: (Units=GPa)
#
#
# Indices 1 2 3 4 5 6 
#
# 1 145.0082 36.4502 66.6176 0.0000 0.0000 0.0000
# 2 36.4502 50.2965 17.7826 0.0000 0.0000 0.0000
# 3 66.6176 17.7826 86.7001 0.0000 0.0000 0.0000
# 4 0.0000 0.0000 0.0000 9.2581 0.0000 0.0000
# 5 0.0000 0.0000 0.0000 0.0000 -9.7029 0.0000
# 6 0.0000 0.0000 0.0000 0.0000 0.0000 15.3653
#
#
#
# Elastic Compliance Matrix: (Units=1/GPa)
#
#
# Indices 1 2 3 4 5 6 
#
# 1 0.012093 -0.005907 -0.008080 0.000000 0.000000 0.000000
# 2 -0.005907 0.024322 -0.000450 0.000000 0.000000 0.000000
# 3 -0.008080 -0.000450 0.017835 0.000000 0.000000 0.000000
# 4 0.000000 0.000000 0.000000 0.108014 0.000000 0.000000
# 5 0.000000 0.000000 0.000000 0.000000 -0.103062 0.000000
# 6 0.000000 0.000000 0.000000 0.000000 0.000000 0.065082
#
#
# Mechanical properties :
#
#
# Convention : Reuss Voigt Hill
#
# Bulk Modulus (GPa) = 39.40789 58.18952 48.79870
# Shear Modulus (GPa) = 30.93735 13.72773 22.33254
#
# Velocity S-wave (km/s) = 4.19692 2.79569 3.56581
# Velocity P-wave (km/s) = 6.77661 6.59934 6.68856
#
# Compressibility (1/GPa) = 0.02537563
#
# Stress axis : x y z
#
# Youngs Moduli (GPa) = 82.69090 41.11502 56.06949
#
# Poissons Ratio (x) = 0.24287 0.45307
# Poissons Ratio (y) = 0.48847 0.02522
# Poissons Ratio (z) = 0.66818 0.01849
#
# Static dielectric constant tensor:
#      x y z
#    x 1.578740 0.000000 0.000000 
#    y 0.000000 1.655720 0.000000 
#    z 0.000000 0.000000 1.573800 
# 
# From -- ./inp_files/19851.got.cif
#   From: 2010.05.17/outbox.cif.g08.bks.cpg/sg47_10_cif.got.tgz:19851.got - 2010.06.03 20:15:42.
