data_PCOD9383384
_publ_section_title
;
Structure prediction by ZEFSAII (Michael W. Deem and Ramdas Pophale) SiO2 
 PCOD9383384
Probable space group: P M M M
;
_chemical_formula_sum "Si O2"
_cell_formula_units_Z 48
_cell_length_a 30.453539
_cell_length_b 9.031418
_cell_length_c 10.308761
_cell_angle_alpha 90.000000
_cell_angle_beta 90.000000
_cell_angle_gamma 90.000000
_cell_volume 2835.307608
_symmetry_space_group_name_H-M "P M M M"
_symmetry_group_IT_number 47
_symmetry_cell_setting 'orthorhombic'
loop_
_space_group_symop_operation_xyz
x,y,z
-x,-y,z
x,-y,-z
-x,y,-z
-x,-y,-z
x,y,-z
-x,y,z
x,-y,z
loop_
_atom_site_type_symbol
_atom_site_label
_atom_site_fract_x
_atom_site_fract_y
_atom_site_fract_z
Si Si1 0.362653 0.670546 0.841686
Si Si2 0.451516 0.173410 0.157594
Si Si3 0.947459 0.322882 0.500000
Si Si4 0.052553 0.672040 0.000000
Si Si5 0.816622 0.324978 0.844029
Si Si6 0.903821 0.177526 0.248308
Si Si7 0.726159 0.830559 0.842292
O O1 0.358301 0.500000 0.803968
O O2 0.409031 0.737605 0.797077
O O3 0.320154 0.762675 0.798673
O O4 0.362992 0.675770 0.000000
O O5 0.500000 0.225519 0.200448
O O6 0.447108 0.000000 0.190755
O O7 0.451536 0.181209 0.000000
O O8 0.939903 0.500000 0.500000
O O9 0.925749 0.248184 0.374821
O O10 0.000000 0.299083 0.500000
O O11 0.070350 0.756039 0.125401
O O12 0.067810 0.500000 0.000000
O O13 0.000000 0.671608 0.000000
O O14 0.821060 0.500000 0.819997
O O15 0.854038 0.233739 0.770816
O O16 0.768289 0.267414 0.807104
O O17 0.822040 0.301386 0.000000
O O18 0.905841 0.000000 0.250789
O O19 0.731396 0.000000 0.799586
O O20 0.724946 0.831219 0.000000
#
# Coordination Sequence:
#
# PCOD9383384 Si02
#       7
#     8   8   4   4   8   8   8
#     4   9  15  21  29  43  64  91 126 168 220 278
#     4   8  13  20  28  37  52  79 118 165 217 270
#     4  11  25  45  65  83 109 145 179 211 254 307
#     4  11  23  39  59  83 111 143 177 211 252 301
#     4  10  19  32  51  73 100 130 162 199 245 298
#     4  12  24  38  59  85 112 139 173 215 257 302
#     4   9  16  25  38  56  80 108 141 182 231 283
#
# _framework density 16.929379000000001
#
# number of rings (size 3 to 8) (size 9 to 14) (size 15 to 20)
#    0.000    2.167    0.833    4.500    0.000    8.333 
#    0.000    1.667    0.000    0.000    0.000    0.000 
#    0.000    0.000    0.000    0.000    0.000    0.000 
#
# Total GULP energy -267719.523649 kJ/mol
# GULP energy per Si atom -5577.490076 kJ/mol
# Density = 1.689085 g / cm^3
# Si number density = 16.929379 Si / 1000 Ang^3
#
#
#
# Elastic Constant Matrix: (Units=GPa)
#
#
# Indices 1 2 3 4 5 6 
#
# 1 144.5540 81.1868 37.3895 0.0000 0.0000 0.0000
# 2 81.1868 142.6377 41.8297 0.0000 0.0000 0.0000
# 3 37.3895 41.8297 60.8872 0.0000 0.0000 0.0000
# 4 0.0000 0.0000 0.0000 17.6217 0.0000 0.0000
# 5 0.0000 0.0000 0.0000 0.0000 7.3286 0.0000
# 6 0.0000 0.0000 0.0000 0.0000 0.0000 36.3734
#
#
#
# Elastic Compliance Matrix: (Units=1/GPa)
#
#
# Indices 1 2 3 4 5 6 
#
# 1 0.010576 -0.005154 -0.002954 0.000000 0.000000 0.000000
# 2 -0.005154 0.011291 -0.004592 0.000000 0.000000 0.000000
# 3 -0.002954 -0.004592 0.021393 0.000000 0.000000 0.000000
# 4 0.000000 0.000000 0.000000 0.056748 0.000000 0.000000
# 5 0.000000 0.000000 0.000000 0.000000 0.136452 0.000000
# 6 0.000000 0.000000 0.000000 0.000000 0.000000 0.027493
#
#
# Mechanical properties :
#
#
# Convention : Reuss Voigt Hill
#
# Bulk Modulus (GPa) = 55.99064 74.32121 65.15592
# Shear Modulus (GPa) = 16.93163 24.77628 20.85395
#
# Velocity S-wave (km/s) = 3.16592 3.82973 3.51354
# Velocity P-wave (km/s) = 6.81974 7.97194 7.41825
#
# Compressibility (1/GPa) = 0.01786013
#
# Stress axis : x y z
#
# Youngs Moduli (GPa) = 94.55049 88.56821 46.74482
#
# Poissons Ratio (x) = 0.45644 0.13809
# Poissons Ratio (y) = 0.48727 0.21466
# Poissons Ratio (z) = 0.27932 0.40671
#
# Static dielectric constant tensor:
#      x y z
#    x 1.586050 0.000000 0.000000 
#    y 0.000000 1.564070 0.000000 
#    z 0.000000 0.000000 1.588040 
# 
# From -- ./inp_files/13927.got.cif
#   From: 2010.05.17/outbox.cif.g08.bks.cpg/sg47_7_cif.got.tgz:13927.got - 2010.06.03 20:15:42.
