data_PCOD9383537
_publ_section_title
;
Structure prediction by ZEFSAII (Michael W. Deem and Ramdas Pophale) SiO2 
 PCOD9383537
Probable space group: P M M M
;
_chemical_formula_sum "Si O2"
_cell_formula_units_Z 60
_cell_length_a 20.689986
_cell_length_b 17.978876
_cell_length_c 8.714564
_cell_angle_alpha 90.000000
_cell_angle_beta 90.000000
_cell_angle_gamma 90.000000
_cell_volume 3241.666983
_symmetry_space_group_name_H-M "P M M M"
_symmetry_group_IT_number 47
_symmetry_cell_setting 'orthorhombic'
loop_
_space_group_symop_operation_xyz
x,y,z
-x,-y,z
x,-y,-z
-x,y,-z
-x,-y,-z
x,y,-z
-x,y,z
x,-y,z
loop_
_atom_site_type_symbol
_atom_site_label
_atom_site_fract_x
_atom_site_fract_y
_atom_site_fract_z
Si Si1 0.878076 0.339344 0.319485
Si Si2 0.607673 0.419194 0.185592
Si Si3 0.746642 0.637310 0.182188
Si Si4 0.000000 0.587488 0.827452
Si Si5 0.924209 0.183800 0.816219
Si Si6 0.703480 0.204823 0.684168
Si Si7 0.427181 0.252341 0.814911
Si Si8 0.812285 0.085541 0.685044
O O1 0.876125 0.327647 0.500000
O O2 0.813198 0.379622 0.264734
O O3 0.890010 0.259368 0.241030
O O4 0.938121 0.387073 0.265113
O O5 0.583615 0.500000 0.241675
O O6 0.684089 0.411823 0.219571
O O7 0.578931 0.339598 0.235812
O O8 0.599771 0.419766 0.000000
O O9 0.729818 0.720914 0.234787
O O10 0.755711 0.634714 0.000000
O O11 0.000000 0.500000 0.841934
O O12 0.000000 0.621306 0.000000
O O13 0.878536 0.118507 0.753183
O O14 0.000000 0.181674 0.765842
O O15 0.923935 0.182410 0.000000
O O16 0.706464 0.213435 0.500000
O O17 0.628870 0.203739 0.737378
O O18 0.750670 0.136961 0.728011
O O19 0.500000 0.227211 0.782586
O O20 0.417182 0.251740 0.000000
O O21 0.817132 0.088860 0.500000
O O22 0.802916 0.000000 0.730931
#
# Coordination Sequence:
#
# PCOD9383537 Si02
#       8
#     8   8   8   4   8   8   8   8
#     4  12  23  36  57  81 107 142 185 233 285 337
#     4   8  15  28  47  74 106 139 177 222 272 322
#     4  10  19  32  53  78 105 138 181 228 273 326
#     4  11  25  43  59  77 104 141 188 239 289 341
#     4  11  23  38  59  85 115 150 190 231 276 336
#     4  10  19  33  55  81 109 142 183 227 273 329
#     4   9  18  32  52  79 109 144 186 231 279 332
#     4  10  22  39  59  85 116 148 184 229 283 339
#
# _framework density 18.508996
#
# number of rings (size 3 to 8) (size 9 to 14) (size 15 to 20)
#    0.000    1.933    2.000    3.400    0.000    3.467 
#    0.000    4.000    0.000   10.000    0.000    6.533 
#    0.000    0.000    0.000    0.000    0.000    0.000 
#
# Total GULP energy -334742.660345 kJ/mol
# GULP energy per Si atom -5579.044339 kJ/mol
# Density = 1.846687 g / cm^3
# Si number density = 18.508996 Si / 1000 Ang^3
#
#
#
# Elastic Constant Matrix: (Units=GPa)
#
#
# Indices 1 2 3 4 5 6 
#
# 1 97.6995 7.7599 18.6242 0.0000 0.0000 0.0000
# 2 7.7599 63.5282 10.5332 0.0000 0.0000 0.0000
# 3 18.6242 10.5332 22.8334 0.0000 0.0000 0.0000
# 4 0.0000 0.0000 0.0000 20.1374 0.0000 0.0000
# 5 0.0000 0.0000 0.0000 0.0000 22.1114 0.0000
# 6 0.0000 0.0000 0.0000 0.0000 0.0000 26.3981
#
#
#
# Elastic Compliance Matrix: (Units=1/GPa)
#
#
# Indices 1 2 3 4 5 6 
#
# 1 0.012122 0.000172 -0.009966 0.000000 0.000000 0.000000
# 2 0.000172 0.017047 -0.008004 0.000000 0.000000 0.000000
# 3 -0.009966 -0.008004 0.055617 0.000000 0.000000 0.000000
# 4 0.000000 0.000000 0.000000 0.049659 0.000000 0.000000
# 5 0.000000 0.000000 0.000000 0.000000 0.045226 0.000000
# 6 0.000000 0.000000 0.000000 0.000000 0.000000 0.037882
#
#
# Mechanical properties :
#
#
# Convention : Reuss Voigt Hill
#
# Bulk Modulus (GPa) = 20.32997 28.65510 24.49254
# Shear Modulus (GPa) = 18.54976 23.53896 21.04436
#
# Velocity S-wave (km/s) = 3.16919 3.57004 3.37557
# Velocity P-wave (km/s) = 4.93957 5.70166 5.33424
#
# Compressibility (1/GPa) = 0.04918847
#
# Stress axis : x y z
#
# Youngs Moduli (GPa) = 82.49675 58.66083 17.98012
#
# Poissons Ratio (x) = -0.01008 0.17920
# Poissons Ratio (y) = -0.01417 0.14391
# Poissons Ratio (z) = 0.82220 0.46953
#
# Static dielectric constant tensor:
#      x y z
#    x 1.401970 0.000000 0.000000 
#    y 0.000000 1.633130 0.000000 
#    z 0.000000 0.000000 1.628850 
# 
# From -- ./inp_files/11616.got.cif
#   From: 2010.05.17/outbox.cif.g08.bks.cpg/sg47_6_cif.got.tgz:11616.got - 2010.06.03 20:15:42.
