data_PCOD9383857
_publ_section_title
;
Structure prediction by ZEFSAII (Michael W. Deem and Ramdas Pophale) SiO2 
 PCOD9383857
Probable space group: P M M M
;
_chemical_formula_sum "Si O2"
_cell_formula_units_Z 52
_cell_length_a 11.069900
_cell_length_b 9.937880
_cell_length_c 28.848402
_cell_angle_alpha 90.000000
_cell_angle_beta 90.000000
_cell_angle_gamma 90.000000
_cell_volume 3173.651298
_symmetry_space_group_name_H-M "P M M M"
_symmetry_group_IT_number 47
_symmetry_cell_setting 'orthorhombic'
loop_
_space_group_symop_operation_xyz
x,y,z
-x,-y,z
x,-y,-z
-x,y,-z
-x,-y,-z
x,y,-z
-x,y,z
x,-y,z
loop_
_atom_site_type_symbol
_atom_site_label
_atom_site_fract_x
_atom_site_fract_y
_atom_site_fract_z
Si Si1 0.258981 0.244614 0.398476
Si Si2 0.141254 0.000000 0.551539
Si Si3 0.354603 0.655901 0.788041
Si Si4 0.855494 0.500000 0.554518
Si Si5 0.500000 0.156554 0.444890
Si Si6 0.136113 0.837068 0.946490
Si Si7 0.646334 0.160329 0.299558
Si Si8 0.357194 0.161512 0.121689
O O1 0.179855 0.125797 0.419011
O O2 0.193680 0.376011 0.416179
O O3 0.385083 0.230562 0.424939
O O4 0.287964 0.219122 0.344829
O O5 0.199607 0.000000 0.500000
O O6 0.000000 0.000000 0.545682
O O7 0.500000 0.646724 0.784954
O O8 0.309624 0.500000 0.788602
O O9 0.317358 0.747548 0.744206
O O10 0.331146 0.743709 0.834139
O O11 0.815580 0.500000 0.500000
O O12 0.000000 0.500000 0.553482
O O13 0.500000 0.156181 0.500000
O O14 0.500000 0.000000 0.428620
O O15 0.254256 0.802817 0.916163
O O16 0.000000 0.793917 0.930600
O O17 0.133388 0.000000 0.946690
O O18 0.150327 0.793091 0.000000
O O19 0.500000 0.170571 0.305605
O O20 0.672065 0.000000 0.293718
O O21 0.500000 0.181699 0.108292
O O22 0.346338 0.000000 0.132143
#
# Coordination Sequence:
#
# PCOD9383857 Si02
#       8
#     8   4   8   4   4   8   8   8
#     4  12  22  37  58  83 110 139 171 215 266 316
#     4  11  22  37  59  81 101 138 187 219 248 303
#     4   9  18  31  50  74 104 138 173 211 255 313
#     4  11  26  45  59  75 105 146 187 219 250 301
#     4  11  20  33  55  85 117 137 159 207 270 323
#     4   8  14  25  43  70 105 142 177 214 260 313
#     4  10  19  34  54  82 112 136 164 207 266 326
#     4   9  16  27  46  75 104 133 174 223 268 303
#
# _framework density 16.384913000000001
#
# number of rings (size 3 to 8) (size 9 to 14) (size 15 to 20)
#    0.000    2.077    2.308    2.769    1.077    3.692 
#    0.000    2.308    0.000    2.769    0.000    3.231 
#    0.000    0.000    0.000    0.000    0.000    0.000 
#
# Total GULP energy -289509.342347 kJ/mol
# GULP energy per Si atom -5567.487353 kJ/mol
# Density = 1.634762 g / cm^3
# Si number density = 16.384913 Si / 1000 Ang^3
#
#
#
# Elastic Constant Matrix: (Units=GPa)
#
#
# Indices 1 2 3 4 5 6 
#
# 1 91.9912 44.6768 65.9076 0.0000 0.0000 0.0000
# 2 44.6768 120.0578 63.0093 0.0000 0.0000 0.0000
# 3 65.9076 63.0093 132.9413 0.0000 0.0000 0.0000
# 4 0.0000 0.0000 0.0000 18.5692 0.0000 0.0000
# 5 0.0000 0.0000 0.0000 0.0000 27.6846 0.0000
# 6 0.0000 0.0000 0.0000 0.0000 0.0000 22.7494
#
#
#
# Elastic Compliance Matrix: (Units=1/GPa)
#
#
# Indices 1 2 3 4 5 6 
#
# 1 0.017448 -0.002600 -0.007418 0.000000 0.000000 0.000000
# 2 -0.002600 0.011475 -0.004150 0.000000 0.000000 0.000000
# 3 -0.007418 -0.004150 0.013166 0.000000 0.000000 0.000000
# 4 0.000000 0.000000 0.000000 0.053853 0.000000 0.000000
# 5 0.000000 0.000000 0.000000 0.000000 0.036121 0.000000
# 6 0.000000 0.000000 0.000000 0.000000 0.000000 0.043957
#
#
# Mechanical properties :
#
#
# Convention : Reuss Voigt Hill
#
# Bulk Modulus (GPa) = 72.70452 76.90864 74.80658
# Shear Modulus (GPa) = 23.93046 25.22709 24.57878
#
# Velocity S-wave (km/s) = 3.82582 3.92810 3.87730
# Velocity P-wave (km/s) = 7.99906 8.22277 8.11169
#
# Compressibility (1/GPa) = 0.01375430
#
# Stress axis : x y z
#
# Youngs Moduli (GPa) = 57.31416 87.14890 75.95108
#
# Poissons Ratio (x) = 0.22657 0.56339
# Poissons Ratio (y) = 0.14900 0.31517
# Poissons Ratio (z) = 0.42514 0.36164
#
# Static dielectric constant tensor:
#      x y z
#    x 1.539220 0.000000 0.000000 
#    y 0.000000 1.550710 0.000000 
#    z 0.000000 0.000000 1.557930 
# 
# From -- ./inp_files/19827.got.cif
#   From: 2010.05.17/outbox.cif.g08.bks.cpg/sg47_10_cif.got.tgz:19827.got - 2010.06.03 20:15:42.
