data_PCOD9383144
_publ_section_title
;
Structure prediction by ZEFSAII (Michael W. Deem and Ramdas Pophale) SiO2 
 PCOD9383144
Probable space group: P M M M
;
_chemical_formula_sum "Si O2"
_cell_formula_units_Z 46
_cell_length_a 12.261507
_cell_length_b 12.634240
_cell_length_c 17.668009
_cell_angle_alpha 90.000000
_cell_angle_beta 90.000000
_cell_angle_gamma 90.000000
_cell_volume 2737.036473
_symmetry_space_group_name_H-M "P M M M"
_symmetry_group_IT_number 47
_symmetry_cell_setting 'orthorhombic'
loop_
_space_group_symop_operation_xyz
x,y,z
-x,-y,z
x,-y,-z
-x,y,-z
-x,-y,-z
x,y,-z
-x,y,z
x,-y,z
loop_
_atom_site_type_symbol
_atom_site_label
_atom_site_fract_x
_atom_site_fract_y
_atom_site_fract_z
Si Si1 0.500000 0.000000 0.176405
Si Si2 0.267650 0.000000 0.090624
Si Si3 0.123506 0.125421 0.672767
Si Si4 0.500000 0.373895 0.829109
Si Si5 0.500000 0.802806 0.292133
Si Si6 0.130496 0.805191 0.840933
Si Si7 0.271561 0.625313 0.910386
Si Si8 0.332977 0.126568 0.585250
O O1 0.388485 0.000000 0.127676
O O2 0.500000 0.102916 0.230534
O O3 0.198964 0.101656 0.118876
O O4 0.276229 0.000000 0.000000
O O5 0.149948 0.184510 0.750834
O O6 0.207158 0.144360 0.605524
O O7 0.000000 0.149472 0.650960
O O8 0.130267 0.000000 0.691600
O O9 0.500000 0.500000 0.815735
O O10 0.500000 0.305941 0.753101
O O11 0.609781 0.347827 0.875699
O O12 0.398973 0.817749 0.348466
O O13 0.179072 0.696086 0.871948
O O14 0.000000 0.816466 0.853653
O O15 0.253470 0.500000 0.898745
O O16 0.273266 0.645739 0.000000
O O17 0.360253 0.159703 0.500000
O O18 0.355013 0.000000 0.590342
#
# Coordination Sequence:
#
# PCOD9383144 Si02
#       8
#     2   4   8   4   4   8   8   8
#     4  12  23  36  55  76 102 138 178 218 263 308
#     4  12  24  36  51  74 104 138 178 221 260 304
#     4   9  17  31  50  71  99 136 174 210 250 297
#     4  10  21  37  58  80 101 134 179 220 262 313
#     4  12  21  33  53  76 105 138 166 208 257 312
#     4  11  22  36  54  76 105 141 178 212 257 318
#     4  10  21  37  56  77 103 134 173 225 275 312
#     4  10  19  31  49  76 107 135 167 206 251 306
#
# _framework density 16.806498999999999
#
# number of rings (size 3 to 8) (size 9 to 14) (size 15 to 20)
#    0.000    1.565    1.739    4.565    0.000    4.174 
#    0.000    5.217    0.000    1.043    0.000    0.000 
#    0.000    0.000    0.000   14.957    0.000    0.348 
#
# Total GULP energy -256807.445208 kJ/mol
# GULP energy per Si atom -5582.770548 kJ/mol
# Density = 1.676825 g / cm^3
# Si number density = 16.806499 Si / 1000 Ang^3
#
#
#
# Elastic Constant Matrix: (Units=GPa)
#
#
# Indices 1 2 3 4 5 6 
#
# 1 101.8362 30.7320 48.5730 0.0000 0.0000 0.0000
# 2 30.7320 34.3390 23.5644 0.0000 0.0000 0.0000
# 3 48.5730 23.5644 69.9689 0.0000 0.0000 0.0000
# 4 0.0000 0.0000 0.0000 23.3740 0.0000 0.0000
# 5 0.0000 0.0000 0.0000 0.0000 20.9302 0.0000
# 6 0.0000 0.0000 0.0000 0.0000 0.0000 195.3545
#
#
#
# Elastic Compliance Matrix: (Units=1/GPa)
#
#
# Indices 1 2 3 4 5 6 
#
# 1 0.016586 -0.009029 -0.008473 0.000000 0.000000 0.000000
# 2 -0.009029 0.042790 -0.008143 0.000000 0.000000 0.000000
# 3 -0.008473 -0.008143 0.022917 0.000000 0.000000 0.000000
# 4 0.000000 0.000000 0.000000 0.042783 0.000000 0.000000
# 5 0.000000 0.000000 0.000000 0.000000 0.047778 0.000000
# 6 0.000000 0.000000 0.000000 0.000000 0.000000 0.005119
#
#
# Mechanical properties :
#
#
# Convention : Reuss Voigt Hill
#
# Bulk Modulus (GPa) = 32.25592 45.76476 39.01034
# Shear Modulus (GPa) = 20.86842 54.81673 37.84257
#
# Velocity S-wave (km/s) = 3.52758 5.71727 4.75032
# Velocity P-wave (km/s) = 5.98548 8.41858 7.30405
#
# Compressibility (1/GPa) = 0.03100206
#
# Stress axis : x y z
#
# Youngs Moduli (GPa) = 60.29171 23.36999 43.63641
#
# Poissons Ratio (x) = 0.21101 0.36974
# Poissons Ratio (y) = 0.54439 0.35532
# Poissons Ratio (z) = 0.51087 0.19030
#
# Static dielectric constant tensor:
#      x y z
#    x 1.599530 0.000000 0.000000 
#    y 0.000000 1.550330 0.000000 
#    z 0.000000 0.000000 1.545100 
# 
# From -- ./inp_files/27484.got.cif
#   From: 2010.05.17/outbox.cif.g08.bks.cpg/sg47_14_cif.got.tgz:27484.got - 2010.06.03 20:15:42.
