data_PCOD9383571
_publ_section_title
;
Structure prediction by ZEFSAII (Michael W. Deem and Ramdas Pophale) SiO2 
 PCOD9383571
Probable space group: P M M M
;
_chemical_formula_sum "Si O2"
_cell_formula_units_Z 52
_cell_length_a 13.368082
_cell_length_b 8.570784
_cell_length_c 23.830375
_cell_angle_alpha 90.000000
_cell_angle_beta 90.000000
_cell_angle_gamma 90.000000
_cell_volume 2730.363865
_symmetry_space_group_name_H-M "P M M M"
_symmetry_group_IT_number 47
_symmetry_cell_setting 'orthorhombic'
loop_
_space_group_symop_operation_xyz
x,y,z
-x,-y,z
x,-y,-z
-x,y,-z
-x,-y,-z
x,y,-z
-x,y,z
x,-y,z
loop_
_atom_site_type_symbol
_atom_site_label
_atom_site_fract_x
_atom_site_fract_y
_atom_site_fract_z
Si Si1 0.785932 0.686024 0.064281
Si Si2 0.692658 0.690741 0.435523
Si Si3 0.889030 0.310246 0.370409
Si Si4 0.500000 0.188877 0.762761
Si Si5 0.112460 0.311687 0.761047
Si Si6 0.500000 0.311136 0.363626
Si Si7 0.301786 0.813881 0.828329
Si Si8 0.000000 0.177853 0.068173
O O1 0.782762 0.500000 0.064521
O O2 0.707531 0.751831 0.108483
O O3 0.897099 0.738073 0.083545
O O4 0.771259 0.740866 0.000000
O O5 0.682531 0.740490 0.500000
O O6 0.693299 0.500000 0.435519
O O7 0.796750 0.743943 0.407897
O O8 0.598770 0.738860 0.397614
O O9 0.889262 0.500000 0.372742
O O10 0.875633 0.270308 0.304822
O O11 0.000000 0.257822 0.388349
O O12 0.500000 0.249015 0.699365
O O13 0.599573 0.241318 0.795555
O O14 0.500000 0.000000 0.761688
O O15 0.116764 0.500000 0.765374
O O16 0.202718 0.241168 0.795813
O O17 0.000000 0.263088 0.778667
O O18 0.500000 0.500000 0.361689
O O19 0.303395 0.000000 0.829785
O O20 0.000000 0.000000 0.088382
O O21 0.000000 0.176034 0.000000
#
# Coordination Sequence:
#
# PCOD9383571 Si02
#       8
#     8   8   8   4   8   4   8   4
#     4  10  21  37  57  82 113 147 181 219 267 322
#     4   9  16  25  41  70 104 133 167 214 263 313
#     4   8  14  25  41  63  95 136 175 208 252 314
#     4  10  24  43  58  78 106 141 183 232 283 328
#     4   9  18  33  53  78 109 142 177 222 275 328
#     4  10  19  32  54  77  99 132 173 217 271 328
#     4  11  23  38  57  79 107 140 182 230 277 331
#     4   9  17  31  53  81 113 149 185 217 254 305
#
# _framework density 19.045081
#
# number of rings (size 3 to 8) (size 9 to 14) (size 15 to 20)
#    0.000    2.538    0.000    3.231    1.077    5.846 
#    0.000    1.923    0.000    3.231    0.000    0.000 
#    0.000    0.000    0.000   13.231    0.000   10.769 
#
# Total GULP energy -290228.234885 kJ/mol
# GULP energy per Si atom -5581.312209 kJ/mol
# Density = 1.900173 g / cm^3
# Si number density = 19.045081 Si / 1000 Ang^3
#
#
#
# Elastic Constant Matrix: (Units=GPa)
#
#
# Indices 1 2 3 4 5 6 
#
# 1 165.8407 25.6279 112.7085 0.0000 0.0000 0.0000
# 2 25.6279 18.4209 23.7259 0.0000 0.0000 0.0000
# 3 112.7085 23.7259 147.9250 0.0000 0.0000 0.0000
# 4 0.0000 0.0000 0.0000 8.7382 0.0000 0.0000
# 5 0.0000 0.0000 0.0000 0.0000 28.2566 0.0000
# 6 0.0000 0.0000 0.0000 0.0000 0.0000 16.9169
#
#
#
# Elastic Compliance Matrix: (Units=1/GPa)
#
#
# Indices 1 2 3 4 5 6 
#
# 1 0.013147 -0.006792 -0.008928 0.000000 0.000000 0.000000
# 2 -0.006792 0.071929 -0.006362 0.000000 0.000000 0.000000
# 3 -0.008928 -0.006362 0.014583 0.000000 0.000000 0.000000
# 4 0.000000 0.000000 0.000000 0.114440 0.000000 0.000000
# 5 0.000000 0.000000 0.000000 0.000000 0.035390 0.000000
# 6 0.000000 0.000000 0.000000 0.000000 0.000000 0.059113
#
#
# Mechanical properties :
#
#
# Convention : Reuss Voigt Hill
#
# Bulk Modulus (GPa) = 18.01928 72.92345 45.47137
# Shear Modulus (GPa) = 13.46756 22.12396 17.79576
#
# Velocity S-wave (km/s) = 2.66210 3.41202 3.06012
# Velocity P-wave (km/s) = 4.35097 7.34136 6.03434
#
# Compressibility (1/GPa) = 0.05549612
#
# Stress axis : x y z
#
# Youngs Moduli (GPa) = 76.06407 13.90257 68.57381
#
# Poissons Ratio (x) = 0.09442 0.61220
# Poissons Ratio (y) = 0.51660 0.43627
# Poissons Ratio (z) = 0.67907 0.08845
#
# Static dielectric constant tensor:
#      x y z
#    x 1.653490 0.000000 0.000000 
#    y 0.000000 1.649580 0.000000 
#    z 0.000000 0.000000 1.663640 
# 
# From -- ./inp_files/33658.got.cif
#   From: 2010.05.17/outbox.cif.g08.bks.cpg/sg47_17_cif.got.tgz:33658.got - 2010.06.03 20:15:42.
