data_PCOD9383324
_publ_section_title
;
Structure prediction by ZEFSAII (Michael W. Deem and Ramdas Pophale) SiO2 
 PCOD9383324
Probable space group: P M M M
;
_chemical_formula_sum "Si O2"
_cell_formula_units_Z 52
_cell_length_a 9.783805
_cell_length_b 8.082269
_cell_length_c 36.547705
_cell_angle_alpha 90.000000
_cell_angle_beta 90.000000
_cell_angle_gamma 90.000000
_cell_volume 2890.022340
_symmetry_space_group_name_H-M "P M M M"
_symmetry_group_IT_number 47
_symmetry_cell_setting 'orthorhombic'
loop_
_space_group_symop_operation_xyz
x,y,z
-x,-y,z
x,-y,-z
-x,y,-z
-x,-y,-z
x,y,-z
-x,y,z
x,-y,z
loop_
_atom_site_type_symbol
_atom_site_label
_atom_site_fract_x
_atom_site_fract_y
_atom_site_fract_z
Si Si1 0.158294 0.702823 0.608313
Si Si2 0.842790 0.805422 0.232507
Si Si3 0.341783 0.701884 0.459164
Si Si4 0.666911 0.500000 0.957734
Si Si5 0.333516 0.817125 0.911236
Si Si6 0.656957 0.693854 0.832971
Si Si7 0.834165 0.692396 0.311760
O O1 0.160071 0.500000 0.609197
O O2 0.248366 0.758938 0.574204
O O3 0.210652 0.757134 0.648450
O O4 0.000000 0.751862 0.603824
O O5 0.748893 0.721093 0.202406
O O6 0.793200 0.778753 0.274179
O O7 0.000000 0.743649 0.230530
O O8 0.843562 0.000000 0.224928
O O9 0.297259 0.753814 0.500000
O O10 0.500000 0.750062 0.454296
O O11 0.338312 0.500000 0.458861
O O12 0.500000 0.500000 0.957140
O O13 0.712033 0.334795 0.936447
O O14 0.709022 0.500000 0.000000
O O15 0.500000 0.812342 0.911119
O O16 0.292469 0.788400 0.869068
O O17 0.291617 0.000000 0.923753
O O18 0.500000 0.745087 0.825398
O O19 0.655153 0.500000 0.842622
O O20 0.794995 0.500000 0.308701
O O21 0.000000 0.699742 0.313424
#
# Coordination Sequence:
#
# PCOD9383324 Si02
#       7
#     8   8   8   4   8   8   8
#     4   8  13  21  34  50  67  94 133 169 202 249
#     4  10  20  32  47  69  95 122 155 195 237 283
#     4   8  13  20  29  44  70 101 127 156 203 258
#     4   9  16  26  40  62  93 127 167 209 247 299
#     4   9  16  27  43  63  91 127 163 202 250 298
#     4  10  19  32  50  70  94 126 163 199 239 291
#     4   8  14  26  42  58  80 111 143 177 221 268
#
# _framework density 17.992939
#
# number of rings (size 3 to 8) (size 9 to 14) (size 15 to 20)
#    0.000    3.154    0.769    2.308    0.000    2.462 
#    0.000    3.846    0.000    2.769    0.000    0.000 
#    0.000    1.846    0.000   10.923    0.000   12.000 
#
# Total GULP energy -289586.897438 kJ/mol
# GULP energy per Si atom -5568.978797 kJ/mol
# Density = 1.795199 g / cm^3
# Si number density = 17.992939 Si / 1000 Ang^3
#
#
#
# Elastic Constant Matrix: (Units=GPa)
#
#
# Indices 1 2 3 4 5 6 
#
# 1 28.1564 12.0094 43.3648 0.0000 0.0000 0.0000
# 2 12.0094 57.0735 41.6338 0.0000 0.0000 0.0000
# 3 43.3648 41.6338 147.7176 0.0000 0.0000 0.0000
# 4 0.0000 0.0000 0.0000 -3.3671 0.0000 0.0000
# 5 0.0000 0.0000 0.0000 0.0000 23.6853 0.0000
# 6 0.0000 0.0000 0.0000 0.0000 0.0000 7.3816
#
#
#
# Elastic Compliance Matrix: (Units=1/GPa)
#
#
# Indices 1 2 3 4 5 6 
#
# 1 0.064830 0.000304 -0.019118 0.000000 0.000000 0.000000
# 2 0.000304 0.022057 -0.006306 0.000000 0.000000 0.000000
# 3 -0.019118 -0.006306 0.014159 0.000000 0.000000 0.000000
# 4 0.000000 0.000000 0.000000 -0.296991 0.000000 0.000000
# 5 0.000000 0.000000 0.000000 0.000000 0.042220 0.000000
# 6 0.000000 0.000000 0.000000 0.000000 0.000000 0.135472
#
#
# Mechanical properties :
#
#
# Convention : Reuss Voigt Hill
#
# Bulk Modulus (GPa) = 19.68201 47.44039 33.56120
# Shear Modulus (GPa) = 102.20230 14.60259 58.40245
#
# Velocity S-wave (km/s) = 7.54484 2.85190 5.70342
# Velocity P-wave (km/s) = 9.31998 6.10474 7.87813
#
# Compressibility (1/GPa) = 0.05080782
#
# Stress axis : x y z
#
# Youngs Moduli (GPa) = 15.42499 45.33620 70.62476
#
# Poissons Ratio (x) = -0.01380 1.35018
# Poissons Ratio (y) = -0.00470 0.44537
# Poissons Ratio (z) = 0.29489 0.28590
#
# Static dielectric constant tensor:
#      x y z
#    x 1.595600 0.000000 0.000000 
#    y 0.000000 1.650300 0.000000 
#    z 0.000000 0.000000 1.622980 
# 
# From -- ./inp_files/34542.got.cif
#   From: 2010.05.17/outbox.cif.g08.bks.cpg/sg47_18_cif.got.tgz:34542.got - 2010.06.03 20:15:42.
