data_PCOD9383462
_publ_section_title
;
Structure prediction by ZEFSAII (Michael W. Deem and Ramdas Pophale) SiO2 
 PCOD9383462
Probable space group: P M M M
;
_chemical_formula_sum "Si O2"
_cell_formula_units_Z 40
_cell_length_a 10.935924
_cell_length_b 7.519016
_cell_length_c 23.629199
_cell_angle_alpha 90.000000
_cell_angle_beta 90.000000
_cell_angle_gamma 90.000000
_cell_volume 1942.967303
_symmetry_space_group_name_H-M "P M M M"
_symmetry_group_IT_number 47
_symmetry_cell_setting 'orthorhombic'
loop_
_space_group_symop_operation_xyz
x,y,z
-x,-y,z
x,-y,-z
-x,y,-z
-x,-y,-z
x,y,-z
-x,y,z
x,-y,z
loop_
_atom_site_type_symbol
_atom_site_label
_atom_site_fract_x
_atom_site_fract_y
_atom_site_fract_z
Si Si1 0.500000 0.215429 0.066722
Si Si2 0.857196 0.800595 0.000000
Si Si3 0.757053 0.784098 0.883628
Si Si4 0.138219 0.707866 0.761931
Si Si5 0.359347 0.707969 0.313080
Si Si6 0.643957 0.785956 0.560789
O O1 0.617653 0.266967 0.103388
O O2 0.500000 0.000000 0.063337
O O3 0.500000 0.275416 0.000000
O O4 0.821328 0.718369 0.059180
O O5 0.000000 0.820097 0.000000
O O6 0.797799 0.000000 0.000000
O O7 0.820083 0.717472 0.827102
O O8 0.765493 0.000000 0.880573
O O9 0.130441 0.500000 0.745804
O O10 0.252022 0.786290 0.726064
O O11 0.000000 0.782072 0.755047
O O12 0.500000 0.781538 0.309002
O O13 0.370422 0.500000 0.298359
O O14 0.314508 0.720044 0.378220
O O15 0.696906 0.725438 0.500000
O O16 0.500000 0.739092 0.559482
O O17 0.652630 0.000000 0.561872
#
# Coordination Sequence:
#
# PCOD9383462 Si02
#       6
#     4   4   8   8   8   8
#     4   9  16  30  51  77 103 125 152 197 254 303
#     4   9  16  27  46  70  93 119 156 201 242 286
#     4  10  19  32  52  75  98 125 162 204 247 298
#     4  10  22  38  52  69  99 136 169 206 253 297
#     4   9  18  32  50  72  97 128 167 206 242 286
#     4   8  14  26  46  74 106 133 157 194 245 292
#
# _framework density 20.587067999999999
#
# number of rings (size 3 to 8) (size 9 to 14) (size 15 to 20)
#    0.000    2.800    1.000    1.200    1.400    2.400 
#    0.000    2.500    0.000    3.000    0.000    4.200 
#    0.000    0.000    0.000    0.000    0.000    0.000 
#
# Total GULP energy -222716.471545 kJ/mol
# GULP energy per Si atom -5567.911789 kJ/mol
# Density = 2.054021 g / cm^3
# Si number density = 20.587068 Si / 1000 Ang^3
#
#
#
# Elastic Constant Matrix: (Units=GPa)
#
#
# Indices 1 2 3 4 5 6 
#
# 1 142.1273 7.4359 78.3963 0.0000 0.0000 0.0000
# 2 7.4359 49.3768 -4.3536 0.0000 0.0000 0.0000
# 3 78.3963 -4.3536 147.7201 0.0000 0.0000 0.0000
# 4 0.0000 0.0000 0.0000 22.1370 0.0000 0.0000
# 5 0.0000 0.0000 0.0000 0.0000 -12.0831 0.0000
# 6 0.0000 0.0000 0.0000 0.0000 0.0000 -1.9384
#
#
#
# Elastic Compliance Matrix: (Units=1/GPa)
#
#
# Indices 1 2 3 4 5 6 
#
# 1 0.010143 -0.002007 -0.005442 0.000000 0.000000 0.000000
# 2 -0.002007 0.020702 0.001675 0.000000 0.000000 0.000000
# 3 -0.005442 0.001675 0.009707 0.000000 0.000000 0.000000
# 4 0.000000 0.000000 0.000000 0.045173 0.000000 0.000000
# 5 0.000000 0.000000 0.000000 0.000000 -0.082760 0.000000
# 6 0.000000 0.000000 0.000000 0.000000 0.000000 -0.515894
#
#
# Mechanical properties :
#
#
# Convention : Reuss Voigt Hill
#
# Bulk Modulus (GPa) = 34.47735 55.79792 45.13764
# Shear Modulus (GPa) = -10.16853 18.80616 4.31881
#
# Velocity S-wave (km/s) = -2.22486 3.02568 1.44996
# Velocity P-wave (km/s) = 3.19115 6.27444 4.97755
#
# Compressibility (1/GPa) = 0.02900455
#
# Stress axis : x y z
#
# Youngs Moduli (GPa) = 98.59287 48.30346 103.01789
#
# Poissons Ratio (x) = 0.09696 0.56062
# Poissons Ratio (y) = 0.19790 -0.17260
# Poissons Ratio (z) = 0.53654 -0.08093
#
# Static dielectric constant tensor:
#      x y z
#    x 1.783760 0.000000 0.000000 
#    y 0.000000 1.813990 0.000000 
#    z 0.000000 0.000000 1.748080 
# 
# From -- ./inp_files/30360.got.cif
#   From: 2010.05.17/outbox.cif.g08.bks.cpg/sg47_16_cif.got.tgz:30360.got - 2010.06.03 20:15:42.
