data_PCOD9383890
_publ_section_title
;
Structure prediction by ZEFSAII (Michael W. Deem and Ramdas Pophale) SiO2 
 PCOD9383890
Probable space group: P M M M
;
_chemical_formula_sum "Si O2"
_cell_formula_units_Z 56
_cell_length_a 7.630060
_cell_length_b 15.495984
_cell_length_c 21.931861
_cell_angle_alpha 90.000000
_cell_angle_beta 90.000000
_cell_angle_gamma 90.000000
_cell_volume 2593.119895
_symmetry_space_group_name_H-M "P M M M"
_symmetry_group_IT_number 47
_symmetry_cell_setting 'orthorhombic'
loop_
_space_group_symop_operation_xyz
x,y,z
-x,-y,z
x,-y,-z
-x,y,-z
-x,-y,-z
x,y,-z
-x,y,z
x,-y,z
loop_
_atom_site_type_symbol
_atom_site_label
_atom_site_fract_x
_atom_site_fract_y
_atom_site_fract_z
Si Si1 0.205432 0.316459 0.378466
Si Si2 0.297240 0.857174 0.566696
Si Si3 0.214988 0.600984 0.000000
Si Si4 0.207563 0.285575 0.885504
Si Si5 0.712567 0.904823 0.701609
Si Si6 0.289778 0.500000 0.430616
Si Si7 0.711371 0.094600 0.928333
Si Si8 0.204449 0.726372 0.246740
O O1 0.290648 0.246127 0.422949
O O2 0.225448 0.413137 0.399840
O O3 0.281269 0.307746 0.310247
O O4 0.000000 0.293041 0.376831
O O5 0.220117 0.878617 0.500000
O O6 0.500000 0.885136 0.564979
O O7 0.225683 0.892586 0.631109
O O8 0.275489 0.654608 0.940357
O O9 0.266404 0.500000 0.000000
O O10 0.000000 0.602511 0.000000
O O11 0.227262 0.183737 0.899164
O O12 0.282089 0.301354 0.817845
O O13 0.000000 0.302892 0.882797
O O14 0.500000 0.897360 0.701109
O O15 0.783217 0.829380 0.744068
O O16 0.759872 0.000000 0.722600
O O17 0.500000 0.500000 0.429386
O O18 0.229093 0.500000 0.500000
O O19 0.500000 0.095032 0.924418
O O20 0.770635 0.000000 0.904771
O O21 0.758993 0.098284 0.000000
O O22 0.000000 0.700930 0.246351
#
# Coordination Sequence:
#
# PCOD9383890 Si02
#       8
#     8   8   4   8   8   4   8   8
#     4  10  20  35  52  73 102 135 170 209 255 309
#     4   9  17  30  49  72  99 132 169 213 263 306
#     4   9  18  34  56  83 106 128 165 215 264 309
#     4  10  19  34  56  81 106 136 176 218 262 311
#     4   9  18  32  50  73 101 136 177 215 252 301
#     4  11  23  37  55  79 105 132 165 210 262 312
#     4   9  18  32  50  75 108 143 174 209 261 317
#     4   9  20  36  52  74 104 137 172 210 256 305
#
# _framework density 21.595606
#
# number of rings (size 3 to 8) (size 9 to 14) (size 15 to 20)
#    0.000    2.571    0.714    1.500    0.000    5.143 
#    1.286    5.000    0.000    0.857    0.000    4.000 
#    0.000    0.000    0.000    0.000    0.000    0.000 
#
# Total GULP energy -312413.026293 kJ/mol
# GULP energy per Si atom -5578.804041 kJ/mol
# Density = 2.154645 g / cm^3
# Si number density = 21.595606 Si / 1000 Ang^3
#
#
#
# Elastic Constant Matrix: (Units=GPa)
#
#
# Indices 1 2 3 4 5 6 
#
# 1 46.6538 -8.3600 5.9946 0.0000 0.0000 0.0000
# 2 -8.3600 103.4096 39.9850 0.0000 0.0000 0.0000
# 3 5.9946 39.9850 140.5429 0.0000 0.0000 0.0000
# 4 0.0000 0.0000 0.0000 -7.9802 0.0000 0.0000
# 5 0.0000 0.0000 0.0000 0.0000 12.9056 0.0000
# 6 0.0000 0.0000 0.0000 0.0000 0.0000 9.6654
#
#
#
# Elastic Compliance Matrix: (Units=1/GPa)
#
#
# Indices 1 2 3 4 5 6 
#
# 1 0.022076 0.002414 -0.001629 0.000000 0.000000 0.000000
# 2 0.002414 0.011130 -0.003269 0.000000 0.000000 0.000000
# 3 -0.001629 -0.003269 0.008115 0.000000 0.000000 0.000000
# 4 0.000000 0.000000 0.000000 -0.125311 0.000000 0.000000
# 5 0.000000 0.000000 0.000000 0.000000 0.077486 0.000000
# 6 0.000000 0.000000 0.000000 0.000000 0.000000 0.103462
#
#
# Mechanical properties :
#
#
# Convention : Reuss Voigt Hill
#
# Bulk Modulus (GPa) = 27.50739 40.64949 34.07844
# Shear Modulus (GPa) = 43.84328 19.78396 31.81362
#
# Velocity S-wave (km/s) = 4.51066 3.03002 3.84233
# Velocity P-wave (km/s) = 6.31610 5.57721 5.95812
#
# Compressibility (1/GPa) = 0.03635387
#
# Stress axis : x y z
#
# Youngs Moduli (GPa) = 45.29732 89.85018 123.23033
#
# Poissons Ratio (x) = -0.21694 0.20069
# Poissons Ratio (y) = -0.10937 0.40289
# Poissons Ratio (z) = 0.07377 0.29376
#
# Static dielectric constant tensor:
#      x y z
#    x 1.833500 0.000000 0.000000 
#    y 0.000000 1.754140 0.000000 
#    z 0.000000 0.000000 1.813310 
# 
# From -- ./inp_files/29822.got.cif
#   From: 2010.05.17/outbox.cif.g08.bks.cpg/sg47_15_cif.got.tgz:29822.got - 2010.06.03 20:15:42.
