data_PCOD9383978
_publ_section_title
;
Structure prediction by ZEFSAII (Michael W. Deem and Ramdas Pophale) SiO2 
 PCOD9383978
Probable space group: P M M M
;
_chemical_formula_sum "Si O2"
_cell_formula_units_Z 48
_cell_length_a 20.355644
_cell_length_b 9.042953
_cell_length_c 15.125592
_cell_angle_alpha 90.000000
_cell_angle_beta 90.000000
_cell_angle_gamma 90.000000
_cell_volume 2784.245344
_symmetry_space_group_name_H-M "P M M M"
_symmetry_group_IT_number 47
_symmetry_cell_setting 'orthorhombic'
loop_
_space_group_symop_operation_xyz
x,y,z
-x,-y,z
x,-y,-z
-x,y,-z
-x,-y,-z
x,y,-z
-x,y,z
x,-y,z
loop_
_atom_site_type_symbol
_atom_site_label
_atom_site_fract_x
_atom_site_fract_y
_atom_site_fract_z
Si Si1 0.578832 0.821450 0.000000
Si Si2 0.788964 0.171421 0.600960
Si Si3 0.423569 0.662882 0.500000
Si Si4 0.925240 0.176703 0.104707
Si Si5 0.190251 0.323396 0.214501
Si Si6 0.637447 0.170141 0.659327
Si Si7 0.337996 0.322626 0.840831
O O1 0.619047 0.755819 0.916378
O O2 0.500000 0.783066 0.000000
O O3 0.582834 0.000000 0.000000
O O4 0.802339 0.223120 0.500000
O O5 0.814576 0.262025 0.685226
O O6 0.710681 0.172139 0.617900
O O7 0.810833 0.000000 0.607165
O O8 0.390400 0.500000 0.500000
O O9 0.500000 0.642189 0.500000
O O10 0.406070 0.756360 0.585381
O O11 0.869886 0.260249 0.158753
O O12 0.000000 0.217886 0.129919
O O13 0.918460 0.000000 0.117612
O O14 0.917993 0.205346 0.000000
O O15 0.189335 0.500000 0.217326
O O16 0.260124 0.280607 0.167802
O O17 0.634965 0.268201 0.746828
O O18 0.620785 0.000000 0.679032
O O19 0.341803 0.500000 0.851298
#
# Coordination Sequence:
#
# PCOD9383978 Si02
#       7
#     4   8   4   8   8   8   8
#     4  11  25  43  61  81 104 139 188 235 281 332
#     4   9  17  32  54  79 106 138 178 222 268 318
#     4  11  23  35  49  73 105 141 176 215 274 339
#     4   9  19  36  57  82 113 151 191 227 269 322
#     4  10  21  34  53  85 117 146 182 224 272 326
#     4  10  19  35  56  78 103 134 177 226 271 321
#     4  10  22  39  58  83 112 144 181 225 279 337
#
# _framework density 17.23986
#
# number of rings (size 3 to 8) (size 9 to 14) (size 15 to 20)
#    0.000    2.167    0.833    2.500    1.167    5.667 
#    0.000    0.833    0.000    0.500    0.000    3.500 
#    0.000    0.000    0.000    0.000    0.000    0.000 
#
# Total GULP energy -267562.860761 kJ/mol
# GULP energy per Si atom -5574.226266 kJ/mol
# Density = 1.720062 g / cm^3
# Si number density = 17.239860 Si / 1000 Ang^3
#
#
#
# Elastic Constant Matrix: (Units=GPa)
#
#
# Indices 1 2 3 4 5 6 
#
# 1 101.7294 54.9345 84.2714 0.0000 0.0000 0.0000
# 2 54.9345 60.8649 46.1955 0.0000 0.0000 0.0000
# 3 84.2714 46.1955 126.7361 0.0000 0.0000 0.0000
# 4 0.0000 0.0000 0.0000 27.9076 0.0000 0.0000
# 5 0.0000 0.0000 0.0000 0.0000 126.1900 0.0000
# 6 0.0000 0.0000 0.0000 0.0000 0.0000 26.5978
#
#
#
# Elastic Compliance Matrix: (Units=1/GPa)
#
#
# Indices 1 2 3 4 5 6 
#
# 1 0.030890 -0.016991 -0.014346 0.000000 0.000000 0.000000
# 2 -0.016991 0.032060 -0.000388 0.000000 0.000000 0.000000
# 3 -0.014346 -0.000388 0.017571 0.000000 0.000000 0.000000
# 4 0.000000 0.000000 0.000000 0.035833 0.000000 0.000000
# 5 0.000000 0.000000 0.000000 0.000000 0.007925 0.000000
# 6 0.000000 0.000000 0.000000 0.000000 0.000000 0.037597
#
#
# Mechanical properties :
#
#
# Convention : Reuss Voigt Hill
#
# Bulk Modulus (GPa) = 58.58242 73.34813 65.96528
# Shear Modulus (GPa) = 21.64353 43.06769 32.35561
#
# Velocity S-wave (km/s) = 3.54706 5.00357 4.33689
# Velocity P-wave (km/s) = 7.12952 8.71888 7.96395
#
# Compressibility (1/GPa) = 0.01706997
#
# Stress axis : x y z
#
# Youngs Moduli (GPa) = 32.37313 31.19159 56.91153
#
# Poissons Ratio (x) = 0.52999 0.81647
# Poissons Ratio (y) = 0.55007 0.02206
# Poissons Ratio (z) = 0.46444 0.01209
#
# Static dielectric constant tensor:
#      x y z
#    x 1.578180 0.000000 0.000000 
#    y 0.000000 1.589500 0.000000 
#    z 0.000000 0.000000 1.529120 
# 
# From -- ./inp_files/6426.got.cif
#   From: 2010.05.17/outbox.cif.g08.bks.cpg/sg47_4_cif.got.tgz:6426.got - 2010.06.03 20:15:42.
