data_PCOD9383049
_publ_section_title
;
Structure prediction by ZEFSAII (Michael W. Deem and Ramdas Pophale) SiO2 
 PCOD9383049
Probable space group: P M M M
;
_chemical_formula_sum "Si O2"
_cell_formula_units_Z 44
_cell_length_a 7.385585
_cell_length_b 32.977611
_cell_length_c 8.149811
_cell_angle_alpha 90.000000
_cell_angle_beta 90.000000
_cell_angle_gamma 90.000000
_cell_volume 1984.959403
_symmetry_space_group_name_H-M "P M M M"
_symmetry_group_IT_number 47
_symmetry_cell_setting 'orthorhombic'
loop_
_space_group_symop_operation_xyz
x,y,z
-x,-y,z
x,-y,-z
-x,y,-z
-x,-y,-z
x,y,-z
-x,y,z
x,-y,z
loop_
_atom_site_type_symbol
_atom_site_label
_atom_site_fract_x
_atom_site_fract_y
_atom_site_fract_z
Si Si1 0.778929 0.714830 0.177569
Si Si2 0.779284 0.856840 0.500000
Si Si3 0.778277 0.910619 0.190100
Si Si4 0.717421 0.456340 0.810957
Si Si5 0.214360 0.367515 0.319633
Si Si6 0.778882 0.236562 0.500000
Si Si7 0.205837 0.000000 0.198927
O O1 0.720664 0.667878 0.200201
O O2 0.720499 0.740139 0.335646
O O3 0.000000 0.716134 0.176947
O O4 0.719264 0.730205 0.000000
O O5 0.723241 0.879606 0.332458
O O6 0.722591 0.810113 0.500000
O O7 0.000000 0.857478 0.500000
O O8 0.000000 0.911648 0.187710
O O9 0.715417 0.956072 0.239178
O O10 0.724335 0.901958 0.000000
O O11 0.500000 0.457705 0.811734
O O12 0.779751 0.500000 0.741158
O O13 0.763857 0.414231 0.727563
O O14 0.778804 0.454391 0.000000
O O15 0.291763 0.360778 0.500000
O O16 0.000000 0.361002 0.328619
O O17 0.000000 0.237475 0.500000
O O18 0.000000 0.000000 0.264046
O O19 0.197318 0.000000 0.000000
#
# Coordination Sequence:
#
# PCOD9383049 Si02
#       7
#     8   4   8   8   8   4   4
#     4   9  16  27  43  59  77 103 132 167 211 251
#     4   9  16  21  28  41  58  80 104 137 182 238
#     4   8  13  20  27  36  51  72 101 137 178 226
#     4   9  19  35  51  68  94 126 156 185 219 264
#     4  10  19  31  48  70  94 117 149 192 225 259
#     4   9  16  26  35  50  73  92 119 156 198 254
#     4   7  10  17  27  35  46  67  97 136 177 219
#
# _framework density 22.166699999999999
#
# number of rings (size 3 to 8) (size 9 to 14) (size 15 to 20)
#    0.000    3.182    0.909    2.182    0.000    3.273 
#    0.000    8.182    0.000    0.000    0.000    0.000 
#    0.000    0.000    0.000    0.000    0.000    0.000 
#
# Total GULP energy -245336.310506 kJ/mol
# GULP energy per Si atom -5575.825239 kJ/mol
# Density = 2.211625 g / cm^3
# Si number density = 22.166700 Si / 1000 Ang^3
#
#
#
# Elastic Constant Matrix: (Units=GPa)
#
#
# Indices 1 2 3 4 5 6 
#
# 1 73.1893 0.5773 4.8468 0.0000 0.0000 0.0000
# 2 0.5773 182.1926 107.5763 0.0000 0.0000 0.0000
# 3 4.8468 107.5763 170.4526 0.0000 0.0000 0.0000
# 4 0.0000 0.0000 0.0000 41.5602 0.0000 0.0000
# 5 0.0000 0.0000 0.0000 0.0000 -3.1159 0.0000
# 6 0.0000 0.0000 0.0000 0.0000 0.0000 -4.4749
#
#
#
# Elastic Compliance Matrix: (Units=1/GPa)
#
#
# Indices 1 2 3 4 5 6 
#
# 1 0.013699 0.000297 -0.000577 0.000000 0.000000 0.000000
# 2 0.000297 0.008755 -0.005534 0.000000 0.000000 0.000000
# 3 -0.000577 -0.005534 0.009376 0.000000 0.000000 0.000000
# 4 0.000000 0.000000 0.000000 0.024061 0.000000 0.000000
# 5 0.000000 0.000000 0.000000 0.000000 -0.320936 0.000000
# 6 0.000000 0.000000 0.000000 0.000000 0.000000 -0.223469
#
#
# Mechanical properties :
#
#
# Convention : Reuss Voigt Hill
#
# Bulk Modulus (GPa) = 49.49912 72.42615 60.96264
# Shear Modulus (GPa) = -10.63488 27.64949 8.50731
#
# Velocity S-wave (km/s) = -2.19274 3.53561 1.96118
# Velocity P-wave (km/s) = 3.99601 7.02934 5.71751
#
# Compressibility (1/GPa) = 0.02020238
#
# Stress axis : x y z
#
# Youngs Moduli (GPa) = 72.99763 114.21452 106.65634
#
# Poissons Ratio (x) = -0.03397 0.06157
# Poissons Ratio (y) = -0.02171 0.59026
# Poissons Ratio (z) = 0.04214 0.63209
#
# Static dielectric constant tensor:
#      x y z
#    x 1.875450 0.000000 0.000000 
#    y 0.000000 1.810840 0.000000 
#    z 0.000000 0.000000 1.794920 
# 
# From -- ./inp_files/2356.got.cif
#   From: 2010.05.17/outbox.cif.g08.bks.cpg/sg47_2_cif.got.tgz:2356.got - 2010.06.03 20:15:42.
