data_PCOD9383460
_publ_section_title
;
Structure prediction by ZEFSAII (Michael W. Deem and Ramdas Pophale) SiO2 
 PCOD9383460
Probable space group: P M M M
;
_chemical_formula_sum "Si O2"
_cell_formula_units_Z 64
_cell_length_a 8.892899
_cell_length_b 29.971955
_cell_length_c 14.351900
_cell_angle_alpha 90.000000
_cell_angle_beta 90.000000
_cell_angle_gamma 90.000000
_cell_volume 3825.320531
_symmetry_space_group_name_H-M "P M M M"
_symmetry_group_IT_number 47
_symmetry_cell_setting 'orthorhombic'
loop_
_space_group_symop_operation_xyz
x,y,z
-x,-y,z
x,-y,-z
-x,y,-z
-x,-y,-z
x,y,-z
-x,y,z
x,-y,z
loop_
_atom_site_type_symbol
_atom_site_label
_atom_site_fract_x
_atom_site_fract_y
_atom_site_fract_z
Si Si1 0.325974 0.139063 0.111329
Si Si2 0.172178 0.053929 0.602315
Si Si3 0.181107 0.549813 0.717319
Si Si4 0.320573 0.050530 0.792882
Si Si5 0.679747 0.685801 0.217583
Si Si6 0.181874 0.361575 0.607783
Si Si7 0.820513 0.768074 0.890507
Si Si8 0.319239 0.404651 0.892761
O O1 0.500000 0.143566 0.143102
O O2 0.264350 0.091409 0.145109
O O3 0.233950 0.182738 0.139477
O O4 0.327014 0.138186 0.000000
O O5 0.218898 0.070210 0.500000
O O6 0.279799 0.063952 0.687536
O O7 0.000000 0.068406 0.620126
O O8 0.168839 0.000000 0.597811
O O9 0.227918 0.500000 0.689012
O O10 0.226019 0.589191 0.646243
O O11 0.245858 0.561837 0.818894
O O12 0.000000 0.550747 0.722407
O O13 0.500000 0.048137 0.804868
O O14 0.261549 0.000000 0.810884
O O15 0.500000 0.688898 0.224777
O O16 0.748401 0.672730 0.317847
O O17 0.746275 0.730345 0.172870
O O18 0.715888 0.644641 0.147500
O O19 0.226857 0.355406 0.500000
O O20 0.000000 0.358558 0.612140
O O21 0.000000 0.765138 0.885111
O O22 0.776785 0.761847 0.000000
O O23 0.500000 0.409867 0.890134
O O24 0.270073 0.409661 0.000000
#
# Coordination Sequence:
#
# PCOD9383460 Si02
#       8
#     8   8   8   8   8   8   8   8
#     4   9  18  32  48  67  95 130 163 194 231 277
#     4   8  14  25  41  61  85 114 148 185 227 274
#     4   9  18  31  46  67  95 127 165 205 242 281
#     4   9  17  28  44  68  95 124 160 199 236 273
#     4  10  19  32  52  75  98 123 154 194 240 292
#     4   9  18  33  52  73  98 128 162 201 244 288
#     4  10  20  33  51  75 100 125 155 193 237 285
#     4   9  18  31  46  66  93 125 159 194 235 286
#
# _framework density 16.730623999999999
#
# number of rings (size 3 to 8) (size 9 to 14) (size 15 to 20)
#    0.000    2.875    0.000    1.500    0.000    4.000 
#    0.000    5.000    0.000    0.750    0.000   10.500 
#    0.000    0.000    0.000    0.000    0.000    0.000 
#
# Total GULP energy -356389.507511 kJ/mol
# GULP energy per Si atom -5568.586055 kJ/mol
# Density = 1.669254 g / cm^3
# Si number density = 16.730624 Si / 1000 Ang^3
#
#
#
# Elastic Constant Matrix: (Units=GPa)
#
#
# Indices 1 2 3 4 5 6 
#
# 1 17.3744 31.7569 25.9021 0.0000 0.0000 0.0000
# 2 31.7569 115.5568 52.1638 0.0000 0.0000 0.0000
# 3 25.9021 52.1638 88.8279 0.0000 0.0000 0.0000
# 4 0.0000 0.0000 0.0000 16.9575 0.0000 0.0000
# 5 0.0000 0.0000 0.0000 0.0000 22.5518 0.0000
# 6 0.0000 0.0000 0.0000 0.0000 0.0000 19.4996
#
#
#
# Elastic Compliance Matrix: (Units=1/GPa)
#
#
# Indices 1 2 3 4 5 6 
#
# 1 0.151568 -0.029531 -0.026855 0.000000 0.000000 0.000000
# 2 -0.029531 0.017529 -0.001683 0.000000 0.000000 0.000000
# 3 -0.026855 -0.001683 0.020077 0.000000 0.000000 0.000000
# 4 0.000000 0.000000 0.000000 0.058971 0.000000 0.000000
# 5 0.000000 0.000000 0.000000 0.000000 0.044342 0.000000
# 6 0.000000 0.000000 0.000000 0.000000 0.000000 0.051283
#
#
# Mechanical properties :
#
#
# Convention : Reuss Voigt Hill
#
# Bulk Modulus (GPa) = 13.69174 49.04495 31.36834
# Shear Modulus (GPa) = 10.32518 19.26421 14.79470
#
# Velocity S-wave (km/s) = 2.48693 3.39696 2.97692
# Velocity P-wave (km/s) = 4.05559 6.69058 5.53226
#
# Compressibility (1/GPa) = 0.07303674
#
# Stress axis : x y z
#
# Youngs Moduli (GPa) = 6.59768 57.04898 49.80864
#
# Poissons Ratio (x) = 1.68469 1.33763
# Poissons Ratio (y) = 0.19483 0.08381
# Poissons Ratio (z) = 0.17718 0.09599
#
# Static dielectric constant tensor:
#      x y z
#    x 1.568490 0.000000 0.000000 
#    y 0.000000 1.566880 0.000000 
#    z 0.000000 0.000000 1.560310 
# 
# From -- ./inp_files/15725.got.cif
#   From: 2010.05.17/outbox.cif.g08.bks.cpg/sg47_8_cif.got.tgz:15725.got - 2010.06.03 20:15:42.
