data_PCOD9383737
_publ_section_title
;
Structure prediction by ZEFSAII (Michael W. Deem and Ramdas Pophale) SiO2 
 PCOD9383737
Probable space group: P M M M
;
_chemical_formula_sum "Si O2"
_cell_formula_units_Z 48
_cell_length_a 8.225979
_cell_length_b 17.888636
_cell_length_c 15.798103
_cell_angle_alpha 90.000000
_cell_angle_beta 90.000000
_cell_angle_gamma 90.000000
_cell_volume 2324.715250
_symmetry_space_group_name_H-M "P M M M"
_symmetry_group_IT_number 47
_symmetry_cell_setting 'orthorhombic'
loop_
_space_group_symop_operation_xyz
x,y,z
-x,-y,z
x,-y,-z
-x,y,-z
-x,-y,-z
x,y,-z
-x,y,z
x,-y,z
loop_
_atom_site_type_symbol
_atom_site_label
_atom_site_fract_x
_atom_site_fract_y
_atom_site_fract_z
Si Si1 0.308536 0.582182 0.865447
Si Si2 0.308597 0.136495 0.000000
Si Si3 0.688850 0.198208 0.500000
Si Si4 0.813157 0.698428 0.000000
Si Si5 0.809990 0.623699 0.685153
Si Si6 0.300856 0.794974 0.317953
Si Si7 0.698914 0.916376 0.180803
Si Si8 0.687656 0.619832 0.500000
O O1 0.500000 0.587511 0.883601
O O2 0.250034 0.500000 0.892537
O O3 0.223954 0.647626 0.918035
O O4 0.282337 0.588772 0.764818
O O5 0.289442 0.225783 0.000000
O O6 0.241668 0.102618 0.086630
O O7 0.500000 0.118258 0.000000
O O8 0.500000 0.175754 0.500000
O O9 0.756051 0.174759 0.409566
O O10 0.695146 0.289073 0.500000
O O11 0.000000 0.720939 0.000000
O O12 0.769046 0.712020 0.691085
O O13 0.763324 0.597259 0.590250
O O14 0.000000 0.610854 0.697412
O O15 0.500000 0.788334 0.318842
O O16 0.251338 0.851235 0.244658
O O17 0.500000 0.914903 0.180357
O O18 0.747899 0.000000 0.205869
O O19 0.500000 0.597725 0.500000
#
# Coordination Sequence:
#
# PCOD9383737 Si02
#       8
#     8   4   4   4   8   8   8   4
#     4  11  24  42  62  83 111 149 188 223 269 334
#     4  10  19  33  55  78 103 137 177 220 268 326
#     4   7  12  23  42  68  94 128 173 218 262 307
#     4  12  25  40  61  88 115 140 177 232 284 330
#     4  11  21  34  56  86 117 147 186 235 282 327
#     4   9  16  29  49  71 101 141 183 225 270 324
#     4   9  17  29  48  75 103 134 178 229 272 313
#     4   9  17  33  56  81 112 149 191 234 278 329
#
# _framework density 20.647690000000001
#
# number of rings (size 3 to 8) (size 9 to 14) (size 15 to 20)
#    0.000    2.167    0.000    5.500    0.000    4.667 
#    0.000    0.833    0.000    7.500    0.000    0.000 
#    0.000    4.000    0.000    0.000    0.000    0.000 
#
# Total GULP energy -267966.411997 kJ/mol
# GULP energy per Si atom -5582.633583 kJ/mol
# Density = 2.060070 g / cm^3
# Si number density = 20.647690 Si / 1000 Ang^3
#
#
#
# Elastic Constant Matrix: (Units=GPa)
#
#
# Indices 1 2 3 4 5 6 
#
# 1 21.0905 -12.4195 -4.5151 0.0000 0.0000 0.0000
# 2 -12.4195 57.8677 15.9820 0.0000 0.0000 0.0000
# 3 -4.5151 15.9820 104.8459 0.0000 0.0000 0.0000
# 4 0.0000 0.0000 0.0000 -24.0399 0.0000 0.0000
# 5 0.0000 0.0000 0.0000 0.0000 17.3626 0.0000
# 6 0.0000 0.0000 0.0000 0.0000 0.0000 -13.0271
#
#
#
# Elastic Compliance Matrix: (Units=1/GPa)
#
#
# Indices 1 2 3 4 5 6 
#
# 1 0.054309 0.011494 0.000587 0.000000 0.000000 0.000000
# 2 0.011494 0.020473 -0.002626 0.000000 0.000000 0.000000
# 3 0.000587 -0.002626 0.009963 0.000000 0.000000 0.000000
# 4 0.000000 0.000000 0.000000 -0.041598 0.000000 0.000000
# 5 0.000000 0.000000 0.000000 0.000000 0.057595 0.000000
# 6 0.000000 0.000000 0.000000 0.000000 0.000000 -0.076763
#
#
# Mechanical properties :
#
#
# Convention : Reuss Voigt Hill
#
# Bulk Modulus (GPa) = 9.64750 20.21097 14.92923
# Shear Modulus (GPa) = 126.19564 8.37624 67.28594
#
# Velocity S-wave (km/s) = 7.82632 2.01632 5.71475
# Velocity P-wave (km/s) = 9.29252 3.90262 7.12676
#
# Compressibility (1/GPa) = 0.10365383
#
# Stress axis : x y z
#
# Youngs Moduli (GPa) = 18.41330 48.84544 100.36806
#
# Poissons Ratio (x) = -0.56141 -0.05889
# Poissons Ratio (y) = -0.21164 0.26354
# Poissons Ratio (z) = -0.01080 0.12826
#
# Static dielectric constant tensor:
#      x y z
#    x 1.723600 0.000000 0.000000 
#    y 0.000000 1.711740 0.000000 
#    z 0.000000 0.000000 1.768510 
# 
# From -- ./inp_files/21198.got.cif
#   From: 2010.05.17/outbox.cif.g08.bks.cpg/sg47_11_cif.got.tgz:21198.got - 2010.06.03 20:15:42.
