data_PCOD9383264
_publ_section_title
;
Structure prediction by ZEFSAII (Michael W. Deem and Ramdas Pophale) SiO2 
 PCOD9383264
Probable space group: P M M M
;
_chemical_formula_sum "Si O2"
_cell_formula_units_Z 32
_cell_length_a 7.486415
_cell_length_b 13.487639
_cell_length_c 14.661486
_cell_angle_alpha 90.000000
_cell_angle_beta 90.000000
_cell_angle_gamma 90.000000
_cell_volume 1480.429810
_symmetry_space_group_name_H-M "P M M M"
_symmetry_group_IT_number 47
_symmetry_cell_setting 'orthorhombic'
loop_
_space_group_symop_operation_xyz
x,y,z
-x,-y,z
x,-y,-z
-x,y,-z
-x,-y,-z
x,y,-z
-x,y,z
x,-y,z
loop_
_atom_site_type_symbol
_atom_site_label
_atom_site_fract_x
_atom_site_fract_y
_atom_site_fract_z
Si Si1 0.780936 0.718732 0.396564
Si Si2 0.782310 0.391257 0.893507
Si Si3 0.213138 0.801243 0.786440
Si Si4 0.797315 0.500000 0.611026
Si Si5 0.289189 0.000000 0.102657
O O1 0.722472 0.739241 0.500000
O O2 0.724795 0.794816 0.318345
O O3 0.720353 0.607734 0.367304
O O4 0.000000 0.714738 0.399629
O O5 0.726065 0.500000 0.858541
O O6 0.717321 0.295372 0.839795
O O7 0.000000 0.390422 0.890718
O O8 0.732442 0.384030 0.000000
O O9 0.000000 0.789763 0.782493
O O10 0.244722 0.901622 0.840846
O O11 0.806840 0.500000 0.500000
O O12 0.000000 0.500000 0.648434
O O13 0.500000 0.000000 0.092967
O O14 0.210648 0.000000 0.000000
#
# Coordination Sequence:
#
# PCOD9383264 Si02
#       5
#     8   8   8   4   4
#     4   8  14  24  41  72 112 144 168 200 246 296
#     4   8  14  24  40  69 106 132 153 196 257 307
#     4  10  19  31  54  81 103 132 174 215 251 297
#     4   7  10  18  34  62 106 149 170 188 231 291
#     4  11  25  43  58  71  94 130 171 219 272 319
#
# _framework density 21.615344
#
# number of rings (size 3 to 8) (size 9 to 14) (size 15 to 20)
#    0.000    3.250    0.000    3.375    1.750    2.000 
#    0.000    0.625    0.000    5.250    0.000    3.500 
#    0.000    3.000    0.000    0.000    0.000    0.000 
#
# Total GULP energy -178473.023950 kJ/mol
# GULP energy per Si atom -5577.281998 kJ/mol
# Density = 2.156615 g / cm^3
# Si number density = 21.615344 Si / 1000 Ang^3
#
#
#
# Elastic Constant Matrix: (Units=GPa)
#
#
# Indices 1 2 3 4 5 6 
#
# 1 55.6377 -0.1398 7.3480 0.0000 0.0000 0.0000
# 2 -0.1398 170.5661 122.5563 0.0000 0.0000 0.0000
# 3 7.3480 122.5563 172.3669 0.0000 0.0000 0.0000
# 4 0.0000 0.0000 0.0000 43.0885 0.0000 0.0000
# 5 0.0000 0.0000 0.0000 0.0000 -94.3182 0.0000
# 6 0.0000 0.0000 0.0000 0.0000 0.0000 -257.2130
#
#
#
# Elastic Compliance Matrix: (Units=1/GPa)
#
#
# Indices 1 2 3 4 5 6 
#
# 1 0.018189 0.001170 -0.001607 0.000000 0.000000 0.000000
# 2 0.001170 0.012062 -0.008626 0.000000 0.000000 0.000000
# 3 -0.001607 -0.008626 0.012003 0.000000 0.000000 0.000000
# 4 0.000000 0.000000 0.000000 0.023208 0.000000 0.000000
# 5 0.000000 0.000000 0.000000 0.000000 -0.010602 0.000000
# 6 0.000000 0.000000 0.000000 0.000000 0.000000 -0.003888
#
#
# Mechanical properties :
#
#
# Convention : Reuss Voigt Hill
#
# Bulk Modulus (GPa) = 41.44755 73.12219 57.28487
# Shear Modulus (GPa) = 64.81646 -43.76813 10.52417
#
# Velocity S-wave (km/s) = 5.48192 -4.50473 2.20894
# Velocity P-wave (km/s) = 7.69969 2.61639 5.75025
#
# Compressibility (1/GPa) = 0.02412688
#
# Stress axis : x y z
#
# Youngs Moduli (GPa) = 54.97950 82.90600 83.30979
#
# Poissons Ratio (x) = -0.09696 0.13388
# Poissons Ratio (y) = -0.06430 0.71864
# Poissons Ratio (z) = 0.08835 0.71515
#
# Static dielectric constant tensor:
#      x y z
#    x 1.839640 0.000000 0.000000 
#    y 0.000000 1.832730 0.000000 
#    z 0.000000 0.000000 1.819890 
# 
# From -- ./inp_files/20412.got.cif
#   From: 2010.05.17/outbox.cif.g08.bks.cpg/sg47_11_cif.got.tgz:20412.got - 2010.06.03 20:15:42.
