data_PCOD9383342
_publ_section_title
;
Structure prediction by ZEFSAII (Michael W. Deem and Ramdas Pophale) SiO2 
 PCOD9383342
Probable space group: P M M M
;
_chemical_formula_sum "Si O2"
_cell_formula_units_Z 52
_cell_length_a 9.590240
_cell_length_b 8.141882
_cell_length_c 36.659408
_cell_angle_alpha 90.000000
_cell_angle_beta 90.000000
_cell_angle_gamma 90.000000
_cell_volume 2862.461980
_symmetry_space_group_name_H-M "P M M M"
_symmetry_group_IT_number 47
_symmetry_cell_setting 'orthorhombic'
loop_
_space_group_symop_operation_xyz
x,y,z
-x,-y,z
x,-y,-z
-x,y,-z
-x,-y,-z
x,y,-z
-x,y,z
x,-y,z
loop_
_atom_site_type_symbol
_atom_site_label
_atom_site_fract_x
_atom_site_fract_y
_atom_site_fract_z
Si Si1 0.660435 0.198125 0.609260
Si Si2 0.661422 0.804340 0.234536
Si Si3 0.838646 0.306262 0.833866
Si Si4 0.170249 0.500000 0.957824
Si Si5 0.161706 0.200431 0.540539
Si Si6 0.169885 0.182332 0.087882
Si Si7 0.338549 0.303988 0.687282
O O1 0.500000 0.257194 0.607152
O O2 0.746706 0.258090 0.574438
O O3 0.721967 0.248547 0.648532
O O4 0.658092 0.000000 0.608195
O O5 0.500000 0.745791 0.233158
O O6 0.748156 0.728834 0.201629
O O7 0.720585 0.760484 0.274576
O O8 0.661618 0.000000 0.230657
O O9 0.836268 0.500000 0.842379
O O10 0.788652 0.213027 0.870115
O O11 0.000000 0.259224 0.827000
O O12 0.216173 0.665257 0.936955
O O13 0.000000 0.500000 0.956999
O O14 0.212701 0.500000 0.000000
O O15 0.209459 0.251948 0.500000
O O16 0.000000 0.247959 0.544742
O O17 0.165421 0.000000 0.540851
O O18 0.000000 0.186038 0.087653
O O19 0.213228 0.000000 0.075790
O O20 0.500000 0.243146 0.686628
O O21 0.338797 0.500000 0.688509
#
# Coordination Sequence:
#
# PCOD9383342 Si02
#       7
#     8   8   8   4   8   8   8
#     4   9  16  26  43  66  87 108 140 182 222 261
#     4  10  20  33  50  73  99 126 161 205 247 290
#     4  10  19  32  50  71  98 132 168 204 245 297
#     4   9  16  26  40  62  93 127 167 211 253 305
#     4   8  14  25  41  62  88 115 141 172 216 268
#     4   9  16  27  43  63  91 128 166 205 253 304
#     4   9  17  30  47  65  88 120 153 185 229 282
#
# _framework density 18.166179
#
# number of rings (size 3 to 8) (size 9 to 14) (size 15 to 20)
#    0.000    2.846    0.769    1.846    0.000    4.308 
#    0.000    3.846    0.000    3.692    0.000    3.231 
#    0.000    1.231    0.000    3.231    0.000    3.077 
#
# Total GULP energy -289728.531874 kJ/mol
# GULP energy per Si atom -5571.702536 kJ/mol
# Density = 1.812483 g / cm^3
# Si number density = 18.166179 Si / 1000 Ang^3
#
#
#
# Elastic Constant Matrix: (Units=GPa)
#
#
# Indices 1 2 3 4 5 6 
#
# 1 23.6293 12.7299 38.5291 0.0000 0.0000 0.0000
# 2 12.7299 62.8635 47.0535 0.0000 0.0000 0.0000
# 3 38.5291 47.0535 159.4659 0.0000 0.0000 0.0000
# 4 0.0000 0.0000 0.0000 29.2512 0.0000 0.0000
# 5 0.0000 0.0000 0.0000 0.0000 24.0144 0.0000
# 6 0.0000 0.0000 0.0000 0.0000 0.0000 10.6449
#
#
#
# Elastic Compliance Matrix: (Units=1/GPa)
#
#
# Indices 1 2 3 4 5 6 
#
# 1 0.070016 -0.001946 -0.016343 0.000000 0.000000 0.000000
# 2 -0.001946 0.020471 -0.005570 0.000000 0.000000 0.000000
# 3 -0.016343 -0.005570 0.011863 0.000000 0.000000 0.000000
# 4 0.000000 0.000000 0.000000 0.034187 0.000000 0.000000
# 5 0.000000 0.000000 0.000000 0.000000 0.041642 0.000000
# 6 0.000000 0.000000 0.000000 0.000000 0.000000 0.093941
#
#
# Mechanical properties :
#
#
# Convention : Reuss Voigt Hill
#
# Bulk Modulus (GPa) = 18.30397 49.17597 33.73997
# Shear Modulus (GPa) = 14.79078 22.62519 18.70799
#
# Velocity S-wave (km/s) = 2.85650 3.53293 3.21257
# Velocity P-wave (km/s) = 4.58009 6.61596 5.68982
#
# Compressibility (1/GPa) = 0.05463296
#
# Stress axis : x y z
#
# Youngs Moduli (GPa) = 14.28238 48.85010 84.29464
#
# Poissons Ratio (x) = 0.09505 1.37761
# Poissons Ratio (y) = 0.02779 0.46954
# Poissons Ratio (z) = 0.23341 0.27210
#
# Static dielectric constant tensor:
#      x y z
#    x 1.614700 0.000000 0.000000 
#    y 0.000000 1.640420 0.000000 
#    z 0.000000 0.000000 1.630000 
# 
# From -- ./inp_files/34531.got.cif
#   From: 2010.05.17/outbox.cif.g08.bks.cpg/sg47_18_cif.got.tgz:34531.got - 2010.06.03 20:15:42.
