data_PCOD9383287
_publ_section_title
;
Structure prediction by ZEFSAII (Michael W. Deem and Ramdas Pophale) SiO2 
 PCOD9383287
Probable space group: P M M M
;
_chemical_formula_sum "Si O2"
_cell_formula_units_Z 40
_cell_length_a 18.928322
_cell_length_b 8.007759
_cell_length_c 18.802160
_cell_angle_alpha 90.000000
_cell_angle_beta 90.000000
_cell_angle_gamma 90.000000
_cell_volume 2849.908087
_symmetry_space_group_name_H-M "P M M M"
_symmetry_group_IT_number 47
_symmetry_cell_setting 'orthorhombic'
loop_
_space_group_symop_operation_xyz
x,y,z
-x,-y,z
x,-y,-z
-x,y,-z
-x,-y,-z
x,y,-z
-x,y,z
x,-y,z
loop_
_atom_site_type_symbol
_atom_site_label
_atom_site_fract_x
_atom_site_fract_y
_atom_site_fract_z
Si Si1 0.269229 0.702873 0.582915
Si Si2 0.575892 0.300851 0.585843
Si Si3 0.000000 0.700982 0.582024
Si Si4 0.865312 0.194604 0.326260
Si Si5 0.914204 0.000000 0.918694
Si Si6 0.084480 0.687026 0.177992
O O1 0.258715 0.752871 0.500000
O O2 0.269447 0.500000 0.583534
O O3 0.347043 0.762669 0.608208
O O4 0.206410 0.764369 0.632308
O O5 0.576255 0.284483 0.500000
O O6 0.500000 0.231572 0.611304
O O7 0.575164 0.500000 0.600586
O O8 0.930574 0.763222 0.622183
O O9 0.000000 0.500000 0.583935
O O10 0.000000 0.755138 0.500000
O O11 0.876404 0.293356 0.253068
O O12 0.868232 0.000000 0.308133
O O13 0.893722 0.833631 0.875612
O O14 0.000000 0.000000 0.920762
O O15 0.889017 0.000000 0.000000
O O16 0.095070 0.500000 0.149316
O O17 0.000000 0.706980 0.192048
#
# Coordination Sequence:
#
# PCOD9383287 Si02
#       6
#     8   8   4   8   4   8
#     4   9  17  28  41  58  80 106 141 186 227 262
#     4   7  10  19  37  58  76  96 128 173 222 266
#     4  11  23  35  45  57  73 102 147 193 233 267
#     4  12  22  31  43  58  81 111 147 183 221 264
#     4   9  18  32  50  72  92 108 133 170 211 255
#     4  10  19  32  49  66  86 113 143 174 214 260
#
# _framework density 14.035539999999999
#
# number of rings (size 3 to 8) (size 9 to 14) (size 15 to 20)
#    0.000    2.400    2.000    4.500    0.000    4.000 
#    0.000    2.000    0.000    0.600    0.000    2.800 
#    0.000    0.000    0.000    0.000    0.000    2.000 
#
# Total GULP energy -222859.277121 kJ/mol
# GULP energy per Si atom -5571.481928 kJ/mol
# Density = 1.400359 g / cm^3
# Si number density = 14.035540 Si / 1000 Ang^3
#
#
#
# Elastic Constant Matrix: (Units=GPa)
#
#
# Indices 1 2 3 4 5 6 
#
# 1 102.7801 18.1996 31.2320 0.0000 0.0000 0.0000
# 2 18.1996 63.3269 27.5023 0.0000 0.0000 0.0000
# 3 31.2320 27.5023 70.1668 0.0000 0.0000 0.0000
# 4 0.0000 0.0000 0.0000 -69.2000 0.0000 0.0000
# 5 0.0000 0.0000 0.0000 0.0000 0.5515 0.0000
# 6 0.0000 0.0000 0.0000 0.0000 0.0000 -8.7775
#
#
#
# Elastic Compliance Matrix: (Units=1/GPa)
#
#
# Indices 1 2 3 4 5 6 
#
# 1 0.011337 -0.001285 -0.004543 0.000000 0.000000 0.000000
# 2 -0.001285 0.019176 -0.006944 0.000000 0.000000 0.000000
# 3 -0.004543 -0.006944 0.018995 0.000000 0.000000 0.000000
# 4 0.000000 0.000000 0.000000 -0.014451 0.000000 0.000000
# 5 0.000000 0.000000 0.000000 0.000000 1.813383 0.000000
# 6 0.000000 0.000000 0.000000 0.000000 0.000000 -0.113927
#
#
# Mechanical properties :
#
#
# Convention : Reuss Voigt Hill
#
# Bulk Modulus (GPa) = 41.72762 43.34908 42.53835
# Shear Modulus (GPa) = 2.82798 -4.86255 -1.01729
#
# Velocity S-wave (km/s) = 1.42100 -1.86332 -0.85227
# Velocity P-wave (km/s) = 5.69972 5.13059 5.42263
#
# Compressibility (1/GPa) = 0.02396494
#
# Stress axis : x y z
#
# Youngs Moduli (GPa) = 88.20287 52.14784 52.64410
#
# Poissons Ratio (x) = 0.06703 0.23914
# Poissons Ratio (y) = 0.11338 0.36556
# Poissons Ratio (z) = 0.40067 0.36212
#
# Static dielectric constant tensor:
#      x y z
#    x 1.478520 0.000000 0.000000 
#    y 0.000000 1.498560 0.000000 
#    z 0.000000 0.000000 1.429520 
# 
# From -- ./inp_files/28400.got.cif
#   From: 2010.05.17/outbox.cif.g08.bks.cpg/sg47_15_cif.got.tgz:28400.got - 2010.06.03 20:15:42.
