data_PCOD9383800
_publ_section_title
;
Structure prediction by ZEFSAII (Michael W. Deem and Ramdas Pophale) SiO2 
 PCOD9383800
Probable space group: P M M M
;
_chemical_formula_sum "Si O2"
_cell_formula_units_Z 40
_cell_length_a 7.771448
_cell_length_b 21.442283
_cell_length_c 11.317667
_cell_angle_alpha 90.000000
_cell_angle_beta 90.000000
_cell_angle_gamma 90.000000
_cell_volume 1885.948723
_symmetry_space_group_name_H-M "P M M M"
_symmetry_group_IT_number 47
_symmetry_cell_setting 'orthorhombic'
loop_
_space_group_symop_operation_xyz
x,y,z
-x,-y,z
x,-y,-z
-x,y,-z
-x,-y,-z
x,y,-z
-x,y,z
x,-y,z
loop_
_atom_site_type_symbol
_atom_site_label
_atom_site_fract_x
_atom_site_fract_y
_atom_site_fract_z
Si Si1 0.794165 0.206103 0.500000
Si Si2 0.700051 0.868540 0.733169
Si Si3 0.291355 0.352410 0.500000
Si Si4 0.288747 0.000000 0.638037
Si Si5 0.698630 0.631240 0.243803
Si Si6 0.799351 0.247177 0.132302
Si Si7 0.291943 0.426519 0.000000
O O1 0.719925 0.171169 0.386534
O O2 0.752555 0.279097 0.500000
O O3 0.000000 0.199095 0.500000
O O4 0.500000 0.874819 0.763560
O O5 0.783409 0.824615 0.831168
O O6 0.768906 0.937226 0.703790
O O7 0.500000 0.357329 0.500000
O O8 0.227339 0.380067 0.374759
O O9 0.500000 0.000000 0.636733
O O10 0.235882 0.000000 0.500000
O O11 0.500000 0.610331 0.248302
O O12 0.705386 0.705593 0.220167
O O13 0.775198 0.602046 0.123599
O O14 0.000000 0.263886 0.136906
O O15 0.732719 0.257054 0.000000
O O16 0.262214 0.500000 0.000000
O O17 0.500000 0.415312 0.000000
#
# Coordination Sequence:
#
# PCOD9383800 Si02
#       7
#     4   8   4   4   8   8   4
#     4  12  22  31  49  81 116 147 178 225 287 338
#     4  11  21  36  57  79 107 144 186 233 279 337
#     4  10  20  32  50  83 118 148 185 235 285 338
#     4   9  18  34  55  78 105 139 184 231 279 334
#     4  10  19  33  56  83 113 150 191 233 281 335
#     4  11  23  37  54  80 113 144 183 237 290 340
#     4   9  18  34  57  85 115 152 199 242 275 321
#
# _framework density 21.209485000000001
#
# number of rings (size 3 to 8) (size 9 to 14) (size 15 to 20)
#    0.000    1.600    4.000    2.100    0.000    1.200 
#    0.000    3.500    0.000    7.200    0.000    0.000 
#    0.000    2.400    0.000    0.000    0.000    0.000 
#
# Total GULP energy -223275.043336 kJ/mol
# GULP energy per Si atom -5581.876083 kJ/mol
# Density = 2.116121 g / cm^3
# Si number density = 21.209485 Si / 1000 Ang^3
#
#
#
# Elastic Constant Matrix: (Units=GPa)
#
#
# Indices 1 2 3 4 5 6 
#
# 1 39.6654 -1.7844 -0.4628 0.0000 0.0000 0.0000
# 2 -1.7844 72.2427 42.5200 0.0000 0.0000 0.0000
# 3 -0.4628 42.5200 162.1674 0.0000 0.0000 0.0000
# 4 0.0000 0.0000 0.0000 30.1823 0.0000 0.0000
# 5 0.0000 0.0000 0.0000 0.0000 27.6808 0.0000
# 6 0.0000 0.0000 0.0000 0.0000 0.0000 -30.5563
#
#
#
# Elastic Compliance Matrix: (Units=1/GPa)
#
#
# Indices 1 2 3 4 5 6 
#
# 1 0.025241 0.000687 -0.000108 0.000000 0.000000 0.000000
# 2 0.000687 0.016387 -0.004295 0.000000 0.000000 0.000000
# 3 -0.000108 -0.004295 0.007292 0.000000 0.000000 0.000000
# 4 0.000000 0.000000 0.000000 0.033132 0.000000 0.000000
# 5 0.000000 0.000000 0.000000 0.000000 0.036126 0.000000
# 6 0.000000 0.000000 0.000000 0.000000 0.000000 -0.032727
#
#
# Mechanical properties :
#
#
# Convention : Reuss Voigt Hill
#
# Bulk Modulus (GPa) = 24.10321 39.40236 31.75279
# Shear Modulus (GPa) = 46.85507 21.04822 33.95164
#
# Velocity S-wave (km/s) = 4.70527 3.15365 4.00531
# Velocity P-wave (km/s) = 6.39597 5.64612 6.03271
#
# Compressibility (1/GPa) = 0.04148825
#
# Stress axis : x y z
#
# Youngs Moduli (GPa) = 39.61884 61.02432 137.13257
#
# Poissons Ratio (x) = -0.04193 0.01483
# Poissons Ratio (y) = -0.02722 0.58894
# Poissons Ratio (z) = 0.00428 0.26208
#
# Static dielectric constant tensor:
#      x y z
#    x 1.763090 0.000000 0.000000 
#    y 0.000000 1.741050 0.000000 
#    z 0.000000 0.000000 1.799810 
# 
# From -- ./inp_files/15154.got.cif
#   From: 2010.05.17/outbox.cif.g08.bks.cpg/sg47_8_cif.got.tgz:15154.got - 2010.06.03 20:15:42.
