data_PCOD9383076
_publ_section_title
;
Structure prediction by ZEFSAII (Michael W. Deem and Ramdas Pophale) SiO2 
 PCOD9383076
Probable space group: P M M M
;
_chemical_formula_sum "Si O2"
_cell_formula_units_Z 48
_cell_length_a 9.810907
_cell_length_b 20.211937
_cell_length_c 13.892713
_cell_angle_alpha 90.000000
_cell_angle_beta 90.000000
_cell_angle_gamma 90.000000
_cell_volume 2754.889342
_symmetry_space_group_name_H-M "P M M M"
_symmetry_group_IT_number 47
_symmetry_cell_setting 'orthorhombic'
loop_
_space_group_symop_operation_xyz
x,y,z
-x,-y,z
x,-y,-z
-x,y,-z
-x,-y,-z
x,y,-z
-x,y,z
x,-y,z
loop_
_atom_site_type_symbol
_atom_site_label
_atom_site_fract_x
_atom_site_fract_y
_atom_site_fract_z
Si Si1 0.657310 0.574489 0.882880
Si Si2 0.652485 0.311917 0.384658
Si Si3 0.162916 0.794171 0.285842
Si Si4 0.149196 0.423897 0.617008
Si Si5 0.838739 0.700847 0.112110
Si Si6 0.165308 0.074896 0.610345
O O1 0.500000 0.584655 0.852650
O O2 0.700207 0.500000 0.852524
O O3 0.753661 0.636041 0.857584
O O4 0.657520 0.573427 0.000000
O O5 0.644474 0.313790 0.500000
O O6 0.500000 0.303969 0.345872
O O7 0.752657 0.253476 0.355210
O O8 0.725037 0.379523 0.352645
O O9 0.189866 0.763748 0.180270
O O10 0.204054 0.868929 0.313167
O O11 0.000000 0.788577 0.302841
O O12 0.147244 0.422774 0.500000
O O13 0.161320 0.500000 0.645526
O O14 0.000000 0.398245 0.649034
O O15 0.000000 0.686203 0.119932
O O16 0.808716 0.714908 0.000000
O O17 0.206600 0.091991 0.500000
O O18 0.000000 0.073103 0.609798
O O19 0.212308 0.000000 0.631339
#
# Coordination Sequence:
#
# PCOD9383076 Si02
#       6
#     8   8   8   8   8   8
#     4   8  14  26  45  67  89 116 154 200 247 290
#     4  10  20  31  44  66  95 122 149 188 236 281
#     4  10  19  31  49  70  93 124 158 191 230 279
#     4   8  14  26  44  63  84 116 158 197 230 269
#     4   9  18  31  46  67  95 125 158 197 240 283
#     4   8  14  26  47  75 100 120 150 193 233 271
#
# _framework density 17.423566999999998
#
# number of rings (size 3 to 8) (size 9 to 14) (size 15 to 20)
#    0.000    3.167    0.000    2.500    0.000    3.000 
#    0.000    4.167    0.000    2.000    0.000    5.833 
#    0.000    0.000    0.000    5.667    0.000    6.167 
#
# Total GULP energy -267402.774333 kJ/mol
# GULP energy per Si atom -5570.891132 kJ/mol
# Density = 1.738391 g / cm^3
# Si number density = 17.423567 Si / 1000 Ang^3
#
#
#
# Elastic Constant Matrix: (Units=GPa)
#
#
# Indices 1 2 3 4 5 6 
#
# 1 46.4618 44.5118 31.2476 0.0000 0.0000 0.0000
# 2 44.5118 138.3898 51.3938 0.0000 0.0000 0.0000
# 3 31.2476 51.3938 82.3315 0.0000 0.0000 0.0000
# 4 0.0000 0.0000 0.0000 53.4499 0.0000 0.0000
# 5 0.0000 0.0000 0.0000 0.0000 12.2860 0.0000
# 6 0.0000 0.0000 0.0000 0.0000 0.0000 -10.8875
#
#
#
# Elastic Compliance Matrix: (Units=1/GPa)
#
#
# Indices 1 2 3 4 5 6 
#
# 1 0.034819 -0.008190 -0.008102 0.000000 0.000000 0.000000
# 2 -0.008190 0.011333 -0.003966 0.000000 0.000000 0.000000
# 3 -0.008102 -0.003966 0.017697 0.000000 0.000000 0.000000
# 4 0.000000 0.000000 0.000000 0.018709 0.000000 0.000000
# 5 0.000000 0.000000 0.000000 0.000000 0.081393 0.000000
# 6 0.000000 0.000000 0.000000 0.000000 0.000000 -0.091848
#
#
# Mechanical properties :
#
#
# Convention : Reuss Voigt Hill
#
# Bulk Modulus (GPa) = 42.86034 57.94330 50.40182
# Shear Modulus (GPa) = 41.52933 20.30500 30.91716
#
# Velocity S-wave (km/s) = 4.88742 3.41746 4.21699
# Velocity P-wave (km/s) = 7.51676 6.99285 7.25953
#
# Compressibility (1/GPa) = 0.02333159
#
# Stress axis : x y z
#
# Youngs Moduli (GPa) = 28.72023 88.23697 56.50719
#
# Poissons Ratio (x) = 0.72267 0.45784
# Poissons Ratio (y) = 0.23522 0.22411
# Poissons Ratio (z) = 0.23270 0.34995
#
# Static dielectric constant tensor:
#      x y z
#    x 1.593900 0.000000 0.000000 
#    y 0.000000 1.587910 0.000000 
#    z 0.000000 0.000000 1.649250 
# 
# From -- ./inp_files/21036.got.cif
#   From: 2010.05.17/outbox.cif.g08.bks.cpg/sg47_11_cif.got.tgz:21036.got - 2010.06.03 20:15:42.
