data_PCOD9383693
_publ_section_title
;
Structure prediction by ZEFSAII (Michael W. Deem and Ramdas Pophale) SiO2 
 PCOD9383693
Probable space group: P M M M
;
_chemical_formula_sum "Si O2"
_cell_formula_units_Z 52
_cell_length_a 17.222340
_cell_length_b 9.175735
_cell_length_c 18.258300
_cell_angle_alpha 90.000000
_cell_angle_beta 90.000000
_cell_angle_gamma 90.000000
_cell_volume 2885.315839
_symmetry_space_group_name_H-M "P M M M"
_symmetry_group_IT_number 47
_symmetry_cell_setting 'orthorhombic'
loop_
_space_group_symop_operation_xyz
x,y,z
-x,-y,z
x,-y,-z
-x,y,-z
-x,-y,-z
x,y,-z
-x,y,z
x,-y,z
loop_
_atom_site_type_symbol
_atom_site_label
_atom_site_fract_x
_atom_site_fract_y
_atom_site_fract_z
Si Si1 0.882889 0.169292 0.500000
Si Si2 0.591007 0.829891 0.913097
Si Si3 0.000000 0.176495 0.916266
Si Si4 0.307349 0.666366 0.356420
Si Si5 0.306664 0.165775 0.500000
Si Si6 0.118266 0.331005 0.648468
Si Si7 0.129198 0.175899 0.798843
Si Si8 0.703851 0.325203 0.804564
O O1 0.788115 0.171895 0.500000
O O2 0.907773 0.251513 0.425918
O O3 0.906103 0.000000 0.500000
O O4 0.500000 0.804006 0.897844
O O5 0.645928 0.725903 0.867099
O O6 0.607887 0.000000 0.895994
O O7 0.602678 0.810726 0.000000
O O8 0.925596 0.216161 0.867121
O O9 0.000000 0.000000 0.920186
O O10 0.000000 0.231296 0.000000
O O11 0.331408 0.500000 0.367258
O O12 0.333147 0.758443 0.425557
O O13 0.212825 0.669151 0.354383
O O14 0.330685 0.715490 0.275355
O O15 0.330457 0.000000 0.500000
O O16 0.093974 0.500000 0.651059
O O17 0.098212 0.244707 0.722641
O O18 0.214299 0.242555 0.811725
O O19 0.132073 0.000000 0.792107
O O20 0.716443 0.500000 0.804306
#
# Coordination Sequence:
#
# PCOD9383693 Si02
#       8
#     4   8   4   8   4   8   8   8
#     4   9  15  23  39  66  96 128 168 206 244 297
#     4   9  19  36  56  78 105 137 171 206 249 304
#     4   9  20  38  57  76  97 126 169 217 264 315
#     4   8  15  26  39  59  93 132 164 197 241 293
#     4   9  15  21  35  61  91 123 163 208 245 280
#     4   9  16  27  43  66  98 132 165 205 255 305
#     4  10  19  33  54  76 100 133 173 217 262 308
#     4  10  20  33  51  78 108 137 171 210 255 306
#
# _framework density 18.022290000000002
#
# number of rings (size 3 to 8) (size 9 to 14) (size 15 to 20)
#    0.000    2.846    0.000    3.231    0.000    7.385 
#    0.000    3.846    0.000    3.692    0.000    3.769 
#    0.000    4.308    0.000    0.000    0.000    0.000 
#
# Total GULP energy -289940.894173 kJ/mol
# GULP energy per Si atom -5575.786426 kJ/mol
# Density = 1.798127 g / cm^3
# Si number density = 18.022290 Si / 1000 Ang^3
#
#
#
# Elastic Constant Matrix: (Units=GPa)
#
#
# Indices 1 2 3 4 5 6 
#
# 1 31.1235 33.0746 42.2085 0.0000 0.0000 0.0000
# 2 33.0746 99.8121 77.4427 0.0000 0.0000 0.0000
# 3 42.2085 77.4427 149.7805 0.0000 0.0000 0.0000
# 4 0.0000 0.0000 0.0000 34.5412 0.0000 0.0000
# 5 0.0000 0.0000 0.0000 0.0000 -51.5427 0.0000
# 6 0.0000 0.0000 0.0000 0.0000 0.0000 -5.7923
#
#
#
# Elastic Compliance Matrix: (Units=1/GPa)
#
#
# Indices 1 2 3 4 5 6 
#
# 1 0.058441 -0.011001 -0.010781 0.000000 0.000000 0.000000
# 2 -0.011001 0.018801 -0.006621 0.000000 0.000000 0.000000
# 3 -0.010781 -0.006621 0.013138 0.000000 0.000000 0.000000
# 4 0.000000 0.000000 0.000000 0.028951 0.000000 0.000000
# 5 0.000000 0.000000 0.000000 0.000000 -0.019401 0.000000
# 6 0.000000 0.000000 0.000000 0.000000 0.000000 -0.172643
#
#
# Mechanical properties :
#
#
# Convention : Reuss Voigt Hill
#
# Bulk Modulus (GPa) = 29.78426 65.12975 47.45700
# Shear Modulus (GPa) = -1060.20606 3.97393 -528.11606
#
# Velocity S-wave (km/s) = -24.28069 1.48654 -17.13683
# Velocity P-wave (km/s) = 27.73999 6.25806 19.10947
#
# Compressibility (1/GPa) = 0.03357478
#
# Stress axis : x y z
#
# Youngs Moduli (GPa) = 17.11125 53.18803 76.11586
#
# Poissons Ratio (x) = 0.58511 0.82061
# Poissons Ratio (y) = 0.18824 0.50396
# Poissons Ratio (z) = 0.18448 0.35216
#
# Static dielectric constant tensor:
#      x y z
#    x 1.614950 0.000000 0.000000 
#    y 0.000000 1.604380 0.000000 
#    z 0.000000 0.000000 1.618390 
# 
# From -- ./inp_files/25085.got.cif
#   From: 2010.05.17/outbox.cif.g08.bks.cpg/sg47_13_cif.got.tgz:25085.got - 2010.06.03 20:15:42.
