data_PCOD9383448
_publ_section_title
;
Structure prediction by ZEFSAII (Michael W. Deem and Ramdas Pophale) SiO2 
 PCOD9383448
Probable space group: P M M M
;
_chemical_formula_sum "Si O2"
_cell_formula_units_Z 52
_cell_length_a 22.087685
_cell_length_b 14.382384
_cell_length_c 7.463486
_cell_angle_alpha 90.000000
_cell_angle_beta 90.000000
_cell_angle_gamma 90.000000
_cell_volume 2370.952222
_symmetry_space_group_name_H-M "P M M M"
_symmetry_group_IT_number 47
_symmetry_cell_setting 'orthorhombic'
loop_
_space_group_symop_operation_xyz
x,y,z
-x,-y,z
x,-y,-z
-x,y,-z
-x,-y,-z
x,y,-z
-x,y,z
x,-y,z
loop_
_atom_site_type_symbol
_atom_site_label
_atom_site_fract_x
_atom_site_fract_y
_atom_site_fract_z
Si Si1 0.000000 0.607322 0.715576
Si Si2 0.336623 0.753102 0.699916
Si Si3 0.755806 0.394774 0.707509
Si Si4 0.124848 0.707425 0.793298
Si Si5 0.566982 0.108700 0.718341
Si Si6 0.070215 0.105172 0.218663
Si Si7 0.570433 0.397147 0.784476
O O1 0.059997 0.657968 0.782104
O O2 0.000000 0.500000 0.771202
O O3 0.000000 0.611145 0.500000
O O4 0.315453 0.781231 0.500000
O O5 0.284466 0.689441 0.787358
O O6 0.372687 0.839417 0.784903
O O7 0.391509 0.680313 0.690202
O O8 0.736164 0.400914 0.500000
O O9 0.750934 0.500000 0.782873
O O10 0.824471 0.358129 0.709190
O O11 0.113163 0.811269 0.718817
O O12 0.142803 0.716998 0.000000
O O13 0.567849 0.116187 0.500000
O O14 0.500000 0.144879 0.776341
O O15 0.569037 0.000000 0.763071
O O16 0.000000 0.121649 0.272504
O O17 0.086747 0.000000 0.272302
O O18 0.070445 0.107678 0.000000
O O19 0.500000 0.392335 0.738975
O O20 0.593331 0.500000 0.738896
O O21 0.575518 0.386394 0.000000
#
# Coordination Sequence:
#
# PCOD9383448 Si02
#       7
#     4   8   8   8   8   8   8
#     4  11  23  37  54  77 108 142 169 207 272 329
#     4  10  19  32  52  74  96 131 179 220 250 298
#     4  10  22  38  51  68 103 145 177 213 269 321
#     4  11  21  35  57  83 104 131 178 224 254 301
#     4   8  14  26  47  77 108 133 163 211 269 319
#     4   8  14  28  52  80 107 131 156 196 254 308
#     4   9  18  31  46  68 100 132 160 200 259 315
#
# _framework density 21.932115
#
# number of rings (size 3 to 8) (size 9 to 14) (size 15 to 20)
#    0.000    2.538    0.769    3.462    0.000    5.231 
#    0.000    1.538    0.000    3.692    0.000    2.154 
#    0.000    0.000    0.000    0.000    0.000    0.000 
#
# Total GULP energy -290059.884803 kJ/mol
# GULP energy per Si atom -5578.074708 kJ/mol
# Density = 2.188220 g / cm^3
# Si number density = 21.932115 Si / 1000 Ang^3
#
#
#
# Elastic Constant Matrix: (Units=GPa)
#
#
# Indices 1 2 3 4 5 6 
#
# 1 105.7239 55.1691 -2.4803 0.0000 0.0000 0.0000
# 2 55.1691 123.4326 0.9845 0.0000 0.0000 0.0000
# 3 -2.4803 0.9845 62.9842 0.0000 0.0000 0.0000
# 4 0.0000 0.0000 0.0000 7.1018 0.0000 0.0000
# 5 0.0000 0.0000 0.0000 0.0000 21.8533 0.0000
# 6 0.0000 0.0000 0.0000 0.0000 0.0000 77.8952
#
#
#
# Elastic Compliance Matrix: (Units=1/GPa)
#
#
# Indices 1 2 3 4 5 6 
#
# 1 0.012356 -0.005527 0.000573 0.000000 0.000000 0.000000
# 2 -0.005527 0.010575 -0.000383 0.000000 0.000000 0.000000
# 3 0.000573 -0.000383 0.015906 0.000000 0.000000 0.000000
# 4 0.000000 0.000000 0.000000 0.140810 0.000000 0.000000
# 5 0.000000 0.000000 0.000000 0.000000 0.045760 0.000000
# 6 0.000000 0.000000 0.000000 0.000000 0.000000 0.012838
#
#
# Mechanical properties :
#
#
# Convention : Reuss Voigt Hill
#
# Bulk Modulus (GPa) = 35.50835 44.38747 39.94791
# Shear Modulus (GPa) = 19.35682 37.26788 28.31235
#
# Velocity S-wave (km/s) = 2.97405 4.12665 3.59682
# Velocity P-wave (km/s) = 5.29325 6.55654 5.95847
#
# Compressibility (1/GPa) = 0.02816239
#
# Stress axis : x y z
#
# Youngs Moduli (GPa) = 80.93025 94.56160 62.87117
#
# Poissons Ratio (x) = 0.52267 -0.03602
# Poissons Ratio (y) = 0.44733 0.02408
# Poissons Ratio (z) = -0.04637 0.03621
#
# Static dielectric constant tensor:
#      x y z
#    x 1.791880 0.000000 0.000000 
#    y 0.000000 1.831560 0.000000 
#    z 0.000000 0.000000 1.862310 
# 
# From -- ./inp_files/11060.got.cif
#   From: 2010.05.17/outbox.cif.g08.bks.cpg/sg47_6_cif.got.tgz:11060.got - 2010.06.03 20:15:42.
