data_PCOD9383549
_publ_section_title
;
Structure prediction by ZEFSAII (Michael W. Deem and Ramdas Pophale) SiO2 
 PCOD9383549
Probable space group: P M M M
;
_chemical_formula_sum "Si O2"
_cell_formula_units_Z 56
_cell_length_a 20.881579
_cell_length_b 8.067662
_cell_length_c 16.068816
_cell_angle_alpha 90.000000
_cell_angle_beta 90.000000
_cell_angle_gamma 90.000000
_cell_volume 2707.041466
_symmetry_space_group_name_H-M "P M M M"
_symmetry_group_IT_number 47
_symmetry_cell_setting 'orthorhombic'
loop_
_space_group_symop_operation_xyz
x,y,z
-x,-y,z
x,-y,-z
-x,y,-z
-x,-y,-z
x,y,-z
-x,y,z
x,-y,z
loop_
_atom_site_type_symbol
_atom_site_label
_atom_site_fract_x
_atom_site_fract_y
_atom_site_fract_z
Si Si1 0.429169 0.199543 0.228620
Si Si2 0.756032 0.701436 0.363795
Si Si3 0.208499 0.303407 0.820270
Si Si4 0.930524 0.803478 0.225137
Si Si5 0.384974 0.299528 0.409779
Si Si6 0.897410 0.700793 0.589849
Si Si7 0.329487 0.802183 0.908529
O O1 0.500000 0.256609 0.202765
O O2 0.417995 0.244934 0.324818
O O3 0.373945 0.264255 0.166564
O O4 0.427955 0.000000 0.224402
O O5 0.754573 0.500000 0.364010
O O6 0.764065 0.758609 0.268686
O O7 0.689265 0.756337 0.401996
O O8 0.822130 0.746795 0.407795
O O9 0.216313 0.500000 0.822374
O O10 0.132941 0.266741 0.818490
O O11 0.254953 0.229571 0.889145
O O12 0.925471 0.767798 0.324271
O O13 0.000000 0.738792 0.196551
O O14 0.929146 0.000000 0.213409
O O15 0.410695 0.244156 0.500000
O O16 0.386045 0.500000 0.409903
O O17 0.923968 0.753304 0.500000
O O18 0.902237 0.500000 0.594130
O O19 0.338840 0.000000 0.910212
O O20 0.346379 0.735915 0.000000
#
# Coordination Sequence:
#
# PCOD9383549 Si02
#       7
#     8   8   8   8   8   8   8
#     4  10  22  39  57  80 115 155 191 232 280 330
#     4   8  14  27  48  73 101 135 177 228 281 326
#     4  10  19  34  59  85 110 142 182 231 282 333
#     4  10  21  35  51  74 108 150 190 229 279 338
#     4  10  19  32  53  79 109 148 194 239 282 332
#     4   9  17  29  46  70 102 141 188 240 289 337
#     4  10  21  38  62  90 117 146 183 228 281 344
#
# _framework density 20.686790999999999
#
# number of rings (size 3 to 8) (size 9 to 14) (size 15 to 20)
#    0.000    2.429    1.429    2.143    0.000    4.857 
#    0.000    4.286    0.000    2.143    0.000    5.000 
#    0.000    0.000    0.000    0.000    0.000    0.000 
#
# Total GULP energy -312331.839542 kJ/mol
# GULP energy per Si atom -5577.354278 kJ/mol
# Density = 2.063971 g / cm^3
# Si number density = 20.686791 Si / 1000 Ang^3
#
#
#
# Elastic Constant Matrix: (Units=GPa)
#
#
# Indices 1 2 3 4 5 6 
#
# 1 114.7524 2.9421 51.0140 0.0000 0.0000 0.0000
# 2 2.9421 14.2657 10.6463 0.0000 0.0000 0.0000
# 3 51.0140 10.6463 107.9824 0.0000 0.0000 0.0000
# 4 0.0000 0.0000 0.0000 12.7572 0.0000 0.0000
# 5 0.0000 0.0000 0.0000 0.0000 -10.4781 0.0000
# 6 0.0000 0.0000 0.0000 0.0000 0.0000 7.7007
#
#
#
# Elastic Compliance Matrix: (Units=1/GPa)
#
#
# Indices 1 2 3 4 5 6 
#
# 1 0.011071 0.001749 -0.005403 0.000000 0.000000 0.000000
# 2 0.001749 0.075942 -0.008313 0.000000 0.000000 0.000000
# 3 -0.005403 -0.008313 0.012633 0.000000 0.000000 0.000000
# 4 0.000000 0.000000 0.000000 0.078387 0.000000 0.000000
# 5 0.000000 0.000000 0.000000 0.000000 -0.095437 0.000000
# 6 0.000000 0.000000 0.000000 0.000000 0.000000 0.129859
#
#
# Mechanical properties :
#
#
# Convention : Reuss Voigt Hill
#
# Bulk Modulus (GPa) = 13.20816 40.68950 26.94883
# Shear Modulus (GPa) = 19.11119 13.48916 16.30017
#
# Velocity S-wave (km/s) = 3.04276 2.55633 2.81009
# Velocity P-wave (km/s) = 4.32935 5.33152 4.85635
#
# Compressibility (1/GPa) = 0.07571078
#
# Stress axis : x y z
#
# Youngs Moduli (GPa) = 90.32216 13.16800 79.15834
#
# Poissons Ratio (x) = -0.02303 0.42768
# Poissons Ratio (y) = -0.15795 0.65808
# Poissons Ratio (z) = 0.48800 0.10947
#
# Static dielectric constant tensor:
#      x y z
#    x 1.765150 0.000000 0.000000 
#    y 0.000000 1.735480 0.000000 
#    z 0.000000 0.000000 1.748590 
# 
# From -- ./inp_files/7235.got.cif
#   From: 2010.05.17/outbox.cif.g08.bks.cpg/sg47_4_cif.got.tgz:7235.got - 2010.06.03 20:15:42.
