data_PCOD9383291
_publ_section_title
;
Structure prediction by ZEFSAII (Michael W. Deem and Ramdas Pophale) SiO2 
 PCOD9383291
Probable space group: P M M M
;
_chemical_formula_sum "Si O2"
_cell_formula_units_Z 40
_cell_length_a 18.599560
_cell_length_b 18.649340
_cell_length_c 8.166039
_cell_angle_alpha 90.000000
_cell_angle_beta 90.000000
_cell_angle_gamma 90.000000
_cell_volume 2832.550014
_symmetry_space_group_name_H-M "P M M M"
_symmetry_group_IT_number 47
_symmetry_cell_setting 'orthorhombic'
loop_
_space_group_symop_operation_xyz
x,y,z
-x,-y,z
x,-y,-z
-x,y,-z
-x,-y,-z
x,y,-z
-x,y,z
x,-y,z
loop_
_atom_site_type_symbol
_atom_site_label
_atom_site_fract_x
_atom_site_fract_y
_atom_site_fract_z
Si Si1 0.913593 0.324331 0.815739
Si Si2 0.421813 0.086291 0.694568
Si Si3 0.000000 0.083180 0.196893
Si Si4 0.266062 0.083504 0.806871
Si Si5 0.134836 0.824150 0.310418
Si Si6 0.087249 0.582122 0.500000
O O1 0.874757 0.248217 0.792842
O O2 0.892052 0.376257 0.666411
O O3 0.000000 0.311557 0.800796
O O4 0.900844 0.352516 0.000000
O O5 0.416976 0.100108 0.500000
O O6 0.500000 0.113553 0.753305
O O7 0.347815 0.109268 0.777494
O O8 0.423625 0.000000 0.715640
O O9 0.929677 0.122728 0.262658
O O10 0.000000 0.000000 0.244870
O O11 0.000000 0.087482 0.000000
O O12 0.208754 0.134008 0.719947
O O13 0.260408 0.000000 0.750124
O O14 0.250561 0.083933 0.000000
O O15 0.127386 0.804107 0.500000
O O16 0.112546 0.500000 0.500000
O O17 0.000000 0.580713 0.500000
#
# Coordination Sequence:
#
# PCOD9383291 Si02
#       6
#     8   8   4   8   8   4
#     4  10  19  32  49  67  89 116 145 178 220 266
#     4   8  14  26  43  60  78 102 134 175 224 273
#     4  11  23  35  45  59  79 108 149 195 237 271
#     4  10  20  31  42  59  83 110 145 191 233 267
#     4  12  22  32  46  61  82 113 152 188 226 271
#     4   9  18  32  50  72  92 110 139 176 215 261
#
# _framework density 14.121551
#
# number of rings (size 3 to 8) (size 9 to 14) (size 15 to 20)
#    0.000    2.000    2.000    3.900    0.000    5.200 
#    0.000    4.000    0.000    0.000    0.000    0.000 
#    0.000    0.000    0.000    0.000    0.000    2.000 
#
# Total GULP energy -223012.178163 kJ/mol
# GULP energy per Si atom -5575.304454 kJ/mol
# Density = 1.408941 g / cm^3
# Si number density = 14.121551 Si / 1000 Ang^3
#
#
#
# Elastic Constant Matrix: (Units=GPa)
#
#
# Indices 1 2 3 4 5 6 
#
# 1 58.2004 21.4371 17.8878 0.0000 0.0000 0.0000
# 2 21.4371 63.9949 28.2256 0.0000 0.0000 0.0000
# 3 17.8878 28.2256 70.1411 0.0000 0.0000 0.0000
# 4 0.0000 0.0000 0.0000 11.2246 0.0000 0.0000
# 5 0.0000 0.0000 0.0000 0.0000 -1.8602 0.0000
# 6 0.0000 0.0000 0.0000 0.0000 0.0000 -2.5406
#
#
#
# Elastic Compliance Matrix: (Units=1/GPa)
#
#
# Indices 1 2 3 4 5 6 
#
# 1 0.020086 -0.005433 -0.002936 0.000000 0.000000 0.000000
# 2 -0.005433 0.020468 -0.006851 0.000000 0.000000 0.000000
# 3 -0.002936 -0.006851 0.017763 0.000000 0.000000 0.000000
# 4 0.000000 0.000000 0.000000 0.089090 0.000000 0.000000
# 5 0.000000 0.000000 0.000000 0.000000 -0.537564 0.000000
# 6 0.000000 0.000000 0.000000 0.000000 0.000000 -0.393611
#
#
# Mechanical properties :
#
#
# Convention : Reuss Voigt Hill
#
# Bulk Modulus (GPa) = 35.87338 36.38193 36.12766
# Shear Modulus (GPa) = -6.72010 9.68381 1.48186
#
# Velocity S-wave (km/s) = -2.18382 2.62152 1.02549
# Velocity P-wave (km/s) = 4.37032 5.91460 5.20010
#
# Compressibility (1/GPa) = 0.02787582
#
# Stress axis : x y z
#
# Youngs Moduli (GPa) = 49.78671 48.85671 56.29804
#
# Poissons Ratio (x) = 0.26546 0.16529
# Poissons Ratio (y) = 0.27051 0.38569
# Poissons Ratio (z) = 0.14617 0.33471
#
# Static dielectric constant tensor:
#      x y z
#    x 1.464290 0.000000 0.000000 
#    y 0.000000 1.439220 0.000000 
#    z 0.000000 0.000000 1.500830 
# 
# From -- ./inp_files/9385.got.cif
#   From: 2010.05.17/outbox.cif.g08.bks.cpg/sg47_5_cif.got.tgz:9385.got - 2010.06.03 20:15:42.
