data_PCOD9383881
_publ_section_title
;
Structure prediction by ZEFSAII (Michael W. Deem and Ramdas Pophale) SiO2 
 PCOD9383881
Probable space group: P M M M
;
_chemical_formula_sum "Si O2"
_cell_formula_units_Z 48
_cell_length_a 9.374490
_cell_length_b 30.579390
_cell_length_c 10.339236
_cell_angle_alpha 90.000000
_cell_angle_beta 90.000000
_cell_angle_gamma 90.000000
_cell_volume 2963.909348
_symmetry_space_group_name_H-M "P M M M"
_symmetry_group_IT_number 47
_symmetry_cell_setting 'orthorhombic'
loop_
_space_group_symop_operation_xyz
x,y,z
-x,-y,z
x,-y,-z
-x,y,-z
-x,-y,-z
x,y,-z
-x,y,z
x,-y,z
loop_
_atom_site_type_symbol
_atom_site_label
_atom_site_fract_x
_atom_site_fract_y
_atom_site_fract_z
Si Si1 0.671238 0.447806 0.500000
Si Si2 0.835757 0.134215 0.157942
Si Si3 0.827097 0.549449 0.000000
Si Si4 0.830516 0.692398 0.846926
Si Si5 0.665852 0.951162 0.842726
Si Si6 0.336221 0.779887 0.842607
Si Si7 0.828100 0.598487 0.262759
O O1 0.702674 0.500000 0.500000
O O2 0.500000 0.442729 0.500000
O O3 0.742450 0.424255 0.622959
O O4 0.761544 0.089231 0.201189
O O5 0.748210 0.176907 0.200027
O O6 0.000000 0.136639 0.197902
O O7 0.833523 0.134090 0.000000
O O8 0.787159 0.574511 0.870440
O O9 0.773534 0.500000 0.000000
O O10 0.000000 0.548324 0.000000
O O11 0.743162 0.735122 0.806885
O O12 0.798779 0.649720 0.761800
O O13 0.000000 0.701231 0.838369
O O14 0.801570 0.683047 0.000000
O O15 0.500000 0.944781 0.806851
O O16 0.710982 0.000000 0.801261
O O17 0.669979 0.951093 0.000000
O O18 0.500000 0.780561 0.799761
O O19 0.336151 0.780777 0.000000
O O20 0.000000 0.593718 0.282326
#
# Coordination Sequence:
#
# PCOD9383881 Si02
#       7
#     4   8   4   8   8   8   8
#     4  11  25  41  53  71 103 137 165 195 232 275
#     4   9  15  21  29  42  61  87 121 164 213 258
#     4   9  16  28  51  81 103 119 151 197 236 273
#     4   9  16  28  46  69  94 113 138 181 231 275
#     4   8  13  20  28  37  52  78 114 158 208 261
#     4   9  16  24  35  52  75 104 135 165 207 265
#     4  10  19  34  56  79  99 125 159 196 236 281
#
# _framework density 16.194827
#
# number of rings (size 3 to 8) (size 9 to 14) (size 15 to 20)
#    0.000    2.833    0.833    2.250    0.000    6.333 
#    0.000    2.083    0.000    1.500    0.000    0.000 
#    0.000    0.000    0.000    0.000    0.000    0.000 
#
# Total GULP energy -267353.982996 kJ/mol
# GULP energy per Si atom -5569.874646 kJ/mol
# Density = 1.615797 g / cm^3
# Si number density = 16.194827 Si / 1000 Ang^3
#
#
#
# Elastic Constant Matrix: (Units=GPa)
#
#
# Indices 1 2 3 4 5 6 
#
# 1 100.9127 106.9313 34.8332 0.0000 0.0000 0.0000
# 2 106.9313 188.6608 44.5011 0.0000 0.0000 0.0000
# 3 34.8332 44.5011 52.3892 0.0000 0.0000 0.0000
# 4 0.0000 0.0000 0.0000 18.0475 0.0000 0.0000
# 5 0.0000 0.0000 0.0000 0.0000 8.3655 0.0000
# 6 0.0000 0.0000 0.0000 0.0000 0.0000 31.2259
#
#
#
# Elastic Compliance Matrix: (Units=1/GPa)
#
#
# Indices 1 2 3 4 5 6 
#
# 1 0.026247 -0.013456 -0.006021 0.000000 0.000000 0.000000
# 2 -0.013456 0.013527 -0.002544 0.000000 0.000000 0.000000
# 3 -0.006021 -0.002544 0.025252 0.000000 0.000000 0.000000
# 4 0.000000 0.000000 0.000000 0.055409 0.000000 0.000000
# 5 0.000000 0.000000 0.000000 0.000000 0.119539 0.000000
# 6 0.000000 0.000000 0.000000 0.000000 0.000000 0.032025
#
#
# Mechanical properties :
#
#
# Convention : Reuss Voigt Hill
#
# Bulk Modulus (GPa) = 47.65513 79.38819 63.52166
# Shear Modulus (GPa) = 15.47820 21.90759 18.69289
#
# Velocity S-wave (km/s) = 3.09487 3.68197 3.40111
# Velocity P-wave (km/s) = 6.50085 8.19774 7.39811
#
# Compressibility (1/GPa) = 0.02098410
#
# Stress axis : x y z
#
# Youngs Moduli (GPa) = 38.10028 73.92464 39.60081
#
# Poissons Ratio (x) = 0.99473 0.23844
# Poissons Ratio (y) = 0.51268 0.10073
# Poissons Ratio (z) = 0.22941 0.18804
#
# Static dielectric constant tensor:
#      x y z
#    x 1.539560 0.000000 0.000000 
#    y 0.000000 1.550760 0.000000 
#    z 0.000000 0.000000 1.530030 
# 
# From -- ./inp_files/2727.got.cif
#   From: 2010.05.17/outbox.cif.g08.bks.cpg/sg47_2_cif.got.tgz:2727.got - 2010.06.03 20:15:42.
