data_PCOD9383771
_publ_section_title
;
Structure prediction by ZEFSAII (Michael W. Deem and Ramdas Pophale) SiO2 
 PCOD9383771
Probable space group: P M M M
;
_chemical_formula_sum "Si O2"
_cell_formula_units_Z 56
_cell_length_a 22.910197
_cell_length_b 8.287068
_cell_length_c 15.641749
_cell_angle_alpha 90.000000
_cell_angle_beta 90.000000
_cell_angle_gamma 90.000000
_cell_volume 2969.716819
_symmetry_space_group_name_H-M "P M M M"
_symmetry_group_IT_number 47
_symmetry_cell_setting 'orthorhombic'
loop_
_space_group_symop_operation_xyz
x,y,z
-x,-y,z
x,-y,-z
-x,y,-z
-x,-y,-z
x,y,-z
-x,y,z
x,-y,z
loop_
_atom_site_type_symbol
_atom_site_label
_atom_site_fract_x
_atom_site_fract_y
_atom_site_fract_z
Si Si1 0.834709 0.305387 0.224938
Si Si2 0.067595 0.805404 0.903998
Si Si3 0.212265 0.302659 0.404461
Si Si4 0.343866 0.690300 0.362078
Si Si5 0.622286 0.808401 0.823061
Si Si6 0.565760 0.808740 0.500000
Si Si7 0.735272 0.694456 0.094444
Si Si8 0.500000 0.197192 0.901472
O O1 0.833399 0.500000 0.226061
O O2 0.891323 0.254014 0.171908
O O3 0.826114 0.249938 0.322874
O O4 0.779174 0.250368 0.168436
O O5 0.000000 0.756575 0.892215
O O6 0.069316 0.000000 0.904482
O O7 0.085949 0.750344 0.000000
O O8 0.194049 0.251898 0.500000
O O9 0.212191 0.500000 0.403715
O O10 0.279372 0.249565 0.388245
O O11 0.342868 0.500000 0.377278
O O12 0.356749 0.725725 0.263770
O O13 0.395820 0.760221 0.418633
O O14 0.671945 0.769920 0.891970
O O15 0.559000 0.751122 0.854241
O O16 0.619193 0.000000 0.808682
O O17 0.500000 0.739542 0.500000
O O18 0.560763 0.000000 0.500000
O O19 0.730028 0.500000 0.100462
O O20 0.758183 0.734270 0.000000
O O21 0.500000 0.000000 0.901945
O O22 0.500000 0.249774 0.000000
#
# Coordination Sequence:
#
# PCOD9383771 Si02
#       8
#     8   8   8   8   8   4   8   4
#     4  10  19  33  55  83 113 144 184 231 278 327
#     4   9  19  36  56  80 115 156 192 228 273 326
#     4   9  17  33  57  81 107 141 179 223 274 327
#     4  11  21  38  60  80 105 140 182 224 277 339
#     4  11  22  36  55  77 104 138 179 227 281 335
#     4  11  25  41  57  81 113 141 176 229 288 343
#     4  10  20  34  52  77 110 143 178 227 281 331
#     4   9  20  38  55  70  95 136 181 221 270 333
#
# _framework density 18.857016000000002
#
# number of rings (size 3 to 8) (size 9 to 14) (size 15 to 20)
#    0.000    2.000    2.143    2.357    1.000    3.143 
#    0.000    1.786    0.000    3.000    0.000    3.000 
#    0.000    0.000    0.000    0.000    0.000    0.000 
#
# Total GULP energy -312558.152023 kJ/mol
# GULP energy per Si atom -5581.395572 kJ/mol
# Density = 1.881410 g / cm^3
# Si number density = 18.857016 Si / 1000 Ang^3
#
#
#
# Elastic Constant Matrix: (Units=GPa)
#
#
# Indices 1 2 3 4 5 6 
#
# 1 111.2622 8.6522 69.8611 0.0000 0.0000 0.0000
# 2 8.6522 10.2774 10.3875 0.0000 0.0000 0.0000
# 3 69.8611 10.3875 153.4153 0.0000 0.0000 0.0000
# 4 0.0000 0.0000 0.0000 26.5106 0.0000 0.0000
# 5 0.0000 0.0000 0.0000 0.0000 35.8086 0.0000
# 6 0.0000 0.0000 0.0000 0.0000 0.0000 25.4062
#
#
#
# Elastic Compliance Matrix: (Units=1/GPa)
#
#
# Indices 1 2 3 4 5 6 
#
# 1 0.012846 -0.005263 -0.005494 0.000000 0.000000 0.000000
# 2 -0.005263 0.106604 -0.004822 0.000000 0.000000 0.000000
# 3 -0.005494 -0.004822 0.009346 0.000000 0.000000 0.000000
# 4 0.000000 0.000000 0.000000 0.037721 0.000000 0.000000
# 5 0.000000 0.000000 0.000000 0.000000 0.027926 0.000000
# 6 0.000000 0.000000 0.000000 0.000000 0.000000 0.039361
#
#
# Mechanical properties :
#
#
# Convention : Reuss Voigt Hill
#
# Bulk Modulus (GPa) = 10.24155 50.30628 30.27391
# Shear Modulus (GPa) = 16.80634 29.94870 23.37752
#
# Velocity S-wave (km/s) = 2.98862 3.98955 3.52479
# Velocity P-wave (km/s) = 4.16558 6.92514 5.71444
#
# Compressibility (1/GPa) = 0.09764151
#
# Stress axis : x y z
#
# Youngs Moduli (GPa) = 77.84271 9.38050 106.99374
#
# Poissons Ratio (x) = 0.04937 0.58778
# Poissons Ratio (y) = 0.40965 0.51588
# Poissons Ratio (z) = 0.42764 0.04523
#
# Static dielectric constant tensor:
#      x y z
#    x 1.638140 0.000000 0.000000 
#    y 0.000000 1.661170 0.000000 
#    z 0.000000 0.000000 1.711930 
# 
# From -- ./inp_files/25235.got.cif
#   From: 2010.05.17/outbox.cif.g08.bks.cpg/sg47_13_cif.got.tgz:25235.got - 2010.06.03 20:15:42.
