data_PCOD9383964
_publ_section_title
;
Structure prediction by ZEFSAII (Michael W. Deem and Ramdas Pophale) SiO2 
 PCOD9383964
Probable space group: P M M M
;
_chemical_formula_sum "Si O2"
_cell_formula_units_Z 40
_cell_length_a 7.550984
_cell_length_b 13.073765
_cell_length_c 19.783085
_cell_angle_alpha 90.000000
_cell_angle_beta 90.000000
_cell_angle_gamma 90.000000
_cell_volume 1952.982003
_symmetry_space_group_name_H-M "P M M M"
_symmetry_group_IT_number 47
_symmetry_cell_setting 'orthorhombic'
loop_
_space_group_symop_operation_xyz
x,y,z
-x,-y,z
x,-y,-z
-x,y,-z
-x,-y,-z
x,y,-z
-x,y,z
x,-y,z
loop_
_atom_site_type_symbol
_atom_site_label
_atom_site_fract_x
_atom_site_fract_y
_atom_site_fract_z
Si Si1 0.287876 0.615931 0.191783
Si Si2 0.716343 0.883701 0.422639
Si Si3 0.204644 0.000000 0.917675
Si Si4 0.213355 0.777977 0.076911
Si Si5 0.787424 0.500000 0.577433
Si Si6 0.291076 0.698032 0.333620
O O1 0.500000 0.608426 0.199586
O O2 0.220102 0.500000 0.184159
O O3 0.254708 0.687358 0.127736
O O4 0.216791 0.667614 0.260455
O O5 0.770004 0.860558 0.500000
O O6 0.500000 0.881910 0.422395
O O7 0.781901 0.798116 0.370963
O O8 0.769668 0.000000 0.406496
O O9 0.282100 0.110438 0.898706
O O10 0.000000 0.000000 0.894622
O O11 0.204042 0.000000 0.000000
O O12 0.000000 0.787080 0.073660
O O13 0.275725 0.759335 0.000000
O O14 0.723965 0.500000 0.500000
O O15 0.727623 0.600578 0.617438
O O16 0.000000 0.500000 0.576784
O O17 0.500000 0.717510 0.324083
#
# Coordination Sequence:
#
# PCOD9383964 Si02
#       6
#     8   8   4   8   4   8
#     4  10  21  36  50  71 106 140 172 215 264 305
#     4   8  14  26  48  78 104 126 162 213 258 295
#     4   7  12  28  53  77 101 127 160 209 256 293
#     4   9  18  34  57  81 102 131 174 215 252 305
#     4  11  23  35  51  79 108 133 170 221 267 300
#     4  10  19  35  55  74 101 140 180 211 248 310
#
# _framework density 20.481497999999998
#
# number of rings (size 3 to 8) (size 9 to 14) (size 15 to 20)
#    0.000    2.800    1.000    2.700    0.000    3.600 
#    1.800    2.500    0.000    2.400    0.000    2.800 
#    0.000    0.000    0.000    0.000    0.000    0.000 
#
# Total GULP energy -223129.472149 kJ/mol
# GULP energy per Si atom -5578.236804 kJ/mol
# Density = 2.043488 g / cm^3
# Si number density = 20.481498 Si / 1000 Ang^3
#
#
#
# Elastic Constant Matrix: (Units=GPa)
#
#
# Indices 1 2 3 4 5 6 
#
# 1 49.1210 2.8748 0.4437 0.0000 0.0000 0.0000
# 2 2.8748 214.2102 124.0988 0.0000 0.0000 0.0000
# 3 0.4437 124.0988 148.7814 0.0000 0.0000 0.0000
# 4 0.0000 0.0000 0.0000 98.0224 0.0000 0.0000
# 5 0.0000 0.0000 0.0000 0.0000 15.7025 0.0000
# 6 0.0000 0.0000 0.0000 0.0000 0.0000 15.6946
#
#
#
# Elastic Compliance Matrix: (Units=1/GPa)
#
#
# Indices 1 2 3 4 5 6 
#
# 1 0.020382 -0.000461 0.000324 0.000000 0.000000 0.000000
# 2 -0.000461 0.009044 -0.007542 0.000000 0.000000 0.000000
# 3 0.000324 -0.007542 0.013011 0.000000 0.000000 0.000000
# 4 0.000000 0.000000 0.000000 0.010202 0.000000 0.000000
# 5 0.000000 0.000000 0.000000 0.000000 0.063684 0.000000
# 6 0.000000 0.000000 0.000000 0.000000 0.000000 0.063716
#
#
# Mechanical properties :
#
#
# Convention : Reuss Voigt Hill
#
# Bulk Modulus (GPa) = 36.93012 74.10526 55.51769
# Shear Modulus (GPa) = 24.45895 44.86358 34.66127
#
# Velocity S-wave (km/s) = 3.45946 4.68530 4.11825
# Velocity P-wave (km/s) = 5.83329 8.09503 7.05538
#
# Compressibility (1/GPa) = 0.02707817
#
# Stress axis : x y z
#
# Youngs Moduli (GPa) = 49.06304 110.57155 76.85664
#
# Poissons Ratio (x) = 0.05099 -0.02489
# Poissons Ratio (y) = 0.02263 0.57967
# Poissons Ratio (z) = -0.01589 0.83395
#
# Static dielectric constant tensor:
#      x y z
#    x 1.796810 0.000000 0.000000 
#    y 0.000000 1.738610 0.000000 
#    z 0.000000 0.000000 1.701860 
# 
# From -- ./inp_files/29353.got.cif
#   From: 2010.05.17/outbox.cif.g08.bks.cpg/sg47_15_cif.got.tgz:29353.got - 2010.06.03 20:15:42.
