data_PCOD9383405
_publ_section_title
;
Structure prediction by ZEFSAII (Michael W. Deem and Ramdas Pophale) SiO2 
 PCOD9383405
Probable space group: P M M M
;
_chemical_formula_sum "Si O2"
_cell_formula_units_Z 40
_cell_length_a 8.193336
_cell_length_b 8.043649
_cell_length_c 29.536645
_cell_angle_alpha 90.000000
_cell_angle_beta 90.000000
_cell_angle_gamma 90.000000
_cell_volume 1946.592472
_symmetry_space_group_name_H-M "P M M M"
_symmetry_group_IT_number 47
_symmetry_cell_setting 'orthorhombic'
loop_
_space_group_symop_operation_xyz
x,y,z
-x,-y,z
x,-y,-z
-x,y,-z
-x,-y,-z
x,y,-z
-x,y,z
x,-y,z
loop_
_atom_site_type_symbol
_atom_site_label
_atom_site_fract_x
_atom_site_fract_y
_atom_site_fract_z
Si Si1 0.800179 0.500000 0.947872
Si Si2 0.808079 0.697373 0.791979
Si Si3 0.315835 0.198841 0.694646
Si Si4 0.176345 0.302109 0.602913
Si Si5 0.500000 0.703632 0.552655
Si Si6 0.199530 0.815981 0.889315
O O1 0.746846 0.334932 0.921138
O O2 0.000000 0.500000 0.947428
O O3 0.748451 0.500000 0.000000
O O4 0.794406 0.500000 0.799287
O O5 0.723386 0.746398 0.745465
O O6 0.747048 0.785498 0.837519
O O7 0.000000 0.738297 0.786853
O O8 0.500000 0.252286 0.683341
O O9 0.200070 0.273020 0.656379
O O10 0.305504 0.000000 0.692459
O O11 0.173968 0.500000 0.594910
O O12 0.335792 0.235382 0.577347
O O13 0.000000 0.233875 0.588526
O O14 0.500000 0.500000 0.555386
O O15 0.500000 0.747997 0.500000
O O16 0.000000 0.810481 0.888631
O O17 0.248226 0.000000 0.904633
#
# Coordination Sequence:
#
# PCOD9383405 Si02
#       6
#     4   8   8   8   4   8
#     4   9  16  26  40  62  95 135 181 231 283 344
#     4  10  19  32  51  74 101 136 179 223 274 341
#     4  11  23  36  51  75 108 144 182 226 278 337
#     4  10  20  35  57  83 111 147 189 232 286 349
#     4   9  18  34  57  85 117 149 185 239 295 340
#     4   9  16  27  43  64  95 134 176 227 283 340
#
# _framework density 20.548728000000001
#
# number of rings (size 3 to 8) (size 9 to 14) (size 15 to 20)
#    0.000    2.200    2.000    1.800    0.000    6.000 
#    0.000    4.000    0.000    1.200    0.000    1.400 
#    0.000    1.600    0.000    4.200    0.000    4.000 
#
# Total GULP energy -223354.233551 kJ/mol
# GULP energy per Si atom -5583.855839 kJ/mol
# Density = 2.050196 g / cm^3
# Si number density = 20.548728 Si / 1000 Ang^3
#
#
#
# Elastic Constant Matrix: (Units=GPa)
#
#
# Indices 1 2 3 4 5 6 
#
# 1 91.2125 30.0255 46.2736 0.0000 0.0000 0.0000
# 2 30.0255 52.4527 30.1564 0.0000 0.0000 0.0000
# 3 46.2736 30.1564 127.1730 0.0000 0.0000 0.0000
# 4 0.0000 0.0000 0.0000 -9.0194 0.0000 0.0000
# 5 0.0000 0.0000 0.0000 0.0000 18.3241 0.0000
# 6 0.0000 0.0000 0.0000 0.0000 0.0000 5.8961
#
#
#
# Elastic Compliance Matrix: (Units=1/GPa)
#
#
# Indices 1 2 3 4 5 6 
#
# 1 0.015069 -0.006338 -0.003980 0.000000 0.000000 0.000000
# 2 -0.006338 0.024740 -0.003560 0.000000 0.000000 0.000000
# 3 -0.003980 -0.003560 0.010156 0.000000 0.000000 0.000000
# 4 0.000000 0.000000 0.000000 -0.110873 0.000000 0.000000
# 5 0.000000 0.000000 0.000000 0.000000 0.054573 0.000000
# 6 0.000000 0.000000 0.000000 0.000000 0.000000 0.169605
#
#
# Mechanical properties :
#
#
# Convention : Reuss Voigt Hill
#
# Bulk Modulus (GPa) = 45.02909 53.74991 49.38950
# Shear Modulus (GPa) = 25.19803 13.99901 19.59852
#
# Velocity S-wave (km/s) = 3.50559 2.61293 3.09165
# Velocity P-wave (km/s) = 6.19245 5.94283 6.06893
#
# Compressibility (1/GPa) = 0.02220787
#
# Stress axis : x y z
#
# Youngs Moduli (GPa) = 66.36226 40.42107 98.46557
#
# Poissons Ratio (x) = 0.25617 0.39191
# Poissons Ratio (y) = 0.42057 0.35058
# Poissons Ratio (z) = 0.26413 0.14392
#
# Static dielectric constant tensor:
#      x y z
#    x 1.747080 0.000000 0.000000 
#    y 0.000000 1.720950 0.000000 
#    z 0.000000 0.000000 1.689810 
# 
# From -- ./inp_files/33071.got.cif
#   From: 2010.05.17/outbox.cif.g08.bks.cpg/sg47_17_cif.got.tgz:33071.got - 2010.06.03 20:15:42.
