data_PCOD9383233
_publ_section_title
;
Structure prediction by ZEFSAII (Michael W. Deem and Ramdas Pophale) SiO2 
 PCOD9383233
Probable space group: P M M M
;
_chemical_formula_sum "Si O2"
_cell_formula_units_Z 52
_cell_length_a 8.027476
_cell_length_b 13.322709
_cell_length_c 28.633993
_cell_angle_alpha 90.000000
_cell_angle_beta 90.000000
_cell_angle_gamma 90.000000
_cell_volume 3062.340459
_symmetry_space_group_name_H-M "P M M M"
_symmetry_group_IT_number 47
_symmetry_cell_setting 'orthorhombic'
loop_
_space_group_symop_operation_xyz
x,y,z
-x,-y,z
x,-y,-z
-x,y,-z
-x,-y,-z
x,y,-z
-x,y,z
x,-y,z
loop_
_atom_site_type_symbol
_atom_site_label
_atom_site_fract_x
_atom_site_fract_y
_atom_site_fract_z
Si Si1 0.201053 0.718963 0.446643
Si Si2 0.500000 0.380461 0.944377
Si Si3 0.694416 0.116757 0.830958
Si Si4 0.192607 0.500000 0.443196
Si Si5 0.193815 0.748269 0.086588
Si Si6 0.200810 0.111095 0.000000
Si Si7 0.807782 0.879003 0.729707
Si Si8 0.698325 0.885179 0.372562
O O1 0.258674 0.737059 0.500000
O O2 0.265675 0.608829 0.430347
O O3 0.244454 0.809045 0.412347
O O4 0.000000 0.711019 0.448313
O O5 0.500000 0.500000 0.941392
O O6 0.333408 0.336759 0.920043
O O7 0.500000 0.353695 0.000000
O O8 0.500000 0.118370 0.843772
O O9 0.789490 0.191834 0.864992
O O10 0.712904 0.149077 0.776916
O O11 0.753245 0.000000 0.835088
O O12 0.190321 0.500000 0.500000
O O13 0.000000 0.500000 0.427047
O O14 0.241676 0.827819 0.046240
O O15 0.000000 0.716727 0.079712
O O16 0.000000 0.103262 0.000000
O O17 0.273228 0.000000 0.000000
O O18 0.747280 0.845526 0.678894
O O19 0.000000 0.851615 0.735718
O O20 0.794010 0.000000 0.727574
O O21 0.500000 0.891138 0.374129
O O22 0.764431 0.000000 0.378524
#
# Coordination Sequence:
#
# PCOD9383233 Si02
#       8
#     8   4   8   4   8   4   8   8
#     4   9  17  30  49  71  93 121 160 204 252 306
#     4  11  24  42  60  80 106 138 186 240 283 318
#     4  10  19  31  51  81 115 145 172 205 251 312
#     4   7  12  26  47  69  91 115 149 197 247 292
#     4  11  21  36  56  81 110 142 181 218 264 320
#     4   9  18  31  49  76 113 149 174 204 248 308
#     4   9  17  30  48  71  99 133 173 211 246 292
#     4  10  20  32  45  65  98 136 169 203 247 299
#
# _framework density 16.980477
#
# number of rings (size 3 to 8) (size 9 to 14) (size 15 to 20)
#    0.000    2.385    1.538    2.769    0.000    5.231 
#    0.000    3.077    0.000    1.385    2.000    0.000 
#    0.000    0.000    0.000    0.000    0.000    0.000 
#
# Total GULP energy -289671.131332 kJ/mol
# GULP energy per Si atom -5570.598679 kJ/mol
# Density = 1.694183 g / cm^3
# Si number density = 16.980477 Si / 1000 Ang^3
#
#
#
# Elastic Constant Matrix: (Units=GPa)
#
#
# Indices 1 2 3 4 5 6 
#
# 1 51.3632 21.3827 29.3628 0.0000 0.0000 0.0000
# 2 21.3827 79.5641 53.8233 0.0000 0.0000 0.0000
# 3 29.3628 53.8233 88.2571 0.0000 0.0000 0.0000
# 4 0.0000 0.0000 0.0000 -7.5164 0.0000 0.0000
# 5 0.0000 0.0000 0.0000 0.0000 35.9570 0.0000
# 6 0.0000 0.0000 0.0000 0.0000 0.0000 11.6034
#
#
#
# Elastic Compliance Matrix: (Units=1/GPa)
#
#
# Indices 1 2 3 4 5 6 
#
# 1 0.024192 -0.001799 -0.006951 0.000000 0.000000 0.000000
# 2 -0.001799 0.021529 -0.012531 0.000000 0.000000 0.000000
# 3 -0.006951 -0.012531 0.021285 0.000000 0.000000 0.000000
# 4 0.000000 0.000000 0.000000 -0.133042 0.000000 0.000000
# 5 0.000000 0.000000 0.000000 0.000000 0.027811 0.000000
# 6 0.000000 0.000000 0.000000 0.000000 0.000000 0.086182
#
#
# Mechanical properties :
#
#
# Convention : Reuss Voigt Hill
#
# Bulk Modulus (GPa) = 40.91077 47.59132 44.25104
# Shear Modulus (GPa) = 50.67575 15.64983 33.16279
#
# Velocity S-wave (km/s) = 5.46885 3.03914 4.42406
# Velocity P-wave (km/s) = 8.00143 6.35634 7.22586
#
# Compressibility (1/GPa) = 0.02444344
#
# Stress axis : x y z
#
# Youngs Moduli (GPa) = 41.33588 46.44962 46.98134
#
# Poissons Ratio (x) = 0.08357 0.32659
# Poissons Ratio (y) = 0.07437 0.58871
# Poissons Ratio (z) = 0.28734 0.58204
#
# Static dielectric constant tensor:
#      x y z
#    x 1.602650 0.000000 0.000000 
#    y 0.000000 1.585290 0.000000 
#    z 0.000000 0.000000 1.575800 
# 
# From -- ./inp_files/34339.got.cif
#   From: 2010.05.17/outbox.cif.g08.bks.cpg/sg47_18_cif.got.tgz:34339.got - 2010.06.03 20:15:42.
