data_PCOD9383275
_publ_section_title
;
Structure prediction by ZEFSAII (Michael W. Deem and Ramdas Pophale) SiO2 
 PCOD9383275
Probable space group: P M M M
;
_chemical_formula_sum "Si O2"
_cell_formula_units_Z 48
_cell_length_a 9.590724
_cell_length_b 23.702738
_cell_length_c 17.048587
_cell_angle_alpha 90.000000
_cell_angle_beta 90.000000
_cell_angle_gamma 90.000000
_cell_volume 3875.594218
_symmetry_space_group_name_H-M "P M M M"
_symmetry_group_IT_number 47
_symmetry_cell_setting 'orthorhombic'
loop_
_space_group_symop_operation_xyz
x,y,z
-x,-y,z
x,-y,-z
-x,y,-z
-x,-y,-z
x,y,-z
-x,y,z
x,-y,z
loop_
_atom_site_type_symbol
_atom_site_label
_atom_site_fract_x
_atom_site_fract_y
_atom_site_fract_z
Si Si1 0.160351 0.829588 0.095589
Si Si2 0.334105 0.600940 0.826485
Si Si3 0.336001 0.279726 0.906933
Si Si4 0.338509 0.063434 0.904632
Si Si5 0.839613 0.431303 0.500000
Si Si6 0.835241 0.500000 0.905950
Si Si7 0.662950 0.567531 0.650593
O O1 0.243005 0.773179 0.118443
O O2 0.240125 0.885982 0.122303
O O3 0.000000 0.828648 0.120729
O O4 0.161912 0.830506 0.000000
O O5 0.500000 0.588658 0.838121
O O6 0.306248 0.662849 0.860714
O O7 0.241809 0.554498 0.870390
O O8 0.306938 0.596532 0.733592
O O9 0.500000 0.265953 0.897342
O O10 0.312694 0.289616 0.000000
O O11 0.500000 0.072942 0.882365
O O12 0.297281 0.000000 0.880004
O O13 0.335356 0.063710 0.000000
O O14 0.836825 0.500000 0.500000
O O15 0.758820 0.413783 0.421375
O O16 0.000000 0.413358 0.500000
O O17 0.000000 0.500000 0.886420
O O18 0.821753 0.500000 0.000000
O O19 0.500000 0.576194 0.630893
O O20 0.682031 0.500000 0.662280
#
# Coordination Sequence:
#
# PCOD9383275 Si02
#       7
#     8   8   8   8   4   4   8
#     4   9  16  24  34  48  67  90 115 146 183 221
#     4  10  19  32  47  60  72  93 125 157 188 225
#     4   9  17  28  41  54  68  91 124 158 188 219
#     4   8  13  21  33  48  65  85 110 142 180 219
#     4   9  17  27  41  61  81  99 115 131 164 219
#     4  11  23  33  41  56  77  98 119 151 196 235
#     4   9  16  28  44  61  78  94 114 144 181 219
#
# _framework density 12.385198000000001
#
# number of rings (size 3 to 8) (size 9 to 14) (size 15 to 20)
#    0.000    2.833    0.833    2.000    0.000    6.000 
#    0.000    3.333    0.000    0.000    0.000    0.000 
#    0.000    0.000    0.000    0.000    0.000    0.000 
#
# Total GULP energy -267317.361354 kJ/mol
# GULP energy per Si atom -5569.111695 kJ/mol
# Density = 1.235701 g / cm^3
# Si number density = 12.385198 Si / 1000 Ang^3
#
#
#
# Elastic Constant Matrix: (Units=GPa)
#
#
# Indices 1 2 3 4 5 6 
#
# 1 89.8461 76.3812 48.3255 0.0000 0.0000 0.0000
# 2 76.3812 102.4772 40.2549 0.0000 0.0000 0.0000
# 3 48.3255 40.2549 53.0132 0.0000 0.0000 0.0000
# 4 0.0000 0.0000 0.0000 0.8073 0.0000 0.0000
# 5 0.0000 0.0000 0.0000 0.0000 11.0758 0.0000
# 6 0.0000 0.0000 0.0000 0.0000 0.0000 7.3567
#
#
#
# Elastic Compliance Matrix: (Units=1/GPa)
#
#
# Indices 1 2 3 4 5 6 
#
# 1 0.041855 -0.023099 -0.020614 0.000000 0.000000 0.000000
# 2 -0.023099 0.026654 0.000817 0.000000 0.000000 0.000000
# 3 -0.020614 0.000817 0.037034 0.000000 0.000000 0.000000
# 4 0.000000 0.000000 0.000000 1.238694 0.000000 0.000000
# 5 0.000000 0.000000 0.000000 0.000000 0.090287 0.000000
# 6 0.000000 0.000000 0.000000 0.000000 0.000000 0.135931
#
#
# Mechanical properties :
#
#
# Convention : Reuss Voigt Hill
#
# Bulk Modulus (GPa) = 50.62997 63.91775 57.27386
# Shear Modulus (GPa) = 3.00692 9.20629 6.10660
#
# Velocity S-wave (km/s) = 1.55984 2.72937 2.22290
# Velocity P-wave (km/s) = 6.64923 7.85193 7.27548
#
# Compressibility (1/GPa) = 0.01975115
#
# Stress axis : x y z
#
# Youngs Moduli (GPa) = 23.89191 37.51753 27.00208
#
# Poissons Ratio (x) = 0.86662 0.55662
# Poissons Ratio (y) = 0.55188 -0.02206
# Poissons Ratio (z) = 0.49251 -0.03065
#
# Static dielectric constant tensor:
#      x y z
#    x 1.414590 0.000000 0.000000 
#    y 0.000000 1.392650 0.000000 
#    z 0.000000 0.000000 1.374140 
# 
# From -- ./inp_files/26913.got.cif
#   From: 2010.05.17/outbox.cif.g08.bks.cpg/sg47_14_cif.got.tgz:26913.got - 2010.06.03 20:15:42.
