data_PCOD9384103
_publ_section_title
;
Structure prediction by ZEFSAII (Michael W. Deem and Ramdas Pophale) SiO2 
 PCOD9384103
Probable space group: P M M M
;
_chemical_formula_sum "Si O2"
_cell_formula_units_Z 64
_cell_length_a 13.885461
_cell_length_b 19.196186
_cell_length_c 13.824685
_cell_angle_alpha 90.000000
_cell_angle_beta 90.000000
_cell_angle_gamma 90.000000
_cell_volume 3684.940645
_symmetry_space_group_name_H-M "P M M M"
_symmetry_group_IT_number 47
_symmetry_cell_setting 'orthorhombic'
loop_
_space_group_symop_operation_xyz
x,y,z
-x,-y,z
x,-y,-z
-x,y,-z
-x,-y,-z
x,y,-z
-x,y,z
x,-y,z
loop_
_atom_site_type_symbol
_atom_site_label
_atom_site_fract_x
_atom_site_fract_y
_atom_site_fract_z
Si Si1 0.889265 0.920920 0.250539
Si Si2 0.383266 0.868287 0.890709
Si Si3 0.108944 0.358739 0.117519
Si Si4 0.615975 0.280166 0.192967
Si Si5 0.697582 0.575979 0.883475
Si Si6 0.883791 0.793998 0.891284
Si Si7 0.615151 0.779011 0.394209
Si Si8 0.684866 0.922393 0.314068
O O1 0.866290 0.860963 0.173364
O O2 0.800819 0.917130 0.324730
O O3 0.000000 0.910561 0.284822
O O4 0.885546 0.000000 0.209822
O O5 0.500000 0.872919 0.883894
O O6 0.355609 0.787008 0.871967
O O7 0.340583 0.910578 0.800003
O O8 0.356428 0.889690 0.000000
O O9 0.189585 0.414541 0.142048
O O10 0.144730 0.281729 0.149072
O O11 0.000000 0.372371 0.150982
O O12 0.105341 0.354643 0.000000
O O13 0.500000 0.278709 0.193901
O O14 0.646796 0.355364 0.156153
O O15 0.651687 0.263917 0.301715
O O16 0.662060 0.500000 0.850765
O O17 0.689700 0.577965 0.000000
O O18 0.000000 0.788258 0.897637
O O19 0.846622 0.803131 0.000000
O O20 0.653699 0.759874 0.500000
O O21 0.500000 0.770227 0.396045
O O22 0.636360 0.859694 0.371092
O O23 0.653909 0.000000 0.341954
#
# Coordination Sequence:
#
# PCOD9384103 Si02
#       8
#     8   8   8   8   8   8   8   8
#     4   9  18  30  41  58  90 128 161 196 237 278
#     4   9  18  31  46  65  92 130 168 196 232 285
#     4   8  15  27  41  60  89 125 164 203 237 268
#     4   9  18  33  51  69  93 124 156 192 232 277
#     4  10  20  30  44  71 102 133 165 191 223 270
#     4   8  14  24  38  56  79 116 167 209 236 264
#     4   9  19  36  57  78  95 115 149 195 248 297
#     4  10  20  31  46  71  98 125 160 199 241 285
#
# _framework density 17.367988
#
# number of rings (size 3 to 8) (size 9 to 14) (size 15 to 20)
#    0.000    3.000    0.000    2.250    3.500    3.500 
#    0.000    5.625    0.000    0.750    0.000    3.500 
#    0.000    0.000    0.000    1.125    0.000    0.125 
#
# Total GULP energy -356398.477147 kJ/mol
# GULP energy per Si atom -5568.726205 kJ/mol
# Density = 1.732846 g / cm^3
# Si number density = 17.367988 Si / 1000 Ang^3
#
#
#
# Elastic Constant Matrix: (Units=GPa)
#
#
# Indices 1 2 3 4 5 6 
#
# 1 23.6006 -6.2212 3.1383 0.0000 0.0000 0.0000
# 2 -6.2212 78.1093 3.4074 0.0000 0.0000 0.0000
# 3 3.1383 3.4074 39.4105 0.0000 0.0000 0.0000
# 4 0.0000 0.0000 0.0000 4.4586 0.0000 0.0000
# 5 0.0000 0.0000 0.0000 0.0000 8.3367 0.0000
# 6 0.0000 0.0000 0.0000 0.0000 0.0000 18.7963
#
#
#
# Elastic Compliance Matrix: (Units=1/GPa)
#
#
# Indices 1 2 3 4 5 6 
#
# 1 0.043842 0.003658 -0.003807 0.000000 0.000000 0.000000
# 2 0.003658 0.013156 -0.001429 0.000000 0.000000 0.000000
# 3 -0.003807 -0.001429 0.025801 0.000000 0.000000 0.000000
# 4 0.000000 0.000000 0.000000 0.224288 0.000000 0.000000
# 5 0.000000 0.000000 0.000000 0.000000 0.119952 0.000000
# 6 0.000000 0.000000 0.000000 0.000000 0.000000 0.053202
#
#
# Mechanical properties :
#
#
# Convention : Reuss Voigt Hill
#
# Bulk Modulus (GPa) = 12.55604 15.75215 14.15410
# Shear Modulus (GPa) = 9.80497 15.70470 12.75483
#
# Velocity S-wave (km/s) = 2.37859 3.01031 2.71290
# Velocity P-wave (km/s) = 3.84561 4.60130 4.24032
#
# Compressibility (1/GPa) = 0.07964292
#
# Stress axis : x y z
#
# Youngs Moduli (GPa) = 22.80895 76.00948 38.75870
#
# Poissons Ratio (x) = -0.27805 0.14757
# Poissons Ratio (y) = -0.08344 0.05538
# Poissons Ratio (z) = 0.08684 0.10860
#
# Static dielectric constant tensor:
#      x y z
#    x 1.652690 0.000000 0.000000 
#    y 0.000000 1.595370 0.000000 
#    z 0.000000 0.000000 1.589640 
# 
# From -- ./inp_files/24083.got.cif
#   From: 2010.05.17/outbox.cif.g08.bks.cpg/sg47_13_cif.got.tgz:24083.got - 2010.06.03 20:15:42.
