data_PCOD9384582
_publ_section_title
;
Structure prediction by ZEFSAII (Michael W. Deem and Ramdas Pophale) SiO2 
 PCOD9384582
Probable space group: P M M M
;
_chemical_formula_sum "Si O2"
_cell_formula_units_Z 36
_cell_length_a 7.395794
_cell_length_b 9.400190
_cell_length_c 23.836581
_cell_angle_alpha 90.000000
_cell_angle_beta 90.000000
_cell_angle_gamma 90.000000
_cell_volume 1657.163657
_symmetry_space_group_name_H-M "P M M M"
_symmetry_group_IT_number 47
_symmetry_cell_setting 'orthorhombic'
loop_
_space_group_symop_operation_xyz
x,y,z
-x,-y,z
x,-y,-z
-x,y,-z
-x,-y,-z
x,y,-z
-x,y,z
x,-y,z
loop_
_atom_site_type_symbol
_atom_site_label
_atom_site_fract_x
_atom_site_fract_y
_atom_site_fract_z
Si Si1 0.786462 0.659708 0.172637
Si Si2 0.779407 0.664109 0.389478
Si Si3 0.778900 0.163454 0.279090
Si Si4 0.220745 0.835660 0.500000
Si Si5 0.282489 0.838119 0.937130
O O1 0.711219 0.500000 0.173800
O O2 0.715916 0.760799 0.222042
O O3 0.767321 0.732214 0.112219
O O4 0.000000 0.648161 0.183488
O O5 0.721052 0.500000 0.390679
O O6 0.723531 0.745118 0.333047
O O7 0.722408 0.751362 0.444372
O O8 0.000000 0.662857 0.389693
O O9 0.000000 0.161224 0.278977
O O10 0.720206 0.000000 0.282457
O O11 0.000000 0.836706 0.500000
O O12 0.278547 0.000000 0.500000
O O13 0.500000 0.841923 0.938645
O O14 0.220341 0.000000 0.925318
O O15 0.220746 0.798493 0.000000
#
# Coordination Sequence:
#
# PCOD9384582 Si02
#       5
#     8   8   8   4   8
#     4  10  20  32  47  70  98 125 155 192 233 278
#     4   9  15  22  32  47  70 101 138 181 227 271
#     4   9  16  26  40  57  79 110 147 185 226 272
#     4   9  15  21  29  43  65  97 140 183 220 265
#     4   9  19  36  55  73  94 122 156 192 231 277
#
# _framework density 21.723863999999999
#
# number of rings (size 3 to 8) (size 9 to 14) (size 15 to 20)
#    0.000    2.778    0.000    3.000    0.000    9.333 
#    0.000    3.333    0.000    0.000    0.000    0.000 
#    0.000    0.000    0.000    1.000    0.000   19.556 
#
# Total GULP energy -201133.592249 kJ/mol
# GULP energy per Si atom -5587.044229 kJ/mol
# Density = 2.167442 g / cm^3
# Si number density = 21.723864 Si / 1000 Ang^3
#
#
#
# Elastic Constant Matrix: (Units=GPa)
#
#
# Indices 1 2 3 4 5 6 
#
# 1 71.9504 5.4784 -1.9808 0.0000 0.0000 0.0000
# 2 5.4784 245.6690 150.1754 0.0000 0.0000 0.0000
# 3 -1.9808 150.1754 197.7783 0.0000 0.0000 0.0000
# 4 0.0000 0.0000 0.000018670.4518 0.0000 0.0000
# 5 0.0000 0.0000 0.0000 0.0000 95.3258 0.0000
# 6 0.0000 0.0000 0.0000 0.0000 0.0000 -18.5011
#
#
#
# Elastic Compliance Matrix: (Units=1/GPa)
#
#
# Indices 1 2 3 4 5 6 
#
# 1 0.013974 -0.000741 0.000703 0.000000 0.000000 0.000000
# 2 -0.000741 0.007636 -0.005805 0.000000 0.000000 0.000000
# 3 0.000703 -0.005805 0.009471 0.000000 0.000000 0.000000
# 4 0.000000 0.000000 0.000000 0.000054 0.000000 0.000000
# 5 0.000000 0.000000 0.000000 0.000000 0.010490 0.000000
# 6 0.000000 0.000000 0.000000 0.000000 0.000000 -0.054051
#
#
# Mechanical properties :
#
#
# Convention : Reuss Voigt Hill
#
# Bulk Modulus (GPa) = 51.56313 91.41595 71.48954
# Shear Modulus (GPa) = 873.11259 3773.57030 2323.34144
#
# Velocity S-wave (km/s) = 20.06954 41.72329 32.73851
# Velocity P-wave (km/s) = 23.68198 48.61361 38.23689
#
# Compressibility (1/GPa) = 0.01939370
#
# Stress axis : x y z
#
# Youngs Moduli (GPa) = 71.56019 130.96127 105.58191
#
# Poissons Ratio (x) = 0.09707 -0.07420
# Poissons Ratio (y) = 0.05304 0.61295
# Poissons Ratio (z) = -0.05029 0.76028
#
# Static dielectric constant tensor:
#      x y z
#    x 1.848860 0.000000 0.000000 
#    y 0.000000 1.743540 0.000000 
#    z 0.000000 0.000000 1.738300 
# 
# From -- ./inp_files/1373.got.cif
#   From: 2010.05.17/outbox.cif.g08.bks.cpg/sg47_1_cif.got.tgz:1373.got - 2010.06.03 20:15:42.
