data_PCOD9384254
_publ_section_title
;
Structure prediction by ZEFSAII (Michael W. Deem and Ramdas Pophale) SiO2 
 PCOD9384254
Probable space group: P M M M
;
_chemical_formula_sum "Si O2"
_cell_formula_units_Z 40
_cell_length_a 9.383578
_cell_length_b 7.495411
_cell_length_c 28.918203
_cell_angle_alpha 90.000000
_cell_angle_beta 90.000000
_cell_angle_gamma 90.000000
_cell_volume 2033.926347
_symmetry_space_group_name_H-M "P M M M"
_symmetry_group_IT_number 47
_symmetry_cell_setting 'orthorhombic'
loop_
_space_group_symop_operation_xyz
x,y,z
-x,-y,z
x,-y,-z
-x,y,-z
-x,-y,-z
x,y,-z
-x,y,z
x,-y,z
loop_
_atom_site_type_symbol
_atom_site_label
_atom_site_fract_x
_atom_site_fract_y
_atom_site_fract_z
Si Si1 0.173390 0.207850 0.000000
Si Si2 0.669673 0.711477 0.627100
Si Si3 0.838472 0.286080 0.718190
Si Si4 0.834574 0.218767 0.899126
Si Si5 0.672968 0.000000 0.447536
Si Si6 0.339314 0.213425 0.189636
O O1 0.215898 0.281514 0.050060
O O2 0.000000 0.212326 0.000000
O O3 0.216592 0.000000 0.000000
O O4 0.500000 0.736894 0.634937
O O5 0.693276 0.500000 0.619953
O O6 0.754401 0.773703 0.672495
O O7 0.712650 0.827144 0.582687
O O8 0.845447 0.500000 0.714658
O O9 0.752303 0.246427 0.764641
O O10 0.000000 0.217023 0.720341
O O11 0.740140 0.280167 0.856301
O O12 0.000000 0.269899 0.892541
O O13 0.832909 0.000000 0.900193
O O14 0.500000 0.000000 0.449957
O O15 0.727042 0.000000 0.500000
O O16 0.500000 0.283060 0.194354
O O17 0.348022 0.000000 0.184453
#
# Coordination Sequence:
#
# PCOD9384254 Si02
#       6
#     4   8   8   8   4   8
#     4   7  10  18  35  57  82 117 158 199 242 290
#     4   9  18  33  53  77 107 141 176 218 265 309
#     4  10  21  36  53  73  97 128 168 211 255 305
#     4   8  13  23  39  60  88 122 161 202 245 294
#     4   9  18  32  53  83 113 141 179 220 257 306
#     4  10  20  31  45  69 100 130 161 201 250 304
#
# _framework density 19.666397
#
# number of rings (size 3 to 8) (size 9 to 14) (size 15 to 20)
#    0.000    3.000    0.000    2.400    1.400    2.800 
#    0.000    2.500    0.000    4.200    0.000    3.500 
#    0.000    5.600    0.000    0.000    0.000    0.000 
#
# Total GULP energy -223074.714850 kJ/mol
# GULP energy per Si atom -5576.867871 kJ/mol
# Density = 1.962163 g / cm^3
# Si number density = 19.666397 Si / 1000 Ang^3
#
#
#
# Elastic Constant Matrix: (Units=GPa)
#
#
# Indices 1 2 3 4 5 6 
#
# 1 103.0629 26.9291 99.9089 0.0000 0.0000 0.0000
# 2 26.9291 61.6537 39.3187 0.0000 0.0000 0.0000
# 3 99.9089 39.3187 239.3667 0.0000 0.0000 0.0000
# 4 0.0000 0.0000 0.0000 114.5134 0.0000 0.0000
# 5 0.0000 0.0000 0.0000 0.0000 32.4265 0.0000
# 6 0.0000 0.0000 0.0000 0.0000 0.0000 8.0155
#
#
#
# Elastic Compliance Matrix: (Units=1/GPa)
#
#
# Indices 1 2 3 4 5 6 
#
# 1 0.016847 -0.003210 -0.006504 0.000000 0.000000 0.000000
# 2 -0.003210 0.018729 -0.001737 0.000000 0.000000 0.000000
# 3 -0.006504 -0.001737 0.007178 0.000000 0.000000 0.000000
# 4 0.000000 0.000000 0.000000 0.008733 0.000000 0.000000
# 5 0.000000 0.000000 0.000000 0.000000 0.030839 0.000000
# 6 0.000000 0.000000 0.000000 0.000000 0.000000 0.124759
#
#
# Mechanical properties :
#
#
# Convention : Reuss Voigt Hill
#
# Bulk Modulus (GPa) = 50.37402 81.82186 66.09794
# Shear Modulus (GPa) = 21.13233 46.85283 33.99258
#
# Velocity S-wave (km/s) = 3.28157 4.88626 4.16199
# Velocity P-wave (km/s) = 6.32678 8.57492 7.53517
#
# Compressibility (1/GPa) = 0.01985150
#
# Stress axis : x y z
#
# Youngs Moduli (GPa) = 59.35777 53.39227 139.31844
#
# Poissons Ratio (x) = 0.17141 0.90618
# Poissons Ratio (y) = 0.19056 0.24193
# Poissons Ratio (z) = 0.38609 0.09272
#
# Static dielectric constant tensor:
#      x y z
#    x 1.679620 0.000000 0.000000 
#    y 0.000000 1.777140 0.000000 
#    z 0.000000 0.000000 1.676600 
# 
# From -- ./inp_files/1779.got.cif
#   From: 2010.05.17/outbox.cif.g08.bks.cpg/sg47_1_cif.got.tgz:1779.got - 2010.06.03 20:15:42.
