data_PCOD9384743
_publ_section_title
;
Structure prediction by ZEFSAII (Michael W. Deem and Ramdas Pophale) SiO2 
 PCOD9384743
Probable space group: P M M M
;
_chemical_formula_sum "Si O2"
_cell_formula_units_Z 45
_cell_length_a 27.055326
_cell_length_b 7.663056
_cell_length_c 11.999837
_cell_angle_alpha 90.000000
_cell_angle_beta 90.000000
_cell_angle_gamma 90.000000
_cell_volume 2487.883945
_symmetry_space_group_name_H-M "P M M M"
_symmetry_group_IT_number 47
_symmetry_cell_setting 'orthorhombic'
loop_
_space_group_symop_operation_xyz
x,y,z
-x,-y,z
x,-y,-z
-x,y,-z
-x,-y,-z
x,y,-z
-x,y,z
x,-y,z
loop_
_atom_site_type_symbol
_atom_site_label
_atom_site_fract_x
_atom_site_fract_y
_atom_site_fract_z
Si Si1 0.645450 0.799593 0.227648
Si Si2 0.000000 0.000000 0.500000
Si Si3 0.697275 0.298807 0.000000
Si Si4 0.738893 0.710069 0.627611
Si Si5 0.841001 0.289792 0.755088
Si Si6 0.443547 0.213545 0.372744
Si Si7 0.102252 0.000000 0.376048
Si Si8 0.191123 0.287289 0.000000
O O1 0.690500 0.785270 0.314370
O O2 0.597032 0.720024 0.285747
O O3 0.633343 0.000000 0.207353
O O4 0.665942 0.733407 0.110647
O O5 0.955680 0.000000 0.595427
O O6 0.709137 0.500000 0.000000
O O7 0.752277 0.216047 0.000000
O O8 0.743811 0.767389 0.500000
O O9 0.733531 0.500000 0.629041
O O10 0.787974 0.748846 0.697879
O O11 0.849758 0.500000 0.745277
O O12 0.835530 0.239872 0.884849
O O13 0.880407 0.171027 0.691017
O O14 0.431728 0.266818 0.500000
O O15 0.500000 0.264786 0.347857
O O16 0.442317 0.000000 0.372666
O O17 0.126779 0.000000 0.500000
O O18 0.191617 0.500000 0.000000
#
# Coordination Sequence:
#
# PCOD9384743 Si02
#       8
#     8   1   4   8   8   8   4   4
#     4  11  21  32  50  77 104 136 184 237 285 344
#     4   8  24  48  62  94 132 154 216 244 294 348
#     4  11  21  37  52  66 105 155 182 218 280 343
#     4  10  20  32  48  76 115 152 182 216 274 349
#     4  10  20  36  58  87 121 159 200 241 290 347
#     4   8  15  30  51  73  98 131 173 228 291 346
#     4  10  22  41  63  89 123 158 196 251 287 343
#     4   9  18  34  56  81 115 157 202 238 279 351
#
# _framework density 18.087661000000001
#
# number of rings (size 3 to 8) (size 9 to 14) (size 15 to 20)
#    0.267    1.956    1.778    2.400    1.244    2.489 
#    1.600    1.333    0.000    5.867    0.000    8.089 
#    0.000    0.000    0.000    0.000    0.000    0.000 
#
# Total GULP energy -250649.177645 kJ/mol
# GULP energy per Si atom -5569.981725 kJ/mol
# Density = 1.804649 g / cm^3
# Si number density = 18.087661 Si / 1000 Ang^3
#
#
#
# Elastic Constant Matrix: (Units=GPa)
#
#
# Indices 1 2 3 4 5 6 
#
# 1 113.7708 28.7458 67.0210 0.0000 0.0000 0.0000
# 2 28.7458 46.1016 31.1521 0.0000 0.0000 0.0000
# 3 67.0210 31.1521 161.9797 0.0000 0.0000 0.0000
# 4 0.0000 0.0000 0.0000 24.6912 0.0000 0.0000
# 5 0.0000 0.0000 0.0000 0.0000 10.4008 0.0000
# 6 0.0000 0.0000 0.0000 0.0000 0.0000 9.6225
#
#
#
# Elastic Compliance Matrix: (Units=1/GPa)
#
#
# Indices 1 2 3 4 5 6 
#
# 1 0.012536 -0.004956 -0.004234 0.000000 0.000000 0.000000
# 2 -0.004956 0.026890 -0.003121 0.000000 0.000000 0.000000
# 3 -0.004234 -0.003121 0.008526 0.000000 0.000000 0.000000
# 4 0.000000 0.000000 0.000000 0.040500 0.000000 0.000000
# 5 0.000000 0.000000 0.000000 0.000000 0.096146 0.000000
# 6 0.000000 0.000000 0.000000 0.000000 0.000000 0.103923
#
#
# Mechanical properties :
#
#
# Convention : Reuss Voigt Hill
#
# Bulk Modulus (GPa) = 42.86200 63.96553 53.41377
# Shear Modulus (GPa) = 15.58026 21.93845 18.75935
#
# Velocity S-wave (km/s) = 2.93810 3.48644 3.22395
# Velocity P-wave (km/s) = 5.93786 7.18665 6.59190
#
# Compressibility (1/GPa) = 0.02333069
#
# Stress axis : x y z
#
# Youngs Moduli (GPa) = 79.77189 37.18827 117.29327
#
# Poissons Ratio (x) = 0.18429 0.49659
# Poissons Ratio (y) = 0.39531 0.36609
# Poissons Ratio (z) = 0.33773 0.11607
#
# Static dielectric constant tensor:
#      x y z
#    x 1.603210 0.000000 0.000000 
#    y 0.000000 1.670310 0.000000 
#    z 0.000000 0.000000 1.609420 
# 
# From -- ./inp_files/19515.got.cif
#   From: 2010.05.17/outbox.cif.g08.bks.cpg/sg47_10_cif.got.tgz:19515.got - 2010.06.03 20:15:42.
