data_PCOD9384940
_publ_section_title
;
Structure prediction by ZEFSAII (Michael W. Deem and Ramdas Pophale) SiO2 
 PCOD9384940
Probable space group: P M M M
;
_chemical_formula_sum "Si O2"
_cell_formula_units_Z 40
_cell_length_a 15.792886
_cell_length_b 9.021065
_cell_length_c 20.133143
_cell_angle_alpha 90.000000
_cell_angle_beta 90.000000
_cell_angle_gamma 90.000000
_cell_volume 2868.341726
_symmetry_space_group_name_H-M "P M M M"
_symmetry_group_IT_number 47
_symmetry_cell_setting 'orthorhombic'
loop_
_space_group_symop_operation_xyz
x,y,z
-x,-y,z
x,-y,-z
-x,y,-z
-x,-y,-z
x,y,-z
-x,y,z
x,-y,z
loop_
_atom_site_type_symbol
_atom_site_label
_atom_site_fract_x
_atom_site_fract_y
_atom_site_fract_z
Si Si1 0.662619 0.321468 0.648202
Si Si2 0.175969 0.176443 0.420507
Si Si3 0.500000 0.175201 0.579537
Si Si4 0.397726 0.824688 0.927364
Si Si5 0.401161 0.677619 0.791976
Si Si6 0.000000 0.329235 0.419410
O O1 0.661489 0.500000 0.642210
O O2 0.747853 0.255101 0.617748
O O3 0.582811 0.253025 0.609384
O O4 0.649738 0.282172 0.725794
O O5 0.186334 0.201396 0.500000
O O6 0.085663 0.244924 0.399857
O O7 0.177188 0.000000 0.409634
O O8 0.500000 0.189241 0.500000
O O9 0.500000 0.000000 0.595910
O O10 0.500000 0.806519 0.927744
O O11 0.367783 0.745444 0.860662
O O12 0.380848 0.000000 0.923169
O O13 0.367269 0.770948 0.000000
O O14 0.500000 0.723682 0.782625
O O15 0.400923 0.500000 0.797734
O O16 0.000000 0.500000 0.397008
O O17 0.000000 0.330225 0.500000
#
# Coordination Sequence:
#
# PCOD9384940 Si02
#       6
#     8   8   4   8   8   4
#     4  11  21  33  46  62  85 114 148 184 219 259
#     4  10  20  33  48  67  89 111 140 180 223 266
#     4  11  23  35  45  59  80 109 148 189 225 260
#     4   8  14  24  38  57  78 101 134 173 210 250
#     4   9  17  29  41  56  80 109 143 179 214 252
#     4   9  17  31  51  71  87 107 136 171 218 271
#
# _framework density 13.945339000000001
#
# number of rings (size 3 to 8) (size 9 to 14) (size 15 to 20)
#    0.000    2.400    1.000    3.000    0.000    7.600 
#    0.000    2.000    0.000    0.000    0.000    0.000 
#    0.000    0.000    0.000    0.900    0.000   16.800 
#
# Total GULP energy -222926.142126 kJ/mol
# GULP energy per Si atom -5573.153553 kJ/mol
# Density = 1.391360 g / cm^3
# Si number density = 13.945339 Si / 1000 Ang^3
#
#
#
# Elastic Constant Matrix: (Units=GPa)
#
#
# Indices 1 2 3 4 5 6 
#
# 1 101.9968 48.6956 56.6582 0.0000 0.0000 0.0000
# 2 48.6956 66.9766 60.7938 0.0000 0.0000 0.0000
# 3 56.6582 60.7938 108.2228 0.0000 0.0000 0.0000
# 4 0.0000 0.0000 0.0000 24.5487 0.0000 0.0000
# 5 0.0000 0.0000 0.0000 0.0000 0.8899 0.0000
# 6 0.0000 0.0000 0.0000 0.0000 0.0000 21.8008
#
#
#
# Elastic Compliance Matrix: (Units=1/GPa)
#
#
# Indices 1 2 3 4 5 6 
#
# 1 0.015707 -0.008071 -0.003689 0.000000 0.000000 0.000000
# 2 -0.008071 0.034611 -0.015217 0.000000 0.000000 0.000000
# 3 -0.003689 -0.015217 0.019720 0.000000 0.000000 0.000000
# 4 0.000000 0.000000 0.000000 0.040735 0.000000 0.000000
# 5 0.000000 0.000000 0.000000 0.000000 1.123729 0.000000
# 6 0.000000 0.000000 0.000000 0.000000 0.000000 0.045870
#
#
# Mechanical properties :
#
#
# Convention : Reuss Voigt Hill
#
# Bulk Modulus (GPa) = 62.17793 67.72127 64.94960
# Shear Modulus (GPa) = 3.73221 16.85112 10.29167
#
# Velocity S-wave (km/s) = 1.63772 3.47993 2.71956
# Velocity P-wave (km/s) = 6.94693 8.05071 7.51910
#
# Compressibility (1/GPa) = 0.01608288
#
# Stress axis : x y z
#
# Youngs Moduli (GPa) = 63.66649 28.89236 50.71059
#
# Poissons Ratio (x) = 0.23320 0.18708
# Poissons Ratio (y) = 0.51387 0.77167
# Poissons Ratio (z) = 0.23487 0.43966
#
# Static dielectric constant tensor:
#      x y z
#    x 1.430240 0.000000 0.000000 
#    y 0.000000 1.466120 0.000000 
#    z 0.000000 0.000000 1.468200 
# 
# From -- ./inp_files/24855.got.cif
#   From: 2010.05.17/outbox.cif.g08.bks.cpg/sg47_13_cif.got.tgz:24855.got - 2010.06.03 20:15:42.
