data_PCOD9384701
_publ_section_title
;
Structure prediction by ZEFSAII (Michael W. Deem and Ramdas Pophale) SiO2 
 PCOD9384701
Probable space group: P M M M
;
_chemical_formula_sum "Si O2"
_cell_formula_units_Z 44
_cell_length_a 9.546361
_cell_length_b 31.365167
_cell_length_c 7.548404
_cell_angle_alpha 90.000000
_cell_angle_beta 90.000000
_cell_angle_gamma 90.000000
_cell_volume 2260.167333
_symmetry_space_group_name_H-M "P M M M"
_symmetry_group_IT_number 47
_symmetry_cell_setting 'orthorhombic'
loop_
_space_group_symop_operation_xyz
x,y,z
-x,-y,z
x,-y,-z
-x,y,-z
-x,-y,-z
x,y,-z
-x,y,z
x,-y,z
loop_
_atom_site_type_symbol
_atom_site_label
_atom_site_fract_x
_atom_site_fract_y
_atom_site_fract_z
Si Si1 0.171085 0.951169 0.500000
Si Si2 0.660809 0.290599 0.782957
Si Si3 0.842437 0.370443 0.789673
Si Si4 0.659113 0.451964 0.286538
Si Si5 0.170634 0.885651 0.797417
Si Si6 0.838760 0.790904 0.783827
O O1 0.215190 0.923756 0.670512
O O2 0.000000 0.951878 0.500000
O O3 0.218537 0.000000 0.500000
O O4 0.500000 0.291863 0.725705
O O5 0.746294 0.332010 0.720925
O O6 0.740302 0.247630 0.727416
O O7 0.660386 0.290809 0.000000
O O8 0.766271 0.415495 0.765686
O O9 0.000000 0.370279 0.716680
O O10 0.853214 0.363230 0.000000
O O11 0.656105 0.452851 0.500000
O O12 0.500000 0.442213 0.225986
O O13 0.695063 0.500000 0.226327
O O14 0.209739 0.838300 0.731215
O O15 0.000000 0.885143 0.799201
O O16 0.217390 0.891287 0.000000
O O17 0.000000 0.784158 0.727235
O O18 0.840509 0.791458 0.000000
#
# Coordination Sequence:
#
# PCOD9384701 Si02
#       6
#     4   8   8   8   8   8
#     4   9  16  24  36  58  89 123 157 195 240 289
#     4   9  16  26  43  68  95 122 155 194 236 284
#     4  10  20  32  48  73 103 131 160 197 240 289
#     4   9  19  36  55  72  92 123 162 202 246 294
#     4   8  14  24  38  57  83 118 157 195 238 288
#     4   8  13  23  40  60  84 117 154 189 229 280
#
# _framework density 19.467586000000001
#
# number of rings (size 3 to 8) (size 9 to 14) (size 15 to 20)
#    0.000    3.182    0.000    2.727    0.000    4.727 
#    0.000    4.545    2.000    0.000    0.000    0.000 
#    0.000    1.455    0.000    7.091    0.000    7.273 
#
# Total GULP energy -245390.577294 kJ/mol
# GULP energy per Si atom -5577.058575 kJ/mol
# Density = 1.942328 g / cm^3
# Si number density = 19.467586 Si / 1000 Ang^3
#
#
#
# Elastic Constant Matrix: (Units=GPa)
#
#
# Indices 1 2 3 4 5 6 
#
# 1 112.4004 106.0190 21.1119 0.0000 0.0000 0.0000
# 2 106.0190 202.3011 34.1813 0.0000 0.0000 0.0000
# 3 21.1119 34.1813 56.7746 0.0000 0.0000 0.0000
# 4 0.0000 0.0000 0.0000 40.9699 0.0000 0.0000
# 5 0.0000 0.0000 0.0000 0.0000 3.6932 0.0000
# 6 0.0000 0.0000 0.0000 0.0000 0.0000 -30.6818
#
#
#
# Elastic Compliance Matrix: (Units=1/GPa)
#
#
# Indices 1 2 3 4 5 6 
#
# 1 0.017656 -0.009066 -0.001107 0.000000 0.000000 0.000000
# 2 -0.009066 0.010158 -0.002744 0.000000 0.000000 0.000000
# 3 -0.001107 -0.002744 0.019678 0.000000 0.000000 0.000000
# 4 0.000000 0.000000 0.000000 0.024408 0.000000 0.000000
# 5 0.000000 0.000000 0.000000 0.000000 0.270767 0.000000
# 6 0.000000 0.000000 0.000000 0.000000 0.000000 -0.032593
#
#
# Mechanical properties :
#
#
# Convention : Reuss Voigt Hill
#
# Bulk Modulus (GPa) = 46.17608 77.12227 61.64917
# Shear Modulus (GPa) = 14.57186 16.80720 15.68953
#
# Velocity S-wave (km/s) = 2.73888 2.94146 2.84197
# Velocity P-wave (km/s) = 5.81144 7.15807 6.51962
#
# Compressibility (1/GPa) = 0.02165624
#
# Stress axis : x y z
#
# Youngs Moduli (GPa) = 56.63891 98.44626 50.81923
#
# Poissons Ratio (x) = 0.89248 0.05627
# Poissons Ratio (y) = 0.51347 0.13947
# Poissons Ratio (z) = 0.06272 0.27018
#
# Static dielectric constant tensor:
#      x y z
#    x 1.653780 0.000000 0.000000 
#    y 0.000000 1.664770 0.000000 
#    z 0.000000 0.000000 1.757370 
# 
# From -- ./inp_files/2023.got.cif
#   From: 2010.05.17/outbox.cif.g08.bks.cpg/sg47_2_cif.got.tgz:2023.got - 2010.06.03 20:15:42.
