data_PCOD9384087
_publ_section_title
;
Structure prediction by ZEFSAII (Michael W. Deem and Ramdas Pophale) SiO2 
 PCOD9384087
Probable space group: P M M M
;
_chemical_formula_sum "Si O2"
_cell_formula_units_Z 56
_cell_length_a 7.983922
_cell_length_b 15.940843
_cell_length_c 21.156928
_cell_angle_alpha 90.000000
_cell_angle_beta 90.000000
_cell_angle_gamma 90.000000
_cell_volume 2692.651686
_symmetry_space_group_name_H-M "P M M M"
_symmetry_group_IT_number 47
_symmetry_cell_setting 'orthorhombic'
loop_
_space_group_symop_operation_xyz
x,y,z
-x,-y,z
x,-y,-z
-x,y,-z
-x,-y,-z
x,y,-z
-x,y,z
x,-y,z
loop_
_atom_site_type_symbol
_atom_site_label
_atom_site_fract_x
_atom_site_fract_y
_atom_site_fract_z
Si Si1 0.800997 0.129608 0.263907
Si Si2 0.801063 0.723344 0.568335
Si Si3 0.694952 0.090744 0.401180
Si Si4 0.200503 0.676609 0.296278
Si Si5 0.698737 0.270565 0.930211
Si Si6 0.201499 0.592222 0.172370
Si Si7 0.797357 0.091402 0.121921
O O1 0.711166 0.093304 0.325089
O O2 0.779755 0.229837 0.268187
O O3 0.745154 0.098771 0.195519
O O4 0.000000 0.111523 0.270498
O O5 0.730489 0.698207 0.500000
O O6 0.780420 0.823998 0.575739
O O7 0.730969 0.680776 0.632169
O O8 0.000000 0.706798 0.567627
O O9 0.500000 0.095638 0.418831
O O10 0.761858 0.000000 0.422604
O O11 0.267113 0.614835 0.242607
O O12 0.000000 0.661998 0.301845
O O13 0.500000 0.279590 0.932032
O O14 0.760613 0.334145 0.876749
O O15 0.737827 0.174117 0.913494
O O16 0.768340 0.290194 0.000000
O O17 0.261295 0.500000 0.152197
O O18 0.000000 0.589488 0.177098
O O19 0.000000 0.093702 0.121353
O O20 0.744021 0.000000 0.097009
#
# Coordination Sequence:
#
# PCOD9384087 Si02
#       7
#     8   8   8   8   8   8   8
#     4   9  16  30  52  74 101 138 178 223 273 324
#     4   9  18  32  50  70  96 138 185 224 267 324
#     4  10  20  30  41  64 100 137 175 226 281 327
#     4   8  14  29  53  79 106 134 170 220 273 323
#     4  11  25  42  58  80 117 159 191 229 282 338
#     4  10  20  37  64  92 114 141 183 235 288 342
#     4  10  20  35  58  85 112 147 193 241 283 327
#
# _framework density 20.797342
#
# number of rings (size 3 to 8) (size 9 to 14) (size 15 to 20)
#    0.000    2.429    1.429    2.143    0.000    5.143 
#    0.000    4.286    0.000    0.429    0.000    3.000 
#    0.000    0.000    0.000    5.000    0.000    6.286 
#
# Total GULP energy -312386.471813 kJ/mol
# GULP energy per Si atom -5578.329854 kJ/mol
# Density = 2.075001 g / cm^3
# Si number density = 20.797342 Si / 1000 Ang^3
#
#
#
# Elastic Constant Matrix: (Units=GPa)
#
#
# Indices 1 2 3 4 5 6 
#
# 1 16.1700 12.5402 3.8381 0.0000 0.0000 0.0000
# 2 12.5402 93.1472 62.5067 0.0000 0.0000 0.0000
# 3 3.8381 62.5067 136.9996 0.0000 0.0000 0.0000
# 4 0.0000 0.0000 0.0000 -11.1015 0.0000 0.0000
# 5 0.0000 0.0000 0.0000 0.0000 38.7326 0.0000
# 6 0.0000 0.0000 0.0000 0.0000 0.0000 -75.1359
#
#
#
# Elastic Compliance Matrix: (Units=1/GPa)
#
#
# Indices 1 2 3 4 5 6 
#
# 1 0.070119 -0.011706 0.003376 0.000000 0.000000 0.000000
# 2 -0.011706 0.017427 -0.007623 0.000000 0.000000 0.000000
# 3 0.003376 -0.007623 0.010683 0.000000 0.000000 0.000000
# 4 0.000000 0.000000 0.000000 -0.090078 0.000000 0.000000
# 5 0.000000 0.000000 0.000000 0.000000 0.025818 0.000000
# 6 0.000000 0.000000 0.000000 0.000000 0.000000 -0.013309
#
#
# Mechanical properties :
#
#
# Convention : Reuss Voigt Hill
#
# Bulk Modulus (GPa) = 15.07746 44.89854 29.98800
# Shear Modulus (GPa) = 66.95779 1.66116 34.30948
#
# Velocity S-wave (km/s) = 5.68025 0.89469 4.06606
# Velocity P-wave (km/s) = 7.09125 4.76474 6.04105
#
# Compressibility (1/GPa) = 0.06632417
#
# Stress axis : x y z
#
# Youngs Moduli (GPa) = 14.26137 57.38133 93.60775
#
# Poissons Ratio (x) = 0.67169 -0.31606
# Poissons Ratio (y) = 0.16694 0.71360
# Poissons Ratio (z) = -0.04815 0.43744
#
# Static dielectric constant tensor:
#      x y z
#    x 1.749360 0.000000 0.000000 
#    y 0.000000 1.740670 0.000000 
#    z 0.000000 0.000000 1.788250 
# 
# From -- ./inp_files/7281.got.cif
#   From: 2010.05.17/outbox.cif.g08.bks.cpg/sg47_4_cif.got.tgz:7281.got - 2010.06.03 20:15:42.
