data_PCOD9384683
_publ_section_title
;
Structure prediction by ZEFSAII (Michael W. Deem and Ramdas Pophale) SiO2 
 PCOD9384683
Probable space group: P M M M
;
_chemical_formula_sum "Si O2"
_cell_formula_units_Z 44
_cell_length_a 33.023704
_cell_length_b 7.973931
_cell_length_c 9.118490
_cell_angle_alpha 90.000000
_cell_angle_beta 90.000000
_cell_angle_gamma 90.000000
_cell_volume 2401.160456
_symmetry_space_group_name_H-M "P M M M"
_symmetry_group_IT_number 47
_symmetry_cell_setting 'orthorhombic'
loop_
_space_group_symop_operation_xyz
x,y,z
-x,-y,z
x,-y,-z
-x,y,-z
-x,-y,-z
x,y,-z
-x,y,z
x,-y,z
loop_
_atom_site_type_symbol
_atom_site_label
_atom_site_fract_x
_atom_site_fract_y
_atom_site_fract_z
Si Si1 0.166263 0.298743 0.834726
Si Si2 0.000000 0.301063 0.667872
Si Si3 0.405889 0.000000 0.823607
Si Si4 0.085959 0.800785 0.334327
Si Si5 0.688115 0.000000 0.821591
Si Si6 0.548157 0.692409 0.675310
Si Si7 0.255579 0.693886 0.179279
O O1 0.168375 0.500000 0.843093
O O2 0.126439 0.253681 0.746385
O O3 0.210367 0.249600 0.773440
O O4 0.162525 0.230826 0.000000
O O5 0.957163 0.248758 0.735974
O O6 0.000000 0.500000 0.659207
O O7 0.000000 0.229262 0.500000
O O8 0.427541 0.834559 0.760297
O O9 0.358720 0.000000 0.778680
O O10 0.408329 0.000000 0.000000
O O11 0.086424 0.729062 0.500000
O O12 0.086381 0.000000 0.342660
O O13 0.711680 0.831505 0.774105
O O14 0.689240 0.000000 0.000000
O O15 0.554219 0.711343 0.500000
O O16 0.500000 0.711918 0.702379
O O17 0.559224 0.500000 0.714793
O O18 0.263283 0.500000 0.224491
O O19 0.254529 0.692143 0.000000
#
# Coordination Sequence:
#
# PCOD9384683 Si02
#       7
#     8   4   4   8   4   8   8
#     4   9  18  32  51  75  97 120 158 205 248 288
#     4   9  17  31  50  67  88 125 164 192 226 281
#     4  11  22  32  49  84 120 144 173 225 288 336
#     4  10  20  32  48  72  99 125 155 192 236 290
#     4   9  18  30  46  71 104 141 173 202 255 320
#     4   9  19  37  59  79 103 145 197 235 265 316
#     4   8  15  29  48  69  95 129 170 211 247 296
#
# _framework density 18.324473000000001
#
# number of rings (size 3 to 8) (size 9 to 14) (size 15 to 20)
#    0.000    2.818    0.000    3.000    1.273    5.091 
#    0.000    3.182    0.000    4.909    0.000    0.000 
#    0.000    0.000    0.000    0.000    0.000    0.000 
#
# Total GULP energy -245155.230815 kJ/mol
# GULP energy per Si atom -5571.709791 kJ/mol
# Density = 1.828277 g / cm^3
# Si number density = 18.324473 Si / 1000 Ang^3
#
#
#
# Elastic Constant Matrix: (Units=GPa)
#
#
# Indices 1 2 3 4 5 6 
#
# 1 168.0272 95.4312 47.6811 0.0000 0.0000 0.0000
# 2 95.4312 108.8462 31.7906 0.0000 0.0000 0.0000
# 3 47.6811 31.7906 24.7770 0.0000 0.0000 0.0000
# 4 0.0000 0.0000 0.0000 18.7058 0.0000 0.0000
# 5 0.0000 0.0000 0.0000 0.0000 46.3286 0.0000
# 6 0.0000 0.0000 0.0000 0.0000 0.0000 19.2913
#
#
#
# Elastic Compliance Matrix: (Units=1/GPa)
#
#
# Indices 1 2 3 4 5 6 
#
# 1 0.016941 -0.008526 -0.021661 0.000000 0.000000 0.000000
# 2 -0.008526 0.018985 -0.007951 0.000000 0.000000 0.000000
# 3 -0.021661 -0.007951 0.092246 0.000000 0.000000 0.000000
# 4 0.000000 0.000000 0.000000 0.053459 0.000000 0.000000
# 5 0.000000 0.000000 0.000000 0.000000 0.021585 0.000000
# 6 0.000000 0.000000 0.000000 0.000000 0.000000 0.051837
#
#
# Mechanical properties :
#
#
# Convention : Reuss Voigt Hill
#
# Bulk Modulus (GPa) = 19.26949 72.38402 45.82676
# Shear Modulus (GPa) = 14.34192 25.31496 19.82844
#
# Velocity S-wave (km/s) = 2.80065 3.72086 3.29306
# Velocity P-wave (km/s) = 4.58222 7.61885 6.28663
#
# Compressibility (1/GPa) = 0.05189550
#
# Stress axis : x y z
#
# Youngs Moduli (GPa) = 59.02952 52.67326 10.84053
#
# Poissons Ratio (x) = 0.44911 0.23482
# Poissons Ratio (y) = 0.50330 0.08619
# Poissons Ratio (z) = 1.27864 0.41880
#
# Static dielectric constant tensor:
#      x y z
#    x 1.645510 0.000000 0.000000 
#    y 0.000000 1.628710 0.000000 
#    z 0.000000 0.000000 1.653160 
# 
# From -- ./inp_files/13716.got.cif
#   From: 2010.05.17/outbox.cif.g08.bks.cpg/sg47_7_cif.got.tgz:13716.got - 2010.06.03 20:15:42.
