data_PCOD9384566
_publ_section_title
;
Structure prediction by ZEFSAII (Michael W. Deem and Ramdas Pophale) SiO2 
 PCOD9384566
Probable space group: P M M M
;
_chemical_formula_sum "Si O2"
_cell_formula_units_Z 56
_cell_length_a 14.577788
_cell_length_b 9.199077
_cell_length_c 24.052745
_cell_angle_alpha 90.000000
_cell_angle_beta 90.000000
_cell_angle_gamma 90.000000
_cell_volume 3225.525883
_symmetry_space_group_name_H-M "P M M M"
_symmetry_group_IT_number 47
_symmetry_cell_setting 'orthorhombic'
loop_
_space_group_symop_operation_xyz
x,y,z
-x,-y,z
x,-y,-z
-x,y,-z
-x,-y,-z
x,y,-z
-x,y,z
x,-y,z
loop_
_atom_site_type_symbol
_atom_site_label
_atom_site_fract_x
_atom_site_fract_y
_atom_site_fract_z
Si Si1 0.105735 0.173824 0.565469
Si Si2 0.389673 0.168756 0.162253
Si Si3 0.894652 0.327950 0.874564
Si Si4 0.713824 0.673760 0.937227
Si Si5 0.784063 0.673536 0.660347
Si Si6 0.110110 0.169150 0.240528
Si Si7 0.394252 0.326222 0.277082
O O1 0.119143 0.203384 0.500000
O O2 0.176196 0.256252 0.604661
O O3 0.000000 0.213390 0.579623
O O4 0.113934 0.000000 0.573651
O O5 0.500000 0.177700 0.157292
O O6 0.344347 0.246968 0.109890
O O7 0.365430 0.246821 0.220226
O O8 0.362975 0.000000 0.164226
O O9 0.889884 0.500000 0.860529
O O10 0.820578 0.300740 0.922255
O O11 0.869725 0.236454 0.819887
O O12 0.000000 0.295358 0.890070
O O13 0.698035 0.500000 0.933643
O O14 0.692747 0.721021 0.000000
O O15 0.794743 0.500000 0.658718
O O16 0.841371 0.739899 0.711516
O O17 0.678012 0.707673 0.674562
O O18 0.000000 0.177672 0.247926
O O19 0.136941 0.000000 0.243333
O O20 0.500000 0.287124 0.289561
O O21 0.390725 0.500000 0.267349
#
# Coordination Sequence:
#
# PCOD9384566 Si02
#       7
#     8   8   8   8   8   8   8
#     4   9  19  36  55  75 104 143 180 209 242 288
#     4  10  21  36  54  76 100 126 159 202 252 301
#     4   9  18  33  51  70  95 126 160 202 248 291
#     4  10  21  35  51  72  96 125 163 202 243 297
#     4  11  21  31  50  79 105 131 167 210 251 290
#     4  10  20  32  47  70 101 134 164 196 242 301
#     4   9  19  36  55  75 102 134 165 200 247 302
#
# _framework density 17.361509999999999
#
# number of rings (size 3 to 8) (size 9 to 14) (size 15 to 20)
#    0.000    2.286    0.000    3.000    0.000   10.000 
#    0.000    3.571    0.000    0.429    0.000    6.000 
#    0.000    0.000    0.000    0.000    0.000    0.000 
#
# Total GULP energy -312595.728994 kJ/mol
# GULP energy per Si atom -5582.066589 kJ/mol
# Density = 1.732199 g / cm^3
# Si number density = 17.361510 Si / 1000 Ang^3
#
#
#
# Elastic Constant Matrix: (Units=GPa)
#
#
# Indices 1 2 3 4 5 6 
#
# 1 78.8659 49.2073 69.4634 0.0000 0.0000 0.0000
# 2 49.2073 50.2201 53.9336 0.0000 0.0000 0.0000
# 3 69.4634 53.9336 103.2466 0.0000 0.0000 0.0000
# 4 0.0000 0.0000 0.0000 55.2925 0.0000 0.0000
# 5 0.0000 0.0000 0.0000 0.0000 23.8198 0.0000
# 6 0.0000 0.0000 0.0000 0.0000 0.0000 21.6326
#
#
#
# Elastic Compliance Matrix: (Units=1/GPa)
#
#
# Indices 1 2 3 4 5 6 
#
# 1 0.040719 -0.023865 -0.014929 0.000000 0.000000 0.000000
# 2 -0.023865 0.059346 -0.014945 0.000000 0.000000 0.000000
# 3 -0.014929 -0.014945 0.027536 0.000000 0.000000 0.000000
# 4 0.000000 0.000000 0.000000 0.018086 0.000000 0.000000
# 5 0.000000 0.000000 0.000000 0.000000 0.041982 0.000000
# 6 0.000000 0.000000 0.000000 0.000000 0.000000 0.046226
#
#
# Mechanical properties :
#
#
# Convention : Reuss Voigt Hill
#
# Bulk Modulus (GPa) = 49.69195 64.17125 56.93160
# Shear Modulus (GPa) = 14.36450 24.13087 19.24768
#
# Velocity S-wave (km/s) = 2.87953 3.73219 3.33324
# Velocity P-wave (km/s) = 6.30394 7.45750 6.90485
#
# Compressibility (1/GPa) = 0.02012398
#
# Stress axis : x y z
#
# Youngs Moduli (GPa) = 24.55853 16.85038 36.31566
#
# Poissons Ratio (x) = 0.40213 0.54215
# Poissons Ratio (y) = 0.58609 0.54273
# Poissons Ratio (z) = 0.36663 0.25182
#
# Static dielectric constant tensor:
#      x y z
#    x 1.612870 0.000000 0.000000 
#    y 0.000000 1.578590 0.000000 
#    z 0.000000 0.000000 1.553300 
# 
# From -- ./inp_files/7259.got.cif
#   From: 2010.05.17/outbox.cif.g08.bks.cpg/sg47_4_cif.got.tgz:7259.got - 2010.06.03 20:15:42.
