data_PCOD9384515
_publ_section_title
;
Structure prediction by ZEFSAII (Michael W. Deem and Ramdas Pophale) SiO2 
 PCOD9384515
Probable space group: P M M M
;
_chemical_formula_sum "Si O2"
_cell_formula_units_Z 44
_cell_length_a 7.347335
_cell_length_b 30.674842
_cell_length_c 8.612365
_cell_angle_alpha 90.000000
_cell_angle_beta 90.000000
_cell_angle_gamma 90.000000
_cell_volume 1941.040529
_symmetry_space_group_name_H-M "P M M M"
_symmetry_group_IT_number 47
_symmetry_cell_setting 'orthorhombic'
loop_
_space_group_symop_operation_xyz
x,y,z
-x,-y,z
x,-y,-z
-x,y,-z
-x,-y,-z
x,y,-z
-x,y,z
x,-y,z
loop_
_atom_site_type_symbol
_atom_site_label
_atom_site_fract_x
_atom_site_fract_y
_atom_site_fract_z
Si Si1 0.217771 0.637354 0.327247
Si Si2 0.721550 0.183568 0.673696
Si Si3 0.221458 0.452519 0.818570
Si Si4 0.721540 0.904188 0.174363
Si Si5 0.717091 0.270774 0.172496
Si Si6 0.720816 0.949071 0.500000
O O1 0.287278 0.645299 0.500000
O O2 0.287066 0.591303 0.262879
O O3 0.251893 0.680083 0.226865
O O4 0.000000 0.632865 0.334029
O O5 0.780222 0.171676 0.500000
O O6 0.500000 0.183652 0.671577
O O7 0.772918 0.146263 0.795180
O O8 0.784155 0.232011 0.717645
O O9 0.279689 0.500000 0.756382
O O10 0.000000 0.452318 0.811586
O O11 0.270227 0.450494 0.000000
O O12 0.500000 0.907051 0.172932
O O13 0.780505 0.928678 0.333607
O O14 0.780590 0.918218 0.000000
O O15 0.500000 0.265404 0.166910
O O16 0.789826 0.264661 0.000000
O O17 0.500000 0.944213 0.500000
O O18 0.765668 0.000000 0.500000
#
# Coordination Sequence:
#
# PCOD9384515 Si02
#       6
#     8   8   8   8   8   4
#     4  10  20  32  47  69  96 124 152 184 228 279
#     4   9  15  25  41  59  80 106 139 182 228 269
#     4   8  14  26  45  67  89 115 148 184 221 264
#     4   9  15  23  35  50  70  99 137 180 224 271
#     4  10  20  32  47  68  91 118 155 195 233 275
#     4   9  16  24  32  46  70 100 137 181 228 273
#
# _framework density 22.668254000000001
#
# number of rings (size 3 to 8) (size 9 to 14) (size 15 to 20)
#    0.000    2.818    0.909    2.182    0.000    5.091 
#    0.000    3.636    0.000    0.545    0.000    3.818 
#    0.000    0.000    0.000    0.000    0.000    1.818 
#
# Total GULP energy -245518.648240 kJ/mol
# GULP energy per Si atom -5579.969278 kJ/mol
# Density = 2.261666 g / cm^3
# Si number density = 22.668254 Si / 1000 Ang^3
#
#
#
# Elastic Constant Matrix: (Units=GPa)
#
#
# Indices 1 2 3 4 5 6 
#
# 1 83.7115 -1.5338 3.8751 0.0000 0.0000 0.0000
# 2 -1.5338 129.3413 65.7225 0.0000 0.0000 0.0000
# 3 3.8751 65.7225 152.3561 0.0000 0.0000 0.0000
# 4 0.0000 0.0000 0.0000 2.6333 0.0000 0.0000
# 5 0.0000 0.0000 0.0000 0.0000 -5.7914 0.0000
# 6 0.0000 0.0000 0.0000 0.0000 0.0000 -1.2317
#
#
#
# Elastic Compliance Matrix: (Units=1/GPa)
#
#
# Indices 1 2 3 4 5 6 
#
# 1 0.011974 0.000380 -0.000469 0.000000 0.000000 0.000000
# 2 0.000380 0.009914 -0.004286 0.000000 0.000000 0.000000
# 3 -0.000469 -0.004286 0.008424 0.000000 0.000000 0.000000
# 4 0.000000 0.000000 0.000000 0.379748 0.000000 0.000000
# 5 0.000000 0.000000 0.000000 0.000000 -0.172671 0.000000
# 6 0.000000 0.000000 0.000000 0.000000 0.000000 -0.811888
#
#
# Mechanical properties :
#
#
# Convention : Reuss Voigt Hill
#
# Bulk Modulus (GPa) = 46.37483 55.72627 51.05055
# Shear Modulus (GPa) = -8.95157 18.94506 4.99674
#
# Velocity S-wave (km/s) = -1.98935 2.89408 1.48630
# Velocity P-wave (km/s) = 3.90202 5.98367 5.05124
#
# Compressibility (1/GPa) = 0.02156342
#
# Stress axis : x y z
#
# Youngs Moduli (GPa) = 83.51117 100.86737 118.70145
#
# Poissons Ratio (x) = -0.03834 0.05561
# Poissons Ratio (y) = -0.03174 0.50879
# Poissons Ratio (z) = 0.03913 0.43235
#
# Static dielectric constant tensor:
#      x y z
#    x 1.954760 0.000000 0.000000 
#    y 0.000000 1.809910 0.000000 
#    z 0.000000 0.000000 1.837390 
# 
# From -- ./inp_files/2158.got.cif
#   From: 2010.05.17/outbox.cif.g08.bks.cpg/sg47_2_cif.got.tgz:2158.got - 2010.06.03 20:15:42.
