data_PCOD9384348
_publ_section_title
;
Structure prediction by ZEFSAII (Michael W. Deem and Ramdas Pophale) SiO2 
 PCOD9384348
Probable space group: P M M M
;
_chemical_formula_sum "Si O2"
_cell_formula_units_Z 60
_cell_length_a 9.215871
_cell_length_b 19.976688
_cell_length_c 29.243075
_cell_angle_alpha 90.000000
_cell_angle_beta 90.000000
_cell_angle_gamma 90.000000
_cell_volume 5383.725543
_symmetry_space_group_name_H-M "P M M M"
_symmetry_group_IT_number 47
_symmetry_cell_setting 'orthorhombic'
loop_
_space_group_symop_operation_xyz
x,y,z
-x,-y,z
x,-y,-z
-x,y,-z
-x,-y,-z
x,y,-z
-x,y,z
x,-y,z
loop_
_atom_site_type_symbol
_atom_site_label
_atom_site_fract_x
_atom_site_fract_y
_atom_site_fract_z
Si Si1 0.669259 0.081325 0.949116
Si Si2 0.674723 0.853692 0.587194
Si Si3 0.828411 0.080562 0.673650
Si Si4 0.829168 0.573466 0.555365
Si Si5 0.170781 0.080338 0.500000
Si Si6 0.832828 0.918334 0.858240
Si Si7 0.673147 0.707364 0.446491
Si Si8 0.666733 0.081355 0.233068
O O1 0.500000 0.099306 0.943138
O O2 0.763228 0.104230 0.906138
O O3 0.674695 0.000000 0.949103
O O4 0.716911 0.103016 0.000000
O O5 0.500000 0.862231 0.585909
O O6 0.742250 0.883260 0.633252
O O7 0.748636 0.891217 0.544513
O O8 0.707599 0.774886 0.580715
O O9 0.760611 0.099837 0.722621
O O10 0.000000 0.095156 0.671759
O O11 0.811693 0.000000 0.668444
O O12 0.815080 0.573184 0.500000
O O13 0.776858 0.500000 0.571308
O O14 0.747208 0.639716 0.571227
O O15 0.000000 0.578500 0.565590
O O16 0.000000 0.099291 0.500000
O O17 0.178501 0.000000 0.500000
O O18 0.740338 0.896593 0.814281
O O19 0.000000 0.898092 0.854121
O O20 0.829926 0.000000 0.858456
O O21 0.715633 0.717830 0.500000
O O22 0.500000 0.698401 0.445859
O O23 0.500000 0.103661 0.236830
O O24 0.665097 0.000000 0.231997
#
# Coordination Sequence:
#
# PCOD9384348 Si02
#       8
#     8   8   8   8   4   8   8   8
#     4   8  13  20  28  38  54  76  99 120 142 173
#     4  11  21  33  45  57  72  89 109 132 159 194
#     4  10  20  32  43  55  69  82 102 134 168 201
#     4   8  14  24  38  57  77  94 112 130 147 171
#     4  11  23  35  45  57  70  85 108 135 163 196
#     4   9  15  21  30  44  60  76  94 119 150 182
#     4   9  17  29  41  55  74  92 111 131 151 179
#     4   9  16  26  39  51  61  76  98 123 155 193
#
# _framework density 11.144698999999999
#
# number of rings (size 3 to 8) (size 9 to 14) (size 15 to 20)
#    0.000    2.733    0.667    3.000    0.000    7.733 
#    0.000    2.667    0.000    0.000    0.000    0.000 
#    0.000    0.000    0.000    0.000    0.000    0.000 
#
# Total GULP energy -334069.101482 kJ/mol
# GULP energy per Si atom -5567.818358 kJ/mol
# Density = 1.111933 g / cm^3
# Si number density = 11.144699 Si / 1000 Ang^3
#
#
#
# Elastic Constant Matrix: (Units=GPa)
#
#
# Indices 1 2 3 4 5 6 
#
# 1 71.6975 33.3692 47.9545 0.0000 0.0000 0.0000
# 2 33.3692 45.2187 25.5629 0.0000 0.0000 0.0000
# 3 47.9545 25.5629 86.0413 0.0000 0.0000 0.0000
# 4 0.0000 0.0000 0.0000 -0.0402 0.0000 0.0000
# 5 0.0000 0.0000 0.0000 0.0000 16.3614 0.0000
# 6 0.0000 0.0000 0.0000 0.0000 0.0000 13.6386
#
#
#
# Elastic Compliance Matrix: (Units=1/GPa)
#
#
# Indices 1 2 3 4 5 6 
#
# 1 0.028367 -0.014417 -0.011527 0.000000 0.000000 0.000000
# 2 -0.014417 0.033906 -0.002038 0.000000 0.000000 0.000000
# 3 -0.011527 -0.002038 0.018652 0.000000 0.000000 0.000000
# 4 0.000000 0.000000 0.000000-24.847317 0.000000 0.000000
# 5 0.000000 0.000000 0.000000 0.000000 0.061120 0.000000
# 6 0.000000 0.000000 0.000000 0.000000 0.000000 0.073321
#
#
# Mechanical properties :
#
#
# Convention : Reuss Voigt Hill
#
# Bulk Modulus (GPa) = 40.06246 46.30341 43.18294
# Shear Modulus (GPa) = -0.20352 12.39667 6.09658
#
# Velocity S-wave (km/s) = -0.42780 3.33879 2.34142
# Velocity P-wave (km/s) = 5.98177 7.51672 6.79274
#
# Compressibility (1/GPa) = 0.02496102
#
# Stress axis : x y z
#
# Youngs Moduli (GPa) = 35.25197 29.49313 53.61273
#
# Poissons Ratio (x) = 0.42521 0.61799
# Poissons Ratio (y) = 0.50824 0.10927
# Poissons Ratio (z) = 0.40634 0.06011
#
# Static dielectric constant tensor:
#      x y z
#    x 1.372920 0.000000 0.000000 
#    y 0.000000 1.338910 0.000000 
#    z 0.000000 0.000000 1.355260 
# 
# From -- ./inp_files/33488.got.cif
#   From: 2010.05.17/outbox.cif.g08.bks.cpg/sg47_17_cif.got.tgz:33488.got - 2010.06.03 20:15:42.
