data_PCOD9384612
_publ_section_title
;
Structure prediction by ZEFSAII (Michael W. Deem and Ramdas Pophale) SiO2 
 PCOD9384612
Probable space group: P M M M
;
_chemical_formula_sum "Si O2"
_cell_formula_units_Z 44
_cell_length_a 7.636053
_cell_length_b 30.788789
_cell_length_c 8.609305
_cell_angle_alpha 90.000000
_cell_angle_beta 90.000000
_cell_angle_gamma 90.000000
_cell_volume 2024.089142
_symmetry_space_group_name_H-M "P M M M"
_symmetry_group_IT_number 47
_symmetry_cell_setting 'orthorhombic'
loop_
_space_group_symop_operation_xyz
x,y,z
-x,-y,z
x,-y,-z
-x,y,-z
-x,-y,-z
x,y,-z
-x,y,z
x,-y,z
loop_
_atom_site_type_symbol
_atom_site_label
_atom_site_fract_x
_atom_site_fract_y
_atom_site_fract_z
Si Si1 0.710185 0.097157 0.673026
Si Si2 0.713872 0.815907 0.174778
Si Si3 0.709056 0.639033 0.172730
Si Si4 0.791840 0.048953 0.000000
Si Si5 0.789155 0.547061 0.679140
Si Si6 0.714187 0.727227 0.324539
O O1 0.773727 0.082494 0.500000
O O2 0.500000 0.097600 0.662815
O O3 0.770740 0.146516 0.707674
O O4 0.746295 0.071499 0.834374
O O5 0.500000 0.815813 0.176856
O O6 0.770513 0.767463 0.218943
O O7 0.768707 0.827127 0.000000
O O8 0.500000 0.644651 0.165285
O O9 0.737769 0.590972 0.236890
O O10 0.775374 0.679608 0.272507
O O11 0.781998 0.642127 0.000000
O O12 0.000000 0.046887 0.000000
O O13 0.718499 0.000000 0.000000
O O14 0.730542 0.549597 0.500000
O O15 0.729348 0.500000 0.743059
O O16 0.000000 0.546127 0.679058
O O17 0.767919 0.735843 0.500000
O O18 0.500000 0.726842 0.321255
#
# Coordination Sequence:
#
# PCOD9384612 Si02
#       6
#     8   8   8   4   8   8
#     4  10  20  36  61  92 121 151 194 247 298 346
#     4   9  15  26  48  79 114 146 177 220 274 328
#     4  10  20  32  47  72 105 136 167 206 254 308
#     4  11  25  43  61  83 117 161 203 243 292 353
#     4   9  19  36  55  72  91 121 164 211 259 313
#     4   9  16  26  43  71 106 141 175 211 256 313
#
# _framework density 21.738173
#
# number of rings (size 3 to 8) (size 9 to 14) (size 15 to 20)
#    0.000    2.455    0.909    2.455    0.000    8.000 
#    0.000    4.545    0.000    1.091    0.000    0.000 
#    0.000    0.000    0.000    0.000    0.000    0.000 
#
# Total GULP energy -245382.365963 kJ/mol
# GULP energy per Si atom -5576.871954 kJ/mol
# Density = 2.168870 g / cm^3
# Si number density = 21.738173 Si / 1000 Ang^3
#
#
#
# Elastic Constant Matrix: (Units=GPa)
#
#
# Indices 1 2 3 4 5 6 
#
# 1 42.3239 2.0387 9.0455 0.0000 0.0000 0.0000
# 2 2.0387 133.4262 64.9810 0.0000 0.0000 0.0000
# 3 9.0455 64.9810 146.1891 0.0000 0.0000 0.0000
# 4 0.0000 0.0000 0.0000 32.7722 0.0000 0.0000
# 5 0.0000 0.0000 0.0000 0.0000 632.8189 0.0000
# 6 0.0000 0.0000 0.0000 0.0000 0.0000 30.5793
#
#
#
# Elastic Compliance Matrix: (Units=1/GPa)
#
#
# Indices 1 2 3 4 5 6 
#
# 1 0.023966 0.000454 -0.001685 0.000000 0.000000 0.000000
# 2 0.000454 0.009574 -0.004284 0.000000 0.000000 0.000000
# 3 -0.001685 -0.004284 0.008849 0.000000 0.000000 0.000000
# 4 0.000000 0.000000 0.000000 0.030514 0.000000 0.000000
# 5 0.000000 0.000000 0.000000 0.000000 0.001580 0.000000
# 6 0.000000 0.000000 0.000000 0.000000 0.000000 0.032702
#
#
# Mechanical properties :
#
#
# Convention : Reuss Voigt Hill
#
# Bulk Modulus (GPa) = 31.88780 52.67438 42.28109
# Shear Modulus (GPa) = 38.86024 155.62566 97.24295
#
# Velocity S-wave (km/s) = 4.23265 8.47032 6.69558
# Velocity P-wave (km/s) = 6.21192 10.95197 8.90319
#
# Compressibility (1/GPa) = 0.03135995
#
# Stress axis : x y z
#
# Youngs Moduli (GPa) = 41.72659 104.44811 113.00895
#
# Poissons Ratio (x) = -0.04746 0.19040
# Poissons Ratio (y) = -0.01896 0.48411
# Poissons Ratio (z) = 0.07030 0.44744
#
# Static dielectric constant tensor:
#      x y z
#    x 1.823440 0.000000 0.000000 
#    y 0.000000 1.789630 0.000000 
#    z 0.000000 0.000000 1.798860 
# 
# From -- ./inp_files/2191.got.cif
#   From: 2010.05.17/outbox.cif.g08.bks.cpg/sg47_2_cif.got.tgz:2191.got - 2010.06.03 20:15:42.
