data_PCOD9384008
_publ_section_title
;
Structure prediction by ZEFSAII (Michael W. Deem and Ramdas Pophale) SiO2 
 PCOD9384008
Probable space group: P M M M
;
_chemical_formula_sum "Si O2"
_cell_formula_units_Z 48
_cell_length_a 7.765428
_cell_length_b 10.241971
_cell_length_c 29.943138
_cell_angle_alpha 90.000000
_cell_angle_beta 90.000000
_cell_angle_gamma 90.000000
_cell_volume 2381.476230
_symmetry_space_group_name_H-M "P M M M"
_symmetry_group_IT_number 47
_symmetry_cell_setting 'orthorhombic'
loop_
_space_group_symop_operation_xyz
x,y,z
-x,-y,z
x,-y,-z
-x,y,-z
-x,-y,-z
x,y,-z
-x,y,z
x,-y,z
loop_
_atom_site_type_symbol
_atom_site_label
_atom_site_fract_x
_atom_site_fract_y
_atom_site_fract_z
Si Si1 0.288632 0.000000 0.051209
Si Si2 0.706161 0.752787 0.892742
Si Si3 0.204807 0.500000 0.949244
Si Si4 0.796021 0.852086 0.698843
Si Si5 0.292047 0.145574 0.551690
Si Si6 0.292492 0.848160 0.200159
Si Si7 0.205318 0.351037 0.626386
O O1 0.229366 0.873796 0.078081
O O2 0.500000 0.000000 0.050881
O O3 0.232722 0.000000 0.000000
O O4 0.500000 0.767221 0.889532
O O5 0.742428 0.624403 0.920500
O O6 0.769900 0.762969 0.841754
O O7 0.000000 0.500000 0.952796
O O8 0.276052 0.500000 0.000000
O O9 0.774246 0.815617 0.750730
O O10 0.723683 0.740933 0.666254
O O11 0.000000 0.860672 0.689789
O O12 0.724287 0.000000 0.692578
O O13 0.238349 0.159757 0.500000
O O14 0.500000 0.144955 0.552507
O O15 0.232607 0.264749 0.582072
O O16 0.234712 0.000000 0.567392
O O17 0.500000 0.840783 0.202673
O O18 0.247873 0.000000 0.190822
O O19 0.273389 0.500000 0.624399
O O20 0.000000 0.362296 0.633104
#
# Coordination Sequence:
#
# PCOD9384008 Si02
#       7
#     4   8   4   8   8   8   8
#     4   9  16  28  53  85 107 129 169 217 262 311
#     4  10  19  35  58  82 107 137 175 218 264 317
#     4  11  25  41  53  73 109 147 181 217 260 313
#     4   9  18  33  53  75 102 141 184 220 260 315
#     4   9  19  36  57  81 109 142 182 227 274 325
#     4   9  17  32  55  83 110 132 165 219 273 318
#     4  10  21  36  53  77 111 147 184 226 268 315
#
# _framework density 20.155566
#
# number of rings (size 3 to 8) (size 9 to 14) (size 15 to 20)
#    0.000    2.500    0.833    1.750    0.000    4.667 
#    1.500    4.583    0.000    1.500    0.000    0.000 
#    0.000    0.000    0.000    0.000    0.000    0.000 
#
# Total GULP energy -267776.790914 kJ/mol
# GULP energy per Si atom -5578.683144 kJ/mol
# Density = 2.010969 g / cm^3
# Si number density = 20.155566 Si / 1000 Ang^3
#
#
#
# Elastic Constant Matrix: (Units=GPa)
#
#
# Indices 1 2 3 4 5 6 
#
# 1 24.4357 3.5031 0.4029 0.0000 0.0000 0.0000
# 2 3.5031 185.5497 107.7581 0.0000 0.0000 0.0000
# 3 0.4029 107.7581 144.1355 0.0000 0.0000 0.0000
# 4 0.0000 0.0000 0.0000 29.4045 0.0000 0.0000
# 5 0.0000 0.0000 0.0000 0.0000 24.1340 0.0000
# 6 0.0000 0.0000 0.0000 0.0000 0.0000 27.0823
#
#
#
# Elastic Compliance Matrix: (Units=1/GPa)
#
#
# Indices 1 2 3 4 5 6 
#
# 1 0.041090 -0.001253 0.000822 0.000000 0.000000 0.000000
# 2 -0.001253 0.009563 -0.007146 0.000000 0.000000 0.000000
# 3 0.000822 -0.007146 0.012278 0.000000 0.000000 0.000000
# 4 0.000000 0.000000 0.000000 0.034008 0.000000 0.000000
# 5 0.000000 0.000000 0.000000 0.000000 0.041435 0.000000
# 6 0.000000 0.000000 0.000000 0.000000 0.000000 0.036924
#
#
# Mechanical properties :
#
#
# Convention : Reuss Voigt Hill
#
# Bulk Modulus (GPa) = 20.93066 64.16099 42.54583
# Shear Modulus (GPa) = 24.22724 32.28794 28.25759
#
# Velocity S-wave (km/s) = 3.47077 4.00676 3.74836
# Velocity P-wave (km/s) = 5.14478 7.30120 6.31570
#
# Compressibility (1/GPa) = 0.04777680
#
# Stress axis : x y z
#
# Youngs Moduli (GPa) = 24.33688 104.56840 81.44572
#
# Poissons Ratio (x) = 0.13104 -0.06695
# Poissons Ratio (y) = 0.03050 0.58201
# Poissons Ratio (z) = -0.02000 0.74725
#
# Static dielectric constant tensor:
#      x y z
#    x 1.751670 0.000000 0.000000 
#    y 0.000000 1.988520 0.000000 
#    z 0.000000 0.000000 1.713380 
# 
# From -- ./inp_files/34191.got.cif
#   From: 2010.05.17/outbox.cif.g08.bks.cpg/sg47_18_cif.got.tgz:34191.got - 2010.06.03 20:15:42.
