data_PCOD9384248
_publ_section_title
;
Structure prediction by ZEFSAII (Michael W. Deem and Ramdas Pophale) SiO2 
 PCOD9384248
Probable space group: P M M M
;
_chemical_formula_sum "Si O2"
_cell_formula_units_Z 64
_cell_length_a 21.555313
_cell_length_b 9.555557
_cell_length_c 14.849184
_cell_angle_alpha 90.000000
_cell_angle_beta 90.000000
_cell_angle_gamma 90.000000
_cell_volume 3058.531303
_symmetry_space_group_name_H-M "P M M M"
_symmetry_group_IT_number 47
_symmetry_cell_setting 'orthorhombic'
loop_
_space_group_symop_operation_xyz
x,y,z
-x,-y,z
x,-y,-z
-x,y,-z
-x,-y,-z
x,y,-z
-x,y,z
x,-y,z
loop_
_atom_site_type_symbol
_atom_site_label
_atom_site_fract_x
_atom_site_fract_y
_atom_site_fract_z
Si Si1 0.187329 0.340954 0.641216
Si Si2 0.311065 0.159941 0.391744
Si Si3 0.817047 0.656225 0.143793
Si Si4 0.930526 0.160506 0.142540
Si Si5 0.429632 0.661943 0.609763
Si Si6 0.070116 0.838130 0.637847
Si Si7 0.565863 0.169928 0.106576
Si Si8 0.698313 0.158576 0.107943
O O1 0.193800 0.500000 0.606528
O O2 0.249552 0.250338 0.627743
O O3 0.177415 0.351544 0.748308
O O4 0.126275 0.259752 0.606409
O O5 0.315396 0.152734 0.500000
O O6 0.373807 0.237789 0.360038
O O7 0.306403 0.000000 0.357891
O O8 0.812887 0.500000 0.107746
O O9 0.876893 0.738785 0.109429
O O10 0.755440 0.743361 0.126786
O O11 0.929658 0.162505 0.252339
O O12 0.000000 0.200328 0.114658
O O13 0.918932 0.000000 0.115567
O O14 0.428617 0.662541 0.500000
O O15 0.500000 0.703963 0.635711
O O16 0.419370 0.500000 0.637359
O O17 0.000000 0.796553 0.610597
O O18 0.080189 0.000000 0.610913
O O19 0.500000 0.218190 0.146024
O O20 0.632322 0.215614 0.143462
O O21 0.567253 0.000000 0.111426
O O22 0.564271 0.205009 0.000000
O O23 0.709420 0.000000 0.140889
O O24 0.691784 0.149556 0.000000
#
# Coordination Sequence:
#
# PCOD9384248 Si02
#       8
#     8   8   8   8   8   8   8   8
#     4  10  20  32  47  68  94 125 159 191 226 274
#     4  10  20  32  48  71  96 122 154 194 238 278
#     4  10  20  31  45  68  96 125 155 187 226 271
#     4   8  14  26  45  67  89 115 149 188 228 269
#     4   8  14  26  45  68  93 121 152 186 227 276
#     4   8  14  26  45  68  92 117 147 186 231 274
#     4   7  10  19  38  64  89 110 139 183 227 263
#     4   9  17  29  47  70  93 120 154 189 228 275
#
# _framework density 20.925076000000001
#
# number of rings (size 3 to 8) (size 9 to 14) (size 15 to 20)
#    0.000    3.250    0.000    3.375    0.000    3.250 
#    0.000    3.750    0.000    1.875    0.000   10.500 
#    0.000    0.000    0.000    0.000    0.000    0.000 
#
# Total GULP energy -356872.946520 kJ/mol
# GULP energy per Si atom -5576.139789 kJ/mol
# Density = 2.087745 g / cm^3
# Si number density = 20.925076 Si / 1000 Ang^3
#
#
#
# Elastic Constant Matrix: (Units=GPa)
#
#
# Indices 1 2 3 4 5 6 
#
# 1 246.3202 146.8775 3.1030 0.0000 0.0000 0.0000
# 2 146.8775 146.5162 6.2911 0.0000 0.0000 0.0000
# 3 3.1030 6.2911 59.9775 0.0000 0.0000 0.0000
# 4 0.0000 0.0000 0.0000 8.4311 0.0000 0.0000
# 5 0.0000 0.0000 0.0000 0.0000 18.3423 0.0000
# 6 0.0000 0.0000 0.0000 0.0000 0.0000 -2.6290
#
#
#
# Elastic Compliance Matrix: (Units=1/GPa)
#
#
# Indices 1 2 3 4 5 6 
#
# 1 0.010110 -0.010159 0.000542 0.000000 0.000000 0.000000
# 2 -0.010159 0.017063 -0.001264 0.000000 0.000000 0.000000
# 3 0.000542 -0.001264 0.016777 0.000000 0.000000 0.000000
# 4 0.000000 0.000000 0.000000 0.118609 0.000000 0.000000
# 5 0.000000 0.000000 0.000000 0.000000 0.054519 0.000000
# 6 0.000000 0.000000 0.000000 0.000000 0.000000 -0.380370
#
#
# Mechanical properties :
#
#
# Convention : Reuss Voigt Hill
#
# Bulk Modulus (GPa) = 45.06474 85.03967 65.05221
# Shear Modulus (GPa) = -37.27612 24.59836 -6.33888
#
# Velocity S-wave (km/s) = -4.22525 3.43234 -1.74238
# Velocity P-wave (km/s) = 1.49020 7.51241 5.20651
#
# Compressibility (1/GPa) = 0.02219030
#
# Stress axis : x y z
#
# Youngs Moduli (GPa) = 98.90865 58.60608 59.60383
#
# Poissons Ratio (x) = 0.59535 -0.03233
# Poissons Ratio (y) = 1.00477 0.07535
# Poissons Ratio (z) = -0.05365 0.07409
#
# Static dielectric constant tensor:
#      x y z
#    x 1.756130 0.000000 0.000000 
#    y 0.000000 1.728680 0.000000 
#    z 0.000000 0.000000 1.840140 
# 
# From -- ./inp_files/31501.got.cif
#   From: 2010.05.17/outbox.cif.g08.bks.cpg/sg47_16_cif.got.tgz:31501.got - 2010.06.03 20:15:42.
