data_PCOD9384543
_publ_section_title
;
Structure prediction by ZEFSAII (Michael W. Deem and Ramdas Pophale) SiO2 
 PCOD9384543
Probable space group: P M M M
;
_chemical_formula_sum "Si O2"
_cell_formula_units_Z 40
_cell_length_a 26.649359
_cell_length_b 9.717121
_cell_length_c 7.691603
_cell_angle_alpha 90.000000
_cell_angle_beta 90.000000
_cell_angle_gamma 90.000000
_cell_volume 1991.779408
_symmetry_space_group_name_H-M "P M M M"
_symmetry_group_IT_number 47
_symmetry_cell_setting 'orthorhombic'
loop_
_space_group_symop_operation_xyz
x,y,z
-x,-y,z
x,-y,-z
-x,y,-z
-x,-y,-z
x,y,-z
-x,y,z
x,-y,z
loop_
_atom_site_type_symbol
_atom_site_label
_atom_site_fract_x
_atom_site_fract_y
_atom_site_fract_z
Si Si1 0.000000 0.342022 0.713103
Si Si2 0.390487 0.842643 0.205166
Si Si3 0.296959 0.345249 0.293655
Si Si4 0.500000 0.843202 0.707016
Si Si5 0.907012 0.157899 0.287977
Si Si6 0.206553 0.157970 0.712534
O O1 0.950342 0.260465 0.770189
O O2 0.000000 0.500000 0.768595
O O3 0.000000 0.340947 0.500000
O O4 0.346949 0.744634 0.272076
O O5 0.446371 0.784334 0.238665
O O6 0.387749 0.000000 0.277960
O O7 0.383863 0.852653 0.000000
O O8 0.288580 0.357014 0.500000
O O9 0.301688 0.500000 0.222651
O O10 0.249315 0.260630 0.223245
O O11 0.500000 0.848693 0.500000
O O12 0.500000 0.000000 0.779077
O O13 0.907310 0.159098 0.500000
O O14 0.850259 0.193914 0.234007
O O15 0.917264 0.000000 0.235573
O O16 0.207091 0.158937 0.500000
O O17 0.216956 0.000000 0.764736
#
# Coordination Sequence:
#
# PCOD9384543 Si02
#       6
#     4   8   8   4   8   8
#     4   9  15  19  25  41  67 101 140 181 226 277
#     4  10  20  34  53  76 101 129 161 197 237 282
#     4  10  20  32  47  69  96 126 160 198 241 289
#     4   9  17  31  54  81 104 127 158 198 240 279
#     4   8  13  21  32  46  67  99 140 184 229 277
#     4   8  14  25  41  59  79 108 149 195 239 282
#
# _framework density 20.082543999999999
#
# number of rings (size 3 to 8) (size 9 to 14) (size 15 to 20)
#    0.000    3.000    0.000    3.000    0.000    5.600 
#    0.000    4.500    0.000    3.000    0.000    0.000 
#    0.000    0.000    0.000    0.900    0.000   18.400 
#
# Total GULP energy -223068.078484 kJ/mol
# GULP energy per Si atom -5576.701962 kJ/mol
# Density = 2.003684 g / cm^3
# Si number density = 20.082544 Si / 1000 Ang^3
#
#
#
# Elastic Constant Matrix: (Units=GPa)
#
#
# Indices 1 2 3 4 5 6 
#
# 1 201.0377 133.4199 -1.9673 0.0000 0.0000 0.0000
# 2 133.4199 140.1263 5.2218 0.0000 0.0000 0.0000
# 3 -1.9673 5.2218 34.3698 0.0000 0.0000 0.0000
# 4 0.0000 0.0000 0.0000 2.1512 0.0000 0.0000
# 5 0.0000 0.0000 0.0000 0.0000 -41.9216 0.0000
# 6 0.0000 0.0000 0.0000 0.0000 0.0000 -2.4062
#
#
#
# Elastic Compliance Matrix: (Units=1/GPa)
#
#
# Indices 1 2 3 4 5 6 
#
# 1 0.013775 -0.013220 0.002797 0.000000 0.000000 0.000000
# 2 -0.013220 0.019865 -0.003775 0.000000 0.000000 0.000000
# 3 0.002797 -0.003775 0.029829 0.000000 0.000000 0.000000
# 4 0.000000 0.000000 0.000000 0.464856 0.000000 0.000000
# 5 0.000000 0.000000 0.000000 0.000000 -0.023854 0.000000
# 6 0.000000 0.000000 0.000000 0.000000 0.000000 -0.415602
#
#
# Mechanical properties :
#
#
# Convention : Reuss Voigt Hill
#
# Bulk Modulus (GPa) = 28.51202 72.09805 50.30503
# Shear Modulus (GPa) = 38.77302 7.48864 23.13083
#
# Velocity S-wave (km/s) = 4.39872 1.93314 3.39748
# Velocity P-wave (km/s) = 6.32665 6.40012 6.36349
#
# Compressibility (1/GPa) = 0.03507293
#
# Stress axis : x y z
#
# Youngs Moduli (GPa) = 72.59418 50.34098 33.52452
#
# Poissons Ratio (x) = 0.66552 -0.09377
# Poissons Ratio (y) = 0.95971 0.12655
# Poissons Ratio (z) = -0.20305 0.19002
#
# Static dielectric constant tensor:
#      x y z
#    x 1.703630 0.000000 0.000000 
#    y 0.000000 1.697650 0.000000 
#    z 0.000000 0.000000 1.745110 
# 
# From -- ./inp_files/13026.got.cif
#   From: 2010.05.17/outbox.cif.g08.bks.cpg/sg47_7_cif.got.tgz:13026.got - 2010.06.03 20:15:42.
