data_PCOD9384331
_publ_section_title
;
Structure prediction by ZEFSAII (Michael W. Deem and Ramdas Pophale) SiO2 
 PCOD9384331
Probable space group: P M M M
;
_chemical_formula_sum "Si O2"
_cell_formula_units_Z 48
_cell_length_a 15.535303
_cell_length_b 14.659013
_cell_length_c 12.909893
_cell_angle_alpha 90.000000
_cell_angle_beta 90.000000
_cell_angle_gamma 90.000000
_cell_volume 2939.998446
_symmetry_space_group_name_H-M "P M M M"
_symmetry_group_IT_number 47
_symmetry_cell_setting 'orthorhombic'
loop_
_space_group_symop_operation_xyz
x,y,z
-x,-y,z
x,-y,-z
-x,y,-z
-x,-y,-z
x,y,-z
-x,y,z
x,-y,z
loop_
_atom_site_type_symbol
_atom_site_label
_atom_site_fract_x
_atom_site_fract_y
_atom_site_fract_z
Si Si1 0.595356 0.606910 0.374519
Si Si2 0.104552 0.603962 0.000000
Si Si3 0.687122 0.106408 0.692187
Si Si4 0.191327 0.895114 0.121423
Si Si5 0.898341 0.719200 0.798784
Si Si6 0.765514 0.715564 0.380906
Si Si7 0.500000 0.889707 0.381871
O O1 0.594227 0.611670 0.500000
O O2 0.500000 0.638528 0.339281
O O3 0.604385 0.500000 0.346927
O O4 0.678885 0.663969 0.342929
O O5 0.129848 0.656534 0.104328
O O6 0.134644 0.500000 0.000000
O O7 0.000000 0.603848 0.000000
O O8 0.722742 0.114686 0.809009
O O9 0.743468 0.176850 0.626285
O O10 0.588144 0.133876 0.675339
O O11 0.696532 0.000000 0.661229
O O12 0.124358 0.822213 0.166077
O O13 0.161948 0.000000 0.133556
O O14 0.206076 0.878541 0.000000
O O15 0.843400 0.696787 0.696966
O O16 0.000000 0.708643 0.782120
O O17 0.782839 0.690069 0.500000
O O18 0.500000 0.853157 0.500000
O O19 0.500000 0.000000 0.388812
#
# Coordination Sequence:
#
# PCOD9384331 Si02
#       7
#     8   4   8   8   8   8   4
#     4   8  15  29  48  70  96 124 158 202 245 286
#     4   9  18  34  55  75  94 120 156 201 253 299
#     4   9  18  30  44  68 100 132 168 206 244 290
#     4   9  17  31  51  72  96 126 161 206 257 300
#     4  10  20  34  51  73 101 129 165 209 246 293
#     4  10  20  31  48  73 101 136 168 199 246 297
#     4   9  16  26  41  61  90 130 170 205 239 279
#
# _framework density 16.326537999999999
#
# number of rings (size 3 to 8) (size 9 to 14) (size 15 to 20)
#    0.000    2.833    0.833    1.000    1.167    2.333 
#    0.000    1.250    0.000    2.500    0.000    9.917 
#    0.000    2.000    0.000    0.000    0.000    0.000 
#
# Total GULP energy -267272.010779 kJ/mol
# GULP energy per Si atom -5568.166891 kJ/mol
# Density = 1.628938 g / cm^3
# Si number density = 16.326538 Si / 1000 Ang^3
#
#
#
# Elastic Constant Matrix: (Units=GPa)
#
#
# Indices 1 2 3 4 5 6 
#
# 1 104.6691 42.1826 58.5716 0.0000 0.0000 0.0000
# 2 42.1826 63.5750 32.6612 0.0000 0.0000 0.0000
# 3 58.5716 32.6612 87.8878 0.0000 0.0000 0.0000
# 4 0.0000 0.0000 0.0000 12.1534 0.0000 0.0000
# 5 0.0000 0.0000 0.0000 0.0000 14.4060 0.0000
# 6 0.0000 0.0000 0.0000 0.0000 0.0000 18.5702
#
#
#
# Elastic Compliance Matrix: (Units=1/GPa)
#
#
# Indices 1 2 3 4 5 6 
#
# 1 0.017382 -0.006899 -0.009020 0.000000 0.000000 0.000000
# 2 -0.006899 0.022179 -0.003645 0.000000 0.000000 0.000000
# 3 -0.009020 -0.003645 0.018744 0.000000 0.000000 0.000000
# 4 0.000000 0.000000 0.000000 0.082282 0.000000 0.000000
# 5 0.000000 0.000000 0.000000 0.000000 0.069415 0.000000
# 6 0.000000 0.000000 0.000000 0.000000 0.000000 0.053850
#
#
# Mechanical properties :
#
#
# Convention : Reuss Voigt Hill
#
# Bulk Modulus (GPa) = 52.14386 58.10696 55.12541
# Shear Modulus (GPa) = 16.16180 17.20703 16.68441
#
# Velocity S-wave (km/s) = 3.14970 3.24995 3.20022
# Velocity P-wave (km/s) = 6.72569 7.05342 6.89150
#
# Compressibility (1/GPa) = 0.01917771
#
# Stress axis : x y z
#
# Youngs Moduli (GPa) = 57.53153 45.08685 53.35087
#
# Poissons Ratio (x) = 0.31105 0.48123
# Poissons Ratio (y) = 0.39691 0.19444
# Poissons Ratio (z) = 0.51894 0.16433
#
# Static dielectric constant tensor:
#      x y z
#    x 1.540460 0.000000 0.000000 
#    y 0.000000 1.583170 0.000000 
#    z 0.000000 0.000000 1.532950 
# 
# From -- ./inp_files/17570.got.cif
#   From: 2010.05.17/outbox.cif.g08.bks.cpg/sg47_9_cif.got.tgz:17570.got - 2010.06.03 20:15:42.
