data_PCOD9384938
_publ_section_title
;
Structure prediction by ZEFSAII (Michael W. Deem and Ramdas Pophale) SiO2 
 PCOD9384938
Probable space group: P M M M
;
_chemical_formula_sum "Si O2"
_cell_formula_units_Z 56
_cell_length_a 15.689870
_cell_length_b 9.246469
_cell_length_c 30.596886
_cell_angle_alpha 90.000000
_cell_angle_beta 90.000000
_cell_angle_gamma 90.000000
_cell_volume 4438.870669
_symmetry_space_group_name_H-M "P M M M"
_symmetry_group_IT_number 47
_symmetry_cell_setting 'orthorhombic'
loop_
_space_group_symop_operation_xyz
x,y,z
-x,-y,z
x,-y,-z
-x,y,-z
-x,-y,-z
x,y,-z
-x,y,z
x,-y,z
loop_
_atom_site_type_symbol
_atom_site_label
_atom_site_fract_x
_atom_site_fract_y
_atom_site_fract_z
Si Si1 0.163228 0.826303 0.905959
Si Si2 0.896224 0.666426 0.277813
Si Si3 0.500000 0.832900 0.946979
Si Si4 0.103975 0.833458 0.635119
Si Si5 0.325948 0.328784 0.052730
Si Si6 0.000000 0.330185 0.947537
Si Si7 0.100287 0.828796 0.190240
Si Si8 0.896461 0.331134 0.451543
O O1 0.248224 0.753858 0.924567
O O2 0.151056 0.800117 0.854167
O O3 0.082936 0.751453 0.929474
O O4 0.162348 0.000000 0.913113
O O5 0.870005 0.500000 0.279064
O O6 0.868138 0.749104 0.321476
O O7 0.870014 0.742397 0.232768
O O8 0.000000 0.670649 0.277953
O O9 0.414856 0.746715 0.934263
O O10 0.500000 0.000000 0.932012
O O11 0.500000 0.836076 0.000000
O O12 0.132996 0.759347 0.590100
O O13 0.000000 0.829205 0.634874
O O14 0.129550 0.000000 0.637038
O O15 0.325886 0.500000 0.062782
O O16 0.316984 0.315204 0.000000
O O17 0.000000 0.500000 0.934457
O O18 0.000000 0.324908 0.000000
O O19 0.000000 0.794233 0.182082
O O20 0.104437 0.000000 0.199628
O O21 0.868836 0.281484 0.500000
O O22 0.873843 0.500000 0.446586
O O23 0.000000 0.325022 0.451486
#
# Coordination Sequence:
#
# PCOD9384938 Si02
#       8
#     8   8   4   8   8   4   8   8
#     4  11  21  33  47  63  81 105 133 160 189 225
#     4   9  16  24  35  49  61  78 106 138 172 210
#     4   9  17  31  51  71  87 105 129 155 183 219
#     4   9  15  21  29  41  56  74  96 126 163 202
#     4  10  20  33  48  67  89 109 128 154 188 223
#     4  11  23  35  45  59  81 107 133 161 190 221
#     4   9  17  30  42  53  71  93 119 151 186 218
#     4   8  13  20  28  37  51  71  93 120 156 199
#
# _framework density 12.615822
#
# number of rings (size 3 to 8) (size 9 to 14) (size 15 to 20)
#    0.000    2.571    0.714    3.000    0.000    8.857 
#    0.000    1.429    0.000    0.000    0.000    0.000 
#    0.000    0.000    0.000    0.000    0.000    0.000 
#
# Total GULP energy -311959.114489 kJ/mol
# GULP energy per Si atom -5570.698473 kJ/mol
# Density = 1.258711 g / cm^3
# Si number density = 12.615822 Si / 1000 Ang^3
#
#
#
# Elastic Constant Matrix: (Units=GPa)
#
#
# Indices 1 2 3 4 5 6 
#
# 1 64.2249 44.4416 34.8902 0.0000 0.0000 0.0000
# 2 44.4416 108.6401 75.8692 0.0000 0.0000 0.0000
# 3 34.8902 75.8692 98.2974 0.0000 0.0000 0.0000
# 4 0.0000 0.0000 0.0000 25.1714 0.0000 0.0000
# 5 0.0000 0.0000 0.0000 0.0000 -0.2514 0.0000
# 6 0.0000 0.0000 0.0000 0.0000 0.0000 13.9312
#
#
#
# Elastic Compliance Matrix: (Units=1/GPa)
#
#
# Indices 1 2 3 4 5 6 
#
# 1 0.021874 -0.007649 -0.001860 0.000000 0.000000 0.000000
# 2 -0.007649 0.022642 -0.014761 0.000000 0.000000 0.000000
# 3 -0.001860 -0.014761 0.022227 0.000000 0.000000 0.000000
# 4 0.000000 0.000000 0.000000 0.039728 0.000000 0.000000
# 5 0.000000 0.000000 0.000000 0.000000 -3.976975 0.000000
# 6 0.000000 0.000000 0.000000 0.000000 0.000000 0.071781
#
#
# Mechanical properties :
#
#
# Convention : Reuss Voigt Hill
#
# Bulk Modulus (GPa) = 54.93900 64.61826 59.77863
# Shear Modulus (GPa) = -1.33543 15.50101 7.08279
#
# Velocity S-wave (km/s) = -1.02997 3.50908 2.37200
# Velocity P-wave (km/s) = 6.49829 8.23100 7.41543
#
# Compressibility (1/GPa) = 0.01820201
#
# Stress axis : x y z
#
# Youngs Moduli (GPa) = 45.71730 44.16601 44.99132
#
# Poissons Ratio (x) = 0.33781 0.08371
# Poissons Ratio (y) = 0.34967 0.66411
# Poissons Ratio (z) = 0.08506 0.65193
#
# Static dielectric constant tensor:
#      x y z
#    x 1.375740 0.000000 0.000000 
#    y 0.000000 1.422880 0.000000 
#    z 0.000000 0.000000 1.414300 
# 
# From -- ./inp_files/34644.got.cif
#   From: 2010.05.17/outbox.cif.g08.bks.cpg/sg47_18_cif.got.tgz:34644.got - 2010.06.03 20:15:42.
