data_PCOD9384937
_publ_section_title
;
Structure prediction by ZEFSAII (Michael W. Deem and Ramdas Pophale) SiO2 
 PCOD9384937
Probable space group: P M M M
;
_chemical_formula_sum "Si O2"
_cell_formula_units_Z 52
_cell_length_a 14.905615
_cell_length_b 24.258956
_cell_length_c 7.903497
_cell_angle_alpha 90.000000
_cell_angle_beta 90.000000
_cell_angle_gamma 90.000000
_cell_volume 2857.862298
_symmetry_space_group_name_H-M "P M M M"
_symmetry_group_IT_number 47
_symmetry_cell_setting 'orthorhombic'
loop_
_space_group_symop_operation_xyz
x,y,z
-x,-y,z
x,-y,-z
-x,y,-z
-x,-y,-z
x,y,-z
-x,y,z
x,-y,z
loop_
_atom_site_type_symbol
_atom_site_label
_atom_site_fract_x
_atom_site_fract_y
_atom_site_fract_z
Si Si1 0.898730 0.166701 0.297218
Si Si2 0.599378 0.106771 0.293680
Si Si3 0.788273 0.939012 0.707264
Si Si4 0.897513 0.500000 0.701418
Si Si5 0.400638 0.765072 0.296114
Si Si6 0.210860 0.724828 0.799276
Si Si7 0.103155 0.380742 0.796871
O O1 0.904060 0.161114 0.500000
O O2 0.850025 0.111387 0.233579
O O3 0.839226 0.220404 0.263705
O O4 0.000000 0.173069 0.230891
O O5 0.598893 0.105681 0.500000
O O6 0.500000 0.088478 0.238306
O O7 0.685679 0.072593 0.239036
O O8 0.611575 0.170879 0.243398
O O9 0.788902 0.938008 0.500000
O O10 0.817407 0.000000 0.759957
O O11 0.901277 0.500000 0.500000
O O12 0.858605 0.558678 0.756169
O O13 0.000000 0.500000 0.771269
O O14 0.401009 0.765396 0.500000
O O15 0.500000 0.747243 0.238446
O O16 0.315906 0.729870 0.240345
O O17 0.162611 0.669853 0.731272
O O18 0.200639 0.724300 0.000000
O O19 0.000000 0.377165 0.732157
O O20 0.098867 0.376643 0.000000
#
# Coordination Sequence:
#
# PCOD9384937 Si02
#       7
#     8   8   8   4   8   8   8
#     4  10  20  33  48  66  92 126 163 206 254 298
#     4   8  13  23  41  64  89 115 144 186 242 298
#     4   9  16  26  42  65  91 118 154 201 250 300
#     4   9  17  29  47  73 102 131 166 205 239 274
#     4   9  17  31  51  72  97 128 159 196 245 298
#     4  11  21  32  50  75 101 129 164 205 243 288
#     4   9  18  32  48  68  99 138 171 198 235 282
#
# _framework density 18.195418
#
# number of rings (size 3 to 8) (size 9 to 14) (size 15 to 20)
#    0.000    2.692    1.538    2.077    0.000    4.000 
#    0.000    4.615    0.000    0.462    0.000    1.615 
#    0.000    6.769    0.000    0.000    0.000    0.000 
#
# Total GULP energy -289901.257440 kJ/mol
# GULP energy per Si atom -5575.024182 kJ/mol
# Density = 1.815400 g / cm^3
# Si number density = 18.195418 Si / 1000 Ang^3
#
#
#
# Elastic Constant Matrix: (Units=GPa)
#
#
# Indices 1 2 3 4 5 6 
#
# 1 115.2538 73.7560 5.7068 0.0000 0.0000 0.0000
# 2 73.7560 149.6234 6.3382 0.0000 0.0000 0.0000
# 3 5.7068 6.3382 17.1424 0.0000 0.0000 0.0000
# 4 0.0000 0.0000 0.0000 20.4300 0.0000 0.0000
# 5 0.0000 0.0000 0.0000 0.0000 10.3945 0.0000
# 6 0.0000 0.0000 0.0000 0.0000 0.0000 -61.8687
#
#
#
# Elastic Compliance Matrix: (Units=1/GPa)
#
#
# Indices 1 2 3 4 5 6 
#
# 1 0.012739 -0.006197 -0.001950 0.000000 0.000000 0.000000
# 2 -0.006197 0.009804 -0.001562 0.000000 0.000000 0.000000
# 3 -0.001950 -0.001562 0.059561 0.000000 0.000000 0.000000
# 4 0.000000 0.000000 0.000000 0.048948 0.000000 0.000000
# 5 0.000000 0.000000 0.000000 0.000000 0.096205 0.000000
# 6 0.000000 0.000000 0.000000 0.000000 0.000000 -0.016163
#
#
# Mechanical properties :
#
#
# Convention : Reuss Voigt Hill
#
# Bulk Modulus (GPa) = 15.95216 50.40239 33.17728
# Shear Modulus (GPa) = 19.88813 6.87241 13.38027
#
# Velocity S-wave (km/s) = 3.30969 1.94556 2.71470
# Velocity P-wave (km/s) = 4.83648 5.72780 5.30091
#
# Compressibility (1/GPa) = 0.06268742
#
# Stress axis : x y z
#
# Youngs Moduli (GPa) = 78.50101 101.99576 16.78941
#
# Poissons Ratio (x) = 0.63206 0.03273
# Poissons Ratio (y) = 0.48646 0.02623
# Poissons Ratio (z) = 0.15304 0.15932
#
# Static dielectric constant tensor:
#      x y z
#    x 1.652320 0.000000 0.000000 
#    y 0.000000 1.627220 0.000000 
#    z 0.000000 0.000000 1.667320 
# 
# From -- ./inp_files/7013.got.cif
#   From: 2010.05.17/outbox.cif.g08.bks.cpg/sg47_4_cif.got.tgz:7013.got - 2010.06.03 20:15:42.
