data_PCOD9384038
_publ_section_title
;
Structure prediction by ZEFSAII (Michael W. Deem and Ramdas Pophale) SiO2 
 PCOD9384038
Probable space group: P M M M
;
_chemical_formula_sum "Si O2"
_cell_formula_units_Z 33
_cell_length_a 11.933735
_cell_length_b 15.757097
_cell_length_c 9.145698
_cell_angle_alpha 90.000000
_cell_angle_beta 90.000000
_cell_angle_gamma 90.000000
_cell_volume 1719.766380
_symmetry_space_group_name_H-M "P M M M"
_symmetry_group_IT_number 47
_symmetry_cell_setting 'orthorhombic'
loop_
_space_group_symop_operation_xyz
x,y,z
-x,-y,z
x,-y,-z
-x,y,-z
-x,-y,-z
x,y,-z
-x,y,z
x,-y,z
loop_
_atom_site_type_symbol
_atom_site_label
_atom_site_fract_x
_atom_site_fract_y
_atom_site_fract_z
Si Si1 0.500000 0.328584 0.676926
Si Si2 0.248343 0.907701 0.333602
Si Si3 0.721051 0.400520 0.826685
Si Si4 0.866634 0.737624 0.673334
Si Si5 0.500000 0.869315 0.730971
Si Si6 0.500000 0.000000 0.000000
O O1 0.500000 0.324679 0.500000
O O2 0.609355 0.375330 0.738384
O O3 0.500000 0.232549 0.738658
O O4 0.205254 0.911760 0.500000
O O5 0.191067 0.824280 0.268757
O O6 0.381603 0.893524 0.340794
O O7 0.227213 0.000000 0.262974
O O8 0.745169 0.500000 0.806678
O O9 0.818058 0.341140 0.762390
O O10 0.704756 0.385109 0.000000
O O11 0.836987 0.728026 0.500000
O O12 0.000000 0.743972 0.684141
O O13 0.500000 0.925225 0.875452
#
# Coordination Sequence:
#
# PCOD9384038 Si02
#       6
#     4   8   8   8   4   1
#     4  12  24  40  68 100 129 164 206 257 320 385
#     4  10  19  35  59  87 121 158 200 256 311 366
#     4  11  25  43  64  92 128 168 209 258 323 393
#     4  10  22  40  63  92 124 165 218 269 319 373
#     4  12  22  36  56  90 126 164 207 245 304 373
#     4  12  28  36  54  96 136 176 206 252 304 382
#
# _framework density 19.188652000000001
#
# number of rings (size 3 to 8) (size 9 to 14) (size 15 to 20)
#    0.000    1.212    3.636    2.545    1.697    5.818 
#    0.000    4.848    0.000    0.000    0.000    2.545 
#    0.000    0.000    0.000    0.000    0.000    0.000 
#
# Total GULP energy -183889.315332 kJ/mol
# GULP energy per Si atom -5572.403495 kJ/mol
# Density = 1.914498 g / cm^3
# Si number density = 19.188652 Si / 1000 Ang^3
#
#
#
# Elastic Constant Matrix: (Units=GPa)
#
#
# Indices 1 2 3 4 5 6 
#
# 1 79.2177 56.4709 37.2858 0.0000 0.0000 0.0000
# 2 56.4709 186.4713 68.3990 0.0000 0.0000 0.0000
# 3 37.2858 68.3990 86.7319 0.0000 0.0000 0.0000
# 4 0.0000 0.0000 0.0000 35.1120 0.0000 0.0000
# 5 0.0000 0.0000 0.0000 0.0000 8.1732 0.0000
# 6 0.0000 0.0000 0.0000 0.0000 0.0000 30.5225
#
#
#
# Elastic Compliance Matrix: (Units=1/GPa)
#
#
# Indices 1 2 3 4 5 6 
#
# 1 0.017343 -0.003542 -0.004662 0.000000 0.000000 0.000000
# 2 -0.003542 0.008269 -0.004998 0.000000 0.000000 0.000000
# 3 -0.004662 -0.004998 0.017476 0.000000 0.000000 0.000000
# 4 0.000000 0.000000 0.000000 0.028480 0.000000 0.000000
# 5 0.000000 0.000000 0.000000 0.000000 0.122351 0.000000
# 6 0.000000 0.000000 0.000000 0.000000 0.000000 0.032763
#
#
# Mechanical properties :
#
#
# Convention : Reuss Voigt Hill
#
# Bulk Modulus (GPa) = 59.94381 75.19248 67.56814
# Shear Modulus (GPa) = 19.33133 27.44591 23.38862
#
# Velocity S-wave (km/s) = 3.17746 3.78606 3.49503
# Velocity P-wave (km/s) = 6.69094 7.64090 7.18164
#
# Compressibility (1/GPa) = 0.01668229
#
# Stress axis : x y z
#
# Youngs Moduli (GPa) = 57.66099 120.93648 57.22146
#
# Poissons Ratio (x) = 0.42834 0.26679
# Poissons Ratio (y) = 0.20423 0.28601
# Poissons Ratio (z) = 0.26884 0.60448
#
# Static dielectric constant tensor:
#      x y z
#    x 1.652670 0.000000 0.000000 
#    y 0.000000 1.687210 0.000000 
#    z 0.000000 0.000000 1.656120 
# 
# From -- ./inp_files/3453.got.cif
#   From: 2010.05.17/outbox.cif.g08.bks.cpg/sg47_2_cif.got.tgz:3453.got - 2010.06.03 20:15:42.
