data_PCOD9384474
_publ_section_title
;
Structure prediction by ZEFSAII (Michael W. Deem and Ramdas Pophale) SiO2 
 PCOD9384474
Probable space group: P M M M
;
_chemical_formula_sum "Si O2"
_cell_formula_units_Z 52
_cell_length_a 9.367651
_cell_length_b 18.276868
_cell_length_c 15.285148
_cell_angle_alpha 90.000000
_cell_angle_beta 90.000000
_cell_angle_gamma 90.000000
_cell_volume 2616.990378
_symmetry_space_group_name_H-M "P M M M"
_symmetry_group_IT_number 47
_symmetry_cell_setting 'orthorhombic'
loop_
_space_group_symop_operation_xyz
x,y,z
-x,-y,z
x,-y,-z
-x,y,-z
-x,-y,-z
x,y,-z
-x,y,z
x,-y,z
loop_
_atom_site_type_symbol
_atom_site_label
_atom_site_fract_x
_atom_site_fract_y
_atom_site_fract_z
Si Si1 0.840094 0.140193 0.897197
Si Si2 0.337799 0.278853 0.153784
Si Si3 0.829248 0.364835 0.594410
Si Si4 0.664488 0.000000 0.892366
Si Si5 0.338919 0.224387 0.646343
Si Si6 0.166013 0.917753 0.605970
Si Si7 0.170692 0.416505 0.787815
O O1 0.757504 0.216528 0.890277
O O2 0.000000 0.144277 0.858853
O O3 0.747184 0.072663 0.861650
O O4 0.854782 0.124343 0.000000
O O5 0.500000 0.282903 0.119622
O O6 0.345158 0.251489 0.253970
O O7 0.258874 0.356800 0.157986
O O8 0.793072 0.399639 0.500000
O O9 0.754475 0.286033 0.598868
O O10 0.792379 0.406586 0.684238
O O11 0.000000 0.355330 0.596611
O O12 0.500000 0.000000 0.864131
O O13 0.662103 0.000000 0.000000
O O14 0.500000 0.220958 0.611684
O O15 0.263627 0.146350 0.641758
O O16 0.173388 0.914942 0.500000
O O17 0.000000 0.906217 0.629905
O O18 0.207590 0.000000 0.632966
O O19 0.199590 0.500000 0.813414
O O20 0.000000 0.402991 0.796278
#
# Coordination Sequence:
#
# PCOD9384474 Si02
#       7
#     8   8   8   4   8   8   8
#     4  10  20  35  57  84 111 139 175 216 255 301
#     4  10  21  36  53  75 104 139 174 209 255 312
#     4   9  17  29  47  71  98 130 167 208 255 308
#     4   9  17  31  53  81 113 145 172 201 244 297
#     4  10  20  32  46  67  95 127 165 208 252 300
#     4   9  18  32  48  65  87 120 164 211 257 304
#     4   9  18  33  53  76 103 136 173 216 264 312
#
# _framework density 19.870153999999999
#
# number of rings (size 3 to 8) (size 9 to 14) (size 15 to 20)
#    0.000    2.538    0.000    2.538    0.000    7.077 
#    1.385    2.308    0.000    0.462    0.000    7.538 
#    0.000    0.000    0.000    0.000    0.000    0.000 
#
# Total GULP energy -290109.107657 kJ/mol
# GULP energy per Si atom -5579.021301 kJ/mol
# Density = 1.982493 g / cm^3
# Si number density = 19.870154 Si / 1000 Ang^3
#
#
#
# Elastic Constant Matrix: (Units=GPa)
#
#
# Indices 1 2 3 4 5 6 
#
# 1 105.0244 80.0405 6.1096 0.0000 0.0000 0.0000
# 2 80.0405 151.7827 0.2963 0.0000 0.0000 0.0000
# 3 6.1096 0.2963 12.4390 0.0000 0.0000 0.0000
# 4 0.0000 0.0000 0.0000 10.3041 0.0000 0.0000
# 5 0.0000 0.0000 0.0000 0.0000 14.3286 0.0000
# 6 0.0000 0.0000 0.0000 0.0000 0.0000 0.9484
#
#
#
# Elastic Compliance Matrix: (Units=1/GPa)
#
#
# Indices 1 2 3 4 5 6 
#
# 1 0.016676 -0.008778 -0.007982 0.000000 0.000000 0.000000
# 2 -0.008778 0.011210 0.004045 0.000000 0.000000 0.000000
# 3 -0.007982 0.004045 0.084216 0.000000 0.000000 0.000000
# 4 0.000000 0.000000 0.000000 0.097049 0.000000 0.000000
# 5 0.000000 0.000000 0.000000 0.000000 0.069791 0.000000
# 6 0.000000 0.000000 0.000000 0.000000 0.000000 1.054359
#
#
# Mechanical properties :
#
#
# Convention : Reuss Voigt Hill
#
# Bulk Modulus (GPa) = 11.53786 49.12655 30.33221
# Shear Modulus (GPa) = 3.60329 17.30286 10.45307
#
# Velocity S-wave (km/s) = 1.34809 2.95413 2.29611
# Velocity P-wave (km/s) = 2.87095 6.03434 4.72523
#
# Compressibility (1/GPa) = 0.08667115
#
# Stress axis : x y z
#
# Youngs Moduli (GPa) = 59.96672 89.20967 11.87421
#
# Poissons Ratio (x) = 0.78310 0.09477
# Poissons Ratio (y) = 0.52640 -0.04803
# Poissons Ratio (z) = 0.47863 -0.36081
#
# Static dielectric constant tensor:
#      x y z
#    x 1.693540 0.000000 0.000000 
#    y 0.000000 1.665640 0.000000 
#    z 0.000000 0.000000 1.752310 
# 
# From -- ./inp_files/26778.got.cif
#   From: 2010.05.17/outbox.cif.g08.bks.cpg/sg47_14_cif.got.tgz:26778.got - 2010.06.03 20:15:42.
