data_PCOD9384637
_publ_section_title
;
Structure prediction by ZEFSAII (Michael W. Deem and Ramdas Pophale) SiO2 
 PCOD9384637
Probable space group: P M M M
;
_chemical_formula_sum "Si O2"
_cell_formula_units_Z 64
_cell_length_a 14.934920
_cell_length_b 8.984636
_cell_length_c 30.498229
_cell_angle_alpha 90.000000
_cell_angle_beta 90.000000
_cell_angle_gamma 90.000000
_cell_volume 4092.399365
_symmetry_space_group_name_H-M "P M M M"
_symmetry_group_IT_number 47
_symmetry_cell_setting 'orthorhombic'
loop_
_space_group_symop_operation_xyz
x,y,z
-x,-y,z
x,-y,-z
-x,y,-z
-x,-y,-z
x,y,-z
-x,y,z
x,-y,z
loop_
_atom_site_type_symbol
_atom_site_label
_atom_site_fract_x
_atom_site_fract_y
_atom_site_fract_z
Si Si1 0.604175 0.320647 0.228448
Si Si2 0.259923 0.325082 0.695623
Si Si3 0.391234 0.325596 0.048387
Si Si4 0.664264 0.830322 0.452794
Si Si5 0.400801 0.828860 0.359373
Si Si6 0.102783 0.824945 0.357721
Si Si7 0.608481 0.830873 0.136766
Si Si8 0.852092 0.323247 0.549493
O O1 0.500000 0.271505 0.237724
O O2 0.602655 0.500000 0.230008
O O3 0.682234 0.270645 0.262084
O O4 0.628098 0.265408 0.179778
O O5 0.242501 0.500000 0.700677
O O6 0.331463 0.290235 0.657753
O O7 0.170709 0.245868 0.677673
O O8 0.500000 0.317660 0.048512
O O9 0.368512 0.500000 0.052419
O O10 0.358708 0.237507 0.090890
O O11 0.362011 0.272211 0.000000
O O12 0.619990 0.812119 0.500000
O O13 0.600797 0.818181 0.411628
O O14 0.746999 0.718372 0.449648
O O15 0.702036 0.000000 0.451091
O O16 0.500000 0.802732 0.342133
O O17 0.374320 0.000000 0.347975
O O18 0.110970 0.753715 0.406505
O O19 0.000000 0.806982 0.343448
O O20 0.123665 0.000000 0.361738
O O21 0.500000 0.833117 0.133935
O O22 0.639327 0.000000 0.142395
O O23 0.883896 0.276919 0.500000
O O24 0.866205 0.500000 0.552841
#
# Coordination Sequence:
#
# PCOD9384637 Si02
#       8
#     8   8   8   8   8   8   8   8
#     4   9  18  32  48  66  90 121 155 190 231 277
#     4  11  22  36  54  73  93 119 151 191 234 272
#     4   8  13  21  33  49  73 110 153 194 237 281
#     4   9  17  30  48  68  93 124 152 177 209 253
#     4  10  20  32  48  71  97 125 154 183 218 262
#     4  11  24  40  57  76  97 121 148 178 219 275
#     4   9  16  24  36  57  83 112 150 196 239 274
#     4  10  20  34  54  78 100 120 143 175 216 260
#
# _framework density 15.638748
#
# number of rings (size 3 to 8) (size 9 to 14) (size 15 to 20)
#    0.000    2.375    1.250    2.250    0.000    5.750 
#    0.000    5.000    0.000    0.000    0.000    2.625 
#    0.000    0.000    0.000    0.000    0.000    0.625 
#
# Total GULP energy -356270.240965 kJ/mol
# GULP energy per Si atom -5566.722515 kJ/mol
# Density = 1.560315 g / cm^3
# Si number density = 15.638748 Si / 1000 Ang^3
#
#
#
# Elastic Constant Matrix: (Units=GPa)
#
#
# Indices 1 2 3 4 5 6 
#
# 1 54.8562 24.5040 33.5440 0.0000 0.0000 0.0000
# 2 24.5040 37.9792 33.0290 0.0000 0.0000 0.0000
# 3 33.5440 33.0290 114.6685 0.0000 0.0000 0.0000
# 4 0.0000 0.0000 0.0000 2.8118 0.0000 0.0000
# 5 0.0000 0.0000 0.0000 0.0000 9.4925 0.0000
# 6 0.0000 0.0000 0.0000 0.0000 0.0000 85.8034
#
#
#
# Elastic Compliance Matrix: (Units=1/GPa)
#
#
# Indices 1 2 3 4 5 6 
#
# 1 0.026806 -0.013977 -0.003816 0.000000 0.000000 0.000000
# 2 -0.013977 0.042418 -0.008129 0.000000 0.000000 0.000000
# 3 -0.003816 -0.008129 0.012179 0.000000 0.000000 0.000000
# 4 0.000000 0.000000 0.000000 0.355649 0.000000 0.000000
# 5 0.000000 0.000000 0.000000 0.000000 0.105347 0.000000
# 6 0.000000 0.000000 0.000000 0.000000 0.000000 0.011655
#
#
# Mechanical properties :
#
#
# Convention : Reuss Voigt Hill
#
# Bulk Modulus (GPa) = 33.83102 43.29534 38.56318
# Shear Modulus (GPa) = 8.12020 27.38333 17.75177
#
# Velocity S-wave (km/s) = 2.28115 4.18903 3.37280
# Velocity P-wave (km/s) = 5.34958 7.15136 6.31506
#
# Compressibility (1/GPa) = 0.02955867
#
# Stress axis : x y z
#
# Youngs Moduli (GPa) = 37.30485 23.57510 82.11154
#
# Poissons Ratio (x) = 0.32950 0.31332
# Poissons Ratio (y) = 0.52140 0.66751
# Poissons Ratio (z) = 0.14235 0.19165
#
# Static dielectric constant tensor:
#      x y z
#    x 1.509240 0.000000 0.000000 
#    y 0.000000 1.544020 0.000000 
#    z 0.000000 0.000000 1.550430 
# 
# From -- ./inp_files/22124.got.cif
#   From: 2010.05.17/outbox.cif.g08.bks.cpg/sg47_12_cif.got.tgz:22124.got - 2010.06.03 20:15:42.
