data_PCOD9384282
_publ_section_title
;
Structure prediction by ZEFSAII (Michael W. Deem and Ramdas Pophale) SiO2 
 PCOD9384282
Probable space group: P M M M
;
_chemical_formula_sum "Si O2"
_cell_formula_units_Z 52
_cell_length_a 7.395917
_cell_length_b 18.470731
_cell_length_c 16.585891
_cell_angle_alpha 90.000000
_cell_angle_beta 90.000000
_cell_angle_gamma 90.000000
_cell_volume 2265.765288
_symmetry_space_group_name_H-M "P M M M"
_symmetry_group_IT_number 47
_symmetry_cell_setting 'orthorhombic'
loop_
_space_group_symop_operation_xyz
x,y,z
-x,-y,z
x,-y,-z
-x,y,-z
-x,-y,-z
x,y,-z
-x,y,z
x,-y,z
loop_
_atom_site_type_symbol
_atom_site_label
_atom_site_fract_x
_atom_site_fract_y
_atom_site_fract_z
Si Si1 0.281825 0.354703 0.590145
Si Si2 0.217435 0.852535 0.909271
Si Si3 0.720358 0.811632 0.407405
Si Si4 0.781138 0.418544 0.000000
Si Si5 0.780847 0.692993 0.862566
Si Si6 0.284449 0.919051 0.734478
Si Si7 0.208579 0.577924 0.251313
O O1 0.226066 0.372472 0.500000
O O2 0.500000 0.355355 0.593580
O O3 0.223477 0.271640 0.606377
O O4 0.212915 0.411803 0.653951
O O5 0.285789 0.771239 0.889231
O O6 0.256671 0.897624 0.828301
O O7 0.000000 0.850886 0.914576
O O8 0.280439 0.874600 0.000000
O O9 0.773340 0.832282 0.500000
O O10 0.500000 0.812516 0.407195
O O11 0.782889 0.862366 0.333379
O O12 0.730214 0.369907 0.924619
O O13 0.712890 0.500000 0.000000
O O14 0.000000 0.422310 0.000000
O O15 0.717495 0.654715 0.780878
O O16 0.000000 0.701447 0.862077
O O17 0.500000 0.920870 0.723412
O O18 0.213391 0.000000 0.720771
O O19 0.288900 0.500000 0.227440
O O20 0.000000 0.575494 0.223125
#
# Coordination Sequence:
#
# PCOD9384282 Si02
#       7
#     8   8   8   4   8   8   8
#     4   9  18  33  52  71  92 125 169 208 240 285
#     4  10  20  35  55  76 100 135 178 217 252 297
#     4   8  15  31  55  80 104 130 164 207 253 304
#     4   9  14  22  42  70  98 125 152 192 245 291
#     4   9  16  29  47  70  98 126 161 203 243 290
#     4  10  21  35  53  80 109 134 164 206 256 308
#     4  10  20  31  45  70 102 131 160 201 254 301
#
# _framework density 22.950302000000001
#
# number of rings (size 3 to 8) (size 9 to 14) (size 15 to 20)
#    0.000    2.692    0.769    2.308    0.000    4.000 
#    0.000    4.615    0.000    1.385    0.000    1.077 
#    0.000    2.462    0.000    0.000    0.000    0.000 
#
# Total GULP energy -289991.102381 kJ/mol
# GULP energy per Si atom -5576.751969 kJ/mol
# Density = 2.289807 g / cm^3
# Si number density = 22.950302 Si / 1000 Ang^3
#
#
#
# Elastic Constant Matrix: (Units=GPa)
#
#
# Indices 1 2 3 4 5 6 
#
# 1 76.6481 -2.7127 -6.5996 0.0000 0.0000 0.0000
# 2 -2.7127 39.3512 21.9065 0.0000 0.0000 0.0000
# 3 -6.5996 21.9065 116.0837 0.0000 0.0000 0.0000
# 4 0.0000 0.0000 0.0000 -38.3167 0.0000 0.0000
# 5 0.0000 0.0000 0.0000 0.0000 13.3703 0.0000
# 6 0.0000 0.0000 0.0000 0.0000 0.0000 5.5473
#
#
#
# Elastic Compliance Matrix: (Units=1/GPa)
#
#
# Indices 1 2 3 4 5 6 
#
# 1 0.013121 0.000547 0.000643 0.000000 0.000000 0.000000
# 2 0.000547 0.028418 -0.005332 0.000000 0.000000 0.000000
# 3 0.000643 -0.005332 0.009657 0.000000 0.000000 0.000000
# 4 0.000000 0.000000 0.000000 -0.026098 0.000000 0.000000
# 5 0.000000 0.000000 0.000000 0.000000 0.074793 0.000000
# 6 0.000000 0.000000 0.000000 0.000000 0.000000 0.180269
#
#
# Mechanical properties :
#
#
# Convention : Reuss Voigt Hill
#
# Bulk Modulus (GPa) = 23.30351 28.58572 25.94461
# Shear Modulus (GPa) = 16.51538 10.75277 13.63407
#
# Velocity S-wave (km/s) = 2.68547 2.16689 2.44000
# Velocity P-wave (km/s) = 4.44878 4.32933 4.38946
#
# Compressibility (1/GPa) = 0.04291198
#
# Stress axis : x y z
#
# Youngs Moduli (GPa) = 76.21181 35.18895 103.54976
#
# Poissons Ratio (x) = -0.01924 -0.06656
# Poissons Ratio (y) = -0.04166 0.55210
# Poissons Ratio (z) = -0.04899 0.18762
#
# Static dielectric constant tensor:
#      x y z
#    x 1.982550 0.000000 0.000000 
#    y 0.000000 1.830710 0.000000 
#    z 0.000000 0.000000 1.960960 
# 
# From -- ./inp_files/21412.got.cif
#   From: 2010.05.17/outbox.cif.g08.bks.cpg/sg47_11_cif.got.tgz:21412.got - 2010.06.03 20:15:42.
