data_PCOD9384835
_publ_section_title
;
Structure prediction by ZEFSAII (Michael W. Deem and Ramdas Pophale) SiO2 
 PCOD9384835
Probable space group: P M M M
;
_chemical_formula_sum "Si O2"
_cell_formula_units_Z 52
_cell_length_a 19.865550
_cell_length_b 16.271814
_cell_length_c 9.160651
_cell_angle_alpha 90.000000
_cell_angle_beta 90.000000
_cell_angle_gamma 90.000000
_cell_volume 2961.167012
_symmetry_space_group_name_H-M "P M M M"
_symmetry_group_IT_number 47
_symmetry_cell_setting 'orthorhombic'
loop_
_space_group_symop_operation_xyz
x,y,z
-x,-y,z
x,-y,-z
-x,y,-z
-x,-y,-z
x,y,-z
-x,y,z
x,-y,z
loop_
_atom_site_type_symbol
_atom_site_label
_atom_site_fract_x
_atom_site_fract_y
_atom_site_fract_z
Si Si1 0.917590 0.000000 0.668658
Si Si2 0.081276 0.162377 0.834089
Si Si3 0.418257 0.907931 0.328904
Si Si4 0.418782 0.740392 0.829939
Si Si5 0.202135 0.402747 0.163727
Si Si6 0.078243 0.668399 0.326017
Si Si7 0.338452 0.597281 0.674848
O O1 0.894538 0.080311 0.755210
O O2 0.896726 0.000000 0.500000
O O3 0.000000 0.000000 0.668340
O O4 0.093868 0.240477 0.732840
O O5 0.000000 0.155707 0.843204
O O6 0.106188 0.171968 0.000000
O O7 0.400482 0.898789 0.500000
O O8 0.500000 0.908446 0.321240
O O9 0.395755 0.827585 0.239823
O O10 0.396264 0.000000 0.280265
O O11 0.500000 0.739019 0.821615
O O12 0.390341 0.661395 0.745041
O O13 0.399265 0.736202 0.000000
O O14 0.209463 0.500000 0.150345
O O15 0.131928 0.386632 0.243322
O O16 0.265681 0.376926 0.260928
O O17 0.203239 0.366709 0.000000
O O18 0.085575 0.663358 0.500000
O O19 0.000000 0.649726 0.290287
O O20 0.338760 0.603592 0.500000
O O21 0.350965 0.500000 0.710994
#
# Coordination Sequence:
#
# PCOD9384835 Si02
#       7
#     4   8   8   8   8   8   8
#     4   9  15  23  37  59  89 123 157 193 236 287
#     4   9  16  26  41  63  92 124 158 196 239 287
#     4   8  14  26  45  70 102 139 177 217 259 303
#     4  10  20  32  49  77 111 144 178 218 264 311
#     4  10  21  37  56  76  99 129 166 208 255 309
#     4  10  20  33  50  74 103 132 164 205 252 301
#     4  10  21  37  56  76 100 134 177 221 263 312
#
# _framework density 17.560644
#
# number of rings (size 3 to 8) (size 9 to 14) (size 15 to 20)
#    0.000    2.538    0.000    3.000    0.000    7.385 
#    0.000    4.615    0.000    0.000    2.000    0.000 
#    0.000    0.000    0.000    0.000    0.000    0.000 
#
# Total GULP energy -289668.664722 kJ/mol
# GULP energy per Si atom -5570.551245 kJ/mol
# Density = 1.752068 g / cm^3
# Si number density = 17.560644 Si / 1000 Ang^3
#
#
#
# Elastic Constant Matrix: (Units=GPa)
#
#
# Indices 1 2 3 4 5 6 
#
# 1 30.6277 27.5687 32.9802 0.0000 0.0000 0.0000
# 2 27.5687 79.5312 55.3494 0.0000 0.0000 0.0000
# 3 32.9802 55.3494 112.4170 0.0000 0.0000 0.0000
# 4 0.0000 0.0000 0.0000 27.9766 0.0000 0.0000
# 5 0.0000 0.0000 0.0000 0.0000 19.8493 0.0000
# 6 0.0000 0.0000 0.0000 0.0000 0.0000 -11.5668
#
#
#
# Elastic Compliance Matrix: (Units=1/GPa)
#
#
# Indices 1 2 3 4 5 6 
#
# 1 0.054064 -0.011717 -0.010092 0.000000 0.000000 0.000000
# 2 -0.011717 0.021668 -0.007231 0.000000 0.000000 0.000000
# 3 -0.010092 -0.007231 0.015416 0.000000 0.000000 0.000000
# 4 0.000000 0.000000 0.000000 0.035744 0.000000 0.000000
# 5 0.000000 0.000000 0.000000 0.000000 0.050380 0.000000
# 6 0.000000 0.000000 0.000000 0.000000 0.000000 -0.086454
#
#
# Mechanical properties :
#
#
# Convention : Reuss Voigt Hill
#
# Bulk Modulus (GPa) = 30.24056 50.48584 40.36320
# Shear Modulus (GPa) = 31.26564 14.36367 22.81465
#
# Velocity S-wave (km/s) = 4.22410 2.86308 3.60834
# Velocity P-wave (km/s) = 6.40693 6.30408 6.35571
#
# Compressibility (1/GPa) = 0.03306818
#
# Stress axis : x y z
#
# Youngs Moduli (GPa) = 18.49652 46.15205 64.86693
#
# Poissons Ratio (x) = 0.54078 0.65463
# Poissons Ratio (y) = 0.21673 0.46903
# Poissons Ratio (z) = 0.18666 0.33371
#
# Static dielectric constant tensor:
#      x y z
#    x 1.583610 0.000000 0.000000 
#    y 0.000000 1.624460 0.000000 
#    z 0.000000 0.000000 1.599940 
# 
# From -- ./inp_files/10952.got.cif
#   From: 2010.05.17/outbox.cif.g08.bks.cpg/sg47_6_cif.got.tgz:10952.got - 2010.06.03 20:15:42.
