data_PCOD9384682
_publ_section_title
;
Structure prediction by ZEFSAII (Michael W. Deem and Ramdas Pophale) SiO2 
 PCOD9384682
Probable space group: P M M M
;
_chemical_formula_sum "Si O2"
_cell_formula_units_Z 44
_cell_length_a 9.350555
_cell_length_b 29.267366
_cell_length_c 7.345011
_cell_angle_alpha 90.000000
_cell_angle_beta 90.000000
_cell_angle_gamma 90.000000
_cell_volume 2010.080629
_symmetry_space_group_name_H-M "P M M M"
_symmetry_group_IT_number 47
_symmetry_cell_setting 'orthorhombic'
loop_
_space_group_symop_operation_xyz
x,y,z
-x,-y,z
x,-y,-z
-x,y,-z
-x,-y,-z
x,y,-z
-x,y,z
x,-y,z
loop_
_atom_site_type_symbol
_atom_site_label
_atom_site_fract_x
_atom_site_fract_y
_atom_site_fract_z
Si Si1 0.334916 0.409481 0.277959
Si Si2 0.835104 0.318917 0.722424
Si Si3 0.665340 0.051177 0.221784
Si Si4 0.661960 0.769557 0.283125
Si Si5 0.834800 0.500000 0.722144
Si Si6 0.161346 0.138733 0.781983
O O1 0.335853 0.409590 0.500000
O O2 0.500000 0.409931 0.219722
O O3 0.252356 0.363751 0.221434
O O4 0.249340 0.454597 0.220630
O O5 0.836201 0.318734 0.500000
O O6 0.755240 0.273057 0.784665
O O7 0.000000 0.320264 0.780399
O O8 0.500000 0.058396 0.275407
O O9 0.764031 0.092430 0.285785
O O10 0.709023 0.000000 0.278024
O O11 0.667192 0.051500 0.000000
O O12 0.651979 0.763268 0.500000
O O13 0.500000 0.770232 0.211358
O O14 0.742058 0.817188 0.253635
O O15 0.835575 0.500000 0.500000
O O16 0.000000 0.500000 0.780024
O O17 0.000000 0.144772 0.712959
O O18 0.153055 0.134360 0.000000
#
# Coordination Sequence:
#
# PCOD9384682 Si02
#       6
#     8   8   8   8   4   8
#     4   9  15  22  32  47  69  98 134 175 217 263
#     4   9  16  26  40  57  78 106 141 181 223 267
#     4   8  14  26  45  68  93 121 152 185 222 266
#     4  10  20  33  49  68  90 120 158 195 231 273
#     4   9  15  21  29  43  65  95 132 173 218 265
#     4  10  20  32  48  72  99 125 153 187 229 274
#
# _framework density 21.889668
#
# number of rings (size 3 to 8) (size 9 to 14) (size 15 to 20)
#    0.000    2.818    0.000    3.000    0.000    8.000 
#    0.000    1.818    0.000    0.545    0.000    3.818 
#    0.000    0.000    0.000    0.818    0.000   16.000 
#
# Total GULP energy -245892.735811 kJ/mol
# GULP energy per Si atom -5588.471268 kJ/mol
# Density = 2.183985 g / cm^3
# Si number density = 21.889668 Si / 1000 Ang^3
#
#
#
# Elastic Constant Matrix: (Units=GPa)
#
#
# Indices 1 2 3 4 5 6 
#
# 1 250.5463 162.9045 7.1460 0.0000 0.0000 0.0000
# 2 162.9045 239.0546 1.9835 0.0000 0.0000 0.0000
# 3 7.1460 1.9835 83.4735 0.0000 0.0000 0.0000
# 4 0.0000 0.0000 0.0000 11.2270 0.0000 0.0000
# 5 0.0000 0.0000 0.0000 0.0000 -2.3631 0.0000
# 6 0.0000 0.0000 0.0000 0.0000 0.0000 47.8860
#
#
#
# Elastic Compliance Matrix: (Units=1/GPa)
#
#
# Indices 1 2 3 4 5 6 
#
# 1 0.007187 -0.004894 -0.000499 0.000000 0.000000 0.000000
# 2 -0.004894 0.007516 0.000240 0.000000 0.000000 0.000000
# 3 -0.000499 0.000240 0.012017 0.000000 0.000000 0.000000
# 4 0.000000 0.000000 0.000000 0.089071 0.000000 0.000000
# 5 0.000000 0.000000 0.000000 0.000000 -0.423170 0.000000
# 6 0.000000 0.000000 0.000000 0.000000 0.000000 0.020883
#
#
# Mechanical properties :
#
#
# Convention : Reuss Voigt Hill
#
# Bulk Modulus (GPa) = 60.91822 101.90472 81.41147
# Shear Modulus (GPa) = -18.46931 38.08601 9.80835
#
# Velocity S-wave (km/s) = -2.90788 4.17575 2.11909
# Velocity P-wave (km/s) = 4.07624 8.36086 6.57722
#
# Compressibility (1/GPa) = 0.01641545
#
# Stress axis : x y z
#
# Youngs Moduli (GPa) = 139.13226 133.04946 83.21646
#
# Poissons Ratio (x) = 0.65111 0.04153
# Poissons Ratio (y) = 0.68088 -0.02000
# Poissons Ratio (z) = 0.06943 -0.03198
#
# Static dielectric constant tensor:
#      x y z
#    x 1.871930 0.000000 0.000000 
#    y 0.000000 1.738160 0.000000 
#    z 0.000000 0.000000 1.917910 
# 
# From -- ./inp_files/1958.got.cif
#   From: 2010.05.17/outbox.cif.g08.bks.cpg/sg47_1_cif.got.tgz:1958.got - 2010.06.03 20:15:42.
