data_PCOD9384809
_publ_section_title
;
Structure prediction by ZEFSAII (Michael W. Deem and Ramdas Pophale) SiO2 
 PCOD9384809
Probable space group: P M M M
;
_chemical_formula_sum "Si O2"
_cell_formula_units_Z 44
_cell_length_a 9.359479
_cell_length_b 7.514774
_cell_length_c 29.165378
_cell_angle_alpha 90.000000
_cell_angle_beta 90.000000
_cell_angle_gamma 90.000000
_cell_volume 2051.328471
_symmetry_space_group_name_H-M "P M M M"
_symmetry_group_IT_number 47
_symmetry_cell_setting 'orthorhombic'
loop_
_space_group_symop_operation_xyz
x,y,z
-x,-y,z
x,-y,-z
-x,y,-z
-x,-y,-z
x,y,-z
-x,y,z
x,-y,z
loop_
_atom_site_type_symbol
_atom_site_label
_atom_site_fract_x
_atom_site_fract_y
_atom_site_fract_z
Si Si1 0.162289 0.286629 0.318355
Si Si2 0.662758 0.213408 0.410484
Si Si3 0.838449 0.213934 0.139301
Si Si4 0.834925 0.782089 0.500000
Si Si5 0.665153 0.782944 0.948603
Si Si6 0.337965 0.286997 0.769149
O O1 0.153001 0.500000 0.313660
O O2 0.252170 0.251086 0.364013
O O3 0.245853 0.217692 0.273687
O O4 0.000000 0.218051 0.321541
O O5 0.500000 0.281521 0.409054
O O6 0.751120 0.277452 0.454590
O O7 0.654407 0.000000 0.414903
O O8 0.764423 0.279693 0.092643
O O9 0.742286 0.253796 0.183300
O O10 0.000000 0.280882 0.145007
O O11 0.845416 0.000000 0.135684
O O12 0.000000 0.725635 0.500000
O O13 0.835561 0.000000 0.500000
O O14 0.500000 0.730495 0.941124
O O15 0.667254 0.000000 0.948315
O O16 0.708064 0.727411 0.000000
O O17 0.500000 0.217285 0.769561
O O18 0.346963 0.500000 0.763627
#
# Coordination Sequence:
#
# PCOD9384809 Si02
#       6
#     8   8   8   4   8   8
#     4  10  21  37  56  77 102 133 169 210 256 304
#     4  10  20  34  54  80 108 138 172 209 250 298
#     4  10  20  32  49  76 106 134 166 206 251 298
#     4   9  17  31  52  77 106 139 172 208 252 299
#     4   8  14  26  45  69  98 132 167 203 246 295
#     4  10  21  37  56  75  97 131 172 210 253 305
#
# _framework density 21.449515999999999
#
# number of rings (size 3 to 8) (size 9 to 14) (size 15 to 20)
#    0.000    2.455    0.000    3.000    0.000    6.545 
#    0.000    2.273    0.000    3.273    0.000    3.818 
#    0.000    0.000    0.000    0.000    0.000    0.000 
#
# Total GULP energy -245854.923488 kJ/mol
# GULP energy per Si atom -5587.611897 kJ/mol
# Density = 2.140070 g / cm^3
# Si number density = 21.449516 Si / 1000 Ang^3
#
#
#
# Elastic Constant Matrix: (Units=GPa)
#
#
# Indices 1 2 3 4 5 6 
#
# 1 244.1088 8.6973 152.5699 0.0000 0.0000 0.0000
# 2 8.6973 56.8292 -1.0642 0.0000 0.0000 0.0000
# 3 152.5699 -1.0642 224.1790 0.0000 0.0000 0.0000
# 4 0.0000 0.0000 0.0000 32.9805 0.0000 0.0000
# 5 0.0000 0.0000 0.0000 0.0000 54.3649 0.0000
# 6 0.0000 0.0000 0.0000 0.0000 0.0000 12.7932
#
#
#
# Elastic Compliance Matrix: (Units=1/GPa)
#
#
# Indices 1 2 3 4 5 6 
#
# 1 0.007209 -0.001195 -0.004912 0.000000 0.000000 0.000000
# 2 -0.001195 0.017796 0.000898 0.000000 0.000000 0.000000
# 3 -0.004912 0.000898 0.007808 0.000000 0.000000 0.000000
# 4 0.000000 0.000000 0.000000 0.030321 0.000000 0.000000
# 5 0.000000 0.000000 0.000000 0.000000 0.018394 0.000000
# 6 0.000000 0.000000 0.000000 0.000000 0.000000 0.078167
#
#
# Mechanical properties :
#
#
# Convention : Reuss Voigt Hill
#
# Bulk Modulus (GPa) = 44.65330 93.94698 69.30014
# Shear Modulus (GPa) = 28.15650 44.35533 36.25591
#
# Velocity S-wave (km/s) = 3.62703 4.55234 4.11577
# Velocity P-wave (km/s) = 6.19706 8.45730 7.41382
#
# Compressibility (1/GPa) = 0.02239476
#
# Stress axis : x y z
#
# Youngs Moduli (GPa) = 138.71192 56.19134 128.07406
#
# Poissons Ratio (x) = 0.06717 0.62911
# Poissons Ratio (y) = 0.16580 -0.11501
# Poissons Ratio (z) = 0.68136 -0.05046
#
# Static dielectric constant tensor:
#      x y z
#    x 1.753940 0.000000 0.000000 
#    y 0.000000 1.834240 0.000000 
#    z 0.000000 0.000000 1.721580 
# 
# From -- ./inp_files/2270.got.cif
#   From: 2010.05.17/outbox.cif.g08.bks.cpg/sg47_2_cif.got.tgz:2270.got - 2010.06.03 20:15:42.
