data_PCOD9384065
_publ_section_title
;
Structure prediction by ZEFSAII (Michael W. Deem and Ramdas Pophale) SiO2 
 PCOD9384065
Probable space group: P M M M
;
_chemical_formula_sum "Si O2"
_cell_formula_units_Z 56
_cell_length_a 22.941118
_cell_length_b 8.968641
_cell_length_c 14.947681
_cell_angle_alpha 90.000000
_cell_angle_beta 90.000000
_cell_angle_gamma 90.000000
_cell_volume 3075.495104
_symmetry_space_group_name_H-M "P M M M"
_symmetry_group_IT_number 47
_symmetry_cell_setting 'orthorhombic'
loop_
_space_group_symop_operation_xyz
x,y,z
-x,-y,z
x,-y,-z
-x,y,-z
-x,-y,-z
x,y,-z
-x,y,z
x,-y,z
loop_
_atom_site_type_symbol
_atom_site_label
_atom_site_fract_x
_atom_site_fract_y
_atom_site_fract_z
Si Si1 0.570166 0.831798 0.000000
Si Si2 0.882063 0.675536 0.597212
Si Si3 0.320313 0.824716 0.760760
Si Si4 0.108532 0.680791 0.203332
Si Si5 0.432429 0.678032 0.186666
Si Si6 0.230252 0.679745 0.105389
Si Si7 0.258369 0.329181 0.601761
Si Si8 0.000000 0.826239 0.106635
O O1 0.583995 0.740978 0.088799
O O2 0.500000 0.844222 0.000000
O O3 0.594428 0.000000 0.000000
O O4 0.900754 0.739062 0.500000
O O5 0.898429 0.500000 0.595991
O O6 0.900169 0.735474 0.694145
O O7 0.811691 0.681023 0.600197
O O8 0.383855 0.750759 0.751400
O O9 0.284186 0.753716 0.843137
O O10 0.284485 0.783918 0.672075
O O11 0.325937 0.000000 0.773905
O O12 0.106436 0.500000 0.204427
O O13 0.171042 0.720574 0.159421
O O14 0.056999 0.745894 0.144483
O O15 0.500000 0.719168 0.205199
O O16 0.428551 0.500000 0.187420
O O17 0.236136 0.500000 0.110445
O O18 0.226756 0.719967 0.000000
O O19 0.278741 0.306324 0.500000
O O20 0.272521 0.500000 0.629227
O O21 0.000000 0.000000 0.132568
O O22 0.000000 0.816854 0.000000
#
# Coordination Sequence:
#
# PCOD9384065 Si02
#       8
#     4   8   8   8   8   8   8   4
#     4   9  17  31  51  75 103 135 175 224 279 334
#     4   8  14  28  55  87 113 138 173 223 278 326
#     4  12  24  35  53  82 118 151 182 227 283 345
#     4  10  19  36  62  86 109 141 189 239 276 321
#     4  10  21  37  56  75 101 144 195 239 277 327
#     4  10  21  37  57  81 111 146 188 239 284 328
#     4   9  17  34  60  85 111 144 184 229 275 332
#     4  11  25  41  56  77 110 152 193 233 280 337
#
# _framework density 18.208449000000002
#
# number of rings (size 3 to 8) (size 9 to 14) (size 15 to 20)
#    0.000    2.143    1.429    3.429    1.000    4.000 
#    0.000    0.357    0.000    3.000    0.000    3.000 
#    0.000    0.000    0.000    0.000    0.000    0.000 
#
# Total GULP energy -312313.822892 kJ/mol
# GULP energy per Si atom -5577.032552 kJ/mol
# Density = 1.816701 g / cm^3
# Si number density = 18.208449 Si / 1000 Ang^3
#
#
#
# Elastic Constant Matrix: (Units=GPa)
#
#
# Indices 1 2 3 4 5 6 
#
# 1 70.8209 28.7111 17.7891 0.0000 0.0000 0.0000
# 2 28.7111 41.9187 22.7238 0.0000 0.0000 0.0000
# 3 17.7891 22.7238 82.4313 0.0000 0.0000 0.0000
# 4 0.0000 0.0000 0.0000 7.2310 0.0000 0.0000
# 5 0.0000 0.0000 0.0000 0.0000 2.0588 0.0000
# 6 0.0000 0.0000 0.0000 0.0000 0.0000 5.8097
#
#
#
# Elastic Compliance Matrix: (Units=1/GPa)
#
#
# Indices 1 2 3 4 5 6 
#
# 1 0.019575 -0.013071 -0.000621 0.000000 0.000000 0.000000
# 2 -0.013071 0.036774 -0.007317 0.000000 0.000000 0.000000
# 3 -0.000621 -0.007317 0.014282 0.000000 0.000000 0.000000
# 4 0.000000 0.000000 0.000000 0.138293 0.000000 0.000000
# 5 0.000000 0.000000 0.000000 0.000000 0.485725 0.000000
# 6 0.000000 0.000000 0.000000 0.000000 0.000000 0.172126
#
#
# Mechanical properties :
#
#
# Convention : Reuss Voigt Hill
#
# Bulk Modulus (GPa) = 34.94736 37.06876 36.00806
# Shear Modulus (GPa) = 5.44466 11.41636 8.43051
#
# Velocity S-wave (km/s) = 1.73109 2.50668 2.15408
# Velocity P-wave (km/s) = 4.81977 5.36471 5.09952
#
# Compressibility (1/GPa) = 0.02861446
#
# Stress axis : x y z
#
# Youngs Moduli (GPa) = 51.08544 27.19276 70.01608
#
# Poissons Ratio (x) = 0.35543 0.04350
# Poissons Ratio (y) = 0.66772 0.51230
# Poissons Ratio (z) = 0.03174 0.19897
#
# Static dielectric constant tensor:
#      x y z
#    x 1.628320 0.000000 0.000000 
#    y 0.000000 1.603330 0.000000 
#    z 0.000000 0.000000 1.661060 
# 
# From -- ./inp_files/25183.got.cif
#   From: 2010.05.17/outbox.cif.g08.bks.cpg/sg47_13_cif.got.tgz:25183.got - 2010.06.03 20:15:42.
