data_PCOD9384021
_publ_section_title
;
Structure prediction by ZEFSAII (Michael W. Deem and Ramdas Pophale) SiO2 
 PCOD9384021
Probable space group: P M M M
;
_chemical_formula_sum "Si O2"
_cell_formula_units_Z 40
_cell_length_a 16.781297
_cell_length_b 14.970641
_cell_length_c 8.579818
_cell_angle_alpha 90.000000
_cell_angle_beta 90.000000
_cell_angle_gamma 90.000000
_cell_volume 2155.479988
_symmetry_space_group_name_H-M "P M M M"
_symmetry_group_IT_number 47
_symmetry_cell_setting 'orthorhombic'
loop_
_space_group_symop_operation_xyz
x,y,z
-x,-y,z
x,-y,-z
-x,y,-z
-x,-y,-z
x,y,-z
-x,y,z
x,-y,z
loop_
_atom_site_type_symbol
_atom_site_label
_atom_site_fract_x
_atom_site_fract_y
_atom_site_fract_z
Si Si1 0.000000 0.633020 0.683846
Si Si2 0.832032 0.399979 0.177963
Si Si3 0.719913 0.262113 0.320893
Si Si4 0.406742 0.398750 0.812634
Si Si5 0.000000 0.829699 0.811420
Si Si6 0.177645 0.100557 0.812636
O O1 0.922863 0.597347 0.771341
O O2 0.000000 0.612746 0.500000
O O3 0.000000 0.738745 0.714925
O O4 0.798905 0.500000 0.181501
O O5 0.789172 0.335128 0.296594
O O6 0.823846 0.365738 0.000000
O O7 0.702428 0.245014 0.500000
O O8 0.645625 0.315777 0.246449
O O9 0.758783 0.172951 0.248165
O O10 0.500000 0.386432 0.774287
O O11 0.384590 0.500000 0.756779
O O12 0.399007 0.400420 0.000000
O O13 0.084526 0.877211 0.775164
O O14 0.000000 0.812562 0.000000
O O15 0.195319 0.000000 0.757844
O O16 0.181931 0.102307 0.000000
#
# Coordination Sequence:
#
# PCOD9384021 Si02
#       6
#     4   8   8   8   4   8
#     4  12  23  34  51  77 109 144 183 233 291 341
#     4  11  23  38  55  74 103 149 197 235 275 329
#     4  12  24  36  55  85 120 151 182 230 288 339
#     4   9  19  38  64  91 118 151 191 231 273 331
#     4  10  19  35  59  81 107 145 191 241 291 342
#     4  10  21  38  61  85 110 147 196 245 290 340
#
# _framework density 18.557351000000001
#
# number of rings (size 3 to 8) (size 9 to 14) (size 15 to 20)
#    0.000    1.400    2.000    5.100    0.000    7.600 
#    0.000    1.000    0.000    2.400    0.000    4.200 
#    0.000    0.000    0.000    0.000    0.000    0.000 
#
# Total GULP energy -223187.896632 kJ/mol
# GULP energy per Si atom -5579.697416 kJ/mol
# Density = 1.851511 g / cm^3
# Si number density = 18.557351 Si / 1000 Ang^3
#
#
#
# Elastic Constant Matrix: (Units=GPa)
#
#
# Indices 1 2 3 4 5 6 
#
# 1 123.6632 62.8985 22.3775 0.0000 0.0000 0.0000
# 2 62.8985 148.0967 31.8134 0.0000 0.0000 0.0000
# 3 22.3775 31.8134 36.7549 0.0000 0.0000 0.0000
# 4 0.0000 0.0000 0.0000-1262.0206 0.0000 0.0000
# 5 0.0000 0.0000 0.0000 0.0000 -21.6159 0.0000
# 6 0.0000 0.0000 0.0000 0.0000 0.0000 6.8567
#
#
#
# Elastic Compliance Matrix: (Units=1/GPa)
#
#
# Indices 1 2 3 4 5 6 
#
# 1 0.010602 -0.003828 -0.003141 0.000000 0.000000 0.000000
# 2 -0.003828 0.009677 -0.006045 0.000000 0.000000 0.000000
# 3 -0.003141 -0.006045 0.034352 0.000000 0.000000 0.000000
# 4 0.000000 0.000000 0.000000 -0.000792 0.000000 0.000000
# 5 0.000000 0.000000 0.000000 0.000000 -0.046262 0.000000
# 6 0.000000 0.000000 0.000000 0.000000 0.000000 0.145843
#
#
# Mechanical properties :
#
#
# Convention : Reuss Voigt Hill
#
# Bulk Modulus (GPa) = 34.96283 60.29927 47.63105
# Shear Modulus (GPa) = 26.45753 -242.59426 -108.06837
#
# Velocity S-wave (km/s) = 3.77996 -11.44598 -7.63945
# Velocity P-wave (km/s) = 6.15891 11.92127 7.21750
#
# Compressibility (1/GPa) = 0.02860180
#
# Stress axis : x y z
#
# Youngs Moduli (GPa) = 94.32233 103.34086 29.11010
#
# Poissons Ratio (x) = 0.39558 0.09145
# Poissons Ratio (y) = 0.36106 0.17598
# Poissons Ratio (z) = 0.29631 0.62471
#
# Static dielectric constant tensor:
#      x y z
#    x 1.672200 0.000000 0.000000 
#    y 0.000000 1.664960 0.000000 
#    z 0.000000 0.000000 1.628730 
# 
# From -- ./inp_files/5715.got.cif
#   From: 2010.05.17/outbox.cif.g08.bks.cpg/sg47_3_cif.got.tgz:5715.got - 2010.06.03 20:15:42.
