data_PCOD9384181
_publ_section_title
;
Structure prediction by ZEFSAII (Michael W. Deem and Ramdas Pophale) SiO2 
 PCOD9384181
Probable space group: P M M M
;
_chemical_formula_sum "Si O2"
_cell_formula_units_Z 64
_cell_length_a 31.778809
_cell_length_b 8.937808
_cell_length_c 14.663028
_cell_angle_alpha 90.000000
_cell_angle_beta 90.000000
_cell_angle_gamma 90.000000
_cell_volume 4164.782268
_symmetry_space_group_name_H-M "P M M M"
_symmetry_group_IT_number 47
_symmetry_cell_setting 'orthorhombic'
loop_
_space_group_symop_operation_xyz
x,y,z
-x,-y,z
x,-y,-z
-x,y,-z
-x,-y,-z
x,y,-z
-x,y,z
x,-y,z
loop_
_atom_site_type_symbol
_atom_site_label
_atom_site_fract_x
_atom_site_fract_y
_atom_site_fract_z
Si Si1 0.706027 0.181974 0.395274
Si Si2 0.242638 0.679778 0.104255
Si Si3 0.953537 0.825134 0.389491
Si Si4 0.866553 0.321703 0.607644
Si Si5 0.548687 0.320068 0.394231
Si Si6 0.623515 0.820718 0.282141
Si Si7 0.341669 0.679627 0.104113
Si Si8 0.789462 0.179535 0.715463
O O1 0.706408 0.233522 0.500000
O O2 0.663925 0.229060 0.342530
O O3 0.747899 0.228286 0.341357
O O4 0.705983 0.000000 0.396425
O O5 0.238900 0.500000 0.112861
O O6 0.292179 0.717427 0.116966
O O7 0.216299 0.759712 0.182398
O O8 0.231320 0.719887 0.000000
O O9 0.954373 0.818314 0.500000
O O10 0.912801 0.732377 0.361305
O O11 0.000000 0.774316 0.357951
O O12 0.948507 0.000000 0.365047
O O13 0.861724 0.281624 0.500000
O O14 0.863400 0.500000 0.615144
O O15 0.830311 0.243863 0.665740
O O16 0.557494 0.279701 0.500000
O O17 0.500000 0.280822 0.375075
O O18 0.552335 0.500000 0.387007
O O19 0.581668 0.242573 0.328232
O O20 0.631326 0.759668 0.180908
O O21 0.622571 0.000000 0.281675
O O22 0.345329 0.500000 0.113051
O O23 0.352953 0.719474 0.000000
O O24 0.790875 0.000000 0.715614
#
# Coordination Sequence:
#
# PCOD9384181 Si02
#       8
#     8   8   8   8   8   8   8   8
#     4   9  18  30  42  62  94 128 158 189 227 272
#     4   9  18  33  51  69  92 122 156 198 243 284
#     4   8  14  26  44  64  86 116 157 202 245 288
#     4  10  20  31  43  63  93 129 167 203 240 285
#     4   9  19  36  55  74  98 129 163 196 232 279
#     4  11  20  31  50  76 102 126 156 198 242 282
#     4   9  18  33  52  72  96 127 160 194 235 285
#     4  11  20  31  47  66  93 129 163 198 237 280
#
# _framework density 15.366949999999999
#
# number of rings (size 3 to 8) (size 9 to 14) (size 15 to 20)
#    0.000    2.500    1.250    3.375    0.000    3.000 
#    0.000    3.125    0.000    3.375    0.000    2.625 
#    0.000    0.500    0.000    5.250    0.000    2.500 
#
# Total GULP energy -356836.322768 kJ/mol
# GULP energy per Si atom -5575.567543 kJ/mol
# Density = 1.533197 g / cm^3
# Si number density = 15.366950 Si / 1000 Ang^3
#
#
#
# Elastic Constant Matrix: (Units=GPa)
#
#
# Indices 1 2 3 4 5 6 
#
# 1 120.2579 48.5773 77.2949 0.0000 0.0000 0.0000
# 2 48.5773 38.0811 46.0515 0.0000 0.0000 0.0000
# 3 77.2949 46.0515 114.9126 0.0000 0.0000 0.0000
# 4 0.0000 0.0000 0.0000 21.1374 0.0000 0.0000
# 5 0.0000 0.0000 0.0000 0.0000 8.1016 0.0000
# 6 0.0000 0.0000 0.0000 0.0000 0.0000 23.3320
#
#
#
# Elastic Compliance Matrix: (Units=1/GPa)
#
#
# Indices 1 2 3 4 5 6 
#
# 1 0.019055 -0.017089 -0.005968 0.000000 0.000000 0.000000
# 2 -0.017089 0.066279 -0.015067 0.000000 0.000000 0.000000
# 3 -0.005968 -0.015067 0.018755 0.000000 0.000000 0.000000
# 4 0.000000 0.000000 0.000000 0.047309 0.000000 0.000000
# 5 0.000000 0.000000 0.000000 0.000000 0.123432 0.000000
# 6 0.000000 0.000000 0.000000 0.000000 0.000000 0.042860
#
#
# Mechanical properties :
#
#
# Convention : Reuss Voigt Hill
#
# Bulk Modulus (GPa) = 35.91919 68.56654 52.24286
# Shear Modulus (GPa) = 12.40024 17.26940 14.83482
#
# Velocity S-wave (km/s) = 2.84375 3.35595 3.11041
# Velocity P-wave (km/s) = 5.84873 7.72871 6.85349
#
# Compressibility (1/GPa) = 0.02784027
#
# Stress axis : x y z
#
# Youngs Moduli (GPa) = 52.48086 15.08773 53.31915
#
# Poissons Ratio (x) = 0.25783 0.31824
# Poissons Ratio (y) = 0.89684 0.80335
# Poissons Ratio (z) = 0.31323 0.22732
#
# Static dielectric constant tensor:
#      x y z
#    x 1.501830 0.000000 0.000000 
#    y 0.000000 1.510570 0.000000 
#    z 0.000000 0.000000 1.496910 
# 
# From -- ./inp_files/25880.got.cif
#   From: 2010.05.17/outbox.cif.g08.bks.cpg/sg47_13_cif.got.tgz:25880.got - 2010.06.03 20:15:42.
