data_PCOD9384127
_publ_section_title
;
Structure prediction by ZEFSAII (Michael W. Deem and Ramdas Pophale) SiO2 
 PCOD9384127
Probable space group: P M M M
;
_chemical_formula_sum "Si O2"
_cell_formula_units_Z 44
_cell_length_a 20.042208
_cell_length_b 18.506544
_cell_length_c 9.161614
_cell_angle_alpha 90.000000
_cell_angle_beta 90.000000
_cell_angle_gamma 90.000000
_cell_volume 3398.152611
_symmetry_space_group_name_H-M "P M M M"
_symmetry_group_IT_number 47
_symmetry_cell_setting 'orthorhombic'
loop_
_space_group_symop_operation_xyz
x,y,z
-x,-y,z
x,-y,-z
-x,y,-z
-x,-y,-z
x,y,-z
-x,y,z
x,-y,z
loop_
_atom_site_type_symbol
_atom_site_label
_atom_site_fract_x
_atom_site_fract_y
_atom_site_fract_z
Si Si1 0.919813 0.726496 0.827618
Si Si2 0.707434 0.084573 0.674490
Si Si3 0.426837 0.087446 0.172006
Si Si4 0.080005 0.000000 0.171927
Si Si5 0.919069 0.419435 0.669543
Si Si6 0.852753 0.137586 0.675542
O O1 0.898635 0.647737 0.768564
O O2 0.882989 0.789076 0.739048
O O3 0.000000 0.733516 0.805285
O O4 0.907226 0.733347 0.000000
O O5 0.699694 0.085660 0.500000
O O6 0.639426 0.112578 0.746513
O O7 0.774458 0.127570 0.711696
O O8 0.717478 0.000000 0.717423
O O9 0.500000 0.112808 0.224760
O O10 0.427159 0.000000 0.186851
O O11 0.422002 0.103280 0.000000
O O12 0.109080 0.070496 0.250936
O O13 0.000000 0.000000 0.182377
O O14 0.097894 0.000000 0.000000
O O15 0.900024 0.408017 0.500000
O O16 0.896647 0.500000 0.714730
O O17 0.000000 0.420609 0.672984
O O18 0.859945 0.134382 0.500000
#
# Coordination Sequence:
#
# PCOD9384127 Si02
#       6
#     8   8   8   4   8   8
#     4  10  20  31  42  59  81 102 129 166 205 243
#     4   9  17  29  41  55  74  95 126 163 197 234
#     4   8  14  24  38  57  77  95 118 148 185 231
#     4  11  23  35  45  57  72  93 128 173 215 250
#     4   8  14  26  44  63  80  99 124 153 190 239
#     4  11  21  33  45  57  75 101 134 169 204 242
#
# _framework density 12.948211000000001
#
# number of rings (size 3 to 8) (size 9 to 14) (size 15 to 20)
#    0.000    2.636    0.909    3.000    0.000    6.182 
#    0.000    3.636    0.000    0.000    0.000    0.000 
#    0.000    0.000    0.000    0.000    0.000    0.909 
#
# Total GULP energy -245058.396115 kJ/mol
# GULP energy per Si atom -5569.509003 kJ/mol
# Density = 1.291874 g / cm^3
# Si number density = 12.948211 Si / 1000 Ang^3
#
#
#
# Elastic Constant Matrix: (Units=GPa)
#
#
# Indices 1 2 3 4 5 6 
#
# 1 80.8015 39.3526 49.9004 0.0000 0.0000 0.0000
# 2 39.3526 81.3232 44.3484 0.0000 0.0000 0.0000
# 3 49.9004 44.3484 59.4311 0.0000 0.0000 0.0000
# 4 0.0000 0.0000 0.0000 13.9822 0.0000 0.0000
# 5 0.0000 0.0000 0.0000 0.0000 20.9309 0.0000
# 6 0.0000 0.0000 0.0000 0.0000 0.0000 -0.0907
#
#
#
# Elastic Compliance Matrix: (Units=1/GPa)
#
#
# Indices 1 2 3 4 5 6 
#
# 1 0.025766 -0.001131 -0.020791 0.000000 0.000000 0.000000
# 2 -0.001131 0.020784 -0.014560 0.000000 0.000000 0.000000
# 3 -0.020791 -0.014560 0.045148 0.000000 0.000000 0.000000
# 4 0.000000 0.000000 0.000000 0.071520 0.000000 0.000000
# 5 0.000000 0.000000 0.000000 0.000000 0.047776 0.000000
# 6 0.000000 0.000000 0.000000 0.000000 0.000000-11.020807
#
#
# Mechanical properties :
#
#
# Convention : Reuss Voigt Hill
#
# Bulk Modulus (GPa) = 53.37484 54.30653 53.84069
# Shear Modulus (GPa) = -0.46596 12.82809 6.18107
#
# Velocity S-wave (km/s) = -0.60054 3.15099 2.18725
# Velocity P-wave (km/s) = 6.38987 7.43443 6.93185
#
# Compressibility (1/GPa) = 0.01873542
#
# Stress axis : x y z
#
# Youngs Moduli (GPa) = 38.81052 48.11467 22.14960
#
# Poissons Ratio (x) = 0.05439 0.46050
# Poissons Ratio (y) = 0.04388 0.32250
# Poissons Ratio (z) = 0.80689 0.70054
#
# Static dielectric constant tensor:
#      x y z
#    x 1.422420 0.000000 0.000000 
#    y 0.000000 1.409680 0.000000 
#    z 0.000000 0.000000 1.431380 
# 
# From -- ./inp_files/9422.got.cif
#   From: 2010.05.17/outbox.cif.g08.bks.cpg/sg47_5_cif.got.tgz:9422.got - 2010.06.03 20:15:42.
