data_PCOD9384358
_publ_section_title
;
Structure prediction by ZEFSAII (Michael W. Deem and Ramdas Pophale) SiO2 
 PCOD9384358
Probable space group: P M M M
;
_chemical_formula_sum "Si O2"
_cell_formula_units_Z 52
_cell_length_a 26.157150
_cell_length_b 17.996650
_cell_length_c 9.254515
_cell_angle_alpha 90.000000
_cell_angle_beta 90.000000
_cell_angle_gamma 90.000000
_cell_volume 4356.480326
_symmetry_space_group_name_H-M "P M M M"
_symmetry_group_IT_number 47
_symmetry_cell_setting 'orthorhombic'
loop_
_space_group_symop_operation_xyz
x,y,z
-x,-y,z
x,-y,-z
-x,y,-z
-x,-y,-z
x,y,-z
-x,y,z
x,-y,z
loop_
_atom_site_type_symbol
_atom_site_label
_atom_site_fract_x
_atom_site_fract_y
_atom_site_fract_z
Si Si1 0.658149 0.590666 0.333520
Si Si2 0.061135 0.699225 0.171230
Si Si3 0.556979 0.590283 0.831606
Si Si4 0.062355 0.000000 0.832588
Si Si5 0.759849 0.590320 0.834003
Si Si6 0.136033 0.588851 0.671132
Si Si7 0.937853 0.851105 0.333307
O O1 0.662632 0.613261 0.500000
O O2 0.657969 0.500000 0.330967
O O3 0.604714 0.615599 0.263350
O O4 0.707252 0.614777 0.241161
O O5 0.091778 0.633578 0.248215
O O6 0.076297 0.777001 0.246253
O O7 0.000000 0.689956 0.190244
O O8 0.071512 0.701162 0.000000
O O9 0.500000 0.614279 0.784958
O O10 0.557005 0.500000 0.826584
O O11 0.564011 0.610416 0.000000
O O12 0.078846 0.074267 0.748835
O O13 0.000000 0.000000 0.832322
O O14 0.078292 0.000000 0.000000
O O15 0.758596 0.500000 0.835870
O O16 0.809662 0.610739 0.741693
O O17 0.763615 0.615278 0.000000
O O18 0.135756 0.604038 0.500000
O O19 0.129787 0.500000 0.690676
O O20 0.920798 0.849027 0.500000
O O21 0.000000 0.852884 0.335223
#
# Coordination Sequence:
#
# PCOD9384358 Si02
#       7
#     8   8   8   4   8   8   8
#     4   9  15  21  30  44  60  76  95 121 153 188
#     4  10  20  32  44  57  73  92 113 137 167 205
#     4   8  13  20  28  38  54  76  99 120 144 179
#     4   9  15  23  37  57  79  99 117 135 155 183
#     4   9  16  26  39  51  62  77  99 128 162 199
#     4  10  20  32  44  56  69  85 108 140 176 212
#     4   9  16  26  40  57  76  96 116 136 159 189
#
# _framework density 11.936241000000001
#
# number of rings (size 3 to 8) (size 9 to 14) (size 15 to 20)
#    0.000    2.846    0.000    3.000    0.000    8.923 
#    0.000    3.077    0.000    0.000    0.000    0.000 
#    0.000    0.000    0.000    0.000    0.000    0.000 
#
# Total GULP energy -289517.197060 kJ/mol
# GULP energy per Si atom -5567.638405 kJ/mol
# Density = 1.190907 g / cm^3
# Si number density = 11.936241 Si / 1000 Ang^3
#
#
#
# Elastic Constant Matrix: (Units=GPa)
#
#
# Indices 1 2 3 4 5 6 
#
# 1 61.2672 29.4020 57.6127 0.0000 0.0000 0.0000
# 2 29.4020 34.5325 41.3450 0.0000 0.0000 0.0000
# 3 57.6127 41.3450 120.0547 0.0000 0.0000 0.0000
# 4 0.0000 0.0000 0.0000 14.9466 0.0000 0.0000
# 5 0.0000 0.0000 0.0000 0.0000 18.7370 0.0000
# 6 0.0000 0.0000 0.0000 0.0000 0.0000 -0.3680
#
#
#
# Elastic Compliance Matrix: (Units=1/GPa)
#
#
# Indices 1 2 3 4 5 6 
#
# 1 0.034346 -0.016182 -0.010910 0.000000 0.000000 0.000000
# 2 -0.016182 0.056899 -0.011830 0.000000 0.000000 0.000000
# 3 -0.010910 -0.011830 0.017639 0.000000 0.000000 0.000000
# 4 0.000000 0.000000 0.000000 0.066905 0.000000 0.000000
# 5 0.000000 0.000000 0.000000 0.000000 0.053370 0.000000
# 6 0.000000 0.000000 0.000000 0.000000 0.000000 -2.717615
#
#
# Mechanical properties :
#
#
# Convention : Reuss Voigt Hill
#
# Bulk Modulus (GPa) = 32.21405 52.50821 42.36113
# Shear Modulus (GPa) = -2.08310 12.49611 5.20650
#
# Velocity S-wave (km/s) = -1.32249 3.23910 2.09079
# Velocity P-wave (km/s) = 4.97142 7.62070 6.43390
#
# Compressibility (1/GPa) = 0.03104236
#
# Stress axis : x y z
#
# Youngs Moduli (GPa) = 29.11514 17.57487 56.69243
#
# Poissons Ratio (x) = 0.28439 0.61850
# Poissons Ratio (y) = 0.47113 0.67067
# Poissons Ratio (z) = 0.31764 0.20791
#
# Static dielectric constant tensor:
#      x y z
#    x 1.383070 0.000000 0.000000 
#    y 0.000000 1.358350 0.000000 
#    z 0.000000 0.000000 1.399810 
# 
# From -- ./inp_files/7622.got.cif
#   From: 2010.05.17/outbox.cif.g08.bks.cpg/sg47_4_cif.got.tgz:7622.got - 2010.06.03 20:15:42.
