data_PCOD9384692
_publ_section_title
;
Structure prediction by ZEFSAII (Michael W. Deem and Ramdas Pophale) SiO2 
 PCOD9384692
Probable space group: P M M M
;
_chemical_formula_sum "Si O2"
_cell_formula_units_Z 52
_cell_length_a 9.514611
_cell_length_b 35.117137
_cell_length_c 7.512777
_cell_angle_alpha 90.000000
_cell_angle_beta 90.000000
_cell_angle_gamma 90.000000
_cell_volume 2510.213362
_symmetry_space_group_name_H-M "P M M M"
_symmetry_group_IT_number 47
_symmetry_cell_setting 'orthorhombic'
loop_
_space_group_symop_operation_xyz
x,y,z
-x,-y,z
x,-y,-z
-x,y,-z
-x,-y,-z
x,y,-z
-x,y,z
x,-y,z
loop_
_atom_site_type_symbol
_atom_site_label
_atom_site_fract_x
_atom_site_fract_y
_atom_site_fract_z
Si Si1 0.162784 0.770469 0.786274
Si Si2 0.662010 0.074182 0.282064
Si Si3 0.839250 0.853897 0.289092
Si Si4 0.836395 0.312563 0.782459
Si Si5 0.342464 0.616148 0.211594
Si Si6 0.837712 0.000000 0.282761
Si Si7 0.160132 0.542529 0.714294
O O1 0.222434 0.811428 0.734797
O O2 0.219201 0.729301 0.727192
O O3 0.000000 0.771257 0.724875
O O4 0.162288 0.769742 0.000000
O O5 0.660225 0.074329 0.500000
O O6 0.500000 0.072061 0.224740
O O7 0.740312 0.112548 0.220748
O O8 0.753028 0.037602 0.227550
O O9 0.851175 0.860028 0.500000
O O10 0.000000 0.855120 0.216352
O O11 0.746870 0.348229 0.717460
O O12 0.000000 0.316106 0.729887
O O13 0.835841 0.313084 0.000000
O O14 0.500000 0.614562 0.284514
O O15 0.261889 0.576532 0.235443
O O16 0.352496 0.622271 0.000000
O O17 0.839883 0.000000 0.500000
O O18 0.000000 0.000000 0.224396
O O19 0.156508 0.541532 0.500000
O O20 0.201879 0.500000 0.775148
O O21 0.000000 0.549818 0.775952
#
# Coordination Sequence:
#
# PCOD9384692 Si02
#       7
#     8   8   8   8   8   4   8
#     4   8  14  26  45  66  86 113 151 189 222 260
#     4   9  16  25  37  55  82 114 143 172 212 262
#     4   9  16  26  41  62  87 112 140 178 221 260
#     4   8  14  27  47  67  88 118 155 192 229 268
#     4  10  20  32  48  73 102 128 155 190 233 280
#     4   9  15  23  37  57  80 107 142 181 216 252
#     4   9  19  36  55  73  94 123 160 198 234 275
#
# _framework density 20.715368999999999
#
# number of rings (size 3 to 8) (size 9 to 14) (size 15 to 20)
#    0.000    3.154    0.000    2.538    0.000    4.615 
#    0.000    3.846    0.000    4.154    0.000    0.538 
#    0.000    4.308    0.000    0.000    0.000    0.000 
#
# Total GULP energy -289939.311977 kJ/mol
# GULP energy per Si atom -5575.756000 kJ/mol
# Density = 2.066822 g / cm^3
# Si number density = 20.715369 Si / 1000 Ang^3
#
#
#
# Elastic Constant Matrix: (Units=GPa)
#
#
# Indices 1 2 3 4 5 6 
#
# 1 138.4006 129.8215 5.4409 0.0000 0.0000 0.0000
# 2 129.8215 240.0575 1.5741 0.0000 0.0000 0.0000
# 3 5.4409 1.5741 50.8477 0.0000 0.0000 0.0000
# 4 0.0000 0.0000 0.0000 15.6715 0.0000 0.0000
# 5 0.0000 0.0000 0.0000 0.0000 -2.3093 0.0000
# 6 0.0000 0.0000 0.0000 0.0000 0.0000 -12.0730
#
#
#
# Elastic Compliance Matrix: (Units=1/GPa)
#
#
# Indices 1 2 3 4 5 6 
#
# 1 0.014754 -0.007970 -0.001332 0.000000 0.000000 0.000000
# 2 -0.007970 0.008472 0.000591 0.000000 0.000000 0.000000
# 3 -0.001332 0.000591 0.019791 0.000000 0.000000 0.000000
# 4 0.000000 0.000000 0.000000 0.063810 0.000000 0.000000
# 5 0.000000 0.000000 0.000000 0.000000 -0.433024 0.000000
# 6 0.000000 0.000000 0.000000 0.000000 0.000000 -0.082830
#
#
# Mechanical properties :
#
#
# Convention : Reuss Voigt Hill
#
# Bulk Modulus (GPa) = 39.07222 78.10877 58.59049
# Shear Modulus (GPa) = -13.05236 19.75579 3.35172
#
# Velocity S-wave (km/s) = -2.51286 3.09152 1.27338
# Velocity P-wave (km/s) = 3.23776 7.10851 5.52331
#
# Compressibility (1/GPa) = 0.02559363
#
# Stress axis : x y z
#
# Youngs Moduli (GPa) = 67.77969 118.03733 50.52846
#
# Poissons Ratio (x) = 0.94075 0.06730
# Poissons Ratio (y) = 0.54020 -0.02984
# Poissons Ratio (z) = 0.09028 -0.06971
#
# Static dielectric constant tensor:
#      x y z
#    x 1.705160 0.000000 0.000000 
#    y 0.000000 1.745570 0.000000 
#    z 0.000000 0.000000 1.803310 
# 
# From -- ./inp_files/15650.got.cif
#   From: 2010.05.17/outbox.cif.g08.bks.cpg/sg47_8_cif.got.tgz:15650.got - 2010.06.03 20:15:42.
