data_PCOD9384695
_publ_section_title
;
Structure prediction by ZEFSAII (Michael W. Deem and Ramdas Pophale) SiO2 
 PCOD9384695
Probable space group: P M M M
;
_chemical_formula_sum "Si O2"
_cell_formula_units_Z 52
_cell_length_a 35.244481
_cell_length_b 7.495349
_cell_length_c 9.451346
_cell_angle_alpha 90.000000
_cell_angle_beta 90.000000
_cell_angle_gamma 90.000000
_cell_volume 2496.759100
_symmetry_space_group_name_H-M "P M M M"
_symmetry_group_IT_number 47
_symmetry_cell_setting 'orthorhombic'
loop_
_space_group_symop_operation_xyz
x,y,z
-x,-y,z
x,-y,-z
-x,y,-z
-x,-y,-z
x,y,-z
-x,y,z
x,-y,z
loop_
_atom_site_type_symbol
_atom_site_label
_atom_site_fract_x
_atom_site_fract_y
_atom_site_fract_z
Si Si1 0.194717 0.217730 0.663425
Si Si2 0.648508 0.785781 0.160471
Si Si3 0.040783 0.285810 0.835524
Si Si4 0.500000 0.281480 0.163517
Si Si5 0.720735 0.782340 0.664124
Si Si6 0.123300 0.212211 0.839757
Si Si7 0.573167 0.286590 0.661022
O O1 0.190497 0.270028 0.500000
O O2 0.236947 0.272513 0.710783
O O3 0.159136 0.282560 0.753641
O O4 0.194393 0.000000 0.666646
O O5 0.686628 0.719538 0.237291
O O6 0.612019 0.747718 0.256170
O O7 0.651787 0.000000 0.152597
O O8 0.644145 0.718453 0.000000
O O9 0.039798 0.500000 0.837616
O O10 0.081566 0.237636 0.772676
O O11 0.000000 0.224729 0.775102
O O12 0.041686 0.223730 0.000000
O O13 0.500000 0.500000 0.162279
O O14 0.462582 0.221547 0.247585
O O15 0.500000 0.224619 0.000000
O O16 0.715206 0.729077 0.500000
O O17 0.720266 0.000000 0.664968
O O18 0.128450 0.000000 0.849820
O O19 0.122638 0.285298 0.000000
O O20 0.573908 0.217211 0.500000
O O21 0.568814 0.500000 0.651714
#
# Coordination Sequence:
#
# PCOD9384695 Si02
#       7
#     8   8   8   4   8   8   8
#     4   8  14  25  41  61  86 116 146 175 213 262
#     4  10  20  32  48  73 102 129 158 195 239 282
#     4   8  14  25  40  57  79 109 141 169 203 254
#     4   9  17  31  52  75  98 125 158 198 242 285
#     4   8  14  26  44  64  87 118 154 187 219 262
#     4   9  16  24  38  63  87 103 129 176 222 251
#     4  10  20  34  53  75  98 127 163 199 235 280
#
# _framework density 20.827000000000002
#
# number of rings (size 3 to 8) (size 9 to 14) (size 15 to 20)
#    0.000    3.154    0.000    2.538    0.000    3.692 
#    0.000    5.000    0.000    4.154    0.000    7.538 
#    0.000    0.000    0.000    0.000    0.000    0.000 
#
# Total GULP energy -289940.909952 kJ/mol
# GULP energy per Si atom -5575.786730 kJ/mol
# Density = 2.077960 g / cm^3
# Si number density = 20.827000 Si / 1000 Ang^3
#
#
#
# Elastic Constant Matrix: (Units=GPa)
#
#
# Indices 1 2 3 4 5 6 
#
# 1 252.0551 2.1260 121.3804 0.0000 0.0000 0.0000
# 2 2.1260 55.6372 5.2548 0.0000 0.0000 0.0000
# 3 121.3804 5.2548 129.1354 0.0000 0.0000 0.0000
# 4 0.0000 0.0000 0.0000 4.6037 0.0000 0.0000
# 5 0.0000 0.0000 0.0000 0.0000 42.8960 0.0000
# 6 0.0000 0.0000 0.0000 0.0000 0.0000 24.5788
#
#
#
# Elastic Compliance Matrix: (Units=1/GPa)
#
#
# Indices 1 2 3 4 5 6 
#
# 1 0.007256 0.000368 -0.006835 0.000000 0.000000 0.000000
# 2 0.000368 0.018062 -0.001081 0.000000 0.000000 0.000000
# 3 -0.006835 -0.001081 0.014212 0.000000 0.000000 0.000000
# 4 0.000000 0.000000 0.000000 0.217218 0.000000 0.000000
# 5 0.000000 0.000000 0.000000 0.000000 0.023312 0.000000
# 6 0.000000 0.000000 0.000000 0.000000 0.000000 0.040686
#
#
# Mechanical properties :
#
#
# Convention : Reuss Voigt Hill
#
# Bulk Modulus (GPa) = 40.92658 77.15000 59.03829
# Shear Modulus (GPa) = 14.53550 34.95345 24.74448
#
# Velocity S-wave (km/s) = 2.64468 4.10112 3.45062
# Velocity P-wave (km/s) = 5.38694 7.71682 6.65464
#
# Compressibility (1/GPa) = 0.02443400
#
# Stress axis : x y z
#
# Youngs Moduli (GPa) = 137.82124 55.36605 70.36124
#
# Poissons Ratio (x) = -0.02039 0.48092
# Poissons Ratio (y) = -0.05076 0.07607
# Poissons Ratio (z) = 0.94201 0.05986
#
# Static dielectric constant tensor:
#      x y z
#    x 1.752830 0.000000 0.000000 
#    y 0.000000 1.812900 0.000000 
#    z 0.000000 0.000000 1.722030 
# 
# From -- ./inp_files/13275.got.cif
#   From: 2010.05.17/outbox.cif.g08.bks.cpg/sg47_7_cif.got.tgz:13275.got - 2010.06.03 20:15:42.
