data_PCOD9384996
_publ_section_title
;
Structure prediction by ZEFSAII (Michael W. Deem and Ramdas Pophale) SiO2 
 PCOD9384996
Probable space group: P M M M
;
_chemical_formula_sum "Si O2"
_cell_formula_units_Z 56
_cell_length_a 15.760075
_cell_length_b 8.674620
_cell_length_c 20.636097
_cell_angle_alpha 90.000000
_cell_angle_beta 90.000000
_cell_angle_gamma 90.000000
_cell_volume 2821.215750
_symmetry_space_group_name_H-M "P M M M"
_symmetry_group_IT_number 47
_symmetry_cell_setting 'orthorhombic'
loop_
_space_group_symop_operation_xyz
x,y,z
-x,-y,z
x,-y,-z
-x,y,-z
-x,-y,-z
x,y,-z
-x,y,z
x,-y,z
loop_
_atom_site_type_symbol
_atom_site_label
_atom_site_fract_x
_atom_site_fract_y
_atom_site_fract_z
Si Si1 0.277327 0.181373 0.819738
Si Si2 0.094669 0.684957 0.186091
Si Si3 0.599644 0.681979 0.923849
Si Si4 0.903823 0.173484 0.328621
Si Si5 0.792938 0.672111 0.429820
Si Si6 0.381728 0.179606 0.572506
Si Si7 0.405469 0.684316 0.714399
O O1 0.186651 0.258234 0.838717
O O2 0.341989 0.218123 0.877737
O O3 0.326893 0.245399 0.755427
O O4 0.263990 0.000000 0.810909
O O5 0.098004 0.500000 0.191723
O O6 0.094037 0.766613 0.255827
O O7 0.000000 0.721323 0.156402
O O8 0.500000 0.713937 0.913763
O O9 0.613080 0.500000 0.909009
O O10 0.617778 0.704908 0.000000
O O11 0.853529 0.292945 0.371460
O O12 0.000000 0.167106 0.352580
O O13 0.868017 0.000000 0.331552
O O14 0.836375 0.681017 0.500000
O O15 0.755280 0.500000 0.424306
O O16 0.718985 0.796163 0.428571
O O17 0.409097 0.234889 0.500000
O O18 0.406573 0.264131 0.638963
O O19 0.403768 0.000000 0.577501
O O20 0.500000 0.726799 0.741067
O O21 0.397646 0.500000 0.717748
#
# Coordination Sequence:
#
# PCOD9384996 Si02
#       7
#     8   8   8   8   8   8   8
#     4  12  24  37  59  90 125 160 193 239 295 347
#     4  10  21  38  60  83 109 146 192 238 283 337
#     4   9  19  38  64  93 127 167 207 244 283 334
#     4  10  20  33  49  70  98 130 166 216 280 344
#     4  10  20  33  49  68  92 125 168 218 270 331
#     4  10  21  37  56  76 101 136 179 230 288 348
#     4  11  24  40  58  81 112 151 195 242 289 343
#
# _framework density 19.849598
#
# number of rings (size 3 to 8) (size 9 to 14) (size 15 to 20)
#    0.000    1.714    0.000    5.143    0.000    7.429 
#    0.000    3.571    0.000    0.429    0.000    3.000 
#    0.000    0.000    0.000    0.000    0.000    0.000 
#
# Total GULP energy -312238.790854 kJ/mol
# GULP energy per Si atom -5575.692694 kJ/mol
# Density = 1.980442 g / cm^3
# Si number density = 19.849598 Si / 1000 Ang^3
#
#
#
# Elastic Constant Matrix: (Units=GPa)
#
#
# Indices 1 2 3 4 5 6 
#
# 1 86.4577 35.1133 25.8705 0.0000 0.0000 0.0000
# 2 35.1133 82.7531 18.2354 0.0000 0.0000 0.0000
# 3 25.8705 18.2354 48.8349 0.0000 0.0000 0.0000
# 4 0.0000 0.0000 0.0000 25.3514 0.0000 0.0000
# 5 0.0000 0.0000 0.0000 0.0000 2.4128 0.0000
# 6 0.0000 0.0000 0.0000 0.0000 0.0000 87.3982
#
#
#
# Elastic Compliance Matrix: (Units=1/GPa)
#
#
# Indices 1 2 3 4 5 6 
#
# 1 0.015571 -0.005219 -0.006300 0.000000 0.000000 0.000000
# 2 -0.005219 0.014917 -0.002805 0.000000 0.000000 0.000000
# 3 -0.006300 -0.002805 0.024862 0.000000 0.000000 0.000000
# 4 0.000000 0.000000 0.000000 0.039445 0.000000 0.000000
# 5 0.000000 0.000000 0.000000 0.000000 0.414452 0.000000
# 6 0.000000 0.000000 0.000000 0.000000 0.000000 0.011442
#
#
# Mechanical properties :
#
#
# Convention : Reuss Voigt Hill
#
# Bulk Modulus (GPa) = 37.45105 41.83157 39.64131
# Shear Modulus (GPa) = 8.95676 32.28759 20.62217
#
# Velocity S-wave (km/s) = 2.12652 4.03750 3.22673
# Velocity P-wave (km/s) = 4.99378 6.54639 5.82207
#
# Compressibility (1/GPa) = 0.02670152
#
# Stress axis : x y z
#
# Youngs Moduli (GPa) = 64.22192 67.03897 40.22165
#
# Poissons Ratio (x) = 0.34986 0.25340
# Poissons Ratio (y) = 0.33516 0.11284
# Poissons Ratio (z) = 0.40461 0.18807
#
# Static dielectric constant tensor:
#      x y z
#    x 1.755660 0.000000 0.000000 
#    y 0.000000 1.686890 0.000000 
#    z 0.000000 0.000000 1.696580 
# 
# From -- ./inp_files/11271.got.cif
#   From: 2010.05.17/outbox.cif.g08.bks.cpg/sg47_6_cif.got.tgz:11271.got - 2010.06.03 20:15:42.
