data_PCOD9384059
_publ_section_title
;
Structure prediction by ZEFSAII (Michael W. Deem and Ramdas Pophale) SiO2 
 PCOD9384059
Probable space group: P M M M
;
_chemical_formula_sum "Si O2"
_cell_formula_units_Z 52
_cell_length_a 7.722690
_cell_length_b 26.428337
_cell_length_c 12.063383
_cell_angle_alpha 90.000000
_cell_angle_beta 90.000000
_cell_angle_gamma 90.000000
_cell_volume 2462.110581
_symmetry_space_group_name_H-M "P M M M"
_symmetry_group_IT_number 47
_symmetry_cell_setting 'orthorhombic'
loop_
_space_group_symop_operation_xyz
x,y,z
-x,-y,z
x,-y,-z
-x,y,-z
-x,-y,-z
x,y,-z
-x,y,z
x,-y,z
loop_
_atom_site_type_symbol
_atom_site_label
_atom_site_fract_x
_atom_site_fract_y
_atom_site_fract_z
Si Si1 0.705976 0.419036 0.000000
Si Si2 0.708038 0.700409 0.000000
Si Si3 0.212248 0.344751 0.371194
Si Si4 0.794694 0.846606 0.875711
Si Si5 0.204296 0.445291 0.247132
Si Si6 0.295886 0.057619 0.742100
Si Si7 0.793365 0.057856 0.500000
Si Si8 0.799435 0.749261 0.231862
O O1 0.776541 0.440657 0.114736
O O2 0.500000 0.426820 0.000000
O O3 0.742707 0.359227 0.000000
O O4 0.787522 0.724401 0.110031
O O5 0.500000 0.708106 0.000000
O O6 0.258039 0.347646 0.500000
O O7 0.274509 0.394525 0.304872
O O8 0.275994 0.292743 0.314581
O O9 0.000000 0.344215 0.363498
O O10 0.774437 0.903010 0.830529
O O11 0.722222 0.804983 0.789586
O O12 0.000000 0.836321 0.882790
O O13 0.722075 0.840966 0.000000
O O14 0.277731 0.500000 0.282182
O O15 0.000000 0.446081 0.273136
O O16 0.500000 0.054348 0.758779
O O17 0.263420 0.078912 0.618152
O O18 0.223869 0.000000 0.748202
O O19 0.000000 0.056893 0.500000
O O20 0.724501 0.000000 0.500000
O O21 0.000000 0.755728 0.265991
#
# Coordination Sequence:
#
# PCOD9384059 Si02
#       8
#     4   4   8   8   8   8   4   8
#     4  11  22  34  51  78 110 141 177 223 274 329
#     4  11  21  32  54  83 105 135 182 225 274 330
#     4   9  18  33  55  81 108 140 178 222 271 320
#     4  10  21  36  55  82 112 144 187 233 278 331
#     4  10  20  33  53  80 108 141 181 224 271 324
#     4  10  21  37  57  82 115 153 190 228 277 336
#     4   9  17  33  59  85 109 143 189 235 274 315
#     4  10  19  36  59  80 107 142 182 224 272 328
#
# _framework density 21.120092
#
# number of rings (size 3 to 8) (size 9 to 14) (size 15 to 20)
#    0.000    2.077    2.308    1.385    0.000    5.231 
#    1.385    3.077    0.000    1.846    0.000    1.077 
#    0.000    0.000    0.000    0.000    0.000    0.000 
#
# Total GULP energy -290140.430341 kJ/mol
# GULP energy per Si atom -5579.623660 kJ/mol
# Density = 2.107202 g / cm^3
# Si number density = 21.120092 Si / 1000 Ang^3
#
#
#
# Elastic Constant Matrix: (Units=GPa)
#
#
# Indices 1 2 3 4 5 6 
#
# 1 33.8462 7.6790 -10.7261 0.0000 0.0000 0.0000
# 2 7.6790 149.3202 65.4160 0.0000 0.0000 0.0000
# 3 -10.7261 65.4160 111.5067 0.0000 0.0000 0.0000
# 4 0.0000 0.0000 0.0000 22.1480 0.0000 0.0000
# 5 0.0000 0.0000 0.0000 0.0000 -177.1453 0.0000
# 6 0.0000 0.0000 0.0000 0.0000 0.0000 -0.9443
#
#
#
# Elastic Compliance Matrix: (Units=1/GPa)
#
#
# Indices 1 2 3 4 5 6 
#
# 1 0.032201 -0.004055 0.005476 0.000000 0.000000 0.000000
# 2 -0.004055 0.009524 -0.005978 0.000000 0.000000 0.000000
# 3 0.005476 -0.005978 0.013002 0.000000 0.000000 0.000000
# 4 0.000000 0.000000 0.000000 0.045151 0.000000 0.000000
# 5 0.000000 0.000000 0.000000 0.000000 -0.005645 0.000000
# 6 0.000000 0.000000 0.000000 0.000000 0.000000 -1.058977
#
#
# Mechanical properties :
#
#
# Convention : Reuss Voigt Hill
#
# Bulk Modulus (GPa) = 21.92292 46.60121 34.26206
# Shear Modulus (GPa) = -5.31673 -15.70137 -10.50905
#
# Velocity S-wave (km/s) = -1.58835 -2.72955 -2.23308
# Velocity P-wave (km/s) = 2.65309 3.48982 3.09981
#
# Compressibility (1/GPa) = 0.04561436
#
# Stress axis : x y z
#
# Youngs Moduli (GPa) = 31.05500 104.99491 76.91349
#
# Poissons Ratio (x) = 0.42577 -0.42121
# Poissons Ratio (y) = 0.12593 0.45975
# Poissons Ratio (z) = -0.17007 0.62761
#
# Static dielectric constant tensor:
#      x y z
#    x 1.780140 0.000000 0.000000 
#    y 0.000000 1.804980 0.000000 
#    z 0.000000 0.000000 1.727950 
# 
# From -- ./inp_files/15596.got.cif
#   From: 2010.05.17/outbox.cif.g08.bks.cpg/sg47_8_cif.got.tgz:15596.got - 2010.06.03 20:15:42.
