data_PCOD9384880
_publ_section_title
;
Structure prediction by ZEFSAII (Michael W. Deem and Ramdas Pophale) SiO2 
 PCOD9384880
Probable space group: P M M M
;
_chemical_formula_sum "Si O2"
_cell_formula_units_Z 64
_cell_length_a 14.173990
_cell_length_b 26.723646
_cell_length_c 9.361461
_cell_angle_alpha 90.000000
_cell_angle_beta 90.000000
_cell_angle_gamma 90.000000
_cell_volume 3545.940668
_symmetry_space_group_name_H-M "P M M M"
_symmetry_group_IT_number 47
_symmetry_cell_setting 'orthorhombic'
loop_
_space_group_symop_operation_xyz
x,y,z
-x,-y,z
x,-y,-z
-x,y,-z
-x,-y,-z
x,y,-z
-x,y,z
x,-y,z
loop_
_atom_site_type_symbol
_atom_site_label
_atom_site_fract_x
_atom_site_fract_y
_atom_site_fract_z
Si Si1 0.388950 0.088419 0.829687
Si Si2 0.392687 0.300768 0.670993
Si Si3 0.792188 0.351959 0.671541
Si Si4 0.113877 0.753826 0.333695
Si Si5 0.385469 0.203672 0.839746
Si Si6 0.211454 0.055910 0.669697
Si Si7 0.887772 0.443516 0.829684
Si Si8 0.885902 0.853352 0.165575
O O1 0.500000 0.081098 0.797367
O O2 0.362133 0.146688 0.802757
O O3 0.316673 0.057657 0.735230
O O4 0.377323 0.079220 0.000000
O O5 0.393174 0.296963 0.500000
O O6 0.500000 0.310379 0.719412
O O7 0.316969 0.342551 0.710514
O O8 0.359064 0.247606 0.733143
O O9 0.800264 0.357465 0.500000
O O10 0.845406 0.300094 0.709774
O O11 0.835146 0.399693 0.747928
O O12 0.140322 0.762576 0.500000
O O13 0.144321 0.800936 0.237966
O O14 0.000000 0.751103 0.326852
O O15 0.500000 0.203721 0.843731
O O16 0.351645 0.214742 0.000000
O O17 0.213552 0.064913 0.500000
O O18 0.153777 0.099286 0.748940
O O19 0.172177 0.000000 0.694507
O O20 0.859136 0.500000 0.787119
O O21 0.000000 0.439085 0.803863
O O22 0.873333 0.438898 0.000000
O O23 0.000000 0.854610 0.170450
O O24 0.856222 0.855468 0.000000
#
# Coordination Sequence:
#
# PCOD9384880 Si02
#       8
#     8   8   8   8   8   8   8   8
#     4   9  19  36  57  81 109 140 175 219 269 320
#     4   9  18  31  46  70 108 148 183 220 261 305
#     4  10  20  32  51  81 112 145 185 224 263 312
#     4   9  18  33  52  77 111 143 170 210 266 324
#     4   8  15  29  48  71  99 131 170 213 256 306
#     4  11  25  41  57  79 106 138 178 223 271 328
#     4   9  19  36  56  79 109 143 179 223 275 327
#     4  10  22  40  61  83 106 136 176 221 271 329
#
# _framework density 18.048807
#
# number of rings (size 3 to 8) (size 9 to 14) (size 15 to 20)
#    0.000    2.625    0.000    2.250    1.750    5.000 
#    0.000    5.625    0.000    0.375    0.000    2.625 
#    0.000    0.000    0.000    0.000    0.000    0.000 
#
# Total GULP energy -357123.596991 kJ/mol
# GULP energy per Si atom -5580.056203 kJ/mol
# Density = 1.800773 g / cm^3
# Si number density = 18.048807 Si / 1000 Ang^3
#
#
#
# Elastic Constant Matrix: (Units=GPa)
#
#
# Indices 1 2 3 4 5 6 
#
# 1 60.0235 59.5065 40.4973 0.0000 0.0000 0.0000
# 2 59.5065 156.9535 78.6064 0.0000 0.0000 0.0000
# 3 40.4973 78.6064 62.3873 0.0000 0.0000 0.0000
# 4 0.0000 0.0000 0.0000 46.4356 0.0000 0.0000
# 5 0.0000 0.0000 0.0000 0.0000 22.8968 0.0000
# 6 0.0000 0.0000 0.0000 0.0000 0.0000 30.5891
#
#
#
# Elastic Compliance Matrix: (Units=1/GPa)
#
#
# Indices 1 2 3 4 5 6 
#
# 1 0.030775 -0.004507 -0.014299 0.000000 0.000000 0.000000
# 2 -0.004507 0.017928 -0.019663 0.000000 0.000000 0.000000
# 3 -0.014299 -0.019663 0.050085 0.000000 0.000000 0.000000
# 4 0.000000 0.000000 0.000000 0.021535 0.000000 0.000000
# 5 0.000000 0.000000 0.000000 0.000000 0.043674 0.000000
# 6 0.000000 0.000000 0.000000 0.000000 0.000000 0.032691
#
#
# Mechanical properties :
#
#
# Convention : Reuss Voigt Hill
#
# Bulk Modulus (GPa) = 45.76324 70.73163 58.24743
# Shear Modulus (GPa) = 17.79931 26.70125 22.25028
#
# Velocity S-wave (km/s) = 3.14375 3.85046 3.51491
# Velocity P-wave (km/s) = 6.21191 7.68389 6.98678
#
# Compressibility (1/GPa) = 0.02185160
#
# Stress axis : x y z
#
# Youngs Moduli (GPa) = 32.49359 55.77942 19.96592
#
# Poissons Ratio (x) = 0.25139 0.28548
# Poissons Ratio (y) = 0.14645 0.39259
# Poissons Ratio (z) = 0.46461 1.09679
#
# Static dielectric constant tensor:
#      x y z
#    x 1.658490 0.000000 0.000000 
#    y 0.000000 1.597530 0.000000 
#    z 0.000000 0.000000 1.603480 
# 
# From -- ./inp_files/7784.got.cif
#   From: 2010.05.17/outbox.cif.g08.bks.cpg/sg47_4_cif.got.tgz:7784.got - 2010.06.03 20:15:42.
