data_PCOD9384540
_publ_section_title
;
Structure prediction by ZEFSAII (Michael W. Deem and Ramdas Pophale) SiO2 
 PCOD9384540
Probable space group: P M M M
;
_chemical_formula_sum "Si O2"
_cell_formula_units_Z 48
_cell_length_a 31.832293
_cell_length_b 9.730287
_cell_length_c 7.603421
_cell_angle_alpha 90.000000
_cell_angle_beta 90.000000
_cell_angle_gamma 90.000000
_cell_volume 2355.063447
_symmetry_space_group_name_H-M "P M M M"
_symmetry_group_IT_number 47
_symmetry_cell_setting 'orthorhombic'
loop_
_space_group_symop_operation_xyz
x,y,z
-x,-y,z
x,-y,-z
-x,y,-z
-x,-y,-z
x,y,-z
-x,y,z
x,-y,z
loop_
_atom_site_type_symbol
_atom_site_label
_atom_site_fract_x
_atom_site_fract_y
_atom_site_fract_z
Si Si1 0.546045 0.656340 0.211006
Si Si2 0.624749 0.154247 0.289584
Si Si3 0.874737 0.841864 0.784385
Si Si4 0.797552 0.655600 0.791311
Si Si5 0.047761 0.343006 0.214362
Si Si6 0.718547 0.157980 0.287731
O O1 0.500000 0.707264 0.272916
O O2 0.551342 0.500000 0.275735
O O3 0.586025 0.747603 0.252891
O O4 0.544067 0.650636 0.000000
O O5 0.628090 0.146439 0.500000
O O6 0.671350 0.196428 0.227021
O O7 0.616448 0.000000 0.222676
O O8 0.835215 0.751293 0.722870
O O9 0.917391 0.765365 0.728668
O O10 0.872263 0.000000 0.727414
O O11 0.874343 0.843210 0.000000
O O12 0.796960 0.500000 0.719755
O O13 0.753917 0.735566 0.767784
O O14 0.804861 0.644183 0.000000
O O15 0.058110 0.500000 0.267189
O O16 0.000000 0.312359 0.270292
O O17 0.047796 0.342199 0.000000
O O18 0.718728 0.156324 0.500000
O O19 0.727107 0.000000 0.229863
#
# Coordination Sequence:
#
# PCOD9384540 Si02
#       6
#     8   8   8   8   8   8
#     4   9  19  35  52  72 101 134 165 198 236 278
#     4   9  19  35  53  74  99 126 158 197 240 285
#     4   9  16  25  38  57  83 116 153 193 235 279
#     4  10  20  32  47  69  96 125 158 196 238 285
#     4   8  13  21  33  50  76 112 150 187 231 282
#     4   9  19  36  54  71  95 126 158 195 240 287
#
# _framework density 20.381618
#
# number of rings (size 3 to 8) (size 9 to 14) (size 15 to 20)
#    0.000    3.000    0.000    3.000    0.000    6.333 
#    0.000    9.167    0.000    0.000    0.000    0.000 
#    0.000    0.667    0.000    7.000    0.000    9.667 
#
# Total GULP energy -267732.574842 kJ/mol
# GULP energy per Si atom -5577.761976 kJ/mol
# Density = 2.033523 g / cm^3
# Si number density = 20.381618 Si / 1000 Ang^3
#
#
#
# Elastic Constant Matrix: (Units=GPa)
#
#
# Indices 1 2 3 4 5 6 
#
# 1 201.7028 150.8594 2.1155 0.0000 0.0000 0.0000
# 2 150.8594 179.0931 6.8048 0.0000 0.0000 0.0000
# 3 2.1155 6.8048 39.0819 0.0000 0.0000 0.0000
# 4 0.0000 0.0000 0.0000 13.5823 0.0000 0.0000
# 5 0.0000 0.0000 0.0000 0.0000 29.7558 0.0000
# 6 0.0000 0.0000 0.0000 0.0000 0.0000 42.6955
#
#
#
# Elastic Compliance Matrix: (Units=1/GPa)
#
#
# Indices 1 2 3 4 5 6 
#
# 1 0.013461 -0.011386 0.001254 0.000000 0.000000 0.000000
# 2 -0.011386 0.015253 -0.002039 0.000000 0.000000 0.000000
# 3 0.001254 -0.002039 0.025874 0.000000 0.000000 0.000000
# 4 0.000000 0.000000 0.000000 0.073625 0.000000 0.000000
# 5 0.000000 0.000000 0.000000 0.000000 0.033607 0.000000
# 6 0.000000 0.000000 0.000000 0.000000 0.000000 0.023422
#
#
# Mechanical properties :
#
#
# Convention : Reuss Voigt Hill
#
# Bulk Modulus (GPa) = 33.06424 82.15970 57.61197
# Shear Modulus (GPa) = 22.76175 34.54661 28.65418
#
# Velocity S-wave (km/s) = 3.34545 4.12149 3.75358
# Velocity P-wave (km/s) = 5.58395 7.94022 6.86395
#
# Compressibility (1/GPa) = 0.03024416
#
# Stress axis : x y z
#
# Youngs Moduli (GPa) = 74.28931 65.56277 38.64812
#
# Poissons Ratio (x) = 0.74653 -0.04846
# Poissons Ratio (y) = 0.84589 0.07882
# Poissons Ratio (z) = -0.09315 0.13371
#
# Static dielectric constant tensor:
#      x y z
#    x 1.717240 0.000000 0.000000 
#    y 0.000000 1.700630 0.000000 
#    z 0.000000 0.000000 1.782520 
# 
# From -- ./inp_files/2438.got.cif
#   From: 2010.05.17/outbox.cif.g08.bks.cpg/sg47_2_cif.got.tgz:2438.got - 2010.06.03 20:15:42.
