data_PCOD9384633
_publ_section_title
;
Structure prediction by ZEFSAII (Michael W. Deem and Ramdas Pophale) SiO2 
 PCOD9384633
Probable space group: P M M M
;
_chemical_formula_sum "Si O2"
_cell_formula_units_Z 56
_cell_length_a 19.552895
_cell_length_b 8.911634
_cell_length_c 19.229669
_cell_angle_alpha 90.000000
_cell_angle_beta 90.000000
_cell_angle_gamma 90.000000
_cell_volume 3350.736054
_symmetry_space_group_name_H-M "P M M M"
_symmetry_group_IT_number 47
_symmetry_cell_setting 'orthorhombic'
loop_
_space_group_symop_operation_xyz
x,y,z
-x,-y,z
x,-y,-z
-x,y,-z
-x,-y,-z
x,y,-z
-x,y,z
x,-y,z
loop_
_atom_site_type_symbol
_atom_site_label
_atom_site_fract_x
_atom_site_fract_y
_atom_site_fract_z
Si Si1 0.211098 0.680835 0.206546
Si Si2 0.157756 0.682620 0.422118
Si Si3 0.705012 0.319300 0.657892
Si Si4 0.575253 0.326154 0.084365
Si Si5 0.076757 0.316993 0.287789
Si Si6 0.421400 0.180836 0.580625
Si Si7 0.283868 0.178491 0.919573
O O1 0.211857 0.500000 0.202519
O O2 0.266875 0.723683 0.265730
O O3 0.136555 0.728019 0.234662
O O4 0.230691 0.749169 0.133084
O O5 0.145211 0.736774 0.500000
O O6 0.156182 0.500000 0.423115
O O7 0.233186 0.723533 0.394506
O O8 0.102851 0.729734 0.364312
O O9 0.699120 0.500000 0.656719
O O10 0.634704 0.248892 0.631856
O O11 0.500000 0.275562 0.108593
O O12 0.584816 0.500000 0.105214
O O13 0.640439 0.229755 0.104415
O O14 0.573329 0.323754 0.000000
O O15 0.076132 0.500000 0.287449
O O16 0.000000 0.265336 0.272772
O O17 0.407215 0.224998 0.500000
O O18 0.500000 0.224897 0.596444
O O19 0.418140 0.000000 0.583576
O O20 0.279358 0.000000 0.917791
O O21 0.274887 0.227994 0.000000
#
# Coordination Sequence:
#
# PCOD9384633 Si02
#       7
#     8   8   8   8   8   8   8
#     4   9  18  32  49  69  93 121 152 187 230 279
#     4   8  13  21  36  62  94 122 146 177 219 263
#     4   9  17  29  45  65  89 118 154 192 227 269
#     4   8  14  26  45  68  93 120 147 175 213 263
#     4   8  14  25  42  65  92 121 152 184 218 262
#     4   9  18  31  45  63  89 121 158 200 241 274
#     4  10  20  32  48  71  95 119 152 194 234 274
#
# _framework density 16.712747
#
# number of rings (size 3 to 8) (size 9 to 14) (size 15 to 20)
#    0.000    3.286    0.000    3.429    0.000    3.143 
#    0.000    4.286    0.000    1.714    0.000    3.000 
#    0.000    0.000    0.000   15.143    0.000   11.429 
#
# Total GULP energy -311787.045187 kJ/mol
# GULP energy per Si atom -5567.625807 kJ/mol
# Density = 1.667471 g / cm^3
# Si number density = 16.712747 Si / 1000 Ang^3
#
#
#
# Elastic Constant Matrix: (Units=GPa)
#
#
# Indices 1 2 3 4 5 6 
#
# 1 135.4576 27.9594 74.4310 0.0000 0.0000 0.0000
# 2 27.9594 10.3644 25.5054 0.0000 0.0000 0.0000
# 3 74.4310 25.5054 98.1584 0.0000 0.0000 0.0000
# 4 0.0000 0.0000 0.0000 17.6191 0.0000 0.0000
# 5 0.0000 0.0000 0.0000 0.0000 13.6667 0.0000
# 6 0.0000 0.0000 0.0000 0.0000 0.0000 -20.7265
#
#
#
# Elastic Compliance Matrix: (Units=1/GPa)
#
#
# Indices 1 2 3 4 5 6 
#
# 1 0.016909 -0.039000 -0.002688 0.000000 0.000000 0.000000
# 2 -0.039000 0.357538 -0.063329 0.000000 0.000000 0.000000
# 3 -0.002688 -0.063329 0.028681 0.000000 0.000000 0.000000
# 4 0.000000 0.000000 0.000000 0.056756 0.000000 0.000000
# 5 0.000000 0.000000 0.000000 0.000000 0.073171 0.000000
# 6 0.000000 0.000000 0.000000 0.000000 0.000000 -0.048247
#
#
# Mechanical properties :
#
#
# Convention : Reuss Voigt Hill
#
# Bulk Modulus (GPa) = 5.17885 55.53022 30.35454
# Shear Modulus (GPa) = 6.58581 9.85083 8.21832
#
# Velocity S-wave (km/s) = 1.98725 2.43043 2.21993
# Velocity P-wave (km/s) = 2.89327 6.41673 4.97722
#
# Compressibility (1/GPa) = 0.19309300
#
# Stress axis : x y z
#
# Youngs Moduli (GPa) = 59.13868 2.79691 34.86571
#
# Poissons Ratio (x) = 0.10908 0.09373
# Poissons Ratio (y) = 2.30642 2.20802
# Poissons Ratio (z) = 0.15898 0.17713
#
# Static dielectric constant tensor:
#      x y z
#    x 1.568000 0.000000 0.000000 
#    y 0.000000 1.558190 0.000000 
#    z 0.000000 0.000000 1.569660 
# 
# From -- ./inp_files/26958.got.cif
#   From: 2010.05.17/outbox.cif.g08.bks.cpg/sg47_14_cif.got.tgz:26958.got - 2010.06.03 20:15:42.
