data_PCOD9384349
_publ_section_title
;
Structure prediction by ZEFSAII (Michael W. Deem and Ramdas Pophale) SiO2 
 PCOD9384349
Probable space group: P M M M
;
_chemical_formula_sum "Si O2"
_cell_formula_units_Z 48
_cell_length_a 9.202021
_cell_length_b 17.100918
_cell_length_c 23.864582
_cell_angle_alpha 90.000000
_cell_angle_beta 90.000000
_cell_angle_gamma 90.000000
_cell_volume 3755.402374
_symmetry_space_group_name_H-M "P M M M"
_symmetry_group_IT_number 47
_symmetry_cell_setting 'orthorhombic'
loop_
_space_group_symop_operation_xyz
x,y,z
-x,-y,z
x,-y,-z
-x,y,-z
-x,-y,-z
x,y,-z
-x,y,z
x,-y,z
loop_
_atom_site_type_symbol
_atom_site_label
_atom_site_fract_x
_atom_site_fract_y
_atom_site_fract_z
Si Si1 0.666557 0.904891 0.326559
Si Si2 0.828233 0.094005 0.787510
Si Si3 0.167739 0.500000 0.068134
Si Si4 0.830520 0.904960 0.437544
Si Si5 0.828928 0.093825 0.000000
Si Si6 0.327140 0.657300 0.065876
Si Si7 0.325436 0.171187 0.893206
O O1 0.500000 0.879424 0.320038
O O2 0.763225 0.883443 0.272954
O O3 0.735342 0.877715 0.385254
O O4 0.666339 0.000000 0.328204
O O5 0.741483 0.136872 0.836587
O O6 0.000000 0.110451 0.790607
O O7 0.809837 0.000000 0.793975
O O8 0.245622 0.579844 0.086116
O O9 0.000000 0.500000 0.084398
O O10 0.176121 0.500000 0.000000
O O11 0.783447 0.879810 0.500000
O O12 0.000000 0.883917 0.429986
O O13 0.825271 0.000000 0.437414
O O14 0.749330 0.127468 0.945373
O O15 0.000000 0.115434 0.000000
O O16 0.819887 0.000000 0.000000
O O17 0.500000 0.643493 0.068287
O O18 0.294366 0.736583 0.098969
O O19 0.290249 0.670799 0.000000
O O20 0.500000 0.160553 0.895122
#
# Coordination Sequence:
#
# PCOD9384349 Si02
#       7
#     8   8   4   8   4   8   8
#     4   9  16  25  37  52  69  91 121 157 193 228
#     4  10  20  32  43  55  73  99 130 163 201 239
#     4   9  17  27  43  67  85  99 119 141 172 217
#     4   8  13  21  33  49  69  92 116 145 186 232
#     4  11  23  35  45  58  77 100 125 157 200 241
#     4   9  17  31  46  61  81 102 120 143 183 230
#     4  11  21  33  47  62  77  97 127 160 194 232
#
# _framework density 12.781586000000001
#
# number of rings (size 3 to 8) (size 9 to 14) (size 15 to 20)
#    0.000    2.500    0.833    3.000    0.000    8.333 
#    0.000    1.667    0.000    0.000    0.000    0.000 
#    0.000    0.000    0.000    0.000    0.000    0.000 
#
# Total GULP energy -267464.675978 kJ/mol
# GULP energy per Si atom -5572.180750 kJ/mol
# Density = 1.275250 g / cm^3
# Si number density = 12.781586 Si / 1000 Ang^3
#
#
#
# Elastic Constant Matrix: (Units=GPa)
#
#
# Indices 1 2 3 4 5 6 
#
# 1 85.8982 46.5276 57.2330 0.0000 0.0000 0.0000
# 2 46.5276 53.1359 34.5721 0.0000 0.0000 0.0000
# 3 57.2330 34.5721 99.0830 0.0000 0.0000 0.0000
# 4 0.0000 0.0000 0.0000 -0.0092 0.0000 0.0000
# 5 0.0000 0.0000 0.0000 0.0000 21.9183 0.0000
# 6 0.0000 0.0000 0.0000 0.0000 0.0000 10.5363
#
#
#
# Elastic Compliance Matrix: (Units=1/GPa)
#
#
# Indices 1 2 3 4 5 6 
#
# 1 0.028037 -0.018129 -0.009870 0.000000 0.000000 0.000000
# 2 -0.018129 0.036069 -0.002113 0.000000 0.000000 0.000000
# 3 -0.009870 -0.002113 0.016531 0.000000 0.000000 0.000000
# 4 0.000000 0.000000 0.000000********** 0.000000 0.000000
# 5 0.000000 0.000000 0.000000 0.000000 0.045624 0.000000
# 6 0.000000 0.000000 0.000000 0.000000 0.000000 0.094910
#
#
# Mechanical properties :
#
#
# Convention : Reuss Voigt Hill
#
# Bulk Modulus (GPa) = 48.98752 57.19806 53.09279
# Shear Modulus (GPa) = -0.04594 13.14139 6.54772
#
# Velocity S-wave (km/s) = -0.18980 3.20996 2.26581
# Velocity P-wave (km/s) = 6.19369 7.65414 6.96232
#
# Compressibility (1/GPa) = 0.02041336
#
# Stress axis : x y z
#
# Youngs Moduli (GPa) = 35.66659 27.72448 60.49269
#
# Poissons Ratio (x) = 0.50262 0.59704
# Poissons Ratio (y) = 0.64660 0.12785
# Poissons Ratio (z) = 0.35201 0.05860
#
# Static dielectric constant tensor:
#      x y z
#    x 1.427790 0.000000 0.000000 
#    y 0.000000 1.391130 0.000000 
#    z 0.000000 0.000000 1.412130 
# 
# From -- ./inp_files/9743.got.cif
#   From: 2010.05.17/outbox.cif.g08.bks.cpg/sg47_5_cif.got.tgz:9743.got - 2010.06.03 20:15:42.
