data_PCOD9384546
_publ_section_title
;
Structure prediction by ZEFSAII (Michael W. Deem and Ramdas Pophale) SiO2 
 PCOD9384546
Probable space group: P M M M
;
_chemical_formula_sum "Si O2"
_cell_formula_units_Z 64
_cell_length_a 20.632688
_cell_length_b 20.853558
_cell_length_c 7.552768
_cell_angle_alpha 90.000000
_cell_angle_beta 90.000000
_cell_angle_gamma 90.000000
_cell_volume 3249.691390
_symmetry_space_group_name_H-M "P M M M"
_symmetry_group_IT_number 47
_symmetry_cell_setting 'orthorhombic'
loop_
_space_group_symop_operation_xyz
x,y,z
-x,-y,z
x,-y,-z
-x,y,-z
-x,-y,-z
x,y,-z
-x,y,z
x,-y,z
loop_
_atom_site_type_symbol
_atom_site_label
_atom_site_fract_x
_atom_site_fract_y
_atom_site_fract_z
Si Si1 0.817373 0.823327 0.208887
Si Si2 0.074506 0.427733 0.783712
Si Si3 0.172308 0.679651 0.789715
Si Si4 0.574377 0.072438 0.283631
Si Si5 0.328041 0.820838 0.293294
Si Si6 0.073361 0.927182 0.286715
Si Si7 0.573971 0.573267 0.283988
Si Si8 0.320627 0.323902 0.285827
O O1 0.835006 0.752366 0.280669
O O2 0.746980 0.841693 0.282855
O O3 0.873100 0.875301 0.236901
O O4 0.807325 0.816416 0.000000
O O5 0.092452 0.500000 0.728166
O O6 0.122789 0.373011 0.718297
O O7 0.000000 0.415717 0.732241
O O8 0.075947 0.427693 0.000000
O O9 0.246775 0.659646 0.761919
O O10 0.160340 0.682974 0.000000
O O11 0.576280 0.071994 0.500000
O O12 0.500000 0.085987 0.233475
O O13 0.623993 0.125947 0.217756
O O14 0.590818 0.000000 0.227012
O O15 0.345117 0.815038 0.500000
O O16 0.332915 0.748677 0.219133
O O17 0.071846 0.928746 0.500000
O O18 0.000000 0.911204 0.226265
O O19 0.088437 0.000000 0.226407
O O20 0.574673 0.573839 0.500000
O O21 0.500000 0.588498 0.230415
O O22 0.588513 0.500000 0.229746
O O23 0.626697 0.624736 0.223125
O O24 0.323646 0.322561 0.500000
#
# Coordination Sequence:
#
# PCOD9384546 Si02
#       8
#     8   8   8   8   8   8   8   8
#     4  10  20  32  47  69  97 126 155 189 227 270
#     4   8  14  26  45  67  88 112 147 188 223 259
#     4   9  18  31  46  66  93 122 150 184 227 270
#     4   8  14  25  42  65  89 110 138 180 225 264
#     4   9  17  29  45  65  90 119 150 186 227 270
#     4   9  19  36  55  73  94 121 153 189 229 273
#     4   8  14  25  41  62  88 116 147 186 232 279
#     4   9  17  28  43  64  88 114 147 185 221 262
#
# _framework density 19.694178000000001
#
# number of rings (size 3 to 8) (size 9 to 14) (size 15 to 20)
#    0.000    3.250    0.000    1.875    0.000    3.000 
#    0.000    5.625    0.000    1.125    0.000    6.125 
#    0.000    0.000    0.000    0.000    0.000    0.000 
#
# Total GULP energy -356806.031464 kJ/mol
# GULP energy per Si atom -5575.094242 kJ/mol
# Density = 1.964935 g / cm^3
# Si number density = 19.694178 Si / 1000 Ang^3
#
#
#
# Elastic Constant Matrix: (Units=GPa)
#
#
# Indices 1 2 3 4 5 6 
#
# 1 138.8503 133.0053 -10.0276 0.0000 0.0000 0.0000
# 2 133.0053 152.8081 -1.4826 0.0000 0.0000 0.0000
# 3 -10.0276 -1.4826 43.4368 0.0000 0.0000 0.0000
# 4 0.0000 0.0000 0.0000 2.2483 0.0000 0.0000
# 5 0.0000 0.0000 0.0000 0.0000 42.4342 0.0000
# 6 0.0000 0.0000 0.0000 0.0000 0.0000 47.5363
#
#
#
# Elastic Compliance Matrix: (Units=1/GPa)
#
#
# Indices 1 2 3 4 5 6 
#
# 1 0.046897 -0.040728 0.009436 0.000000 0.000000 0.000000
# 2 -0.040728 0.041917 -0.007972 0.000000 0.000000 0.000000
# 3 0.009436 -0.007972 0.024928 0.000000 0.000000 0.000000
# 4 0.000000 0.000000 0.000000 0.444790 0.000000 0.000000
# 5 0.000000 0.000000 0.000000 0.000000 0.023566 0.000000
# 6 0.000000 0.000000 0.000000 0.000000 0.000000 0.021037
#
#
# Mechanical properties :
#
#
# Convention : Reuss Voigt Hill
#
# Bulk Modulus (GPa) = 28.39651 64.23170 46.31410
# Shear Modulus (GPa) = 7.21086 32.68374 19.94730
#
# Velocity S-wave (km/s) = 1.91556 4.07819 3.18599
# Velocity P-wave (km/s) = 4.39801 7.40682 6.09112
#
# Compressibility (1/GPa) = 0.03521560
#
# Stress axis : x y z
#
# Youngs Moduli (GPa) = 21.32343 23.85693 40.11503
#
# Poissons Ratio (x) = 0.97164 -0.37854
# Poissons Ratio (y) = 0.86846 0.31978
# Poissons Ratio (z) = -0.20121 0.19018
#
# Static dielectric constant tensor:
#      x y z
#    x 1.651940 0.000000 0.000000 
#    y 0.000000 1.694270 0.000000 
#    z 0.000000 0.000000 1.755530 
# 
# From -- ./inp_files/9947.got.cif
#   From: 2010.05.17/outbox.cif.g08.bks.cpg/sg47_5_cif.got.tgz:9947.got - 2010.06.03 20:15:42.
