data_PCOD9384751
_publ_section_title
;
Structure prediction by ZEFSAII (Michael W. Deem and Ramdas Pophale) SiO2 
 PCOD9384751
Probable space group: P M M M
;
_chemical_formula_sum "Si O2"
_cell_formula_units_Z 60
_cell_length_a 14.328684
_cell_length_b 14.955489
_cell_length_c 16.220632
_cell_angle_alpha 90.000000
_cell_angle_beta 90.000000
_cell_angle_gamma 90.000000
_cell_volume 3475.959393
_symmetry_space_group_name_H-M "P M M M"
_symmetry_group_IT_number 47
_symmetry_cell_setting 'orthorhombic'
loop_
_space_group_symop_operation_xyz
x,y,z
-x,-y,z
x,-y,-z
-x,y,-z
-x,-y,-z
x,y,-z
-x,y,z
x,-y,z
loop_
_atom_site_type_symbol
_atom_site_label
_atom_site_fract_x
_atom_site_fract_y
_atom_site_fract_z
Si Si1 0.613276 0.403206 0.096841
Si Si2 0.608841 0.218711 0.821643
Si Si3 0.387011 0.100976 0.500000
Si Si4 0.761152 0.101574 0.097690
Si Si5 0.763972 0.605738 0.593489
Si Si6 0.112208 0.729311 0.906170
Si Si7 0.391359 0.750019 0.627633
Si Si8 0.110836 0.605364 0.247747
O O1 0.500000 0.404172 0.104068
O O2 0.646583 0.500000 0.129665
O O3 0.643857 0.312414 0.139662
O O4 0.635137 0.399012 0.000000
O O5 0.500000 0.206461 0.844646
O O6 0.671752 0.138814 0.854393
O O7 0.614741 0.229977 0.724074
O O8 0.500000 0.094871 0.500000
O O9 0.361069 0.161613 0.421939
O O10 0.350408 0.000000 0.500000
O O11 0.842601 0.174094 0.110585
O O12 0.785200 0.000000 0.120891
O O13 0.740303 0.102688 0.000000
O O14 0.801437 0.619840 0.500000
O O15 0.742252 0.500000 0.600619
O O16 0.673123 0.667029 0.604036
O O17 0.833541 0.628650 0.668707
O O18 0.138848 0.661691 0.832971
O O19 0.000000 0.735438 0.905798
O O20 0.140097 0.701598 0.000000
O O21 0.500000 0.731687 0.607431
O O22 0.125133 0.500000 0.231736
O O23 0.000000 0.619231 0.261049
#
# Coordination Sequence:
#
# PCOD9384751 Si02
#       8
#     8   8   4   8   8   8   8   8
#     4   8  14  26  44  65  91 126 167 205 239 281
#     4  10  20  32  49  72 100 135 172 213 257 303
#     4   9  18  34  53  69  88 117 157 209 265 312
#     4  10  21  35  50  71 101 135 172 215 258 303
#     4  10  20  33  51  75 105 140 173 207 248 299
#     4   9  18  34  56  79 103 133 169 210 257 306
#     4  10  20  34  51  72  99 130 168 215 260 303
#     4   9  18  33  54  81 111 139 168 205 249 301
#
# _framework density 17.261422
#
# number of rings (size 3 to 8) (size 9 to 14) (size 15 to 20)
#    0.000    2.600    0.667    1.600    0.000    3.200 
#    0.000    8.667    0.000    0.800    0.000    0.000 
#    0.000    0.533    0.000    0.000    0.000    0.000 
#
# Total GULP energy -334511.631730 kJ/mol
# GULP energy per Si atom -5575.193862 kJ/mol
# Density = 1.722213 g / cm^3
# Si number density = 17.261422 Si / 1000 Ang^3
#
#
#
# Elastic Constant Matrix: (Units=GPa)
#
#
# Indices 1 2 3 4 5 6 
#
# 1 62.4710 40.4145 44.3463 0.0000 0.0000 0.0000
# 2 40.4145 107.5215 74.9454 0.0000 0.0000 0.0000
# 3 44.3463 74.9454 102.7096 0.0000 0.0000 0.0000
# 4 0.0000 0.0000 0.0000 265.8872 0.0000 0.0000
# 5 0.0000 0.0000 0.0000 0.0000 -88.9485 0.0000
# 6 0.0000 0.0000 0.0000 0.0000 0.0000 22.3310
#
#
#
# Elastic Compliance Matrix: (Units=1/GPa)
#
#
# Indices 1 2 3 4 5 6 
#
# 1 0.023755 -0.003622 -0.007614 0.000000 0.000000 0.000000
# 2 -0.003622 0.019479 -0.012650 0.000000 0.000000 0.000000
# 3 -0.007614 -0.012650 0.022254 0.000000 0.000000 0.000000
# 4 0.000000 0.000000 0.000000 0.003761 0.000000 0.000000
# 5 0.000000 0.000000 0.000000 0.000000 -0.011242 0.000000
# 6 0.000000 0.000000 0.000000 0.000000 0.000000 0.044781
#
#
# Mechanical properties :
#
#
# Convention : Reuss Voigt Hill
#
# Bulk Modulus (GPa) = 56.44204 65.79050 61.11627
# Shear Modulus (GPa) = 31.95620 47.38701 39.67160
#
# Velocity S-wave (km/s) = 4.30735 5.24520 4.79924
# Velocity P-wave (km/s) = 7.58334 8.65331 8.13593
#
# Compressibility (1/GPa) = 0.01771729
#
# Stress axis : x y z
#
# Youngs Moduli (GPa) = 42.09561 51.33730 44.93620
#
# Poissons Ratio (x) = 0.18594 0.34214
# Poissons Ratio (y) = 0.15247 0.56843
# Poissons Ratio (z) = 0.32051 0.64940
#
# Static dielectric constant tensor:
#      x y z
#    x 1.596340 0.000000 0.000000 
#    y 0.000000 1.576930 0.000000 
#    z 0.000000 0.000000 1.587860 
# 
# From -- ./inp_files/23899.got.cif
#   From: 2010.05.17/outbox.cif.g08.bks.cpg/sg47_12_cif.got.tgz:23899.got - 2010.06.03 20:15:42.
