data_PCOD9384507
_publ_section_title
;
Structure prediction by ZEFSAII (Michael W. Deem and Ramdas Pophale) SiO2 
 PCOD9384507
Probable space group: P M M M
;
_chemical_formula_sum "Si O2"
_cell_formula_units_Z 48
_cell_length_a 31.935752
_cell_length_b 9.691789
_cell_length_c 7.335324
_cell_angle_alpha 90.000000
_cell_angle_beta 90.000000
_cell_angle_gamma 90.000000
_cell_volume 2270.389653
_symmetry_space_group_name_H-M "P M M M"
_symmetry_group_IT_number 47
_symmetry_cell_setting 'orthorhombic'
loop_
_space_group_symop_operation_xyz
x,y,z
-x,-y,z
x,-y,-z
-x,y,-z
-x,-y,-z
x,y,-z
-x,y,z
x,-y,z
loop_
_atom_site_type_symbol
_atom_site_label
_atom_site_fract_x
_atom_site_fract_y
_atom_site_fract_z
Si Si1 0.124064 0.840971 0.721904
Si Si2 0.218058 0.159479 0.277785
Si Si3 0.547639 0.342155 0.222083
Si Si4 0.704978 0.343495 0.282338
Si Si5 0.376188 0.156261 0.782165
Si Si6 0.953655 0.340150 0.277976
O O1 0.123868 0.837040 0.500000
O O2 0.171012 0.799165 0.777974
O O3 0.085721 0.748045 0.785365
O O4 0.118055 0.000000 0.774854
O O5 0.218621 0.159563 0.500000
O O6 0.254274 0.261463 0.213710
O O7 0.225491 0.000000 0.222997
O O8 0.500000 0.310099 0.277820
O O9 0.557431 0.500000 0.276678
O O10 0.582497 0.235251 0.286150
O O11 0.547989 0.341085 0.000000
O O12 0.709850 0.353278 0.500000
O O13 0.700828 0.500000 0.212370
O O14 0.664103 0.251110 0.250591
O O15 0.371292 0.000000 0.712436
O O16 0.380739 0.146611 0.000000
O O17 0.953278 0.336813 0.500000
O O18 0.949540 0.500000 0.224997
O O19 0.000000 0.290704 0.221780
#
# Coordination Sequence:
#
# PCOD9384507 Si02
#       6
#     8   8   8   8   8   8
#     4   8  13  20  30  44  61  84 117 157 200 244
#     4   8  14  25  39  54  74 100 131 170 214 256
#     4   8  14  26  45  68  93 120 148 179 216 256
#     4  10  20  32  47  67  89 116 151 187 224 266
#     4  10  20  32  48  71  96 122 151 182 219 262
#     4   8  13  19  25  35  54  81 113 151 196 242
#
# _framework density 21.141743999999999
#
# number of rings (size 3 to 8) (size 9 to 14) (size 15 to 20)
#    0.000    3.333    0.000    3.000    0.000    3.333 
#    0.000    6.667    0.000    0.500    0.000    3.500 
#    0.000    0.000    0.000    0.000    0.000    0.833 
#
# Total GULP energy -267876.337909 kJ/mol
# GULP energy per Si atom -5580.757040 kJ/mol
# Density = 2.109362 g / cm^3
# Si number density = 21.141744 Si / 1000 Ang^3
#
#
#
# Elastic Constant Matrix: (Units=GPa)
#
#
# Indices 1 2 3 4 5 6 
#
# 1 225.1127 156.8548 4.1088 0.0000 0.0000 0.0000
# 2 156.8548 173.6802 6.5693 0.0000 0.0000 0.0000
# 3 4.1088 6.5693 82.2600 0.0000 0.0000 0.0000
# 4 0.0000 0.0000 0.0000 -2.4690 0.0000 0.0000
# 5 0.0000 0.0000 0.0000 0.0000 8.1477 0.0000
# 6 0.0000 0.0000 0.0000 0.0000 0.0000 48.0982
#
#
#
# Elastic Compliance Matrix: (Units=1/GPa)
#
#
# Indices 1 2 3 4 5 6 
#
# 1 0.011989 -0.010837 0.000267 0.000000 0.000000 0.000000
# 2 -0.010837 0.015572 -0.000702 0.000000 0.000000 0.000000
# 3 0.000267 -0.000702 0.012199 0.000000 0.000000 0.000000
# 4 0.000000 0.000000 0.000000 -0.405020 0.000000 0.000000
# 5 0.000000 0.000000 0.000000 0.000000 0.122734 0.000000
# 6 0.000000 0.000000 0.000000 0.000000 0.000000 0.020791
#
#
# Mechanical properties :
#
#
# Convention : Reuss Voigt Hill
#
# Bulk Modulus (GPa) = 58.09270 90.67986 74.38628
# Shear Modulus (GPa) = -25.84619 31.65671 2.90526
#
# Velocity S-wave (km/s) = -3.50025 3.87377 1.17353
# Velocity P-wave (km/s) = 3.34690 7.93679 6.09074
#
# Compressibility (1/GPa) = 0.01721387
#
# Stress axis : x y z
#
# Youngs Moduli (GPa) = 83.41270 64.21919 81.97160
#
# Poissons Ratio (x) = 0.69596 -0.02186
# Poissons Ratio (y) = 0.90397 0.05757
# Poissons Ratio (z) = -0.02224 0.04510
#
# Static dielectric constant tensor:
#      x y z
#    x 1.731450 0.000000 0.000000 
#    y 0.000000 1.682550 0.000000 
#    z 0.000000 0.000000 1.926650 
# 
# From -- ./inp_files/4722.got.cif
#   From: 2010.05.17/outbox.cif.g08.bks.cpg/sg47_3_cif.got.tgz:4722.got - 2010.06.03 20:15:42.
