data_PCOD9384821
_publ_section_title
;
Structure prediction by ZEFSAII (Michael W. Deem and Ramdas Pophale) SiO2 
 PCOD9384821
Probable space group: P M M M
;
_chemical_formula_sum "Si O2"
_cell_formula_units_Z 60
_cell_length_a 12.860085
_cell_length_b 20.090682
_cell_length_c 12.412819
_cell_angle_alpha 90.000000
_cell_angle_beta 90.000000
_cell_angle_gamma 90.000000
_cell_volume 3207.073708
_symmetry_space_group_name_H-M "P M M M"
_symmetry_group_IT_number 47
_symmetry_cell_setting 'orthorhombic'
loop_
_space_group_symop_operation_xyz
x,y,z
-x,-y,z
x,-y,-z
-x,y,-z
-x,-y,-z
x,y,-z
-x,y,z
x,-y,z
loop_
_atom_site_type_symbol
_atom_site_label
_atom_site_fract_x
_atom_site_fract_y
_atom_site_fract_z
Si Si1 0.111757 0.190447 0.212060
Si Si2 0.386393 0.077839 0.283110
Si Si3 0.840228 0.308948 0.376456
Si Si4 0.000000 0.576399 0.370376
Si Si5 0.335876 0.808344 0.876389
Si Si6 0.619455 0.688547 0.285866
Si Si7 0.625824 0.424602 0.881454
Si Si8 0.166507 0.921085 0.378341
O O1 0.123200 0.251919 0.294870
O O2 0.210847 0.192170 0.134802
O O3 0.117871 0.124563 0.286589
O O4 0.000000 0.193600 0.157479
O O5 0.500000 0.091826 0.331097
O O6 0.372440 0.122993 0.177804
O O7 0.290532 0.090562 0.362819
O O8 0.381607 0.000000 0.254837
O O9 0.870190 0.294755 0.500000
O O10 0.714515 0.307658 0.368713
O O11 0.898528 0.377956 0.344482
O O12 0.000000 0.500000 0.327889
O O13 0.000000 0.570711 0.500000
O O14 0.376183 0.750822 0.796396
O O15 0.367811 0.799744 0.000000
O O16 0.500000 0.682412 0.325714
O O17 0.650012 0.625285 0.212947
O O18 0.500000 0.426473 0.885469
O O19 0.662112 0.500000 0.863805
O O20 0.661836 0.401866 0.000000
O O21 0.135341 0.903098 0.500000
O O22 0.146480 0.000000 0.363656
#
# Coordination Sequence:
#
# PCOD9384821 Si02
#       8
#     8   8   8   4   8   8   8   8
#     4  10  20  35  54  73  97 128 168 211 259 310
#     4   9  18  32  49  70  98 134 174 211 248 297
#     4  10  20  34  53  76 102 135 174 212 254 300
#     4   9  18  34  56  78  98 128 176 223 252 282
#     4  10  21  35  51  73 100 130 167 214 262 306
#     4  10  20  32  49  76 108 137 167 205 254 310
#     4   8  14  26  45  68  94 126 163 199 236 285
#     4   9  18  31  48  74 104 132 165 207 255 305
#
# _framework density 18.708644
#
# number of rings (size 3 to 8) (size 9 to 14) (size 15 to 20)
#    0.000    2.600    0.667    1.600    0.000    4.267 
#    0.000    2.667    0.000    4.800    0.000    7.467 
#    0.000    4.267    0.000    0.000    0.000    0.000 
#
# Total GULP energy -334310.288187 kJ/mol
# GULP energy per Si atom -5571.838136 kJ/mol
# Density = 1.866606 g / cm^3
# Si number density = 18.708644 Si / 1000 Ang^3
#
#
#
# Elastic Constant Matrix: (Units=GPa)
#
#
# Indices 1 2 3 4 5 6 
#
# 1 107.6937 7.6730 -0.8683 0.0000 0.0000 0.0000
# 2 7.6730 44.4588 11.3174 0.0000 0.0000 0.0000
# 3 -0.8683 11.3174 41.6220 0.0000 0.0000 0.0000
# 4 0.0000 0.0000 0.0000 23.6668 0.0000 0.0000
# 5 0.0000 0.0000 0.0000 0.0000 -2.4977 0.0000
# 6 0.0000 0.0000 0.0000 0.0000 0.0000 19.0191
#
#
#
# Elastic Compliance Matrix: (Units=1/GPa)
#
#
# Indices 1 2 3 4 5 6 
#
# 1 0.009419 -0.001800 0.000686 0.000000 0.000000 0.000000
# 2 -0.001800 0.024509 -0.006702 0.000000 0.000000 0.000000
# 3 0.000686 -0.006702 0.025862 0.000000 0.000000 0.000000
# 4 0.000000 0.000000 0.000000 0.042253 0.000000 0.000000
# 5 0.000000 0.000000 0.000000 0.000000 -0.400375 0.000000
# 6 0.000000 0.000000 0.000000 0.000000 0.000000 0.052579
#
#
# Mechanical properties :
#
#
# Convention : Reuss Voigt Hill
#
# Bulk Modulus (GPa) = 22.64548 25.55761 24.10154
# Shear Modulus (GPa) = -23.21263 19.74783 -1.73240
#
# Velocity S-wave (km/s) = -3.52624 3.25244 -0.96333
# Velocity P-wave (km/s) = 2.10917 5.27210 3.41661
#
# Compressibility (1/GPa) = 0.04415893
#
# Stress axis : x y z
#
# Youngs Moduli (GPa) = 106.16393 40.80060 38.66617
#
# Poissons Ratio (x) = 0.07345 -0.02653
# Poissons Ratio (y) = 0.19113 0.25914
# Poissons Ratio (z) = -0.07283 0.27344
#
# Static dielectric constant tensor:
#      x y z
#    x 1.690460 0.000000 0.000000 
#    y 0.000000 1.661000 0.000000 
#    z 0.000000 0.000000 1.604810 
# 
# From -- ./inp_files/16598.got.cif
#   From: 2010.05.17/outbox.cif.g08.bks.cpg/sg47_9_cif.got.tgz:16598.got - 2010.06.03 20:15:42.
