data_PCOD9384729
_publ_section_title
;
Structure prediction by ZEFSAII (Michael W. Deem and Ramdas Pophale) SiO2 
 PCOD9384729
Probable space group: P M M M
;
_chemical_formula_sum "Si O2"
_cell_formula_units_Z 44
_cell_length_a 9.506234
_cell_length_b 29.337682
_cell_length_c 8.921633
_cell_angle_alpha 90.000000
_cell_angle_beta 90.000000
_cell_angle_gamma 90.000000
_cell_volume 2488.161990
_symmetry_space_group_name_H-M "P M M M"
_symmetry_group_IT_number 47
_symmetry_cell_setting 'orthorhombic'
loop_
_space_group_symop_operation_xyz
x,y,z
-x,-y,z
x,-y,-z
-x,y,-z
-x,-y,-z
x,y,-z
-x,y,z
x,-y,z
loop_
_atom_site_type_symbol
_atom_site_label
_atom_site_fract_x
_atom_site_fract_y
_atom_site_fract_z
Si Si1 0.164344 0.948034 0.180359
Si Si2 0.662739 0.134139 0.318880
Si Si3 0.834070 0.582967 0.821523
Si Si4 0.664245 0.500000 0.679517
Si Si5 0.170911 0.322628 0.327234
Si Si6 0.837570 0.777673 0.317160
O O1 0.259596 0.910022 0.255266
O O2 0.000000 0.940788 0.219466
O O3 0.201909 0.000000 0.223653
O O4 0.175374 0.945077 0.000000
O O5 0.669069 0.132867 0.500000
O O6 0.500000 0.135098 0.273787
O O7 0.743058 0.180030 0.269179
O O8 0.742687 0.544305 0.743276
O O9 0.789465 0.633365 0.768005
O O10 0.000000 0.577203 0.782142
O O11 0.822036 0.579065 0.000000
O O12 0.500000 0.500000 0.722683
O O13 0.673330 0.500000 0.500000
O O14 0.216645 0.328662 0.500000
O O15 0.214966 0.272590 0.270607
O O16 0.000000 0.320631 0.328455
O O17 0.838132 0.776495 0.500000
O O18 0.000000 0.784087 0.269728
#
# Coordination Sequence:
#
# PCOD9384729 Si02
#       6
#     8   8   8   4   8   8
#     4   9  19  36  55  73  94 124 165 210 254 301
#     4  10  20  32  48  74 106 136 166 202 246 296
#     4  10  20  34  54  80 107 134 165 203 251 303
#     4  11  24  39  54  74 100 133 174 213 250 296
#     4   8  14  27  49  74  98 128 168 210 247 285
#     4   8  14  27  48  71  96 130 170 208 245 285
#
# _framework density 17.683736
#
# number of rings (size 3 to 8) (size 9 to 14) (size 15 to 20)
#    0.000    2.818    0.000    3.273    0.000    5.091 
#    0.000    4.545    0.000    6.545    0.000    0.000 
#    0.000    0.000    0.000    0.000    0.000    0.000 
#
# Total GULP energy -245317.612769 kJ/mol
# GULP energy per Si atom -5575.400290 kJ/mol
# Density = 1.764349 g / cm^3
# Si number density = 17.683736 Si / 1000 Ang^3
#
#
#
# Elastic Constant Matrix: (Units=GPa)
#
#
# Indices 1 2 3 4 5 6 
#
# 1 96.3134 104.9683 38.0059 0.0000 0.0000 0.0000
# 2 104.9683 198.7511 44.8150 0.0000 0.0000 0.0000
# 3 38.0059 44.8150 24.4245 0.0000 0.0000 0.0000
# 4 0.0000 0.0000 0.0000 -100.5033 0.0000 0.0000
# 5 0.0000 0.0000 0.0000 0.0000 19.5722 0.0000
# 6 0.0000 0.0000 0.0000 0.0000 0.0000 -7.1027
#
#
#
# Elastic Compliance Matrix: (Units=1/GPa)
#
#
# Indices 1 2 3 4 5 6 
#
# 1 0.037707 -0.011402 -0.037754 0.000000 0.000000 0.000000
# 2 -0.011402 0.012030 -0.004331 0.000000 0.000000 0.000000
# 3 -0.037754 -0.004331 0.107636 0.000000 0.000000 0.000000
# 4 0.000000 0.000000 0.000000 -0.009950 0.000000 0.000000
# 5 0.000000 0.000000 0.000000 0.000000 0.051093 0.000000
# 6 0.000000 0.000000 0.000000 0.000000 0.000000 -0.140792
#
#
# Mechanical properties :
#
#
# Convention : Reuss Voigt Hill
#
# Bulk Modulus (GPa) = 19.84138 77.22971 48.53555
# Shear Modulus (GPa) = 27.54872 -8.82676 9.36098
#
# Velocity S-wave (km/s) = 3.95125 -2.23658 2.30327
# Velocity P-wave (km/s) = 5.66224 6.09080 5.88043
#
# Compressibility (1/GPa) = 0.05039973
#
# Stress axis : x y z
#
# Youngs Moduli (GPa) = 26.52021 83.12842 9.29058
#
# Poissons Ratio (x) = 0.94780 0.35076
# Poissons Ratio (y) = 0.30238 0.04023
# Poissons Ratio (z) = 1.00125 0.36000
#
# Static dielectric constant tensor:
#      x y z
#    x 1.584120 0.000000 0.000000 
#    y 0.000000 1.603810 0.000000 
#    z 0.000000 0.000000 1.593020 
# 
# From -- ./inp_files/2250.got.cif
#   From: 2010.05.17/outbox.cif.g08.bks.cpg/sg47_2_cif.got.tgz:2250.got - 2010.06.03 20:15:42.
