data_PCOD9384966
_publ_section_title
;
Structure prediction by ZEFSAII (Michael W. Deem and Ramdas Pophale) SiO2 
 PCOD9384966
Probable space group: P M M M
;
_chemical_formula_sum "Si O2"
_cell_formula_units_Z 40
_cell_length_a 8.099380
_cell_length_b 30.173852
_cell_length_c 7.475245
_cell_angle_alpha 90.000000
_cell_angle_beta 90.000000
_cell_angle_gamma 90.000000
_cell_volume 1826.871339
_symmetry_space_group_name_H-M "P M M M"
_symmetry_group_IT_number 47
_symmetry_cell_setting 'orthorhombic'
loop_
_space_group_symop_operation_xyz
x,y,z
-x,-y,z
x,-y,-z
-x,y,-z
-x,-y,-z
x,y,-z
-x,y,z
x,-y,z
loop_
_atom_site_type_symbol
_atom_site_label
_atom_site_fract_x
_atom_site_fract_y
_atom_site_fract_z
Si Si1 0.183753 0.595930 0.718559
Si Si2 0.691784 0.500000 0.282056
Si Si3 0.197842 0.906601 0.295346
Si Si4 0.813176 0.807546 0.791950
Si Si5 0.500000 0.348262 0.715584
Si Si6 0.304538 0.000000 0.294919
Si Si7 0.500000 0.244425 0.212939
O O1 0.185029 0.596386 0.500000
O O2 0.221347 0.545386 0.773969
O O3 0.334236 0.626911 0.778709
O O4 0.000000 0.609521 0.775436
O O5 0.500000 0.500000 0.227356
O O6 0.693044 0.500000 0.500000
O O7 0.260441 0.905999 0.500000
O O8 0.241597 0.859057 0.215515
O O9 0.000000 0.907893 0.296283
O O10 0.253390 0.953094 0.212262
O O11 0.667851 0.777567 0.713045
O O12 0.000000 0.804043 0.714475
O O13 0.828461 0.795429 0.000000
O O14 0.500000 0.351855 0.500000
O O15 0.500000 0.296861 0.762610
O O16 0.500000 0.000000 0.305493
O O17 0.233694 0.000000 0.500000
O O18 0.500000 0.234811 0.000000
#
# Coordination Sequence:
#
# PCOD9384966 Si02
#       7
#     8   4   8   8   4   4   4
#     4   9  16  26  42  67 101 136 165 197 240 286
#     4   9  13  21  39  64  99 138 168 194 232 286
#     4   9  17  30  49  72  98 128 160 193 231 280
#     4   9  19  36  55  73  94 122 158 201 246 290
#     4  10  20  33  48  72 101 127 160 204 248 286
#     4   9  17  27  42  69 102 132 157 184 226 281
#     4  10  22  38  55  72  94 126 163 202 249 300
#
# _framework density 21.895358000000002
#
# number of rings (size 3 to 8) (size 9 to 14) (size 15 to 20)
#    0.000    2.800    1.000    0.600    1.400    4.000 
#    0.000    0.500    0.000    3.000    0.000    1.400 
#    0.000    1.600    0.000    0.000    0.000    0.000 
#
# Total GULP energy -223161.637861 kJ/mol
# GULP energy per Si atom -5579.040947 kJ/mol
# Density = 2.184552 g / cm^3
# Si number density = 21.895358 Si / 1000 Ang^3
#
#
#
# Elastic Constant Matrix: (Units=GPa)
#
#
# Indices 1 2 3 4 5 6 
#
# 1 169.1746 111.8719 9.1940 0.0000 0.0000 0.0000
# 2 111.8719 177.3655 -4.1870 0.0000 0.0000 0.0000
# 3 9.1940 -4.1870 59.7137 0.0000 0.0000 0.0000
# 4 0.0000 0.0000 0.0000 24.1594 0.0000 0.0000
# 5 0.0000 0.0000 0.0000 0.0000 -7.2140 0.0000
# 6 0.0000 0.0000 0.0000 0.0000 0.0000 17.8668
#
#
#
# Elastic Compliance Matrix: (Units=1/GPa)
#
#
# Indices 1 2 3 4 5 6 
#
# 1 0.010388 -0.006601 -0.002062 0.000000 0.000000 0.000000
# 2 -0.006601 0.009842 0.001706 0.000000 0.000000 0.000000
# 3 -0.002062 0.001706 0.017184 0.000000 0.000000 0.000000
# 4 0.000000 0.000000 0.000000 0.041392 0.000000 0.000000
# 5 0.000000 0.000000 0.000000 0.000000 -0.138620 0.000000
# 6 0.000000 0.000000 0.000000 0.000000 0.000000 0.055970
#
#
# Mechanical properties :
#
#
# Convention : Reuss Voigt Hill
#
# Bulk Modulus (GPa) = 42.55292 71.11241 56.83267
# Shear Modulus (GPa) = 279.29391 26.25411 152.77401
#
# Velocity S-wave (km/s) = 11.30643 3.46652 8.36218
# Velocity P-wave (km/s) = 13.78130 6.96930 10.92006
#
# Compressibility (1/GPa) = 0.02350015
#
# Stress axis : x y z
#
# Youngs Moduli (GPa) = 96.26278 101.60664 58.19454
#
# Poissons Ratio (x) = 0.67070 0.12001
# Poissons Ratio (y) = 0.63543 -0.09930
# Poissons Ratio (z) = 0.19852 -0.17338
#
# Static dielectric constant tensor:
#      x y z
#    x 1.798240 0.000000 0.000000 
#    y 0.000000 1.762690 0.000000 
#    z 0.000000 0.000000 1.846290 
# 
# From -- ./inp_files/1913.got.cif
#   From: 2010.05.17/outbox.cif.g08.bks.cpg/sg47_1_cif.got.tgz:1913.got - 2010.06.03 20:15:42.
