data_PCOD9384859
_publ_section_title
;
Structure prediction by ZEFSAII (Michael W. Deem and Ramdas Pophale) SiO2 
 PCOD9384859
Probable space group: P M M M
;
_chemical_formula_sum "Si O2"
_cell_formula_units_Z 64
_cell_length_a 19.041726
_cell_length_b 14.497776
_cell_length_c 13.843929
_cell_angle_alpha 90.000000
_cell_angle_beta 90.000000
_cell_angle_gamma 90.000000
_cell_volume 3821.792117
_symmetry_space_group_name_H-M "P M M M"
_symmetry_group_IT_number 47
_symmetry_cell_setting 'orthorhombic'
loop_
_space_group_symop_operation_xyz
x,y,z
-x,-y,z
x,-y,-z
-x,y,-z
-x,-y,-z
x,y,-z
-x,y,z
x,-y,z
loop_
_atom_site_type_symbol
_atom_site_label
_atom_site_fract_x
_atom_site_fract_y
_atom_site_fract_z
Si Si1 0.356862 0.609620 0.887088
Si Si2 0.584156 0.896364 0.608962
Si Si3 0.580936 0.710699 0.708065
Si Si4 0.207013 0.608927 0.209792
Si Si5 0.079848 0.894108 0.241276
Si Si6 0.919465 0.717784 0.114552
Si Si7 0.277238 0.297538 0.388137
Si Si8 0.792870 0.894755 0.613303
O O1 0.370733 0.500000 0.871234
O O2 0.402737 0.670791 0.813813
O O3 0.275559 0.626355 0.857616
O O4 0.368351 0.629462 0.000000
O O5 0.609633 0.868123 0.500000
O O6 0.500000 0.902502 0.599978
O O7 0.592569 0.820235 0.691757
O O8 0.609955 0.000000 0.628302
O O9 0.500000 0.690284 0.681218
O O10 0.643185 0.673421 0.639283
O O11 0.197364 0.500000 0.215652
O O12 0.138501 0.656013 0.166243
O O13 0.226913 0.649728 0.314085
O O14 0.088524 0.821000 0.156007
O O15 0.138510 0.877126 0.322127
O O16 0.000000 0.883690 0.279384
O O17 0.087338 0.000000 0.208393
O O18 0.000000 0.688525 0.135262
O O19 0.909396 0.715539 0.000000
O O20 0.263182 0.316305 0.500000
O O21 0.262060 0.188064 0.370545
O O22 0.810933 0.891921 0.500000
O O23 0.769074 0.000000 0.634336
#
# Coordination Sequence:
#
# PCOD9384859 Si02
#       8
#     8   8   8   8   8   8   8   8
#     4   9  19  36  57  78  99 130 173 217 263 315
#     4   8  14  26  45  69  97 129 163 196 235 292
#     4  10  20  32  50  78 107 133 166 213 264 312
#     4  10  20  36  56  76 101 134 173 214 256 305
#     4   9  17  30  49  75 109 144 173 204 248 301
#     4  10  20  33  52  80 109 136 171 214 257 298
#     4  10  20  34  52  75 103 136 171 208 256 311
#     4   9  17  30  50  76 104 135 173 214 253 295
#
# _framework density 16.74607
#
# number of rings (size 3 to 8) (size 9 to 14) (size 15 to 20)
#    0.000    2.625    1.250    1.125    0.000    3.500 
#    0.000    5.000    0.000    1.875    0.000    9.625 
#    0.000    0.000    0.000    0.000    0.000    0.000 
#
# Total GULP energy -356393.179201 kJ/mol
# GULP energy per Si atom -5568.643425 kJ/mol
# Density = 1.670796 g / cm^3
# Si number density = 16.746070 Si / 1000 Ang^3
#
#
#
# Elastic Constant Matrix: (Units=GPa)
#
#
# Indices 1 2 3 4 5 6 
#
# 1 118.4409 49.3861 58.3165 0.0000 0.0000 0.0000
# 2 49.3861 71.0702 52.1654 0.0000 0.0000 0.0000
# 3 58.3165 52.1654 98.7071 0.0000 0.0000 0.0000
# 4 0.0000 0.0000 0.0000 23.6253 0.0000 0.0000
# 5 0.0000 0.0000 0.0000 0.0000 18.5466 0.0000
# 6 0.0000 0.0000 0.0000 0.0000 0.0000 22.3580
#
#
#
# Elastic Compliance Matrix: (Units=1/GPa)
#
#
# Indices 1 2 3 4 5 6 
#
# 1 0.013147 -0.005611 -0.004802 0.000000 0.000000 0.000000
# 2 -0.005611 0.025383 -0.010099 0.000000 0.000000 0.000000
# 3 -0.004802 -0.010099 0.018305 0.000000 0.000000 0.000000
# 4 0.000000 0.000000 0.000000 0.042328 0.000000 0.000000
# 5 0.000000 0.000000 0.000000 0.000000 0.053918 0.000000
# 6 0.000000 0.000000 0.000000 0.000000 0.000000 0.044727
#
#
# Mechanical properties :
#
#
# Convention : Reuss Voigt Hill
#
# Bulk Modulus (GPa) = 63.25010 67.55048 65.40029
# Shear Modulus (GPa) = 20.48322 21.46264 20.97293
#
# Velocity S-wave (km/s) = 3.50117 3.58390 3.54278
# Velocity P-wave (km/s) = 7.36182 7.58627 7.47489
#
# Compressibility (1/GPa) = 0.01581025
#
# Stress axis : x y z
#
# Youngs Moduli (GPa) = 76.06301 39.39701 54.62903
#
# Poissons Ratio (x) = 0.22106 0.26232
# Poissons Ratio (y) = 0.42680 0.55171
# Poissons Ratio (z) = 0.36524 0.39788
#
# Static dielectric constant tensor:
#      x y z
#    x 1.599200 0.000000 0.000000 
#    y 0.000000 1.582820 0.000000 
#    z 0.000000 0.000000 1.530390 
# 
# From -- ./inp_files/17904.got.cif
#   From: 2010.05.17/outbox.cif.g08.bks.cpg/sg47_9_cif.got.tgz:17904.got - 2010.06.03 20:15:42.
