data_PCOD9384703
_publ_section_title
;
Structure prediction by ZEFSAII (Michael W. Deem and Ramdas Pophale) SiO2 
 PCOD9384703
Probable space group: P M M M
;
_chemical_formula_sum "Si O2"
_cell_formula_units_Z 44
_cell_length_a 29.466632
_cell_length_b 7.559247
_cell_length_c 9.437272
_cell_angle_alpha 90.000000
_cell_angle_beta 90.000000
_cell_angle_gamma 90.000000
_cell_volume 2102.110338
_symmetry_space_group_name_H-M "P M M M"
_symmetry_group_IT_number 47
_symmetry_cell_setting 'orthorhombic'
loop_
_space_group_symop_operation_xyz
x,y,z
-x,-y,z
x,-y,-z
-x,y,-z
-x,-y,-z
x,y,-z
-x,y,z
x,-y,z
loop_
_atom_site_type_symbol
_atom_site_label
_atom_site_fract_x
_atom_site_fract_y
_atom_site_fract_z
Si Si1 0.401041 0.210144 0.338115
Si Si2 0.051032 0.715847 0.336502
Si Si3 0.500000 0.710056 0.338644
Si Si4 0.314374 0.216943 0.163066
Si Si5 0.773067 0.211961 0.339160
Si Si6 0.137116 0.287380 0.839683
O O1 0.399806 0.282109 0.500000
O O2 0.451476 0.237745 0.276128
O O3 0.360166 0.277151 0.241697
O O4 0.394534 0.000000 0.349174
O O5 0.059070 0.768269 0.500000
O O6 0.051330 0.500000 0.334616
O O7 0.091268 0.778296 0.235736
O O8 0.000000 0.770961 0.295801
O O9 0.500000 0.500000 0.346630
O O10 0.500000 0.784879 0.500000
O O11 0.270374 0.276230 0.250900
O O12 0.314351 0.000000 0.162469
O O13 0.312448 0.273373 0.000000
O O14 0.774350 0.280880 0.500000
O O15 0.819242 0.248263 0.255525
O O16 0.768360 0.000000 0.347811
O O17 0.133369 0.500000 0.846999
O O18 0.142428 0.220367 0.000000
#
# Coordination Sequence:
#
# PCOD9384703 Si02
#       6
#     8   8   4   8   8   8
#     4   9  16  28  48  71  92 117 154 196 232 270
#     4   8  14  26  45  68  94 126 164 204 244 286
#     4   9  17  29  46  69  96 124 154 189 230 276
#     4   9  17  30  49  72  96 122 155 197 241 283
#     4  10  20  34  53  75  98 128 166 204 244 292
#     4  10  20  32  48  73 103 132 162 199 245 295
#
# _framework density 20.931346999999999
#
# number of rings (size 3 to 8) (size 9 to 14) (size 15 to 20)
#    0.000    2.818    0.000    2.455    0.000    5.818 
#    0.000    3.182    0.000    7.091    0.000    3.818 
#    0.000    0.000    0.000    0.000    0.000    0.000 
#
# Total GULP energy -245570.605655 kJ/mol
# GULP energy per Si atom -5581.150129 kJ/mol
# Density = 2.088371 g / cm^3
# Si number density = 20.931347 Si / 1000 Ang^3
#
#
#
# Elastic Constant Matrix: (Units=GPa)
#
#
# Indices 1 2 3 4 5 6 
#
# 1 231.7581 0.3137 139.4292 0.0000 0.0000 0.0000
# 2 0.3137 49.1416 6.9921 0.0000 0.0000 0.0000
# 3 139.4292 6.9921 176.3585 0.0000 0.0000 0.0000
# 4 0.0000 0.0000 0.0000 7.2776 0.0000 0.0000
# 5 0.0000 0.0000 0.0000 0.0000 27.2575 0.0000
# 6 0.0000 0.0000 0.0000 0.0000 0.0000 18.8659
#
#
#
# Elastic Compliance Matrix: (Units=1/GPa)
#
#
# Indices 1 2 3 4 5 6 
#
# 1 0.008267 0.000882 -0.006571 0.000000 0.000000 0.000000
# 2 0.000882 0.020559 -0.001512 0.000000 0.000000 0.000000
# 3 -0.006571 -0.001512 0.010925 0.000000 0.000000 0.000000
# 4 0.000000 0.000000 0.000000 0.137408 0.000000 0.000000
# 5 0.000000 0.000000 0.000000 0.000000 0.036687 0.000000
# 6 0.000000 0.000000 0.000000 0.000000 0.000000 0.053006
#
#
# Mechanical properties :
#
#
# Convention : Reuss Voigt Hill
#
# Bulk Modulus (GPa) = 39.44993 83.41424 61.43208
# Shear Modulus (GPa) = 17.25908 31.38173 24.32041
#
# Velocity S-wave (km/s) = 2.87462 3.87624 3.41238
# Velocity P-wave (km/s) = 5.46865 7.74413 6.70364
#
# Compressibility (1/GPa) = 0.02534859
#
# Stress axis : x y z
#
# Youngs Moduli (GPa) = 120.96871 48.64062 91.53377
#
# Poissons Ratio (x) = -0.04291 0.60143
# Poissons Ratio (y) = -0.10671 0.13844
# Poissons Ratio (z) = 0.79483 0.07357
#
# Static dielectric constant tensor:
#      x y z
#    x 1.730490 0.000000 0.000000 
#    y 0.000000 1.812080 0.000000 
#    z 0.000000 0.000000 1.727310 
# 
# From -- ./inp_files/2030.got.cif
#   From: 2010.05.17/outbox.cif.g08.bks.cpg/sg47_2_cif.got.tgz:2030.got - 2010.06.03 20:15:42.
