data_PCOD9384092
_publ_section_title
;
Structure prediction by ZEFSAII (Michael W. Deem and Ramdas Pophale) SiO2 
 PCOD9384092
Probable space group: P M M M
;
_chemical_formula_sum "Si O2"
_cell_formula_units_Z 64
_cell_length_a 20.465592
_cell_length_b 8.804333
_cell_length_c 20.583685
_cell_angle_alpha 90.000000
_cell_angle_beta 90.000000
_cell_angle_gamma 90.000000
_cell_volume 3708.889540
_symmetry_space_group_name_H-M "P M M M"
_symmetry_group_IT_number 47
_symmetry_cell_setting 'orthorhombic'
loop_
_space_group_symop_operation_xyz
x,y,z
-x,-y,z
x,-y,-z
-x,y,-z
-x,-y,-z
x,y,-z
-x,y,z
x,-y,z
loop_
_atom_site_type_symbol
_atom_site_label
_atom_site_fract_x
_atom_site_fract_y
_atom_site_fract_z
Si Si1 0.318124 0.181856 0.330672
Si Si2 0.210299 0.316786 0.928999
Si Si3 0.928310 0.819903 0.105810
Si Si4 0.071714 0.681880 0.387543
Si Si5 0.206804 0.182494 0.428909
Si Si6 0.742984 0.679735 0.790938
Si Si7 0.104807 0.321702 0.761074
Si Si8 0.577012 0.682545 0.573589
O O1 0.255319 0.236477 0.372776
O O2 0.306781 0.239744 0.257643
O O3 0.380105 0.243151 0.370176
O O4 0.319249 0.000000 0.330809
O O5 0.208736 0.500000 0.925494
O O6 0.135654 0.260029 0.922818
O O7 0.250657 0.264724 0.865614
O O8 0.235865 0.271499 0.000000
O O9 0.924726 0.780425 0.182361
O O10 0.000000 0.770195 0.081650
O O11 0.922885 0.000000 0.095523
O O12 0.075853 0.500000 0.396534
O O13 0.133803 0.757639 0.420125
O O14 0.078371 0.711014 0.310306
O O15 0.000000 0.732491 0.410048
O O16 0.231722 0.228814 0.500000
O O17 0.205399 0.000000 0.426091
O O18 0.728938 0.500000 0.791231
O O19 0.816866 0.699302 0.763490
O O20 0.091783 0.500000 0.775903
O O21 0.596117 0.731835 0.500000
O O22 0.500000 0.716150 0.581254
O O23 0.584561 0.500000 0.576371
#
# Coordination Sequence:
#
# PCOD9384092 Si02
#       8
#     8   8   8   8   8   8   8   8
#     4  11  21  33  53  79 107 137 171 211 250 294
#     4   9  19  35  52  69  92 125 163 205 255 308
#     4  10  20  30  42  64  92 120 153 196 249 311
#     4  10  20  33  49  67  86 112 154 210 265 312
#     4  10  22  37  49  65  93 128 164 203 250 304
#     4   9  17  31  52  74  96 124 163 207 250 298
#     4   9  17  31  49  66  87 116 154 202 254 307
#     4   9  19  36  57  82 113 148 182 213 248 292
#
# _framework density 17.255838000000001
#
# number of rings (size 3 to 8) (size 9 to 14) (size 15 to 20)
#    0.000    2.375    1.250    2.625    0.000    6.750 
#    0.000    3.125    0.000    0.000    0.000    0.000 
#    0.000    0.500    0.000    5.750    0.000    1.625 
#
# Total GULP energy -356980.167566 kJ/mol
# GULP energy per Si atom -5577.815118 kJ/mol
# Density = 1.721656 g / cm^3
# Si number density = 17.255838 Si / 1000 Ang^3
#
#
#
# Elastic Constant Matrix: (Units=GPa)
#
#
# Indices 1 2 3 4 5 6 
#
# 1 67.2887 22.2562 50.6481 0.0000 0.0000 0.0000
# 2 22.2562 13.0963 30.1201 0.0000 0.0000 0.0000
# 3 50.6481 30.1201 123.7034 0.0000 0.0000 0.0000
# 4 0.0000 0.0000 0.0000 9.7152 0.0000 0.0000
# 5 0.0000 0.0000 0.0000 0.0000 11.4134 0.0000
# 6 0.0000 0.0000 0.0000 0.0000 0.0000 18.8871
#
#
#
# Elastic Compliance Matrix: (Units=1/GPa)
#
#
# Indices 1 2 3 4 5 6 
#
# 1 0.033944 -0.058457 0.000336 0.000000 0.000000 0.000000
# 2 -0.058457 0.274209 -0.042832 0.000000 0.000000 0.000000
# 3 0.000336 -0.042832 0.018375 0.000000 0.000000 0.000000
# 4 0.000000 0.000000 0.000000 0.102932 0.000000 0.000000
# 5 0.000000 0.000000 0.000000 0.000000 0.087616 0.000000
# 6 0.000000 0.000000 0.000000 0.000000 0.000000 0.052946
#
#
# Mechanical properties :
#
#
# Convention : Reuss Voigt Hill
#
# Bulk Modulus (GPa) = 8.02428 45.57079 26.79753
# Shear Modulus (GPa) = 6.14652 14.74075 10.44363
#
# Velocity S-wave (km/s) = 1.88937 2.92592 2.46280
# Velocity P-wave (km/s) = 3.06919 6.15475 4.86317
#
# Compressibility (1/GPa) = 0.12462178
#
# Stress axis : x y z
#
# Youngs Moduli (GPa) = 29.46061 3.64685 54.42092
#
# Poissons Ratio (x) = 0.21318 -0.01828
# Poissons Ratio (y) = 1.72218 2.33095
# Poissons Ratio (z) = -0.00990 0.15620
#
# Static dielectric constant tensor:
#      x y z
#    x 1.567310 0.000000 0.000000 
#    y 0.000000 1.577210 0.000000 
#    z 0.000000 0.000000 1.622660 
# 
# From -- ./inp_files/30180.got.cif
#   From: 2010.05.17/outbox.cif.g08.bks.cpg/sg47_16_cif.got.tgz:30180.got - 2010.06.03 20:15:42.
