data_PCOD9384260
_publ_section_title
;
Structure prediction by ZEFSAII (Michael W. Deem and Ramdas Pophale) SiO2 
 PCOD9384260
Probable space group: P M M M
;
_chemical_formula_sum "Si O2"
_cell_formula_units_Z 40
_cell_length_a 7.378192
_cell_length_b 26.186578
_cell_length_c 10.004146
_cell_angle_alpha 90.000000
_cell_angle_beta 90.000000
_cell_angle_gamma 90.000000
_cell_volume 1932.897050
_symmetry_space_group_name_H-M "P M M M"
_symmetry_group_IT_number 47
_symmetry_cell_setting 'orthorhombic'
loop_
_space_group_symop_operation_xyz
x,y,z
-x,-y,z
x,-y,-z
-x,y,-z
-x,-y,-z
x,y,-z
-x,y,z
x,-y,z
loop_
_atom_site_type_symbol
_atom_site_label
_atom_site_fract_x
_atom_site_fract_y
_atom_site_fract_z
Si Si1 0.778828 0.237157 0.653159
Si Si2 0.786128 0.149246 0.849216
Si Si3 0.718011 0.941699 0.649468
Si Si4 0.220749 0.647031 0.653026
Si Si5 0.220897 0.442823 0.154121
O O1 0.722985 0.226187 0.500000
O O2 0.712709 0.195213 0.757754
O O3 0.724492 0.295106 0.687941
O O4 0.000000 0.236185 0.652640
O O5 0.768394 0.097373 0.764866
O O6 0.000000 0.159112 0.861340
O O7 0.712551 0.146042 0.000000
O O8 0.779934 0.925678 0.500000
O O9 0.500000 0.942766 0.645723
O O10 0.779512 0.000000 0.672547
O O11 0.274910 0.637190 0.500000
O O12 0.283516 0.602837 0.751750
O O13 0.000000 0.646708 0.655590
O O14 0.276284 0.500000 0.196400
O O15 0.000000 0.442345 0.156217
O O16 0.274945 0.435421 0.000000
#
# Coordination Sequence:
#
# PCOD9384260 Si02
#       5
#     8   8   8   8   8
#     4   8  14  25  39  54  75 104 137 173 213 256
#     4  10  20  31  45  69  97 121 147 181 221 264
#     4   9  19  36  55  72  90 116 151 185 217 259
#     4   8  13  20  30  44  61  85 121 164 207 247
#     4   8  13  19  25  35  54  82 117 157 201 248
#
# _framework density 20.694327000000001
#
# number of rings (size 3 to 8) (size 9 to 14) (size 15 to 20)
#    0.000    3.400    0.000    3.000    0.000    3.600 
#    0.000    9.000    0.000    0.000    0.000    0.000 
#    0.000    0.000    0.000    0.000    0.000    1.000 
#
# Total GULP energy -223146.941322 kJ/mol
# GULP energy per Si atom -5578.673533 kJ/mol
# Density = 2.064723 g / cm^3
# Si number density = 20.694327 Si / 1000 Ang^3
#
#
#
# Elastic Constant Matrix: (Units=GPa)
#
#
# Indices 1 2 3 4 5 6 
#
# 1 71.8279 1.7038 5.9501 0.0000 0.0000 0.0000
# 2 1.7038 178.8173 150.3067 0.0000 0.0000 0.0000
# 3 5.9501 150.3067 180.9740 0.0000 0.0000 0.0000
# 4 0.0000 0.0000 0.0000 -56.6323 0.0000 0.0000
# 5 0.0000 0.0000 0.0000 0.0000 -7.2330 0.0000
# 6 0.0000 0.0000 0.0000 0.0000 0.0000 104.2572
#
#
#
# Elastic Compliance Matrix: (Units=1/GPa)
#
#
# Indices 1 2 3 4 5 6 
#
# 1 0.013998 0.000840 -0.001158 0.000000 0.000000 0.000000
# 2 0.000840 0.018575 -0.015455 0.000000 0.000000 0.000000
# 3 -0.001158 -0.015455 0.018400 0.000000 0.000000 0.000000
# 4 0.000000 0.000000 0.000000 -0.017658 0.000000 0.000000
# 5 0.000000 0.000000 0.000000 0.000000 -0.138256 0.000000
# 6 0.000000 0.000000 0.000000 0.000000 0.000000 0.009592
#
#
# Mechanical properties :
#
#
# Convention : Reuss Voigt Hill
#
# Bulk Modulus (GPa) = 51.47451 83.06005 67.26728
# Shear Modulus (GPa) = -87.21991 26.32228 -30.44882
#
# Velocity S-wave (km/s) = -6.49910 3.57032 -3.83999
# Velocity P-wave (km/s) = 5.60268 7.56439 3.59375
#
# Compressibility (1/GPa) = 0.01942709
#
# Stress axis : x y z
#
# Youngs Moduli (GPa) = 71.43800 53.83476 54.34794
#
# Poissons Ratio (x) = -0.04520 0.06291
# Poissons Ratio (y) = -0.05998 0.83996
# Poissons Ratio (z) = 0.08270 0.83203
#
# Static dielectric constant tensor:
#      x y z
#    x 1.839080 0.000000 0.000000 
#    y 0.000000 1.713420 0.000000 
#    z 0.000000 0.000000 1.710030 
# 
# From -- ./inp_files/1661.got.cif
#   From: 2010.05.17/outbox.cif.g08.bks.cpg/sg47_1_cif.got.tgz:1661.got - 2010.06.03 20:15:42.
