data_PCOD9384436
_publ_section_title
;
Structure prediction by ZEFSAII (Michael W. Deem and Ramdas Pophale) SiO2 
 PCOD9384436
Probable space group: P M M M
;
_chemical_formula_sum "Si O2"
_cell_formula_units_Z 56
_cell_length_a 20.829732
_cell_length_b 7.820723
_cell_length_c 16.258412
_cell_angle_alpha 90.000000
_cell_angle_beta 90.000000
_cell_angle_gamma 90.000000
_cell_volume 2648.553262
_symmetry_space_group_name_H-M "P M M M"
_symmetry_group_IT_number 47
_symmetry_cell_setting 'orthorhombic'
loop_
_space_group_symop_operation_xyz
x,y,z
-x,-y,z
x,-y,-z
-x,y,-z
-x,-y,-z
x,y,-z
-x,y,z
x,-y,z
loop_
_atom_site_type_symbol
_atom_site_label
_atom_site_fract_x
_atom_site_fract_y
_atom_site_fract_z
Si Si1 0.317125 0.803579 0.908768
Si Si2 0.431468 0.300691 0.795337
Si Si3 0.429476 0.195478 0.613545
Si Si4 0.926682 0.291806 0.592871
Si Si5 0.175654 0.305162 0.907961
Si Si6 0.181161 0.290541 0.277185
Si Si7 0.283757 0.701968 0.409892
O O1 0.370228 0.743272 0.847152
O O2 0.252971 0.694502 0.907379
O O3 0.298223 0.000000 0.892843
O O4 0.345050 0.794466 0.000000
O O5 0.500000 0.269145 0.838359
O O6 0.429112 0.500000 0.772313
O O7 0.430433 0.197912 0.711765
O O8 0.500000 0.269252 0.589333
O O9 0.360987 0.277812 0.592587
O O10 0.427432 0.000000 0.585981
O O11 0.909611 0.237170 0.500000
O O12 0.926096 0.500000 0.592447
O O13 0.876015 0.240015 0.661373
O O14 0.000000 0.238453 0.609696
O O15 0.150708 0.500000 0.907887
O O16 0.164899 0.229094 0.816014
O O17 0.158384 0.231039 0.000000
O O18 0.184305 0.500000 0.270324
O O19 0.246066 0.234951 0.327578
O O20 0.262521 0.772293 0.500000
O O21 0.269463 0.500000 0.411524
#
# Coordination Sequence:
#
# PCOD9384436 Si02
#       7
#     8   8   8   8   8   8   8
#     4  10  20  32  46  65  90 119 152 195 247 299
#     4  10  20  33  49  67  87 114 151 195 242 295
#     4  10  21  36  52  68  89 121 160 201 245 293
#     4   8  13  22  39  65  97 132 166 197 234 286
#     4   9  17  29  46  67  91 123 162 199 236 283
#     4   9  16  27  44  66  95 128 160 199 245 288
#     4  10  20  32  48  71  96 123 158 201 249 300
#
# _framework density 21.143616999999999
#
# number of rings (size 3 to 8) (size 9 to 14) (size 15 to 20)
#    0.000    2.571    0.000    3.000    0.000    6.286 
#    0.000    2.857    0.000    0.429    0.000    3.000 
#    0.000    2.286    0.000   11.429    0.000   10.857 
#
# Total GULP energy -311816.991818 kJ/mol
# GULP energy per Si atom -5568.160568 kJ/mol
# Density = 2.109549 g / cm^3
# Si number density = 21.143617 Si / 1000 Ang^3
#
#
#
# Elastic Constant Matrix: (Units=GPa)
#
#
# Indices 1 2 3 4 5 6 
#
# 1 80.4210 -4.7619 65.7623 0.0000 0.0000 0.0000
# 2 -4.7619 29.1372 16.4651 0.0000 0.0000 0.0000
# 3 65.7623 16.4651 153.0048 0.0000 0.0000 0.0000
# 4 0.0000 0.0000 0.0000 9.2214 0.0000 0.0000
# 5 0.0000 0.0000 0.0000 0.0000 33.5563 0.0000
# 6 0.0000 0.0000 0.0000 0.0000 0.0000 -24.5558
#
#
#
# Elastic Compliance Matrix: (Units=1/GPa)
#
#
# Indices 1 2 3 4 5 6 
#
# 1 0.021261 0.009198 -0.010128 0.000000 0.000000 0.000000
# 2 0.009198 0.040522 -0.008314 0.000000 0.000000 0.000000
# 3 -0.010128 -0.008314 0.011783 0.000000 0.000000 0.000000
# 4 0.000000 0.000000 0.000000 0.108443 0.000000 0.000000
# 5 0.000000 0.000000 0.000000 0.000000 0.029801 0.000000
# 6 0.000000 0.000000 0.000000 0.000000 0.000000 -0.040724
#
#
# Mechanical properties :
#
#
# Convention : Reuss Voigt Hill
#
# Bulk Modulus (GPa) = 18.15596 46.38822 32.27209
# Shear Modulus (GPa) = 24.04608 15.98420 20.01514
#
# Velocity S-wave (km/s) = 3.37601 2.75250 3.08007
# Velocity P-wave (km/s) = 4.87875 5.66470 5.28635
#
# Compressibility (1/GPa) = 0.05507834
#
# Stress axis : x y z
#
# Youngs Moduli (GPa) = 47.03430 24.67812 84.86466
#
# Poissons Ratio (x) = -0.22699 0.85950
# Poissons Ratio (y) = -0.43262 0.70556
# Poissons Ratio (z) = 0.47636 0.20517
#
# Static dielectric constant tensor:
#      x y z
#    x 1.741860 0.000000 0.000000 
#    y 0.000000 1.801820 0.000000 
#    z 0.000000 0.000000 1.836750 
# 
# From -- ./inp_files/21582.got.cif
#   From: 2010.05.17/outbox.cif.g08.bks.cpg/sg47_11_cif.got.tgz:21582.got - 2010.06.03 20:15:42.
