data_PCOD9384023
_publ_section_title
;
Structure prediction by ZEFSAII (Michael W. Deem and Ramdas Pophale) SiO2 
 PCOD9384023
Probable space group: P M M M
;
_chemical_formula_sum "Si O2"
_cell_formula_units_Z 40
_cell_length_a 11.794443
_cell_length_b 7.617776
_cell_length_c 21.051686
_cell_angle_alpha 90.000000
_cell_angle_beta 90.000000
_cell_angle_gamma 90.000000
_cell_volume 1891.439775
_symmetry_space_group_name_H-M "P M M M"
_symmetry_group_IT_number 47
_symmetry_cell_setting 'orthorhombic'
loop_
_space_group_symop_operation_xyz
x,y,z
-x,-y,z
x,-y,-z
-x,y,-z
-x,-y,-z
x,y,-z
-x,y,z
x,-y,z
loop_
_atom_site_type_symbol
_atom_site_label
_atom_site_fract_x
_atom_site_fract_y
_atom_site_fract_z
Si Si1 0.869620 0.293316 0.253150
Si Si2 0.000000 0.796989 0.424647
Si Si3 0.760321 0.699067 0.624109
Si Si4 0.261842 0.796530 0.872506
Si Si5 0.632791 0.713589 0.500000
Si Si6 0.130718 0.711407 0.000000
Si Si7 0.500000 0.784443 0.925385
O O1 0.879089 0.500000 0.268301
O O2 0.782946 0.218602 0.306430
O O3 0.811732 0.280691 0.184596
O O4 0.000000 0.223294 0.254250
O O5 0.111803 0.700994 0.401920
O O6 0.000000 0.800530 0.500000
O O7 0.000000 0.000000 0.402037
O O8 0.716096 0.500000 0.632819
O O9 0.688737 0.779547 0.565859
O O10 0.192221 0.779129 0.937451
O O11 0.386619 0.724451 0.889220
O O12 0.276679 0.000000 0.856324
O O13 0.650160 0.500000 0.500000
O O14 0.500000 0.749421 0.500000
O O15 0.136536 0.500000 0.000000
O O16 0.000000 0.764546 0.000000
O O17 0.500000 0.000000 0.926257
O O18 0.500000 0.731378 0.000000
#
# Coordination Sequence:
#
# PCOD9384023 Si02
#       7
#     8   4   8   8   4   4   4
#     4  10  21  37  55  82 119 151 181 228 285 335
#     4  11  21  31  51  85 117 138 177 238 287 327
#     4  10  19  35  59  81 109 150 190 226 280 344
#     4  11  22  38  61  84 110 149 192 229 275 336
#     4   9  18  33  57  86 110 141 192 245 282 327
#     4  11  23  38  57  84 118 149 180 231 290 335
#     4   9  18  38  62  82 108 141 182 237 281 321
#
# _framework density 21.14791
#
# number of rings (size 3 to 8) (size 9 to 14) (size 15 to 20)
#    0.000    1.800    3.000    1.800    0.000    4.800 
#    1.800    2.500    0.000    1.200    0.000    0.000 
#    0.000    0.000    0.000    0.000    0.000    0.000 
#
# Total GULP energy -223149.604367 kJ/mol
# GULP energy per Si atom -5578.740109 kJ/mol
# Density = 2.109978 g / cm^3
# Si number density = 21.147910 Si / 1000 Ang^3
#
#
#
# Elastic Constant Matrix: (Units=GPa)
#
#
# Indices 1 2 3 4 5 6 
#
# 1 131.7488 -3.7070 68.8200 0.0000 0.0000 0.0000
# 2 -3.7070 52.6999 -2.2504 0.0000 0.0000 0.0000
# 3 68.8200 -2.2504 183.2883 0.0000 0.0000 0.0000
# 4 0.0000 0.0000 0.0000 183.4255 0.0000 0.0000
# 5 0.0000 0.0000 0.0000 0.0000 -0.2296 0.0000
# 6 0.0000 0.0000 0.0000 0.0000 0.0000 9.6866
#
#
#
# Elastic Compliance Matrix: (Units=1/GPa)
#
#
# Indices 1 2 3 4 5 6 
#
# 1 0.009456 0.000514 -0.003544 0.000000 0.000000 0.000000
# 2 0.000514 0.019013 0.000041 0.000000 0.000000 0.000000
# 3 -0.003544 0.000041 0.006787 0.000000 0.000000 0.000000
# 4 0.000000 0.000000 0.000000 0.005452 0.000000 0.000000
# 5 0.000000 0.000000 0.000000 0.000000 -4.354603 0.000000
# 6 0.000000 0.000000 0.000000 0.000000 0.000000 0.103236
#
#
# Mechanical properties :
#
#
# Convention : Reuss Voigt Hill
#
# Bulk Modulus (GPa) = 34.15690 54.82913 44.49302
# Shear Modulus (GPa) = -1.19192 58.90145 28.85477
#
# Velocity S-wave (km/s) = -0.75155 5.28324 3.69782
# Velocity P-wave (km/s) = 3.92853 7.94982 6.27029
#
# Compressibility (1/GPa) = 0.02927666
#
# Stress axis : x y z
#
# Youngs Moduli (GPa) = 105.75318 52.59496 147.33772
#
# Poissons Ratio (x) = -0.02702 0.52219
# Poissons Ratio (y) = -0.05434 -0.00597
# Poissons Ratio (z) = 0.37481 -0.00213
#
# Static dielectric constant tensor:
#      x y z
#    x 1.857430 0.000000 0.000000 
#    y 0.000000 1.829730 0.000000 
#    z 0.000000 0.000000 1.787090 
# 
# From -- ./inp_files/30371.got.cif
#   From: 2010.05.17/outbox.cif.g08.bks.cpg/sg47_16_cif.got.tgz:30371.got - 2010.06.03 20:15:42.
