data_PCOD9384099
_publ_section_title
;
Structure prediction by ZEFSAII (Michael W. Deem and Ramdas Pophale) SiO2 
 PCOD9384099
Probable space group: P M M M
;
_chemical_formula_sum "Si O2"
_cell_formula_units_Z 64
_cell_length_a 29.497745
_cell_length_b 7.533112
_cell_length_c 14.675255
_cell_angle_alpha 90.000000
_cell_angle_beta 90.000000
_cell_angle_gamma 90.000000
_cell_volume 3260.985726
_symmetry_space_group_name_H-M "P M M M"
_symmetry_group_IT_number 47
_symmetry_cell_setting 'orthorhombic'
loop_
_space_group_symop_operation_xyz
x,y,z
-x,-y,z
x,-y,-z
-x,y,-z
-x,-y,-z
x,y,-z
-x,y,z
x,-y,z
loop_
_atom_site_type_symbol
_atom_site_label
_atom_site_fract_x
_atom_site_fract_y
_atom_site_fract_z
Si Si1 0.949195 0.216306 0.394653
Si Si2 0.775446 0.793680 0.776042
Si Si3 0.634890 0.288351 0.275927
Si Si4 0.310874 0.291439 0.103429
Si Si5 0.049505 0.783828 0.104237
Si Si6 0.122935 0.782383 0.247312
Si Si7 0.717339 0.284757 0.397200
Si Si8 0.448249 0.786931 0.398317
O O1 0.944377 0.267544 0.500000
O O2 0.906274 0.274648 0.335235
O O3 0.000000 0.271815 0.363793
O O4 0.949534 0.000000 0.390662
O O5 0.738300 0.720624 0.847204
O O6 0.826092 0.718284 0.769194
O O7 0.754472 0.774614 0.675391
O O8 0.779251 0.000000 0.800097
O O9 0.640675 0.500000 0.270483
O O10 0.652922 0.217880 0.178160
O O11 0.669770 0.224119 0.353702
O O12 0.585158 0.257506 0.315731
O O13 0.320860 0.500000 0.094642
O O14 0.311210 0.217446 0.000000
O O15 0.091184 0.726696 0.164146
O O16 0.000000 0.728218 0.138950
O O17 0.049558 0.000000 0.105712
O O18 0.053589 0.728234 0.000000
O O19 0.125037 0.000000 0.250993
O O20 0.723861 0.222185 0.500000
O O21 0.717586 0.500000 0.398505
O O22 0.432980 0.724288 0.500000
O O23 0.500000 0.724533 0.384777
O O24 0.449504 0.000000 0.402480
#
# Coordination Sequence:
#
# PCOD9384099 Si02
#       8
#     8   8   8   8   8   8   8   8
#     4   8  13  21  33  48  69 105 150 183 208 252
#     4  10  20  30  43  69  99 122 148 187 236 287
#     4   9  17  30  50  74  93 114 156 207 243 271
#     4   9  19  37  56  69  88 123 163 202 243 286
#     4   8  13  21  33  48  68 100 139 170 202 256
#     4   9  16  24  34  52  82 114 138 169 219 272
#     4   9  18  33  50  66  90 126 163 197 232 273
#     4   9  18  31  46  69 105 143 168 186 220 275
#
# _framework density 19.625966999999999
#
# number of rings (size 3 to 8) (size 9 to 14) (size 15 to 20)
#    0.000    3.125    0.000    3.000    0.000    6.000 
#    0.000    3.125    0.000    0.375    0.000    2.625 
#    0.000    8.000    0.000   22.000    0.000   18.000 
#
# Total GULP energy -356573.523125 kJ/mol
# GULP energy per Si atom -5571.461299 kJ/mol
# Density = 1.958130 g / cm^3
# Si number density = 19.625967 Si / 1000 Ang^3
#
#
#
# Elastic Constant Matrix: (Units=GPa)
#
#
# Indices 1 2 3 4 5 6 
#
# 1 147.3941 -2.2026 89.8403 0.0000 0.0000 0.0000
# 2 -2.2026 44.4612 0.9688 0.0000 0.0000 0.0000
# 3 89.8403 0.9688 156.5575 0.0000 0.0000 0.0000
# 4 0.0000 0.0000 0.0000 5.1284 0.0000 0.0000
# 5 0.0000 0.0000 0.0000 0.0000 26.0752 0.0000
# 6 0.0000 0.0000 0.0000 0.0000 0.0000 19.0997
#
#
#
# Elastic Compliance Matrix: (Units=1/GPa)
#
#
# Indices 1 2 3 4 5 6 
#
# 1 0.010453 0.000649 -0.006002 0.000000 0.000000 0.000000
# 2 0.000649 0.022535 -0.000512 0.000000 0.000000 0.000000
# 3 -0.006002 -0.000512 0.009835 0.000000 0.000000 0.000000
# 4 0.000000 0.000000 0.000000 0.194994 0.000000 0.000000
# 5 0.000000 0.000000 0.000000 0.000000 0.038351 0.000000
# 6 0.000000 0.000000 0.000000 0.000000 0.000000 0.052357
#
#
# Mechanical properties :
#
#
# Convention : Reuss Voigt Hill
#
# Bulk Modulus (GPa) = 32.16275 58.40285 45.28280
# Shear Modulus (GPa) = 14.26052 27.38109 20.82081
#
# Velocity S-wave (km/s) = 2.69850 3.73922 3.26065
# Velocity P-wave (km/s) = 5.11201 6.96167 6.10727
#
# Compressibility (1/GPa) = 0.03109187
#
# Stress axis : x y z
#
# Youngs Moduli (GPa) = 95.66816 44.37584 101.67735
#
# Poissons Ratio (x) = -0.02878 0.61030
# Poissons Ratio (y) = -0.06205 0.05202
# Poissons Ratio (z) = 0.57423 0.02270
#
# Static dielectric constant tensor:
#      x y z
#    x 1.688680 0.000000 0.000000 
#    y 0.000000 1.781890 0.000000 
#    z 0.000000 0.000000 1.694990 
# 
# From -- ./inp_files/25855.got.cif
#   From: 2010.05.17/outbox.cif.g08.bks.cpg/sg47_13_cif.got.tgz:25855.got - 2010.06.03 20:15:42.
