data_PCOD9384504
_publ_section_title
;
Structure prediction by ZEFSAII (Michael W. Deem and Ramdas Pophale) SiO2 
 PCOD9384504
Probable space group: P M M M
;
_chemical_formula_sum "Si O2"
_cell_formula_units_Z 52
_cell_length_a 7.834287
_cell_length_b 15.100557
_cell_length_c 25.508001
_cell_angle_alpha 90.000000
_cell_angle_beta 90.000000
_cell_angle_gamma 90.000000
_cell_volume 3017.650019
_symmetry_space_group_name_H-M "P M M M"
_symmetry_group_IT_number 47
_symmetry_cell_setting 'orthorhombic'
loop_
_space_group_symop_operation_xyz
x,y,z
-x,-y,z
x,-y,-z
-x,y,-z
-x,-y,-z
x,y,-z
-x,y,z
x,-y,z
loop_
_atom_site_type_symbol
_atom_site_label
_atom_site_fract_x
_atom_site_fract_y
_atom_site_fract_z
Si Si1 0.301350 0.902437 0.292744
Si Si2 0.292329 0.500000 0.059033
Si Si3 0.295058 0.403136 0.842262
Si Si4 0.801833 0.902056 0.410498
Si Si5 0.800707 0.725235 0.754066
Si Si6 0.208882 0.288692 0.442340
Si Si7 0.209091 0.601636 0.659366
O O1 0.500000 0.904170 0.307311
O O2 0.204375 0.888326 0.347570
O O3 0.275702 0.822168 0.253187
O O4 0.253705 0.000000 0.272170
O O5 0.500000 0.500000 0.056590
O O6 0.244790 0.582939 0.096683
O O7 0.226875 0.500000 0.000000
O O8 0.500000 0.397119 0.840280
O O9 0.245892 0.500000 0.818341
O O10 0.223132 0.323014 0.809347
O O11 0.728979 0.812516 0.434956
O O12 0.000000 0.905921 0.426779
O O13 0.726808 0.000000 0.421449
O O14 0.731565 0.659444 0.708974
O O15 0.000000 0.735940 0.743789
O O16 0.257281 0.321477 0.500000
O O17 0.263336 0.349655 0.394038
O O18 0.000000 0.286245 0.440178
O O19 0.265383 0.500000 0.662002
O O20 0.000000 0.600885 0.660161
#
# Coordination Sequence:
#
# PCOD9384504 Si02
#       7
#     8   4   8   8   8   8   8
#     4  10  20  32  47  66  87 113 146 185 233 287
#     4   7  12  26  47  69  99 139 174 201 228 258
#     4   8  16  28  44  69  99 130 165 199 226 258
#     4   9  16  28  45  64  85 106 134 175 228 288
#     4  11  19  29  46  66  93 123 153 191 233 281
#     4   9  16  26  40  60  84 108 140 181 226 277
#     4   9  17  27  39  59  85 113 144 180 225 269
#
# _framework density 17.231952
#
# number of rings (size 3 to 8) (size 9 to 14) (size 15 to 20)
#    0.462    2.385    1.538    1.385    0.000    2.462 
#    0.000    3.077    0.000    1.385    0.000    2.154 
#    0.000    1.846    0.000    7.077    0.000    2.000 
#
# Total GULP energy -289543.570001 kJ/mol
# GULP energy per Si atom -5568.145577 kJ/mol
# Density = 1.719273 g / cm^3
# Si number density = 17.231952 Si / 1000 Ang^3
#
#
#
# Elastic Constant Matrix: (Units=GPa)
#
#
# Indices 1 2 3 4 5 6 
#
# 1 22.4448 6.8901 0.1790 0.0000 0.0000 0.0000
# 2 6.8901 107.4447 51.9372 0.0000 0.0000 0.0000
# 3 0.1790 51.9372 99.2949 0.0000 0.0000 0.0000
# 4 0.0000 0.0000 0.0000 15.3963 0.0000 0.0000
# 5 0.0000 0.0000 0.0000 0.0000 13.4482 0.0000
# 6 0.0000 0.0000 0.0000 0.0000 0.0000 10.4578
#
#
#
# Elastic Compliance Matrix: (Units=1/GPa)
#
#
# Indices 1 2 3 4 5 6 
#
# 1 0.045727 -0.003871 0.001942 0.000000 0.000000 0.000000
# 2 -0.003871 0.012784 -0.006680 0.000000 0.000000 0.000000
# 3 0.001942 -0.006680 0.013562 0.000000 0.000000 0.000000
# 4 0.000000 0.000000 0.000000 0.064951 0.000000 0.000000
# 5 0.000000 0.000000 0.000000 0.000000 0.074359 0.000000
# 6 0.000000 0.000000 0.000000 0.000000 0.000000 0.095622
#
#
# Mechanical properties :
#
#
# Convention : Reuss Voigt Hill
#
# Bulk Modulus (GPa) = 18.22989 38.57745 28.40367
# Shear Modulus (GPa) = 14.59822 19.20567 16.90194
#
# Velocity S-wave (km/s) = 2.91376 3.34209 3.13525
# Velocity P-wave (km/s) = 4.68210 6.10971 5.44291
#
# Compressibility (1/GPa) = 0.05485495
#
# Stress axis : x y z
#
# Youngs Moduli (GPa) = 21.86909 78.22040 73.73778
#
# Poissons Ratio (x) = 0.30281 -0.14323
# Poissons Ratio (y) = 0.08466 0.49257
# Poissons Ratio (z) = -0.04248 0.52251
#
# Static dielectric constant tensor:
#      x y z
#    x 1.647510 0.000000 0.000000 
#    y 0.000000 1.603100 0.000000 
#    z 0.000000 0.000000 1.573450 
# 
# From -- ./inp_files/31971.got.cif
#   From: 2010.05.17/outbox.cif.g08.bks.cpg/sg47_16_cif.got.tgz:31971.got - 2010.06.03 20:15:42.
