data_PCOD9384588
_publ_section_title
;
Structure prediction by ZEFSAII (Michael W. Deem and Ramdas Pophale) SiO2 
 PCOD9384588
Probable space group: P M M M
;
_chemical_formula_sum "Si O2"
_cell_formula_units_Z 40
_cell_length_a 9.443094
_cell_length_b 7.628797
_cell_length_c 27.087077
_cell_angle_alpha 90.000000
_cell_angle_beta 90.000000
_cell_angle_gamma 90.000000
_cell_volume 1951.338053
_symmetry_space_group_name_H-M "P M M M"
_symmetry_group_IT_number 47
_symmetry_cell_setting 'orthorhombic'
loop_
_space_group_symop_operation_xyz
x,y,z
-x,-y,z
x,-y,-z
-x,y,-z
-x,-y,-z
x,y,-z
-x,y,z
x,-y,z
loop_
_atom_site_type_symbol
_atom_site_label
_atom_site_fract_x
_atom_site_fract_y
_atom_site_fract_z
Si Si1 0.172309 0.296411 0.000000
Si Si2 0.835676 0.284979 0.892260
Si Si3 0.661788 0.208835 0.392584
Si Si4 0.661528 0.708340 0.500000
Si Si5 0.339372 0.710920 0.202374
Si Si6 0.839665 0.789377 0.299857
O O1 0.213315 0.222555 0.053409
O O2 0.217652 0.500000 0.000000
O O3 0.000000 0.295069 0.000000
O O4 0.834075 0.500000 0.893549
O O5 0.739582 0.225886 0.846987
O O6 0.000000 0.234584 0.884695
O O7 0.500000 0.279675 0.391127
O O8 0.723971 0.238495 0.447315
O O9 0.756694 0.278593 0.348038
O O10 0.651537 0.000000 0.386056
O O11 0.654181 0.500000 0.500000
O O12 0.500000 0.781859 0.500000
O O13 0.500000 0.777046 0.206525
O O14 0.345553 0.500000 0.198654
O O15 0.248810 0.752475 0.250717
O O16 0.000000 0.721629 0.296346
O O17 0.847997 0.000000 0.304646
#
# Coordination Sequence:
#
# PCOD9384588 Si02
#       6
#     4   8   8   4   8   8
#     4   7  10  18  35  59  86 119 158 195 232 278
#     4   8  13  23  40  62  90 124 160 197 237 282
#     4   9  17  31  51  72  95 125 159 194 234 280
#     4   9  17  29  48  75 102 126 156 193 230 273
#     4  10  20  32  47  70  99 129 161 198 243 294
#     4  10  21  36  53  73  96 125 164 206 246 289
#
# _framework density 20.498754999999999
#
# number of rings (size 3 to 8) (size 9 to 14) (size 15 to 20)
#    0.000    3.000    0.000    2.700    0.000    4.400 
#    0.000    3.000    0.000    6.000    0.000    0.700 
#    0.000    5.600    0.000    0.000    0.000    0.000 
#
# Total GULP energy -223033.925609 kJ/mol
# GULP energy per Si atom -5575.848140 kJ/mol
# Density = 2.045210 g / cm^3
# Si number density = 20.498755 Si / 1000 Ang^3
#
#
#
# Elastic Constant Matrix: (Units=GPa)
#
#
# Indices 1 2 3 4 5 6 
#
# 1 129.4572 6.5663 116.3128 0.0000 0.0000 0.0000
# 2 6.5663 40.8874 1.0564 0.0000 0.0000 0.0000
# 3 116.3128 1.0564 247.5663 0.0000 0.0000 0.0000
# 4 0.0000 0.0000 0.0000 23.5902 0.0000 0.0000
# 5 0.0000 0.0000 0.0000 0.0000 31.1476 0.0000
# 6 0.0000 0.0000 0.0000 0.0000 0.0000 8.6946
#
#
#
# Elastic Compliance Matrix: (Units=1/GPa)
#
#
# Indices 1 2 3 4 5 6 
#
# 1 0.013530 -0.002009 -0.006348 0.000000 0.000000 0.000000
# 2 -0.002009 0.024758 0.000838 0.000000 0.000000 0.000000
# 3 -0.006348 0.000838 0.007018 0.000000 0.000000 0.000000
# 4 0.000000 0.000000 0.000000 0.042390 0.000000 0.000000
# 5 0.000000 0.000000 0.000000 0.000000 0.032105 0.000000
# 6 0.000000 0.000000 0.000000 0.000000 0.000000 0.115013
#
#
# Mechanical properties :
#
#
# Convention : Reuss Voigt Hill
#
# Bulk Modulus (GPa) = 33.03711 73.97574 53.50643
# Shear Modulus (GPa) = 19.23498 32.28487 25.75993
#
# Velocity S-wave (km/s) = 3.06657 3.97289 3.54878
# Velocity P-wave (km/s) = 5.35631 7.56382 6.55368
#
# Compressibility (1/GPa) = 0.03026899
#
# Stress axis : x y z
#
# Youngs Moduli (GPa) = 73.90936 40.39038 142.48494
#
# Poissons Ratio (x) = 0.08114 0.90452
# Poissons Ratio (y) = 0.14847 -0.11942
# Poissons Ratio (z) = 0.46919 -0.03385
#
# Static dielectric constant tensor:
#      x y z
#    x 1.718780 0.000000 0.000000 
#    y 0.000000 1.784830 0.000000 
#    z 0.000000 0.000000 1.738500 
# 
# From -- ./inp_files/13067.got.cif
#   From: 2010.05.17/outbox.cif.g08.bks.cpg/sg47_7_cif.got.tgz:13067.got - 2010.06.03 20:15:42.
