data_PCOD9384681
_publ_section_title
;
Structure prediction by ZEFSAII (Michael W. Deem and Ramdas Pophale) SiO2 
 PCOD9384681
Probable space group: P M M M
;
_chemical_formula_sum "Si O2"
_cell_formula_units_Z 48
_cell_length_a 9.448793
_cell_length_b 31.883397
_cell_length_c 7.331253
_cell_angle_alpha 90.000000
_cell_angle_beta 90.000000
_cell_angle_gamma 90.000000
_cell_volume 2208.610481
_symmetry_space_group_name_H-M "P M M M"
_symmetry_group_IT_number 47
_symmetry_cell_setting 'orthorhombic'
loop_
_space_group_symop_operation_xyz
x,y,z
-x,-y,z
x,-y,-z
-x,y,-z
-x,-y,-z
x,y,-z
-x,y,z
x,-y,z
loop_
_atom_site_type_symbol
_atom_site_label
_atom_site_fract_x
_atom_site_fract_y
_atom_site_fract_z
Si Si1 0.163281 0.452863 0.777995
Si Si2 0.339529 0.790030 0.217204
Si Si3 0.840096 0.873490 0.718328
Si Si4 0.662541 0.627694 0.777410
Si Si5 0.163101 0.709652 0.777186
Si Si6 0.336811 0.952792 0.722175
O O1 0.203627 0.500000 0.720780
O O2 0.264756 0.415592 0.717825
O O3 0.000000 0.445307 0.724271
O O4 0.164894 0.452726 0.000000
O O5 0.500000 0.791465 0.288806
O O6 0.256468 0.833170 0.246456
O O7 0.248463 0.750651 0.285194
O O8 0.349895 0.784248 0.000000
O O9 0.848726 0.877558 0.500000
O O10 0.764539 0.915758 0.786119
O O11 0.000000 0.868052 0.787434
O O12 0.500000 0.631231 0.719489
O O13 0.755444 0.667582 0.721172
O O14 0.662577 0.627559 0.000000
O O15 0.000000 0.710224 0.718861
O O16 0.161935 0.709935 0.000000
O O17 0.335268 0.952494 0.500000
O O18 0.500000 0.945224 0.776194
O O19 0.296577 0.000000 0.778368
#
# Coordination Sequence:
#
# PCOD9384681 Si02
#       6
#     8   8   8   8   8   8
#     4   8  13  20  28  38  55  82 117 157 202 251
#     4  10  20  33  49  68  90 118 153 191 230 271
#     4  10  20  32  48  72  99 125 153 185 223 268
#     4   9  15  21  30  45  65  89 121 163 207 251
#     4   9  16  26  40  56  75 101 134 173 216 260
#     4   8  14  26  45  68  93 121 152 185 221 261
#
# _framework density 21.733122000000002
#
# number of rings (size 3 to 8) (size 9 to 14) (size 15 to 20)
#    0.000    3.000    0.000    3.000    0.000    6.667 
#    0.000    3.333    0.000    0.500    0.000    3.500 
#    0.000    0.000    0.000    0.000    0.000    0.833 
#
# Total GULP energy -268149.543844 kJ/mol
# GULP energy per Si atom -5586.448830 kJ/mol
# Density = 2.168366 g / cm^3
# Si number density = 21.733122 Si / 1000 Ang^3
#
#
#
# Elastic Constant Matrix: (Units=GPa)
#
#
# Indices 1 2 3 4 5 6 
#
# 1 233.2630 166.5961 7.7824 0.0000 0.0000 0.0000
# 2 166.5961 226.9370 3.1453 0.0000 0.0000 0.0000
# 3 7.7824 3.1453 85.2441 0.0000 0.0000 0.0000
# 4 0.0000 0.0000 0.0000 8.3973 0.0000 0.0000
# 5 0.0000 0.0000 0.0000 0.0000 -4.0305 0.0000
# 6 0.0000 0.0000 0.0000 0.0000 0.0000 47.5493
#
#
#
# Elastic Compliance Matrix: (Units=1/GPa)
#
#
# Indices 1 2 3 4 5 6 
#
# 1 0.009041 -0.006629 -0.000581 0.000000 0.000000 0.000000
# 2 -0.006629 0.009269 0.000263 0.000000 0.000000 0.000000
# 3 -0.000581 0.000263 0.011774 0.000000 0.000000 0.000000
# 4 0.000000 0.000000 0.000000 0.119086 0.000000 0.000000
# 5 0.000000 0.000000 0.000000 0.000000 -0.248108 0.000000
# 6 0.000000 0.000000 0.000000 0.000000 0.000000 0.021031
#
#
# Mechanical properties :
#
#
# Convention : Reuss Voigt Hill
#
# Bulk Modulus (GPa) = 61.76154 100.05464 80.90809
# Shear Modulus (GPa) = -85.29911 34.91124 -25.19394
#
# Velocity S-wave (km/s) = -6.27165 4.01229 -3.40846
# Velocity P-wave (km/s) = 4.89541 8.22207 4.67105
#
# Compressibility (1/GPa) = 0.01619131
#
# Stress axis : x y z
#
# Youngs Moduli (GPa) = 110.61196 107.88582 84.93056
#
# Poissons Ratio (x) = 0.71515 0.04933
# Poissons Ratio (y) = 0.73322 -0.02235
# Poissons Ratio (z) = 0.06424 -0.02839
#
# Static dielectric constant tensor:
#      x y z
#    x 1.700850 0.000000 0.000000 
#    y 0.000000 1.738850 0.000000 
#    z 0.000000 0.000000 1.942590 
# 
# From -- ./inp_files/2491.got.cif
#   From: 2010.05.17/outbox.cif.g08.bks.cpg/sg47_2_cif.got.tgz:2491.got - 2010.06.03 20:15:42.
