data_PCOD9384226
_publ_section_title
;
Structure prediction by ZEFSAII (Michael W. Deem and Ramdas Pophale) SiO2 
 PCOD9384226
Probable space group: P M M M
;
_chemical_formula_sum "Si O2"
_cell_formula_units_Z 52
_cell_length_a 12.700789
_cell_length_b 9.145116
_cell_length_c 28.210461
_cell_angle_alpha 90.000000
_cell_angle_beta 90.000000
_cell_angle_gamma 90.000000
_cell_volume 3276.650368
_symmetry_space_group_name_H-M "P M M M"
_symmetry_group_IT_number 47
_symmetry_cell_setting 'orthorhombic'
loop_
_space_group_symop_operation_xyz
x,y,z
-x,-y,z
x,-y,-z
-x,y,-z
-x,-y,-z
x,y,-z
-x,y,z
x,-y,z
loop_
_atom_site_type_symbol
_atom_site_label
_atom_site_fract_x
_atom_site_fract_y
_atom_site_fract_z
Si Si1 0.127742 0.330044 0.947268
Si Si2 0.716839 0.674087 0.331613
Si Si3 0.125428 0.173199 0.148738
Si Si4 0.500000 0.167951 0.217602
Si Si5 0.500000 0.168513 0.332688
Si Si6 0.872231 0.668337 0.500000
Si Si7 0.715969 0.326431 0.218672
Si Si8 0.125755 0.826252 0.597570
O O1 0.157622 0.500000 0.940155
O O2 0.160271 0.232900 0.902807
O O3 0.000000 0.326013 0.948087
O O4 0.163288 0.283700 0.000000
O O5 0.714756 0.500000 0.339658
O O6 0.605990 0.746771 0.346577
O O7 0.729880 0.698605 0.275111
O O8 0.809786 0.749516 0.360753
O O9 0.190016 0.255995 0.189030
O O10 0.000000 0.200839 0.153472
O O11 0.142496 0.000000 0.151949
O O12 0.500000 0.166733 0.275155
O O13 0.606135 0.251637 0.203620
O O14 0.500000 0.000000 0.201370
O O15 0.500000 0.000000 0.348871
O O16 0.835920 0.500000 0.500000
O O17 0.841526 0.753292 0.452339
O O18 0.000000 0.666014 0.500000
O O19 0.710915 0.500000 0.211052
O O20 0.000000 0.803920 0.603392
O O21 0.144987 0.000000 0.596782
#
# Coordination Sequence:
#
# PCOD9384226 Si02
#       8
#     8   8   8   4   4   4   8   8
#     4   8  14  26  44  64  87 118 156 195 234 279
#     4  10  20  33  50  72  97 126 161 199 237 280
#     4  10  20  31  44  66  97 130 161 195 238 285
#     4   9  17  31  51  71  91 117 155 201 241 278
#     4   9  17  31  51  72  94 122 156 195 239 282
#     4   9  17  31  51  72  95 124 159 199 238 277
#     4  10  20  33  49  69  95 127 162 198 236 281
#     4  10  20  33  50  73 100 129 161 197 238 283
#
# _framework density 15.869865000000001
#
# number of rings (size 3 to 8) (size 9 to 14) (size 15 to 20)
#    0.000    2.538    0.000    3.000    0.000    7.385 
#    0.000    4.615    0.000    0.462    0.000    3.769 
#    0.000    4.308    0.000    0.000    0.000    0.000 
#
# Total GULP energy -289847.176185 kJ/mol
# GULP energy per Si atom -5573.984157 kJ/mol
# Density = 1.583374 g / cm^3
# Si number density = 15.869865 Si / 1000 Ang^3
#
#
#
# Elastic Constant Matrix: (Units=GPa)
#
#
# Indices 1 2 3 4 5 6 
#
# 1 67.2444 69.6880 54.3476 0.0000 0.0000 0.0000
# 2 69.6880 131.0771 79.1395 0.0000 0.0000 0.0000
# 3 54.3476 79.1395 84.2490 0.0000 0.0000 0.0000
# 4 0.0000 0.0000 0.0000 26.9004 0.0000 0.0000
# 5 0.0000 0.0000 0.0000 0.0000 -3.8207 0.0000
# 6 0.0000 0.0000 0.0000 0.0000 0.0000 28.2548
#
#
#
# Elastic Compliance Matrix: (Units=1/GPa)
#
#
# Indices 1 2 3 4 5 6 
#
# 1 0.038367 -0.012602 -0.012912 0.000000 0.000000 0.000000
# 2 -0.012602 0.021765 -0.012315 0.000000 0.000000 0.000000
# 3 -0.012912 -0.012315 0.031767 0.000000 0.000000 0.000000
# 4 0.000000 0.000000 0.000000 0.037174 0.000000 0.000000
# 5 0.000000 0.000000 0.000000 0.000000 -0.261735 0.000000
# 6 0.000000 0.000000 0.000000 0.000000 0.000000 0.035392
#
#
# Mechanical properties :
#
#
# Convention : Reuss Voigt Hill
#
# Bulk Modulus (GPa) = 61.57628 76.54674 69.06151
# Shear Modulus (GPa) = -308.68134 15.55992 -146.56071
#
# Velocity S-wave (km/s) = -13.96174 3.13464 -9.62040
# Velocity P-wave (km/s) = 14.86680 7.83837 8.93257
#
# Compressibility (1/GPa) = 0.01624002
#
# Stress axis : x y z
#
# Youngs Moduli (GPa) = 26.06417 45.94618 31.47927
#
# Poissons Ratio (x) = 0.57903 0.40645
# Poissons Ratio (y) = 0.32847 0.38767
# Poissons Ratio (z) = 0.33653 0.56583
#
# Static dielectric constant tensor:
#      x y z
#    x 1.510510 0.000000 0.000000 
#    y 0.000000 1.528210 0.000000 
#    z 0.000000 0.000000 1.523420 
# 
# From -- ./inp_files/33669.got.cif
#   From: 2010.05.17/outbox.cif.g08.bks.cpg/sg47_17_cif.got.tgz:33669.got - 2010.06.03 20:15:42.
