data_PCOD9384194
_publ_section_title
;
Structure prediction by ZEFSAII (Michael W. Deem and Ramdas Pophale) SiO2 
 PCOD9384194
Probable space group: P M M M
;
_chemical_formula_sum "Si O2"
_cell_formula_units_Z 60
_cell_length_a 9.036793
_cell_length_b 16.783987
_cell_length_c 24.217390
_cell_angle_alpha 90.000000
_cell_angle_beta 90.000000
_cell_angle_gamma 90.000000
_cell_volume 3673.134274
_symmetry_space_group_name_H-M "P M M M"
_symmetry_group_IT_number 47
_symmetry_cell_setting 'orthorhombic'
loop_
_space_group_symop_operation_xyz
x,y,z
-x,-y,z
x,-y,-z
-x,y,-z
-x,-y,-z
x,y,-z
-x,y,z
x,-y,z
loop_
_atom_site_type_symbol
_atom_site_label
_atom_site_fract_x
_atom_site_fract_y
_atom_site_fract_z
Si Si1 0.821335 0.735395 0.673926
Si Si2 0.322211 0.088199 0.127665
Si Si3 0.667216 0.500000 0.433048
Si Si4 0.822209 0.665628 0.563077
Si Si5 0.321573 0.752089 0.935821
Si Si6 0.323400 0.410026 0.261047
Si Si7 0.169980 0.165868 0.772665
Si Si8 0.170331 0.665387 0.838872
O O1 0.784210 0.731147 0.609231
O O2 0.752013 0.656456 0.700993
O O3 0.775065 0.810633 0.711445
O O4 0.000000 0.730883 0.679610
O O5 0.500000 0.088540 0.128212
O O6 0.276342 0.160563 0.087538
O O7 0.264427 0.108218 0.188963
O O8 0.271846 0.000000 0.110468
O O9 0.500000 0.500000 0.410786
O O10 0.659955 0.500000 0.500000
O O11 0.751191 0.418623 0.419299
O O12 0.776010 0.683554 0.500000
O O13 0.000000 0.656236 0.563009
O O14 0.500000 0.746227 0.930227
O O15 0.245246 0.686880 0.896855
O O16 0.283514 0.744432 0.000000
O O17 0.500000 0.399659 0.261703
O O18 0.287907 0.500000 0.278832
O O19 0.261911 0.394550 0.199383
O O20 0.171268 0.250865 0.804869
O O21 0.000000 0.138064 0.770107
O O22 0.000000 0.640467 0.844705
#
# Coordination Sequence:
#
# PCOD9384194 Si02
#       8
#     8   8   4   8   8   8   8   8
#     4   9  18  30  44  62  84 112 145 182 218 258
#     4   9  17  28  43  65  92 119 145 172 203 243
#     4   9  17  27  37  51  75 107 141 177 214 251
#     4   9  17  29  43  58  79 111 148 181 217 261
#     4   9  17  29  46  67  91 120 149 174 203 243
#     4  10  20  31  44  64  86 108 139 181 226 268
#     4   8  15  28  43  60  82 109 142 175 212 254
#     4   9  17  30  47  64  84 112 144 179 218 258
#
# _framework density 16.334821999999999
#
# number of rings (size 3 to 8) (size 9 to 14) (size 15 to 20)
#    0.000    3.000    0.000    1.800    0.933    6.400 
#    0.000    1.333    0.000    0.400    0.000    6.533 
#    0.000    0.533    0.000    6.667    0.000    1.067 
#
# Total GULP energy -334073.470213 kJ/mol
# GULP energy per Si atom -5567.891170 kJ/mol
# Density = 1.629764 g / cm^3
# Si number density = 16.334822 Si / 1000 Ang^3
#
#
#
# Elastic Constant Matrix: (Units=GPa)
#
#
# Indices 1 2 3 4 5 6 
#
# 1 12.6241 1.7125 12.2857 0.0000 0.0000 0.0000
# 2 1.7125 7.6979 3.6106 0.0000 0.0000 0.0000
# 3 12.2857 3.6106 101.6968 0.0000 0.0000 0.0000
# 4 0.0000 0.0000 0.0000 16.7013 0.0000 0.0000
# 5 0.0000 0.0000 0.0000 0.0000 17.6279 0.0000
# 6 0.0000 0.0000 0.0000 0.0000 0.0000 14.6681
#
#
#
# Elastic Compliance Matrix: (Units=1/GPa)
#
#
# Indices 1 2 3 4 5 6 
#
# 1 0.091535 -0.015433 -0.010510 0.000000 0.000000 0.000000
# 2 -0.015433 0.134707 -0.002918 0.000000 0.000000 0.000000
# 3 -0.010510 -0.002918 0.011206 0.000000 0.000000 0.000000
# 4 0.000000 0.000000 0.000000 0.059876 0.000000 0.000000
# 5 0.000000 0.000000 0.000000 0.000000 0.056728 0.000000
# 6 0.000000 0.000000 0.000000 0.000000 0.000000 0.068175
#
#
# Mechanical properties :
#
#
# Convention : Reuss Voigt Hill
#
# Bulk Modulus (GPa) = 5.56401 17.47070 11.51736
# Shear Modulus (GPa) = 9.26165 16.76011 13.01088
#
# Velocity S-wave (km/s) = 2.38374 3.20665 2.82532
# Velocity P-wave (km/s) = 3.31510 4.94255 4.20824
#
# Compressibility (1/GPa) = 0.17972643
#
# Stress axis : x y z
#
# Youngs Moduli (GPa) = 10.92473 7.42350 89.23423
#
# Poissons Ratio (x) = 0.11457 0.93787
# Poissons Ratio (y) = 0.16860 0.26041
# Poissons Ratio (z) = 0.11482 0.02166
#
# Static dielectric constant tensor:
#      x y z
#    x 1.551150 0.000000 0.000000 
#    y 0.000000 1.535970 0.000000 
#    z 0.000000 0.000000 1.589590 
# 
# From -- ./inp_files/32197.got.cif
#   From: 2010.05.17/outbox.cif.g08.bks.cpg/sg47_17_cif.got.tgz:32197.got - 2010.06.03 20:15:42.
