data_PCOD9384375
_publ_section_title
;
Structure prediction by ZEFSAII (Michael W. Deem and Ramdas Pophale) SiO2 
 PCOD9384375
Probable space group: P M M M
;
_chemical_formula_sum "Si O2"
_cell_formula_units_Z 48
_cell_length_a 9.479102
_cell_length_b 32.915010
_cell_length_c 7.355345
_cell_angle_alpha 90.000000
_cell_angle_beta 90.000000
_cell_angle_gamma 90.000000
_cell_volume 2294.902483
_symmetry_space_group_name_H-M "P M M M"
_symmetry_group_IT_number 47
_symmetry_cell_setting 'orthorhombic'
loop_
_space_group_symop_operation_xyz
x,y,z
-x,-y,z
x,-y,-z
-x,y,-z
-x,-y,-z
x,y,-z
-x,y,z
x,-y,z
loop_
_atom_site_type_symbol
_atom_site_label
_atom_site_fract_x
_atom_site_fract_y
_atom_site_fract_z
Si Si1 0.658872 0.200420 0.715718
Si Si2 0.161452 0.280469 0.781435
Si Si3 0.662733 0.954431 0.278751
Si Si4 0.167575 0.543771 0.220888
Si Si5 0.161870 0.876498 0.722440
Si Si6 0.170956 0.631219 0.784272
O O1 0.647960 0.193861 0.500000
O O2 0.500000 0.201591 0.789173
O O3 0.739825 0.242717 0.739984
O O4 0.750592 0.162687 0.785297
O O5 0.215267 0.324558 0.713663
O O6 0.000000 0.273686 0.717349
O O7 0.154195 0.283606 0.000000
O O8 0.664222 0.954342 0.500000
O O9 0.500000 0.947425 0.224788
O O10 0.762488 0.918017 0.219205
O O11 0.704196 0.000000 0.221535
O O12 0.226247 0.500000 0.282049
O O13 0.223182 0.587515 0.286807
O O14 0.000000 0.543394 0.263227
O O15 0.177092 0.544164 0.000000
O O16 0.162094 0.876392 0.500000
O O17 0.000000 0.874361 0.780005
O O18 0.000000 0.631203 0.765405
O O19 0.201357 0.630832 0.000000
#
# Coordination Sequence:
#
# PCOD9384375 Si02
#       6
#     8   8   8   8   8   8
#     4  10  20  32  45  61  83 112 145 180 217 256
#     4   9  17  29  45  64  86 112 141 174 213 256
#     4   8  13  21  33  50  75 107 138 166 200 245
#     4   7   8  10  19  38  66  99 129 153 182 228
#     4   9  16  25  38  56  78 105 137 173 212 252
#     4   7  10  17  29  47  73 103 131 159 195 240
#
# _framework density 20.915921999999998
#
# number of rings (size 3 to 8) (size 9 to 14) (size 15 to 20)
#    0.000    3.667    0.000    4.000    0.000    3.667 
#    0.000    1.667    0.000    0.000    0.000    0.000 
#    0.000    2.000    0.000   21.833    0.000   23.000 
#
# Total GULP energy -267410.648499 kJ/mol
# GULP energy per Si atom -5571.055177 kJ/mol
# Density = 2.086832 g / cm^3
# Si number density = 20.915922 Si / 1000 Ang^3
#
#
#
# Elastic Constant Matrix: (Units=GPa)
#
#
# Indices 1 2 3 4 5 6 
#
# 1 105.3304 120.7633 5.3334 0.0000 0.0000 0.0000
# 2 120.7633 271.3003 6.1769 0.0000 0.0000 0.0000
# 3 5.3334 6.1769 74.8486 0.0000 0.0000 0.0000
# 4 0.0000 0.0000 0.0000 5.5850 0.0000 0.0000
# 5 0.0000 0.0000 0.0000 0.0000 -0.9394 0.0000
# 6 0.0000 0.0000 0.0000 0.0000 0.0000 -19.1754
#
#
#
# Elastic Compliance Matrix: (Units=1/GPa)
#
#
# Indices 1 2 3 4 5 6 
#
# 1 0.019423 -0.008630 -0.000672 0.000000 0.000000 0.000000
# 2 -0.008630 0.007528 -0.000006 0.000000 0.000000 0.000000
# 3 -0.000672 -0.000006 0.013409 0.000000 0.000000 0.000000
# 4 0.000000 0.000000 0.000000 0.179053 0.000000 0.000000
# 5 0.000000 0.000000 0.000000 0.000000 -1.064550 0.000000
# 6 0.000000 0.000000 0.000000 0.000000 0.000000 -0.052150
#
#
# Mechanical properties :
#
#
# Convention : Reuss Voigt Hill
#
# Bulk Modulus (GPa) = 45.99299 79.55848 62.77574
# Shear Modulus (GPa) = -5.73773 18.37442 6.31834
#
# Velocity S-wave (km/s) = -1.65807 2.96715 1.73994
# Velocity P-wave (km/s) = 4.28621 7.06105 5.84081
#
# Compressibility (1/GPa) = 0.02174244
#
# Stress axis : x y z
#
# Youngs Moduli (GPa) = 51.48593 132.84285 74.57851
#
# Poissons Ratio (x) = 1.14648 0.05010
# Poissons Ratio (y) = 0.44434 0.00047
# Poissons Ratio (z) = 0.03459 0.00083
#
# Static dielectric constant tensor:
#      x y z
#    x 1.693040 0.000000 0.000000 
#    y 0.000000 1.790450 0.000000 
#    z 0.000000 0.000000 1.940890 
# 
# From -- ./inp_files/15615.got.cif
#   From: 2010.05.17/outbox.cif.g08.bks.cpg/sg47_8_cif.got.tgz:15615.got - 2010.06.03 20:15:42.
