data_PCOD9384685
_publ_section_title
;
Structure prediction by ZEFSAII (Michael W. Deem and Ramdas Pophale) SiO2 
 PCOD9384685
Probable space group: P M M M
;
_chemical_formula_sum "Si O2"
_cell_formula_units_Z 52
_cell_length_a 14.744080
_cell_length_b 9.602300
_cell_length_c 16.712136
_cell_angle_alpha 90.000000
_cell_angle_beta 90.000000
_cell_angle_gamma 90.000000
_cell_volume 2366.055405
_symmetry_space_group_name_H-M "P M M M"
_symmetry_group_IT_number 47
_symmetry_cell_setting 'orthorhombic'
loop_
_space_group_symop_operation_xyz
x,y,z
-x,-y,z
x,-y,-z
-x,y,-z
-x,-y,-z
x,y,-z
-x,y,z
x,-y,z
loop_
_atom_site_type_symbol
_atom_site_label
_atom_site_fract_x
_atom_site_fract_y
_atom_site_fract_z
Si Si1 0.641824 0.842502 0.000000
Si Si2 0.389033 0.350617 0.408192
Si Si3 0.136642 0.163428 0.000000
Si Si4 0.856798 0.338665 0.842181
Si Si5 0.106532 0.831076 0.500000
Si Si6 0.359291 0.345370 0.143863
Si Si7 0.393268 0.148764 0.286386
Si Si8 0.890290 0.162452 0.320551
O O1 0.609316 0.759168 0.076279
O O2 0.752509 0.841131 0.000000
O O3 0.611640 0.000000 0.000000
O O4 0.363063 0.350181 0.500000
O O5 0.500000 0.349226 0.405333
O O6 0.360340 0.500000 0.372079
O O7 0.353488 0.211892 0.366906
O O8 0.108908 0.247135 0.918733
O O9 0.107936 0.000000 0.000000
O O10 0.891163 0.500000 0.839601
O O11 0.749496 0.350380 0.858322
O O12 0.867053 0.257836 0.757030
O O13 0.140761 0.789038 0.410385
O O14 0.000000 0.791483 0.500000
O O15 0.111281 0.000000 0.500000
O O16 0.394540 0.500000 0.133953
O O17 0.383662 0.273938 0.225892
O O18 0.500000 0.131228 0.297871
O O19 0.354876 0.000000 0.260265
O O20 0.000000 0.160869 0.323810
O O21 0.861558 0.000000 0.308070
#
# Coordination Sequence:
#
# PCOD9384685 Si02
#       8
#     4   8   4   8   4   8   8   8
#     4   9  17  31  52  75  96 121 158 204 250 293
#     4   8  14  26  45  67  90 119 154 189 230 286
#     4   9  17  31  52  75  98 131 172 208 248 301
#     4  10  20  33  51  76 105 134 167 209 255 300
#     4   7  12  26  49  75 101 131 170 211 246 287
#     4  10  20  34  52  72  97 130 167 200 241 298
#     4  10  20  32  48  72  99 125 158 205 254 294
#     4   9  17  31  53  79 105 136 174 212 251 298
#
# _framework density 21.977506999999999
#
# number of rings (size 3 to 8) (size 9 to 14) (size 15 to 20)
#    0.000    2.846    0.000    3.231    0.000    5.231 
#    0.000    2.692    1.692    6.000    0.000    0.000 
#    0.000    0.000    0.000    0.000    0.000    0.000 
#
# Total GULP energy -289705.406524 kJ/mol
# GULP energy per Si atom -5571.257818 kJ/mol
# Density = 2.192749 g / cm^3
# Si number density = 21.977507 Si / 1000 Ang^3
#
#
#
# Elastic Constant Matrix: (Units=GPa)
#
#
# Indices 1 2 3 4 5 6 
#
# 1 60.3009 5.8854 3.5728 0.0000 0.0000 0.0000
# 2 5.8854 191.6521 94.9878 0.0000 0.0000 0.0000
# 3 3.5728 94.9878 158.6252 0.0000 0.0000 0.0000
# 4 0.0000 0.0000 0.0000 36.6791 0.0000 0.0000
# 5 0.0000 0.0000 0.0000 0.0000 36.5999 0.0000
# 6 0.0000 0.0000 0.0000 0.0000 0.0000 9.8315
#
#
#
# Elastic Compliance Matrix: (Units=1/GPa)
#
#
# Indices 1 2 3 4 5 6 
#
# 1 0.016634 -0.000462 -0.000098 0.000000 0.000000 0.000000
# 2 -0.000462 0.007433 -0.004440 0.000000 0.000000 0.000000
# 3 -0.000098 -0.004440 0.008965 0.000000 0.000000 0.000000
# 4 0.000000 0.000000 0.000000 0.027263 0.000000 0.000000
# 5 0.000000 0.000000 0.000000 0.000000 0.027322 0.000000
# 6 0.000000 0.000000 0.000000 0.000000 0.000000 0.101714
#
#
# Mechanical properties :
#
#
# Convention : Reuss Voigt Hill
#
# Bulk Modulus (GPa) = 43.41904 68.83001 56.12453
# Shear Modulus (GPa) = 24.15327 37.03091 30.59209
#
# Velocity S-wave (km/s) = 3.31871 4.10926 3.73496
# Velocity P-wave (km/s) = 5.87232 7.34174 6.64775
#
# Compressibility (1/GPa) = 0.02303137
#
# Stress axis : x y z
#
# Youngs Moduli (GPa) = 60.11628 134.53868 111.53970
#
# Poissons Ratio (x) = 0.06220 0.01091
# Poissons Ratio (y) = 0.02779 0.49529
# Poissons Ratio (z) = 0.00588 0.59742
#
# Static dielectric constant tensor:
#      x y z
#    x 1.866710 0.000000 0.000000 
#    y 0.000000 1.827490 0.000000 
#    z 0.000000 0.000000 2.166860 
# 
# From -- ./inp_files/25065.got.cif
#   From: 2010.05.17/outbox.cif.g08.bks.cpg/sg47_13_cif.got.tgz:25065.got - 2010.06.03 20:15:42.
