data_PCOD9384208
_publ_section_title
;
Structure prediction by ZEFSAII (Michael W. Deem and Ramdas Pophale) SiO2 
 PCOD9384208
Probable space group: P M M M
;
_chemical_formula_sum "Si O2"
_cell_formula_units_Z 52
_cell_length_a 15.155238
_cell_length_b 9.375692
_cell_length_c 22.753877
_cell_angle_alpha 90.000000
_cell_angle_beta 90.000000
_cell_angle_gamma 90.000000
_cell_volume 3233.117580
_symmetry_space_group_name_H-M "P M M M"
_symmetry_group_IT_number 47
_symmetry_cell_setting 'orthorhombic'
loop_
_space_group_symop_operation_xyz
x,y,z
-x,-y,z
x,-y,-z
-x,y,-z
-x,-y,-z
x,y,-z
-x,y,z
x,-y,z
loop_
_atom_site_type_symbol
_atom_site_label
_atom_site_fract_x
_atom_site_fract_y
_atom_site_fract_z
Si Si1 0.273754 0.331556 0.910415
Si Si2 0.605989 0.832902 0.318521
Si Si3 0.098775 0.164422 0.769335
Si Si4 0.392849 0.334717 0.565747
Si Si5 0.099061 0.164631 0.088057
Si Si6 0.727650 0.667714 0.230389
Si Si7 0.605156 0.830322 0.000000
O O1 0.278288 0.500000 0.923320
O O2 0.179051 0.266458 0.929213
O O3 0.282004 0.312880 0.839994
O O4 0.348856 0.244741 0.944299
O O5 0.500000 0.817355 0.314283
O O6 0.635304 0.763902 0.380491
O O7 0.652965 0.750490 0.265869
O O8 0.627051 0.000000 0.316612
O O9 0.097684 0.165788 0.840658
O O10 0.177886 0.266674 0.751348
O O11 0.000000 0.205662 0.749922
O O12 0.115241 0.000000 0.751773
O O13 0.363825 0.291622 0.500000
O O14 0.500000 0.331395 0.565155
O O15 0.367504 0.500000 0.575486
O O16 0.000000 0.205435 0.068926
O O17 0.115153 0.000000 0.070336
O O18 0.723909 0.500000 0.242695
O O19 0.500000 0.809058 0.000000
O O20 0.622742 0.000000 0.000000
#
# Coordination Sequence:
#
# PCOD9384208 Si02
#       7
#     8   8   8   8   8   8   4
#     4  10  21  36  54  75  97 121 151 192 239 283
#     4  10  20  31  44  65  94 128 164 201 237 274
#     4   8  14  26  45  68  94 124 155 187 226 273
#     4   8  14  26  44  64  88 121 158 194 234 280
#     4   8  14  27  49  75 101 127 151 177 217 273
#     4  10  20  32  48  71  98 127 156 190 235 283
#     4  11  25  43  60  73  86 113 155 200 242 285
#
# _framework density 16.083546999999999
#
# number of rings (size 3 to 8) (size 9 to 14) (size 15 to 20)
#    0.000    2.846    0.000    3.000    0.000    4.923 
#    0.000    8.077    0.000    2.308    0.000    0.000 
#    0.000    0.615    0.000    6.462    0.000    3.385 
#
# Total GULP energy -289813.305435 kJ/mol
# GULP energy per Si atom -5573.332797 kJ/mol
# Density = 1.604694 g / cm^3
# Si number density = 16.083547 Si / 1000 Ang^3
#
#
#
# Elastic Constant Matrix: (Units=GPa)
#
#
# Indices 1 2 3 4 5 6 
#
# 1 83.5129 77.2429 37.0371 0.0000 0.0000 0.0000
# 2 77.2429 126.9206 61.8587 0.0000 0.0000 0.0000
# 3 37.0371 61.8587 70.1638 0.0000 0.0000 0.0000
# 4 0.0000 0.0000 0.0000 20.4229 0.0000 0.0000
# 5 0.0000 0.0000 0.0000 0.0000 -13.1592 0.0000
# 6 0.0000 0.0000 0.0000 0.0000 0.0000 18.5617
#
#
#
# Elastic Compliance Matrix: (Units=1/GPa)
#
#
# Indices 1 2 3 4 5 6 
#
# 1 0.027402 -0.016880 0.000417 0.000000 0.000000 0.000000
# 2 -0.016880 0.024214 -0.012437 0.000000 0.000000 0.000000
# 3 0.000417 -0.012437 0.024997 0.000000 0.000000 0.000000
# 4 0.000000 0.000000 0.000000 0.048965 0.000000 0.000000
# 5 0.000000 0.000000 0.000000 0.000000 -0.075992 0.000000
# 6 0.000000 0.000000 0.000000 0.000000 0.000000 0.053874
#
#
# Mechanical properties :
#
#
# Convention : Reuss Voigt Hill
#
# Bulk Modulus (GPa) = 53.15461 70.31943 61.73702
# Shear Modulus (GPa) = 29.84565 12.12900 20.98733
#
# Velocity S-wave (km/s) = 4.31241 2.74911 3.61625
# Velocity P-wave (km/s) = 7.61030 7.34119 7.47696
#
# Compressibility (1/GPa) = 0.01881304
#
# Stress axis : x y z
#
# Youngs Moduli (GPa) = 36.49420 41.29927 40.00485
#
# Poissons Ratio (x) = 0.69713 -0.01670
# Poissons Ratio (y) = 0.61602 0.49754
# Poissons Ratio (z) = -0.01523 0.51364
#
# Static dielectric constant tensor:
#      x y z
#    x 1.532070 0.000000 0.000000 
#    y 0.000000 1.531820 0.000000 
#    z 0.000000 0.000000 1.549230 
# 
# From -- ./inp_files/32643.got.cif
#   From: 2010.05.17/outbox.cif.g08.bks.cpg/sg47_17_cif.got.tgz:32643.got - 2010.06.03 20:15:42.
