data_PCOD9384433
_publ_section_title
;
Structure prediction by ZEFSAII (Michael W. Deem and Ramdas Pophale) SiO2 
 PCOD9384433
Probable space group: P M M M
;
_chemical_formula_sum "Si O2"
_cell_formula_units_Z 52
_cell_length_a 24.588978
_cell_length_b 14.330102
_cell_length_c 7.489225
_cell_angle_alpha 90.000000
_cell_angle_beta 90.000000
_cell_angle_gamma 90.000000
_cell_volume 2638.922515
_symmetry_space_group_name_H-M "P M M M"
_symmetry_group_IT_number 47
_symmetry_cell_setting 'orthorhombic'
loop_
_space_group_symop_operation_xyz
x,y,z
-x,-y,z
x,-y,-z
-x,y,-z
-x,-y,-z
x,y,-z
-x,y,z
x,-y,z
loop_
_atom_site_type_symbol
_atom_site_label
_atom_site_fract_x
_atom_site_fract_y
_atom_site_fract_z
Si Si1 0.766237 0.104964 0.709570
Si Si2 0.434506 0.500000 0.700778
Si Si3 0.146432 0.746653 0.200756
Si Si4 0.235443 0.392330 0.781444
Si Si5 0.561100 0.706645 0.205744
Si Si6 0.063610 0.896014 0.217784
Si Si7 0.324954 0.758879 0.784007
O O1 0.780316 0.107307 0.500000
O O2 0.806702 0.174680 0.807194
O O3 0.706685 0.148016 0.732182
O O4 0.770170 0.000000 0.775121
O O5 0.500000 0.500000 0.692288
O O6 0.412575 0.500000 0.500000
O O7 0.421714 0.597373 0.792072
O O8 0.179513 0.658817 0.279481
O O9 0.097252 0.806423 0.283885
O O10 0.129473 0.719255 0.000000
O O11 0.239783 0.500000 0.726873
O O12 0.286578 0.327971 0.725128
O O13 0.234571 0.390089 0.000000
O O14 0.500000 0.715100 0.284405
O O15 0.613583 0.756059 0.286428
O O16 0.556561 0.735826 0.000000
O O17 0.000000 0.889528 0.263443
O O18 0.083378 0.000000 0.274780
O O19 0.067543 0.895267 0.000000
O O20 0.327234 0.753459 0.000000
#
# Coordination Sequence:
#
# PCOD9384433 Si02
#       7
#     8   4   8   8   8   8   8
#     4  10  20  32  46  65  90 115 139 177 226 268
#     4   9  17  27  39  59  87 119 151 177 208 255
#     4   9  16  27  45  66  86 115 152 182 213 259
#     4   8  14  24  39  60  85 112 143 178 213 250
#     4   9  17  29  45  65  88 113 145 185 226 266
#     4   8  13  21  36  61  89 113 142 185 228 260
#     4   9  18  30  47  67  85 113 148 180 218 265
#
# _framework density 19.705012
#
# number of rings (size 3 to 8) (size 9 to 14) (size 15 to 20)
#    0.000    3.154    0.000    2.538    1.077    3.385 
#    0.000    0.000    0.000    5.538    0.000    8.615 
#    0.000    0.000    0.000    5.538    0.000    6.769 
#
# Total GULP energy -289587.514080 kJ/mol
# GULP energy per Si atom -5568.990655 kJ/mol
# Density = 1.966016 g / cm^3
# Si number density = 19.705012 Si / 1000 Ang^3
#
#
#
# Elastic Constant Matrix: (Units=GPa)
#
#
# Indices 1 2 3 4 5 6 
#
# 1 77.5106 11.2936 1.3176 0.0000 0.0000 0.0000
# 2 11.2936 68.1673 -0.3442 0.0000 0.0000 0.0000
# 3 1.3176 -0.3442 59.7242 0.0000 0.0000 0.0000
# 4 0.0000 0.0000 0.0000 6.7555 0.0000 0.0000
# 5 0.0000 0.0000 0.0000 0.0000 -14.5049 0.0000
# 6 0.0000 0.0000 0.0000 0.0000 0.0000 18.9446
#
#
#
# Elastic Compliance Matrix: (Units=1/GPa)
#
#
# Indices 1 2 3 4 5 6 
#
# 1 0.013226 -0.002193 -0.000304 0.000000 0.000000 0.000000
# 2 -0.002193 0.015034 0.000135 0.000000 0.000000 0.000000
# 3 -0.000304 0.000135 0.016751 0.000000 0.000000 0.000000
# 4 0.000000 0.000000 0.000000 0.148029 0.000000 0.000000
# 5 0.000000 0.000000 0.000000 0.000000 -0.068942 0.000000
# 6 0.000000 0.000000 0.000000 0.000000 0.000000 0.052785
#
#
# Mechanical properties :
#
#
# Convention : Reuss Voigt Hill
#
# Bulk Modulus (GPa) = 24.82213 25.54846 25.18530
# Shear Modulus (GPa) = 25.63630 15.11471 20.37550
#
# Velocity S-wave (km/s) = 3.61086 2.77257 3.21912
# Velocity P-wave (km/s) = 5.47801 4.82111 5.16003
#
# Compressibility (1/GPa) = 0.04028664
#
# Stress axis : x y z
#
# Youngs Moduli (GPa) = 75.60792 66.51694 59.69752
#
# Poissons Ratio (x) = 0.14586 0.01817
# Poissons Ratio (y) = 0.16579 -0.00806
# Poissons Ratio (z) = 0.02302 -0.00898
#
# Static dielectric constant tensor:
#      x y z
#    x 1.735000 0.000000 0.000000 
#    y 0.000000 1.680390 0.000000 
#    z 0.000000 0.000000 1.765920 
# 
# From -- ./inp_files/12555.got.cif
#   From: 2010.05.17/outbox.cif.g08.bks.cpg/sg47_7_cif.got.tgz:12555.got - 2010.06.03 20:15:42.
