data_PCOD9384964
_publ_section_title
;
Structure prediction by ZEFSAII (Michael W. Deem and Ramdas Pophale) SiO2 
 PCOD9384964
Probable space group: P M M M
;
_chemical_formula_sum "Si O2"
_cell_formula_units_Z 56
_cell_length_a 22.152786
_cell_length_b 8.071183
_cell_length_c 14.509722
_cell_angle_alpha 90.000000
_cell_angle_beta 90.000000
_cell_angle_gamma 90.000000
_cell_volume 2594.326537
_symmetry_space_group_name_H-M "P M M M"
_symmetry_group_IT_number 47
_symmetry_cell_setting 'orthorhombic'
loop_
_space_group_symop_operation_xyz
x,y,z
-x,-y,z
x,-y,-z
-x,y,-z
-x,-y,-z
x,y,-z
-x,y,z
x,-y,z
loop_
_atom_site_type_symbol
_atom_site_label
_atom_site_fract_x
_atom_site_fract_y
_atom_site_fract_z
Si Si1 0.398043 0.000000 0.901114
Si Si2 0.933898 0.299632 0.194762
Si Si3 0.680221 0.678760 0.870801
Si Si4 0.781048 0.190822 0.632379
Si Si5 0.804872 0.187167 0.852633
Si Si6 0.089145 0.306705 0.401699
Si Si7 0.430093 0.000000 0.684399
Si Si8 0.347866 0.314339 0.652543
O O1 0.356424 0.837301 0.902596
O O2 0.427066 0.000000 0.797963
O O3 0.432171 0.000000 0.000000
O O4 0.930647 0.500000 0.197596
O O5 0.874482 0.240589 0.141093
O O6 0.930275 0.238446 0.301868
O O7 0.000000 0.252385 0.157843
O O8 0.658860 0.500000 0.903463
O O9 0.751101 0.701966 0.891853
O O10 0.668945 0.677787 0.760910
O O11 0.789916 0.188604 0.743168
O O12 0.838462 0.291502 0.598477
O O13 0.716205 0.265053 0.608097
O O14 0.784733 0.000000 0.602757
O O15 0.797836 0.000000 0.886270
O O16 0.068386 0.233921 0.500000
O O17 0.071867 0.500000 0.401307
O O18 0.395431 0.836210 0.647036
O O19 0.500000 0.000000 0.658009
O O20 0.367601 0.500000 0.624278
#
# Coordination Sequence:
#
# PCOD9384964 Si02
#       8
#     4   8   8   8   8   8   4   8
#     4  10  20  33  48  70  99 129 160 186 210 250
#     4   9  17  27  38  55  82 118 158 196 234 278
#     4   9  16  28  47  68  90 117 150 191 236 272
#     4   9  15  25  42  62  83 107 142 191 243 285
#     4   9  15  25  42  62  83 107 142 191 243 285
#     4   9  17  27  38  55  82 118 158 196 234 278
#     4  10  20  33  48  70  99 129 160 186 210 250
#     4   9  16  28  47  68  90 117 150 191 236 272
#
# _framework density 21.585566
#
# number of rings (size 3 to 8) (size 9 to 14) (size 15 to 20)
#    0.000    2.857    1.429    0.857    0.000    5.000 
#    0.000    1.429    0.000    0.000    0.000    8.000 
#    0.000    2.286    0.000    6.000    0.000    0.571 
#
# Total GULP energy -312066.927325 kJ/mol
# GULP energy per Si atom -5572.623702 kJ/mol
# Density = 2.153644 g / cm^3
# Si number density = 21.585566 Si / 1000 Ang^3
#
#
#
# Elastic Constant Matrix: (Units=GPa)
#
#
# Indices 1 2 3 4 5 6 
#
# 1 158.6535 60.6476 -8.6265 0.0000 0.0000 0.0000
# 2 60.6476 131.6428 -2.6456 0.0000 0.0000 0.0000
# 3 -8.6265 -2.6456 37.4853 0.0000 0.0000 0.0000
# 4 0.0000 0.0000 0.0000 -16.6209 0.0000 0.0000
# 5 0.0000 0.0000 0.0000 0.0000 -30.8457 0.0000
# 6 0.0000 0.0000 0.0000 0.0000 0.0000 13.1866
#
#
#
# Elastic Compliance Matrix: (Units=1/GPa)
#
#
# Indices 1 2 3 4 5 6 
#
# 1 0.007737 -0.003534 0.001531 0.000000 0.000000 0.000000
# 2 -0.003534 0.009221 -0.000162 0.000000 0.000000 0.000000
# 3 0.001531 -0.000162 0.027018 0.000000 0.000000 0.000000
# 4 0.000000 0.000000 0.000000 -0.060165 0.000000 0.000000
# 5 0.000000 0.000000 0.000000 0.000000 -0.032419 0.000000
# 6 0.000000 0.000000 0.000000 0.000000 0.000000 0.075835
#
#
# Mechanical properties :
#
#
# Convention : Reuss Voigt Hill
#
# Bulk Modulus (GPa) = 25.22311 47.39251 36.30781
# Shear Modulus (GPa) = 111.67851 11.70440 61.69146
#
# Velocity S-wave (km/s) = 7.20069 2.33112 5.35182
# Velocity P-wave (km/s) = 8.99132 5.40821 7.41932
#
# Compressibility (1/GPa) = 0.03964618
#
# Stress axis : x y z
#
# Youngs Moduli (GPa) = 129.24730 108.44787 37.01233
#
# Poissons Ratio (x) = 0.38322 -0.05667
# Poissons Ratio (y) = 0.45672 0.00601
# Poissons Ratio (z) = -0.19790 0.01761
#
# Static dielectric constant tensor:
#      x y z
#    x 1.753810 0.000000 0.000000 
#    y 0.000000 1.769080 0.000000 
#    z 0.000000 0.000000 1.852940 
# 
# From -- ./inp_files/30105.got.cif
#   From: 2010.05.17/outbox.cif.g08.bks.cpg/sg47_16_cif.got.tgz:30105.got - 2010.06.03 20:15:42.
