data_PCOD9384736
_publ_section_title
;
Structure prediction by ZEFSAII (Michael W. Deem and Ramdas Pophale) SiO2 
 PCOD9384736
Probable space group: P M M M
;
_chemical_formula_sum "Si O2"
_cell_formula_units_Z 52
_cell_length_a 9.013727
_cell_length_b 21.779758
_cell_length_c 14.024656
_cell_angle_alpha 90.000000
_cell_angle_beta 90.000000
_cell_angle_gamma 90.000000
_cell_volume 2753.275485
_symmetry_space_group_name_H-M "P M M M"
_symmetry_group_IT_number 47
_symmetry_cell_setting 'orthorhombic'
loop_
_space_group_symop_operation_xyz
x,y,z
-x,-y,z
x,-y,-z
-x,y,-z
-x,-y,-z
x,y,-z
-x,y,z
x,-y,z
loop_
_atom_site_type_symbol
_atom_site_label
_atom_site_fract_x
_atom_site_fract_y
_atom_site_fract_z
Si Si1 0.328456 0.500000 0.882930
Si Si2 0.327370 0.693489 0.615273
Si Si3 0.675789 0.247697 0.111908
Si Si4 0.169703 0.624976 0.115975
Si Si5 0.822055 0.190852 0.716470
Si Si6 0.819557 0.068116 0.610617
Si Si7 0.826139 0.432506 0.383980
O O1 0.500000 0.500000 0.853235
O O2 0.243272 0.438568 0.852370
O O3 0.328301 0.500000 0.000000
O O4 0.317299 0.695468 0.500000
O O5 0.500000 0.697059 0.642063
O O6 0.240680 0.751525 0.657050
O O7 0.259385 0.628273 0.647604
O O8 0.500000 0.244645 0.126387
O O9 0.735203 0.315205 0.139995
O O10 0.760200 0.199688 0.177632
O O11 0.706878 0.239209 0.000000
O O12 0.000000 0.631208 0.148583
O O13 0.166621 0.622559 0.000000
O O14 0.770901 0.126545 0.671068
O O15 0.000000 0.193117 0.715492
O O16 0.775876 0.075700 0.500000
O O17 0.000000 0.068167 0.612392
O O18 0.771338 0.000000 0.642749
O O19 0.819394 0.432225 0.500000
O O20 0.769267 0.500000 0.353913
O O21 0.000000 0.428318 0.358729
#
# Coordination Sequence:
#
# PCOD9384736 Si02
#       7
#     4   8   8   8   8   8   8
#     4   9  15  23  39  65  95 127 164 207 264 333
#     4  10  20  32  48  74 109 145 179 217 263 320
#     4  10  21  37  55  74 101 139 181 226 277 331
#     4   9  16  27  45  69  95 124 165 218 272 325
#     4  11  21  33  55  83 110 141 179 224 271 320
#     4   8  15  30  54  86 121 151 178 211 256 312
#     4   8  14  26  45  68  95 131 176 223 269 317
#
# _framework density 18.886595
#
# number of rings (size 3 to 8) (size 9 to 14) (size 15 to 20)
#    0.000    2.692    0.000    3.462    0.000    5.538 
#    0.000    1.538    1.692    2.308    0.000    8.615 
#    0.000    0.000    0.000    0.000    0.000    0.000 
#
# Total GULP energy -290441.721921 kJ/mol
# GULP energy per Si atom -5585.417729 kJ/mol
# Density = 1.884361 g / cm^3
# Si number density = 18.886595 Si / 1000 Ang^3
#
#
#
# Elastic Constant Matrix: (Units=GPa)
#
#
# Indices 1 2 3 4 5 6 
#
# 1 85.3188 65.3425 28.0784 0.0000 0.0000 0.0000
# 2 65.3425 184.6086 66.8752 0.0000 0.0000 0.0000
# 3 28.0784 66.8752 73.0908 0.0000 0.0000 0.0000
# 4 0.0000 0.0000 0.0000 26.8699 0.0000 0.0000
# 5 0.0000 0.0000 0.0000 0.0000 19.3500 0.0000
# 6 0.0000 0.0000 0.0000 0.0000 0.0000 -5.9334
#
#
#
# Elastic Compliance Matrix: (Units=1/GPa)
#
#
# Indices 1 2 3 4 5 6 
#
# 1 0.016183 -0.005199 -0.001460 0.000000 0.000000 0.000000
# 2 -0.005199 0.009773 -0.006944 0.000000 0.000000 0.000000
# 3 -0.001460 -0.006944 0.020596 0.000000 0.000000 0.000000
# 4 0.000000 0.000000 0.000000 0.037216 0.000000 0.000000
# 5 0.000000 0.000000 0.000000 0.000000 0.051680 0.000000
# 6 0.000000 0.000000 0.000000 0.000000 0.000000 -0.168538
#
#
# Mechanical properties :
#
#
# Convention : Reuss Voigt Hill
#
# Bulk Modulus (GPa) = 51.69210 73.73450 62.71330
# Shear Modulus (GPa) = 8849.74258 20.23878 4434.99068
#
# Velocity S-wave (km/s) = 68.52663 3.27707 48.51102
# Velocity P-wave (km/s) = 79.30087 7.31056 56.31195
#
# Compressibility (1/GPa) = 0.01934532
#
# Stress axis : x y z
#
# Youngs Moduli (GPa) = 61.79312 102.32521 48.55251
#
# Poissons Ratio (x) = 0.53201 0.07088
# Poissons Ratio (y) = 0.32127 0.33717
# Poissons Ratio (z) = 0.09020 0.71059
#
# Static dielectric constant tensor:
#      x y z
#    x 1.628050 0.000000 0.000000 
#    y 0.000000 1.629070 0.000000 
#    z 0.000000 0.000000 1.719170 
# 
# From -- ./inp_files/21372.got.cif
#   From: 2010.05.17/outbox.cif.g08.bks.cpg/sg47_11_cif.got.tgz:21372.got - 2010.06.03 20:15:42.
