data_PCOD9384764
_publ_section_title
;
Structure prediction by ZEFSAII (Michael W. Deem and Ramdas Pophale) SiO2 
 PCOD9384764
Probable space group: P M M M
;
_chemical_formula_sum "Si O2"
_cell_formula_units_Z 64
_cell_length_a 25.271749
_cell_length_b 8.851306
_cell_length_c 15.814020
_cell_angle_alpha 90.000000
_cell_angle_beta 90.000000
_cell_angle_gamma 90.000000
_cell_volume 3537.406246
_symmetry_space_group_name_H-M "P M M M"
_symmetry_group_IT_number 47
_symmetry_cell_setting 'orthorhombic'
loop_
_space_group_symop_operation_xyz
x,y,z
-x,-y,z
x,-y,-z
-x,y,-z
-x,-y,-z
x,y,-z
-x,y,z
x,-y,z
loop_
_atom_site_type_symbol
_atom_site_label
_atom_site_fract_x
_atom_site_fract_y
_atom_site_fract_z
Si Si1 0.940119 0.682737 0.728241
Si Si2 0.898163 0.318634 0.908574
Si Si3 0.752959 0.175680 0.678513
Si Si4 0.787496 0.824993 0.128971
Si Si5 0.356734 0.320793 0.271840
Si Si6 0.858314 0.817649 0.595285
Si Si7 0.332744 0.182416 0.093374
Si Si8 0.437695 0.818453 0.403661
O O1 0.936761 0.500000 0.727107
O O2 0.927137 0.735302 0.823846
O O3 0.897614 0.747818 0.663461
O O4 0.000000 0.726059 0.705559
O O5 0.902308 0.500000 0.908506
O O6 0.836790 0.272246 0.900369
O O7 0.918266 0.263801 0.000000
O O8 0.781906 0.180838 0.769647
O O9 0.699300 0.268171 0.688167
O O10 0.797492 0.228279 0.613273
O O11 0.738988 0.000000 0.661843
O O12 0.729746 0.776973 0.096441
O O13 0.795957 0.000000 0.104478
O O14 0.358741 0.500000 0.266859
O O15 0.358723 0.253318 0.176607
O O16 0.402450 0.258399 0.332457
O O17 0.873713 0.776853 0.500000
O O18 0.859373 0.000000 0.603548
O O19 0.335069 0.000000 0.101590
O O20 0.353621 0.223916 0.000000
O O21 0.422527 0.774227 0.500000
O O22 0.500000 0.784315 0.393148
O O23 0.431703 0.000000 0.397763
#
# Coordination Sequence:
#
# PCOD9384764 Si02
#       8
#     8   8   8   8   8   8   8   8
#     4  10  22  39  56  74 101 136 171 212 265 326
#     4  10  20  32  49  74 101 131 169 211 257 313
#     4   9  18  34  53  75 107 144 181 217 259 317
#     4   9  16  29  50  74 101 134 172 215 261 308
#     4  11  22  33  52  85 122 154 183 224 278 332
#     4  10  21  38  60  82 102 130 172 221 269 316
#     4   9  18  33  52  75 108 152 196 232 268 316
#     4   9  19  38  63  86 109 145 194 240 278 323
#
# _framework density 18.092352000000002
#
# number of rings (size 3 to 8) (size 9 to 14) (size 15 to 20)
#    0.000    2.375    1.250    2.625    0.000    5.500 
#    0.000    4.375    0.000    0.375    0.000    4.375 
#    0.000    0.000    0.000    0.000    0.000    0.000 
#
# Total GULP energy -356967.166955 kJ/mol
# GULP energy per Si atom -5577.611984 kJ/mol
# Density = 1.805117 g / cm^3
# Si number density = 18.092352 Si / 1000 Ang^3
#
#
#
# Elastic Constant Matrix: (Units=GPa)
#
#
# Indices 1 2 3 4 5 6 
#
# 1 74.1366 33.4034 65.9064 0.0000 0.0000 0.0000
# 2 33.4034 31.9018 41.9540 0.0000 0.0000 0.0000
# 3 65.9064 41.9540 137.5614 0.0000 0.0000 0.0000
# 4 0.0000 0.0000 0.0000 15.4263 0.0000 0.0000
# 5 0.0000 0.0000 0.0000 0.0000 5.1144 0.0000
# 6 0.0000 0.0000 0.0000 0.0000 0.0000 31.1454
#
#
#
# Elastic Compliance Matrix: (Units=1/GPa)
#
#
# Indices 1 2 3 4 5 6 
#
# 1 0.030032 -0.020910 -0.008011 0.000000 0.000000 0.000000
# 2 -0.020910 0.066897 -0.010384 0.000000 0.000000 0.000000
# 3 -0.008011 -0.010384 0.014275 0.000000 0.000000 0.000000
# 4 0.000000 0.000000 0.000000 0.064824 0.000000 0.000000
# 5 0.000000 0.000000 0.000000 0.000000 0.195527 0.000000
# 6 0.000000 0.000000 0.000000 0.000000 0.000000 0.032107
#
#
# Mechanical properties :
#
#
# Convention : Reuss Voigt Hill
#
# Bulk Modulus (GPa) = 30.68204 58.45861 44.57033
# Shear Modulus (GPa) = 10.13916 17.15961 13.64939
#
# Velocity S-wave (km/s) = 2.36987 3.08303 2.74967
# Velocity P-wave (km/s) = 4.94811 6.71228 5.89655
#
# Compressibility (1/GPa) = 0.03259236
#
# Stress axis : x y z
#
# Youngs Moduli (GPa) = 33.29813 14.94843 70.05372
#
# Poissons Ratio (x) = 0.31257 0.56122
# Poissons Ratio (y) = 0.69626 0.72746
# Poissons Ratio (z) = 0.26676 0.15523
#
# Static dielectric constant tensor:
#      x y z
#    x 1.593980 0.000000 0.000000 
#    y 0.000000 1.609720 0.000000 
#    z 0.000000 0.000000 1.653200 
# 
# From -- ./inp_files/25530.got.cif
#   From: 2010.05.17/outbox.cif.g08.bks.cpg/sg47_13_cif.got.tgz:25530.got - 2010.06.03 20:15:42.
