data_PCOD9384870
_publ_section_title
;
Structure prediction by ZEFSAII (Michael W. Deem and Ramdas Pophale) SiO2 
 PCOD9384870
Probable space group: P M M M
;
_chemical_formula_sum "Si O2"
_cell_formula_units_Z 64
_cell_length_a 14.699779
_cell_length_b 12.665098
_cell_length_c 19.473782
_cell_angle_alpha 90.000000
_cell_angle_beta 90.000000
_cell_angle_gamma 90.000000
_cell_volume 3625.514648
_symmetry_space_group_name_H-M "P M M M"
_symmetry_group_IT_number 47
_symmetry_cell_setting 'orthorhombic'
loop_
_space_group_symop_operation_xyz
x,y,z
-x,-y,z
x,-y,-z
-x,y,-z
-x,-y,-z
x,y,-z
-x,y,z
x,-y,z
loop_
_atom_site_type_symbol
_atom_site_label
_atom_site_fract_x
_atom_site_fract_y
_atom_site_fract_z
Si Si1 0.897989 0.795824 0.247724
Si Si2 0.747041 0.378520 0.776556
Si Si3 0.608399 0.770837 0.711236
Si Si4 0.391475 0.880746 0.854511
Si Si5 0.262462 0.283347 0.924214
Si Si6 0.893134 0.881293 0.899573
Si Si7 0.302836 0.127734 0.423641
Si Si8 0.099437 0.876362 0.600639
O O1 0.826109 0.701652 0.246746
O O2 0.882858 0.870898 0.182734
O O3 0.894135 0.860435 0.317674
O O4 0.000000 0.751679 0.240605
O O5 0.765089 0.500000 0.761295
O O6 0.657891 0.335536 0.737080
O O7 0.739705 0.361381 0.859071
O O8 0.500000 0.759182 0.705983
O O9 0.628519 0.850177 0.775171
O O10 0.648275 0.815846 0.640139
O O11 0.500000 0.873925 0.863136
O O12 0.341007 0.799798 0.903971
O O13 0.361550 0.000000 0.867866
O O14 0.170765 0.212353 0.925397
O O15 0.276236 0.329523 0.000000
O O16 0.000000 0.866196 0.916005
O O17 0.867564 0.000000 0.920903
O O18 0.341826 0.148387 0.500000
O O19 0.196733 0.162995 0.425217
O O20 0.305078 0.000000 0.412964
O O21 0.000000 0.831469 0.579760
O O22 0.096925 0.000000 0.583434
#
# Coordination Sequence:
#
# PCOD9384870 Si02
#       8
#     8   8   8   8   8   8   8   8
#     4   9  16  29  50  76 102 129 166 214 263 305
#     4  10  21  37  56  76  95 124 169 221 272 314
#     4  10  20  36  55  75 101 134 173 218 261 302
#     4   9  18  32  51  74  99 130 165 201 247 303
#     4  10  21  34  48  71 101 132 165 205 254 310
#     4   9  17  28  44  69 102 138 173 206 242 293
#     4  10  20  32  50  81 118 151 177 200 235 291
#     4   9  16  27  47  76 111 147 176 202 239 292
#
# _framework density 17.652667000000001
#
# number of rings (size 3 to 8) (size 9 to 14) (size 15 to 20)
#    0.000    2.500    1.250    1.125    0.000    5.000 
#    0.000    3.125    0.000    0.375    0.000    7.875 
#    0.000    2.000    0.000    0.000    0.000    0.000 
#
# Total GULP energy -356636.723796 kJ/mol
# GULP energy per Si atom -5572.448809 kJ/mol
# Density = 1.761249 g / cm^3
# Si number density = 17.652667 Si / 1000 Ang^3
#
#
#
# Elastic Constant Matrix: (Units=GPa)
#
#
# Indices 1 2 3 4 5 6 
#
# 1 75.7054 19.5291 27.0860 0.0000 0.0000 0.0000
# 2 19.5291 51.5644 4.5339 0.0000 0.0000 0.0000
# 3 27.0860 4.5339 112.7973 0.0000 0.0000 0.0000
# 4 0.0000 0.0000 0.0000 16.0042 0.0000 0.0000
# 5 0.0000 0.0000 0.0000 0.0000 -0.3243 0.0000
# 6 0.0000 0.0000 0.0000 0.0000 0.0000 9.8443
#
#
#
# Elastic Compliance Matrix: (Units=1/GPa)
#
#
# Indices 1 2 3 4 5 6 
#
# 1 0.015979 -0.005735 -0.003606 0.000000 0.000000 0.000000
# 2 -0.005735 0.021520 0.000512 0.000000 0.000000 0.000000
# 3 -0.003606 0.000512 0.009711 0.000000 0.000000 0.000000
# 4 0.000000 0.000000 0.000000 0.062484 0.000000 0.000000
# 5 0.000000 0.000000 0.000000 0.000000 -3.083311 0.000000
# 6 0.000000 0.000000 0.000000 0.000000 0.000000 0.101582
#
#
# Mechanical properties :
#
#
# Convention : Reuss Voigt Hill
#
# Bulk Modulus (GPa) = 33.83899 38.04056 35.93977
# Shear Modulus (GPa) = -1.75776 17.69937 7.97080
#
# Velocity S-wave (km/s) = -0.99895 3.16989 2.12724
# Velocity P-wave (km/s) = 4.22852 5.91556 5.14171
#
# Compressibility (1/GPa) = 0.02955171
#
# Stress axis : x y z
#
# Youngs Moduli (GPa) = 62.58330 46.46834 102.97709
#
# Poissons Ratio (x) = 0.26647 0.37138
# Poissons Ratio (y) = 0.35889 -0.05273
# Poissons Ratio (z) = 0.22570 -0.02379
#
# Static dielectric constant tensor:
#      x y z
#    x 1.641710 0.000000 0.000000 
#    y 0.000000 1.548570 0.000000 
#    z 0.000000 0.000000 1.636130 
# 
# From -- ./inp_files/18674.got.cif
#   From: 2010.05.17/outbox.cif.g08.bks.cpg/sg47_10_cif.got.tgz:18674.got - 2010.06.03 20:15:42.
