data_PCOD9384115
_publ_section_title
;
Structure prediction by ZEFSAII (Michael W. Deem and Ramdas Pophale) SiO2 
 PCOD9384115
Probable space group: P M M M
;
_chemical_formula_sum "Si O2"
_cell_formula_units_Z 64
_cell_length_a 20.055586
_cell_length_b 24.399334
_cell_length_c 7.384406
_cell_angle_alpha 90.000000
_cell_angle_beta 90.000000
_cell_angle_gamma 90.000000
_cell_volume 3613.506952
_symmetry_space_group_name_H-M "P M M M"
_symmetry_group_IT_number 47
_symmetry_cell_setting 'orthorhombic'
loop_
_space_group_symop_operation_xyz
x,y,z
-x,-y,z
x,-y,-z
-x,y,-z
-x,-y,-z
x,y,-z
-x,y,z
x,-y,z
loop_
_atom_site_type_symbol
_atom_site_label
_atom_site_fract_x
_atom_site_fract_y
_atom_site_fract_z
Si Si1 0.077049 0.061569 0.720656
Si Si2 0.702933 0.561426 0.784739
Si Si3 0.205814 0.661898 0.283368
Si Si4 0.151775 0.169092 0.279564
Si Si5 0.572946 0.755506 0.288231
Si Si6 0.282739 0.770399 0.278508
Si Si7 0.075280 0.279144 0.720822
Si Si8 0.426109 0.373670 0.219093
O O1 0.078015 0.061880 0.500000
O O2 0.123852 0.110921 0.782478
O O3 0.000000 0.071326 0.773197
O O4 0.095906 0.000000 0.777731
O O5 0.712896 0.500000 0.713817
O O6 0.764030 0.603024 0.758741
O O7 0.635635 0.590426 0.713753
O O8 0.693674 0.557097 0.000000
O O9 0.204399 0.666387 0.500000
O O10 0.255301 0.710569 0.220439
O O11 0.131534 0.677395 0.220037
O O12 0.151726 0.168418 0.500000
O O13 0.226293 0.186206 0.223830
O O14 0.103053 0.219164 0.227083
O O15 0.570610 0.770243 0.500000
O O16 0.500000 0.769146 0.209606
O O17 0.641992 0.779284 0.213652
O O18 0.580341 0.689531 0.277001
O O19 0.284330 0.769849 0.500000
O O20 0.074021 0.279858 0.500000
O O21 0.000000 0.288512 0.782971
O O22 0.500000 0.393137 0.274760
O O23 0.424654 0.373653 0.000000
#
# Coordination Sequence:
#
# PCOD9384115 Si02
#       8
#     8   8   8   8   8   8   8   8
#     4   8  12  16  22  35  60  96 132 157 177 209
#     4  10  20  31  42  56  74  96 121 148 177 215
#     4   9  16  27  42  58  75  93 117 149 184 221
#     4   8  12  17  27  44  68  94 119 152 187 215
#     4   9  15  23  37  54  73  96 118 144 180 219
#     4   8  13  21  33  50  69  88 114 148 183 216
#     4   8  13  21  36  57  75  90 112 148 191 226
#     4   9  17  28  41  56  73  94 120 147 175 211
#
# _framework density 17.711327000000001
#
# number of rings (size 3 to 8) (size 9 to 14) (size 15 to 20)
#    0.000    3.375    1.250    2.250    0.000    2.000 
#    0.000    1.250    0.000    0.750    0.000    5.250 
#    0.000    0.500    0.000    7.000    0.000   15.625 
#
# Total GULP energy -356628.566812 kJ/mol
# GULP energy per Si atom -5572.321356 kJ/mol
# Density = 1.767101 g / cm^3
# Si number density = 17.711327 Si / 1000 Ang^3
#
#
#
# Elastic Constant Matrix: (Units=GPa)
#
#
# Indices 1 2 3 4 5 6 
#
# 1 177.7018 72.0120 3.7728 0.0000 0.0000 0.0000
# 2 72.0120 96.3072 -3.1550 0.0000 0.0000 0.0000
# 3 3.7728 -3.1550 60.7228 0.0000 0.0000 0.0000
# 4 0.0000 0.0000 0.0000 9.1775 0.0000 0.0000
# 5 0.0000 0.0000 0.0000 0.0000 -12.0449 0.0000
# 6 0.0000 0.0000 0.0000 0.0000 0.0000 24.8000
#
#
#
# Elastic Compliance Matrix: (Units=1/GPa)
#
#
# Indices 1 2 3 4 5 6 
#
# 1 0.008115 -0.006094 -0.000821 0.000000 0.000000 0.000000
# 2 -0.006094 0.014978 0.001157 0.000000 0.000000 0.000000
# 3 -0.000821 0.001157 0.016579 0.000000 0.000000 0.000000
# 4 0.000000 0.000000 0.000000 0.108962 0.000000 0.000000
# 5 0.000000 0.000000 0.000000 0.000000 -0.083023 0.000000
# 6 0.000000 0.000000 0.000000 0.000000 0.000000 0.040323
#
#
# Mechanical properties :
#
#
# Convention : Reuss Voigt Hill
#
# Bulk Modulus (GPa) = 35.51693 53.33236 44.42465
# Shear Modulus (GPa) = 39.42098 21.85998 30.64048
#
# Velocity S-wave (km/s) = 4.72290 3.51698 4.16383
# Velocity P-wave (km/s) = 7.05959 6.83152 6.94649
#
# Compressibility (1/GPa) = 0.02815559
#
# Stress axis : x y z
#
# Youngs Moduli (GPa) = 123.23588 66.76327 60.31586
#
# Poissons Ratio (x) = 0.40688 0.04951
# Poissons Ratio (y) = 0.75105 -0.06978
# Poissons Ratio (z) = 0.10115 -0.07724
#
# Static dielectric constant tensor:
#      x y z
#    x 1.632180 0.000000 0.000000 
#    y 0.000000 1.578390 0.000000 
#    z 0.000000 0.000000 1.872260 
# 
# From -- ./inp_files/11927.got.cif
#   From: 2010.05.17/outbox.cif.g08.bks.cpg/sg47_6_cif.got.tgz:11927.got - 2010.06.03 20:15:42.
