data_PCOD9384344
_publ_section_title
;
Structure prediction by ZEFSAII (Michael W. Deem and Ramdas Pophale) SiO2 
 PCOD9384344
Probable space group: P M M M
;
_chemical_formula_sum "Si O2"
_cell_formula_units_Z 56
_cell_length_a 9.222884
_cell_length_b 23.832773
_cell_length_c 22.788076
_cell_angle_alpha 90.000000
_cell_angle_beta 90.000000
_cell_angle_gamma 90.000000
_cell_volume 5008.976360
_symmetry_space_group_name_H-M "P M M M"
_symmetry_group_IT_number 47
_symmetry_cell_setting 'orthorhombic'
loop_
_space_group_symop_operation_xyz
x,y,z
-x,-y,z
x,-y,-z
-x,y,-z
-x,-y,-z
x,y,-z
-x,y,z
x,-y,z
loop_
_atom_site_type_symbol
_atom_site_label
_atom_site_fract_x
_atom_site_fract_y
_atom_site_fract_z
Si Si1 0.834066 0.673320 0.928704
Si Si2 0.833497 0.068434 0.500000
Si Si3 0.175618 0.000000 0.933369
Si Si4 0.674786 0.933221 0.252054
Si Si5 0.174953 0.888593 0.138526
Si Si6 0.331009 0.562627 0.928666
Si Si7 0.332938 0.931813 0.384001
Si Si8 0.327407 0.212107 0.929900
O O1 0.765005 0.614678 0.908119
O O2 0.736368 0.726928 0.913603
O O3 0.000000 0.680204 0.909159
O O4 0.835659 0.671187 0.000000
O O5 0.757208 0.087433 0.440052
O O6 0.000000 0.084853 0.500000
O O7 0.826470 0.000000 0.500000
O O8 0.217289 0.056057 0.898958
O O9 0.000000 0.000000 0.935511
O O10 0.230335 0.000000 0.000000
O O11 0.500000 0.926952 0.246520
O O12 0.759036 0.898971 0.202782
O O13 0.716351 0.916027 0.318503
O O14 0.706158 0.000000 0.245057
O O15 0.244236 0.835269 0.106495
O O16 0.000000 0.884639 0.140130
O O17 0.500000 0.570460 0.912779
O O18 0.284662 0.500000 0.909887
O O19 0.326051 0.562813 0.000000
O O20 0.500000 0.914755 0.391079
O O21 0.330860 0.000000 0.384180
O O22 0.500000 0.209797 0.920040
O O23 0.302111 0.203868 0.000000
#
# Coordination Sequence:
#
# PCOD9384344 Si02
#       8
#     8   4   4   8   8   8   8   8
#     4   9  16  25  37  52  68  85 105 130 159 191
#     4   9  15  21  31  51  73  89 105 129 151 171
#     4   9  18  30  41  53  67  80  95 122 165 213
#     4   9  17  29  42  54  69  87 107 131 158 194
#     4  11  20  30  43  56  69  84 103 131 169 210
#     4   8  13  21  33  49  69  91 110 126 147 179
#     4   8  14  24  37  50  66  90 111 125 146 180
#     4  10  20  32  43  53  65  83 107 135 168 206
#
# _framework density 11.179929
#
# number of rings (size 3 to 8) (size 9 to 14) (size 15 to 20)
#    0.000    2.857    0.714    3.214    0.000    4.857 
#    0.000    2.857    0.000    1.714    0.000    0.000 
#    0.000    0.000    0.000    0.000    0.000    0.000 
#
# Total GULP energy -311748.751145 kJ/mol
# GULP energy per Si atom -5566.941985 kJ/mol
# Density = 1.115448 g / cm^3
# Si number density = 11.179929 Si / 1000 Ang^3
#
#
#
# Elastic Constant Matrix: (Units=GPa)
#
#
# Indices 1 2 3 4 5 6 
#
# 1 60.6074 39.0351 42.1968 0.0000 0.0000 0.0000
# 2 39.0351 70.4740 30.8875 0.0000 0.0000 0.0000
# 3 42.1968 30.8875 73.5950 0.0000 0.0000 0.0000
# 4 0.0000 0.0000 0.0000 0.7691 0.0000 0.0000
# 5 0.0000 0.0000 0.0000 0.0000 13.4816 0.0000
# 6 0.0000 0.0000 0.0000 0.0000 0.0000 16.6275
#
#
#
# Elastic Compliance Matrix: (Units=1/GPa)
#
#
# Indices 1 2 3 4 5 6 
#
# 1 0.035081 -0.013008 -0.014655 0.000000 0.000000 0.000000
# 2 -0.013008 0.022212 -0.001864 0.000000 0.000000 0.000000
# 3 -0.014655 -0.001864 0.022773 0.000000 0.000000 0.000000
# 4 0.000000 0.000000 0.000000 1.300262 0.000000 0.000000
# 5 0.000000 0.000000 0.000000 0.000000 0.074175 0.000000
# 6 0.000000 0.000000 0.000000 0.000000 0.000000 0.060141
#
#
# Mechanical properties :
#
#
# Convention : Reuss Voigt Hill
#
# Bulk Modulus (GPa) = 47.59198 47.65724 47.62461
# Shear Modulus (GPa) = 3.16316 12.34611 7.75463
#
# Velocity S-wave (km/s) = 1.68388 3.32672 2.63653
# Velocity P-wave (km/s) = 6.81485 7.58130 7.20827
#
# Compressibility (1/GPa) = 0.02101194
#
# Stress axis : x y z
#
# Youngs Moduli (GPa) = 28.50573 45.02165 43.91260
#
# Poissons Ratio (x) = 0.58565 0.64352
# Poissons Ratio (y) = 0.37080 0.08184
# Poissons Ratio (z) = 0.41774 0.08391
#
# Static dielectric constant tensor:
#      x y z
#    x 1.372590 0.000000 0.000000 
#    y 0.000000 1.348570 0.000000 
#    z 0.000000 0.000000 1.349850 
# 
# From -- ./inp_files/30098.got.cif
#   From: 2010.05.17/outbox.cif.g08.bks.cpg/sg47_16_cif.got.tgz:30098.got - 2010.06.03 20:15:42.
