data_PCOD9384007
_publ_section_title
;
Structure prediction by ZEFSAII (Michael W. Deem and Ramdas Pophale) SiO2 
 PCOD9384007
Probable space group: P M M M
;
_chemical_formula_sum "Si O2"
_cell_formula_units_Z 56
_cell_length_a 22.628704
_cell_length_b 15.750011
_cell_length_c 8.092631
_cell_angle_alpha 90.000000
_cell_angle_beta 90.000000
_cell_angle_gamma 90.000000
_cell_volume 2884.232600
_symmetry_space_group_name_H-M "P M M M"
_symmetry_group_IT_number 47
_symmetry_cell_setting 'orthorhombic'
loop_
_space_group_symop_operation_xyz
x,y,z
-x,-y,z
x,-y,-z
-x,y,-z
-x,-y,-z
x,y,-z
-x,y,z
x,-y,z
loop_
_atom_site_type_symbol
_atom_site_label
_atom_site_fract_x
_atom_site_fract_y
_atom_site_fract_z
Si Si1 0.658081 0.644825 0.701831
Si Si2 0.500000 0.097340 0.802209
Si Si3 0.834317 0.771147 0.195934
Si Si4 0.432287 0.500000 0.701956
Si Si5 0.374356 0.166446 0.302864
Si Si6 0.210099 0.405528 0.698390
Si Si7 0.068889 0.904764 0.300504
Si Si8 0.743499 0.091560 0.803023
O O1 0.659116 0.643881 0.500000
O O2 0.606225 0.581162 0.753334
O O3 0.642932 0.739501 0.756420
O O4 0.723013 0.615258 0.757632
O O5 0.559370 0.142563 0.742846
O O6 0.500000 0.000000 0.741948
O O7 0.500000 0.096577 0.000000
O O8 0.830488 0.675167 0.260052
O O9 0.891292 0.828359 0.235150
O O10 0.779917 0.828357 0.265294
O O11 0.828065 0.764652 0.000000
O O12 0.500000 0.500000 0.759119
O O13 0.433849 0.500000 0.500000
O O14 0.368416 0.164137 0.500000
O O15 0.325575 0.103955 0.228923
O O16 0.212846 0.409522 0.500000
O O17 0.192542 0.500000 0.758052
O O18 0.072213 0.904044 0.500000
O O19 0.000000 0.894644 0.254801
O O20 0.087745 0.000000 0.244449
O O21 0.763010 0.000000 0.735219
O O22 0.753310 0.090491 0.000000
#
# Coordination Sequence:
#
# PCOD9384007 Si02
#       8
#     8   4   8   4   8   8   8   8
#     4   9  17  30  48  76 107 132 166 219 276 329
#     4  11  25  43  57  68  93 136 178 217 271 343
#     4  11  22  35  55  85 121 156 193 235 283 341
#     4   9  16  26  46  74 104 134 163 206 273 340
#     4  11  22  35  55  80 103 128 172 230 278 323
#     4  10  19  35  58  81 110 149 193 239 287 341
#     4   9  19  37  61  89 122 160 200 240 282 332
#     4  10  21  36  52  74 109 149 183 217 268 332
#
# _framework density 19.415908999999999
#
# number of rings (size 3 to 8) (size 9 to 14) (size 15 to 20)
#    0.000    2.000    2.143    2.357    1.000    4.571 
#    0.000    0.714    0.000    0.429    0.000    3.500 
#    0.000    0.000    0.000    0.000    0.000    0.000 
#
# Total GULP energy -312598.288339 kJ/mol
# GULP energy per Si atom -5582.112292 kJ/mol
# Density = 1.937172 g / cm^3
# Si number density = 19.415909 Si / 1000 Ang^3
#
#
#
# Elastic Constant Matrix: (Units=GPa)
#
#
# Indices 1 2 3 4 5 6 
#
# 1 85.8004 60.2571 -2.8331 0.0000 0.0000 0.0000
# 2 60.2571 185.3620 17.5935 0.0000 0.0000 0.0000
# 3 -2.8331 17.5935 14.8092 0.0000 0.0000 0.0000
# 4 0.0000 0.0000 0.0000 1.8729 0.0000 0.0000
# 5 0.0000 0.0000 0.0000 0.0000 17.2977 0.0000
# 6 0.0000 0.0000 0.0000 0.0000 0.0000 31.4042
#
#
#
# Elastic Compliance Matrix: (Units=1/GPa)
#
#
# Indices 1 2 3 4 5 6 
#
# 1 0.016489 -0.006379 0.010733 0.000000 0.000000 0.000000
# 2 -0.006379 0.008548 -0.011376 0.000000 0.000000 0.000000
# 3 0.010733 -0.011376 0.083093 0.000000 0.000000 0.000000
# 4 0.000000 0.000000 0.000000 0.533941 0.000000 0.000000
# 5 0.000000 0.000000 0.000000 0.000000 0.057811 0.000000
# 6 0.000000 0.000000 0.000000 0.000000 0.000000 0.031843
#
#
# Mechanical properties :
#
#
# Convention : Reuss Voigt Hill
#
# Bulk Modulus (GPa) = 10.62851 48.44520 29.53685
# Shear Modulus (GPa) = 6.43391 24.17857 15.30624
#
# Velocity S-wave (km/s) = 1.82234 3.53270 2.81078
# Velocity P-wave (km/s) = 3.14864 6.45333 5.07737
#
# Compressibility (1/GPa) = 0.09408660
#
# Stress axis : x y z
#
# Youngs Moduli (GPa) = 60.64552 116.98320 12.03471
#
# Poissons Ratio (x) = 0.74623 -0.12917
# Poissons Ratio (y) = 0.38686 0.13690
# Poissons Ratio (z) = -0.65089 1.33076
#
# Static dielectric constant tensor:
#      x y z
#    x 1.665960 0.000000 0.000000 
#    y 0.000000 1.711760 0.000000 
#    z 0.000000 0.000000 1.683590 
# 
# From -- ./inp_files/11373.got.cif
#   From: 2010.05.17/outbox.cif.g08.bks.cpg/sg47_6_cif.got.tgz:11373.got - 2010.06.03 20:15:42.
