data_PCOD9384590
_publ_section_title
;
Structure prediction by ZEFSAII (Michael W. Deem and Ramdas Pophale) SiO2 
 PCOD9384590
Probable space group: P M M M
;
_chemical_formula_sum "Si O2"
_cell_formula_units_Z 44
_cell_length_a 7.872254
_cell_length_b 9.461546
_cell_length_c 31.701505
_cell_angle_alpha 90.000000
_cell_angle_beta 90.000000
_cell_angle_gamma 90.000000
_cell_volume 2361.245177
_symmetry_space_group_name_H-M "P M M M"
_symmetry_group_IT_number 47
_symmetry_cell_setting 'orthorhombic'
loop_
_space_group_symop_operation_xyz
x,y,z
-x,-y,z
x,-y,-z
-x,y,-z
-x,-y,-z
x,y,-z
-x,y,z
x,-y,z
loop_
_atom_site_type_symbol
_atom_site_label
_atom_site_fract_x
_atom_site_fract_y
_atom_site_fract_z
Si Si1 0.000000 0.172584 0.951492
Si Si2 0.297107 0.341256 0.717636
Si Si3 0.304898 0.172286 0.891347
Si Si4 0.292618 0.162113 0.203131
Si Si5 0.295508 0.834354 0.545450
Si Si6 0.798895 0.161355 0.636890
O O1 0.831637 0.217224 0.926007
O O2 0.000000 0.000000 0.951486
O O3 0.000000 0.218745 0.000000
O O4 0.500000 0.350516 0.723307
O O5 0.228318 0.500000 0.714628
O O6 0.230619 0.257505 0.758461
O O7 0.268006 0.254445 0.675015
O O8 0.500000 0.218002 0.898994
O O9 0.249096 0.213275 0.843942
O O10 0.307579 0.000000 0.890946
O O11 0.500000 0.159279 0.203874
O O12 0.235310 0.000000 0.208577
O O13 0.237825 0.774382 0.500000
O O14 0.500000 0.830843 0.545473
O O15 0.237441 0.776329 0.590362
O O16 0.242788 0.000000 0.545695
O O17 0.000000 0.152441 0.641524
O O18 0.728431 0.000000 0.638764
#
# Coordination Sequence:
#
# PCOD9384590 Si02
#       6
#     4   8   8   8   8   8
#     4   9  16  24  36  60  93 125 157 193 236 289
#     4  10  20  33  50  71  95 125 160 200 247 294
#     4   8  14  25  40  59  86 121 158 196 240 287
#     4   8  14  27  47  67  89 120 157 196 238 285
#     4   8  14  26  46  71  95 119 151 193 237 278
#     4  10  20  32  47  70  99 130 162 193 232 285
#
# _framework density 18.634235
#
# number of rings (size 3 to 8) (size 9 to 14) (size 15 to 20)
#    0.000    3.182    0.000    2.727    0.000    2.909 
#    1.636    3.636    0.000    0.545    0.000    3.818 
#    0.000    1.455    0.000    7.091    0.000    7.273 
#
# Total GULP energy -245044.803369 kJ/mol
# GULP energy per Si atom -5569.200077 kJ/mol
# Density = 1.859182 g / cm^3
# Si number density = 18.634235 Si / 1000 Ang^3
#
#
#
# Elastic Constant Matrix: (Units=GPa)
#
#
# Indices 1 2 3 4 5 6 
#
# 1 45.9383 15.3531 45.5957 0.0000 0.0000 0.0000
# 2 15.3531 47.1399 60.9239 0.0000 0.0000 0.0000
# 3 45.5957 60.9239 205.8588 0.0000 0.0000 0.0000
# 4 0.0000 0.0000 0.0000 -4.6729 0.0000 0.0000
# 5 0.0000 0.0000 0.0000 0.0000 97.7590 0.0000
# 6 0.0000 0.0000 0.0000 0.0000 0.0000 5.9998
#
#
#
# Elastic Compliance Matrix: (Units=1/GPa)
#
#
# Indices 1 2 3 4 5 6 
#
# 1 0.027995 -0.001788 -0.005671 0.000000 0.000000 0.000000
# 2 -0.001788 0.034467 -0.009805 0.000000 0.000000 0.000000
# 3 -0.005671 -0.009805 0.009016 0.000000 0.000000 0.000000
# 4 0.000000 0.000000 0.000000 -0.213998 0.000000 0.000000
# 5 0.000000 0.000000 0.000000 0.000000 0.010229 0.000000
# 6 0.000000 0.000000 0.000000 0.000000 0.000000 0.166673
#
#
# Mechanical properties :
#
#
# Convention : Reuss Voigt Hill
#
# Bulk Modulus (GPa) = 27.06367 60.29805 43.68086
# Shear Modulus (GPa) = 61.55571 31.62144 46.58857
#
# Velocity S-wave (km/s) = 5.75373 4.12388 5.00558
# Velocity P-wave (km/s) = 7.66131 7.42322 7.54320
#
# Compressibility (1/GPa) = 0.03694991
#
# Stress axis : x y z
#
# Youngs Moduli (GPa) = 35.72055 29.01300 110.91953
#
# Poissons Ratio (x) = 0.05187 0.62908
# Poissons Ratio (y) = 0.06387 1.08752
# Poissons Ratio (z) = 0.20259 0.28446
#
# Static dielectric constant tensor:
#      x y z
#    x 1.665620 0.000000 0.000000 
#    y 0.000000 1.624290 0.000000 
#    z 0.000000 0.000000 1.661660 
# 
# From -- ./inp_files/33901.got.cif
#   From: 2010.05.17/outbox.cif.g08.bks.cpg/sg47_17_cif.got.tgz:33901.got - 2010.06.03 20:15:42.
