data_PCOD9384015
_publ_section_title
;
Structure prediction by ZEFSAII (Michael W. Deem and Ramdas Pophale) SiO2 
 PCOD9384015
Probable space group: P M M M
;
_chemical_formula_sum "Si O2"
_cell_formula_units_Z 56
_cell_length_a 8.456917
_cell_length_b 18.096241
_cell_length_c 19.555991
_cell_angle_alpha 90.000000
_cell_angle_beta 90.000000
_cell_angle_gamma 90.000000
_cell_volume 2992.817732
_symmetry_space_group_name_H-M "P M M M"
_symmetry_group_IT_number 47
_symmetry_cell_setting 'orthorhombic'
loop_
_space_group_symop_operation_xyz
x,y,z
-x,-y,z
x,-y,-z
-x,y,-z
-x,-y,-z
x,y,-z
-x,y,z
x,-y,z
loop_
_atom_site_type_symbol
_atom_site_label
_atom_site_fract_x
_atom_site_fract_y
_atom_site_fract_z
Si Si1 0.193337 0.500000 0.921004
Si Si2 0.190844 0.634509 0.824149
Si Si3 0.690553 0.710914 0.422790
Si Si4 0.688295 0.800842 0.810224
Si Si5 0.691500 0.144478 0.660092
Si Si6 0.810634 0.000000 0.580303
Si Si7 0.809206 0.417434 0.673447
Si Si8 0.190818 0.084659 0.079112
O O1 0.243684 0.574717 0.881026
O O2 0.000000 0.500000 0.919865
O O3 0.243407 0.500000 0.000000
O O4 0.246284 0.719251 0.827106
O O5 0.240843 0.603678 0.750139
O O6 0.000000 0.635172 0.826500
O O7 0.749719 0.707527 0.500000
O O8 0.500000 0.711267 0.423844
O O9 0.740911 0.786033 0.386005
O O10 0.746427 0.642005 0.379049
O O11 0.500000 0.794034 0.805116
O O12 0.744599 0.835372 0.737454
O O13 0.734638 0.857297 0.869686
O O14 0.500000 0.139600 0.661213
O O15 0.754104 0.071168 0.623381
O O16 0.754598 0.000000 0.500000
O O17 0.000000 0.000000 0.578149
O O18 0.755821 0.500000 0.656744
O O19 0.000000 0.416224 0.672666
O O20 0.000000 0.089185 0.083526
O O21 0.236125 0.000000 0.095765
O O22 0.234282 0.098705 0.000000
#
# Coordination Sequence:
#
# PCOD9384015 Si02
#       8
#     4   8   8   8   8   4   8   8
#     4   9  18  34  59  89 116 147 192 238 277 331
#     4  10  19  35  58  83 113 151 192 233 281 334
#     4  10  21  38  59  82 110 147 191 235 279 334
#     4  11  23  37  58  89 120 150 191 237 283 338
#     4  10  22  40  60  83 115 155 195 232 283 349
#     4  11  25  41  59  87 118 149 192 245 297 346
#     4  10  20  35  56  81 111 147 188 233 283 338
#     4   9  20  40  63  86 114 150 190 230 278 335
#
# _framework density 18.711462000000001
#
# number of rings (size 3 to 8) (size 9 to 14) (size 15 to 20)
#    0.000    2.000    2.143    1.500    1.000    4.857 
#    0.000    3.929    0.000    0.429    0.000    0.000 
#    0.000    0.000    0.000    0.000    0.000    0.000 
#
# Total GULP energy -312563.516000 kJ/mol
# GULP energy per Si atom -5581.491357 kJ/mol
# Density = 1.866887 g / cm^3
# Si number density = 18.711462 Si / 1000 Ang^3
#
#
#
# Elastic Constant Matrix: (Units=GPa)
#
#
# Indices 1 2 3 4 5 6 
#
# 1 8.3352 26.8382 25.1352 0.0000 0.0000 0.0000
# 2 26.8382 210.5438 123.2277 0.0000 0.0000 0.0000
# 3 25.1352 123.2277 165.9184 0.0000 0.0000 0.0000
# 4 0.0000 0.0000 0.0000 -25.2716 0.0000 0.0000
# 5 0.0000 0.0000 0.0000 0.0000 24.2186 0.0000
# 6 0.0000 0.0000 0.0000 0.0000 0.0000 131.5724
#
#
#
# Elastic Compliance Matrix: (Units=1/GPa)
#
#
# Indices 1 2 3 4 5 6 
#
# 1 0.252104 -0.017306 -0.025339 0.000000 0.000000 0.000000
# 2 -0.017306 0.009590 -0.004501 0.000000 0.000000 0.000000
# 3 -0.025339 -0.004501 0.013208 0.000000 0.000000 0.000000
# 4 0.000000 0.000000 0.000000 -0.039570 0.000000 0.000000
# 5 0.000000 0.000000 0.000000 0.000000 0.041291 0.000000
# 6 0.000000 0.000000 0.000000 0.000000 0.000000 0.007600
#
#
# Mechanical properties :
#
#
# Convention : Reuss Voigt Hill
#
# Bulk Modulus (GPa) = 5.53673 81.68887 43.61280
# Shear Modulus (GPa) = 11.39687 40.07696 25.73692
#
# Velocity S-wave (km/s) = 2.47064 4.63302 3.71275
# Velocity P-wave (km/s) = 3.33230 8.50716 6.46049
#
# Compressibility (1/GPa) = 0.18061197
#
# Stress axis : x y z
#
# Youngs Moduli (GPa) = 3.96662 104.27840 75.71007
#
# Poissons Ratio (x) = 1.80460 1.91840
# Poissons Ratio (y) = 0.06864 0.34074
# Poissons Ratio (z) = 0.10051 0.46932
#
# Static dielectric constant tensor:
#      x y z
#    x 1.658430 0.000000 0.000000 
#    y 0.000000 1.622580 0.000000 
#    z 0.000000 0.000000 1.635800 
# 
# From -- ./inp_files/29752.got.cif
#   From: 2010.05.17/outbox.cif.g08.bks.cpg/sg47_15_cif.got.tgz:29752.got - 2010.06.03 20:15:42.
