data_PCOD9384152
_publ_section_title
;
Structure prediction by ZEFSAII (Michael W. Deem and Ramdas Pophale) SiO2 
 PCOD9384152
Probable space group: P M M M
;
_chemical_formula_sum "Si O2"
_cell_formula_units_Z 64
_cell_length_a 19.681904
_cell_length_b 8.908435
_cell_length_c 24.176994
_cell_angle_alpha 90.000000
_cell_angle_beta 90.000000
_cell_angle_gamma 90.000000
_cell_volume 4239.072335
_symmetry_space_group_name_H-M "P M M M"
_symmetry_group_IT_number 47
_symmetry_cell_setting 'orthorhombic'
loop_
_space_group_symop_operation_xyz
x,y,z
-x,-y,z
x,-y,-z
-x,y,-z
-x,-y,-z
x,y,-z
-x,y,z
x,-y,z
loop_
_atom_site_type_symbol
_atom_site_label
_atom_site_fract_x
_atom_site_fract_y
_atom_site_fract_z
Si Si1 0.078296 0.180937 0.232180
Si Si2 0.281116 0.179767 0.722256
Si Si3 0.204968 0.821116 0.162396
Si Si4 0.284642 0.318854 0.062312
Si Si5 0.078861 0.819831 0.564446
Si Si6 0.156629 0.678490 0.664525
Si Si7 0.424255 0.819197 0.239538
Si Si8 0.424359 0.318977 0.882553
O O1 0.129177 0.221164 0.182212
O O2 0.107708 0.255815 0.287435
O O3 0.000000 0.220463 0.222875
O O4 0.083026 0.000000 0.239290
O O5 0.252024 0.211668 0.783981
O O6 0.231563 0.261353 0.679708
O O7 0.360067 0.224789 0.723110
O O8 0.275445 0.000000 0.714000
O O9 0.233472 0.740807 0.108603
O O10 0.207270 0.000000 0.153543
O O11 0.283178 0.500000 0.063000
O O12 0.360990 0.271606 0.080056
O O13 0.269320 0.268169 0.000000
O O14 0.091572 0.784260 0.500000
O O15 0.128598 0.738879 0.606583
O O16 0.000000 0.780666 0.576725
O O17 0.084902 0.000000 0.570904
O O18 0.155458 0.500000 0.666133
O O19 0.500000 0.779730 0.259988
O O20 0.416413 0.748301 0.178756
O O21 0.421030 0.000000 0.233559
O O22 0.500000 0.276598 0.902970
O O23 0.422509 0.500000 0.878612
#
# Coordination Sequence:
#
# PCOD9384152 Si02
#       8
#     8   8   8   8   8   8   8   8
#     4   9  18  33  51  68  88 114 143 179 224 272
#     4   9  17  30  46  64  89 120 151 184 225 270
#     4   9  17  30  47  66  83 105 139 177 221 268
#     4  10  20  31  43  60  83 112 144 178 217 264
#     4   9  18  33  51  68  91 129 169 196 222 260
#     4  11  21  29  43  70 100 126 154 189 223 257
#     4   9  16  27  45  66  87 113 146 184 225 267
#     4   9  17  28  42  60  83 112 144 177 214 259
#
# _framework density 15.097642
#
# number of rings (size 3 to 8) (size 9 to 14) (size 15 to 20)
#    0.000    2.625    1.250    2.625    0.000    5.250 
#    0.000    1.875    0.000    0.375    0.000    5.250 
#    0.000    0.500    0.000    5.750    0.000    1.625 
#
# Total GULP energy -356664.350717 kJ/mol
# GULP energy per Si atom -5572.880480 kJ/mol
# Density = 1.506328 g / cm^3
# Si number density = 15.097642 Si / 1000 Ang^3
#
#
#
# Elastic Constant Matrix: (Units=GPa)
#
#
# Indices 1 2 3 4 5 6 
#
# 1 128.0690 37.8632 62.1504 0.0000 0.0000 0.0000
# 2 37.8632 21.2026 33.6088 0.0000 0.0000 0.0000
# 3 62.1504 33.6088 84.9766 0.0000 0.0000 0.0000
# 4 0.0000 0.0000 0.0000 39.4555 0.0000 0.0000
# 5 0.0000 0.0000 0.0000 0.0000 24.7229 0.0000
# 6 0.0000 0.0000 0.0000 0.0000 0.0000 15.0498
#
#
#
# Elastic Compliance Matrix: (Units=1/GPa)
#
#
# Indices 1 2 3 4 5 6 
#
# 1 0.016581 -0.027842 -0.001115 0.000000 0.000000 0.000000
# 2 -0.027842 0.173171 -0.048127 0.000000 0.000000 0.000000
# 3 -0.001115 -0.048127 0.031618 0.000000 0.000000 0.000000
# 4 0.000000 0.000000 0.000000 0.025345 0.000000 0.000000
# 5 0.000000 0.000000 0.000000 0.000000 0.040448 0.000000
# 6 0.000000 0.000000 0.000000 0.000000 0.000000 0.066446
#
#
# Mechanical properties :
#
#
# Convention : Reuss Voigt Hill
#
# Bulk Modulus (GPa) = 14.88062 55.72143 35.30103
# Shear Modulus (GPa) = 9.43077 22.55403 15.99240
#
# Velocity S-wave (km/s) = 2.50201 3.86926 3.25817
# Velocity P-wave (km/s) = 4.26901 7.54646 6.13080
#
# Compressibility (1/GPa) = 0.06720149
#
# Stress axis : x y z
#
# Youngs Moduli (GPa) = 60.31036 5.77463 31.62722
#
# Poissons Ratio (x) = 0.16078 0.03527
# Poissons Ratio (y) = 1.67915 1.52213
# Poissons Ratio (z) = 0.06727 0.27792
#
# Static dielectric constant tensor:
#      x y z
#    x 1.527130 0.000000 0.000000 
#    y 0.000000 1.503130 0.000000 
#    z 0.000000 0.000000 1.469290 
# 
# From -- ./inp_files/31524.got.cif
#   From: 2010.05.17/outbox.cif.g08.bks.cpg/sg47_16_cif.got.tgz:31524.got - 2010.06.03 20:15:42.
