data_PCOD9384963
_publ_section_title
;
Structure prediction by ZEFSAII (Michael W. Deem and Ramdas Pophale) SiO2 
 PCOD9384963
Probable space group: P M M M
;
_chemical_formula_sum "Si O2"
_cell_formula_units_Z 36
_cell_length_a 8.891212
_cell_length_b 21.117931
_cell_length_c 11.955723
_cell_angle_alpha 90.000000
_cell_angle_beta 90.000000
_cell_angle_gamma 90.000000
_cell_volume 2244.854392
_symmetry_space_group_name_H-M "P M M M"
_symmetry_group_IT_number 47
_symmetry_cell_setting 'orthorhombic'
loop_
_space_group_symop_operation_xyz
x,y,z
-x,-y,z
x,-y,-z
-x,y,-z
-x,-y,-z
x,y,-z
-x,y,z
x,-y,z
loop_
_atom_site_type_symbol
_atom_site_label
_atom_site_fract_x
_atom_site_fract_y
_atom_site_fract_z
Si Si1 0.818797 0.622408 0.230149
Si Si2 0.827763 0.869728 0.364275
Si Si3 0.325976 0.000000 0.363563
Si Si4 0.319225 0.575221 0.000000
Si Si5 0.182495 0.500000 0.626497
Si Si6 0.320251 0.736698 0.368302
O O1 0.748306 0.608498 0.109504
O O2 0.773071 0.562784 0.307505
O O3 0.758463 0.685098 0.290376
O O4 0.000000 0.624221 0.222415
O O5 0.829046 0.872398 0.500000
O O6 0.734019 0.807134 0.336009
O O7 0.000000 0.863923 0.326676
O O8 0.755019 0.935657 0.325925
O O9 0.500000 0.000000 0.330635
O O10 0.321772 0.000000 0.500000
O O11 0.278552 0.500000 0.000000
O O12 0.500000 0.579464 0.000000
O O13 0.239284 0.500000 0.500000
O O14 0.000000 0.500000 0.622768
O O15 0.279626 0.726540 0.500000
O O16 0.500000 0.732133 0.359375
#
# Coordination Sequence:
#
# PCOD9384963 Si02
#       6
#     8   8   4   4   4   8
#     4  11  21  35  55  75  98 127 166 208 248 297
#     4   9  16  26  41  62  90 127 169 207 242 287
#     4   9  15  23  37  59  89 126 165 204 245 289
#     4  11  23  39  57  75  99 126 159 204 257 305
#     4   9  18  31  49  74 100 125 156 197 242 289
#     4  10  20  33  48  70 102 136 167 203 252 304
#
# _framework density 16.036674999999999
#
# number of rings (size 3 to 8) (size 9 to 14) (size 15 to 20)
#    0.000    2.111    1.111    3.333    0.000    6.667 
#    0.000    0.000    0.000    2.667    0.000    0.000 
#    0.000    0.889    0.000    8.889    0.000    8.000 
#
# Total GULP energy -200817.723274 kJ/mol
# GULP energy per Si atom -5578.270091 kJ/mol
# Density = 1.600018 g / cm^3
# Si number density = 16.036675 Si / 1000 Ang^3
#
#
#
# Elastic Constant Matrix: (Units=GPa)
#
#
# Indices 1 2 3 4 5 6 
#
# 1 83.8008 56.0322 40.8536 0.0000 0.0000 0.0000
# 2 56.0322 151.8308 62.4370 0.0000 0.0000 0.0000
# 3 40.8536 62.4370 94.4341 0.0000 0.0000 0.0000
# 4 0.0000 0.0000 0.0000 -1.2156 0.0000 0.0000
# 5 0.0000 0.0000 0.0000 0.0000 17.4531 0.0000
# 6 0.0000 0.0000 0.0000 0.0000 0.0000 29.4731
#
#
#
# Elastic Compliance Matrix: (Units=1/GPa)
#
#
# Indices 1 2 3 4 5 6 
#
# 1 0.017092 -0.004487 -0.004428 0.000000 0.000000 0.000000
# 2 -0.004487 0.010224 -0.004818 0.000000 0.000000 0.000000
# 3 -0.004428 -0.004818 0.015691 0.000000 0.000000 0.000000
# 4 0.000000 0.000000 0.000000 -0.822614 0.000000 0.000000
# 5 0.000000 0.000000 0.000000 0.000000 0.057297 0.000000
# 6 0.000000 0.000000 0.000000 0.000000 0.000000 0.033929
#
#
# Mechanical properties :
#
#
# Convention : Reuss Voigt Hill
#
# Bulk Modulus (GPa) = 64.34930 72.07904 68.21417
# Shear Modulus (GPa) = -7.62501 20.52496 6.44998
#
# Velocity S-wave (km/s) = -2.18290 3.58142 2.00767
# Velocity P-wave (km/s) = 5.81894 7.88327 6.92842
#
# Compressibility (1/GPa) = 0.01554018
#
# Stress axis : x y z
#
# Youngs Moduli (GPa) = 58.50843 97.81288 63.73224
#
# Poissons Ratio (x) = 0.43887 0.28218
# Poissons Ratio (y) = 0.26252 0.30709
# Poissons Ratio (z) = 0.25905 0.47131
#
# Static dielectric constant tensor:
#      x y z
#    x 1.536100 0.000000 0.000000 
#    y 0.000000 1.527200 0.000000 
#    z 0.000000 0.000000 1.511320 
# 
# From -- ./inp_files/15023.got.cif
#   From: 2010.05.17/outbox.cif.g08.bks.cpg/sg47_8_cif.got.tgz:15023.got - 2010.06.03 20:15:42.
