data_PCOD9384406
_publ_section_title
;
Structure prediction by ZEFSAII (Michael W. Deem and Ramdas Pophale) SiO2 
 PCOD9384406
Probable space group: P M M M
;
_chemical_formula_sum "Si O2"
_cell_formula_units_Z 52
_cell_length_a 7.665838
_cell_length_b 37.395885
_cell_length_c 8.350662
_cell_angle_alpha 90.000000
_cell_angle_beta 90.000000
_cell_angle_gamma 90.000000
_cell_volume 2393.890925
_symmetry_space_group_name_H-M "P M M M"
_symmetry_group_IT_number 47
_symmetry_cell_setting 'orthorhombic'
loop_
_space_group_symop_operation_xyz
x,y,z
-x,-y,z
x,-y,-z
-x,y,-z
-x,-y,-z
x,y,-z
-x,y,z
x,-y,z
loop_
_atom_site_type_symbol
_atom_site_label
_atom_site_fract_x
_atom_site_fract_y
_atom_site_fract_z
Si Si1 0.292734 0.763156 0.180533
Si Si2 0.798075 0.613519 0.189874
Si Si3 0.202295 0.918588 0.817448
Si Si4 0.299655 0.838942 0.194179
Si Si5 0.792537 0.538615 0.307979
Si Si6 0.198107 0.687245 0.310687
Si Si7 0.786584 0.041788 0.500000
O O1 0.500000 0.769254 0.169332
O O2 0.224770 0.800757 0.252031
O O3 0.270526 0.726134 0.271191
O O4 0.223287 0.758143 0.000000
O O5 0.718269 0.576035 0.246421
O O6 0.716694 0.651267 0.241552
O O7 0.000000 0.613944 0.253753
O O8 0.804509 0.612790 0.000000
O O9 0.208974 0.876467 0.773833
O O10 0.277039 0.939999 0.665665
O O11 0.000000 0.929299 0.829986
O O12 0.277106 0.922658 0.000000
O O13 0.500000 0.843056 0.248533
O O14 0.299640 0.835273 0.000000
O O15 0.779734 0.539019 0.500000
O O16 0.722147 0.500000 0.251495
O O17 0.000000 0.538583 0.266437
O O18 0.195797 0.682842 0.500000
O O19 0.000000 0.688180 0.246430
O O20 0.000000 0.045329 0.500000
O O21 0.744445 0.000000 0.500000
#
# Coordination Sequence:
#
# PCOD9384406 Si02
#       7
#     8   8   8   8   8   8   4
#     4   9  18  33  52  72  94 122 157 197 241 290
#     4   9  16  25  38  56  79 110 148 189 231 274
#     4   9  17  30  50  75 100 130 168 205 244 291
#     4   8  15  30  51  72  95 124 156 192 239 290
#     4   8  13  21  33  50  75 108 142 176 220 275
#     4  10  20  32  45  64  92 125 159 194 235 283
#     4   9  18  32  49  73 105 135 165 207 251 287
#
# _framework density 21.721958999999998
#
# number of rings (size 3 to 8) (size 9 to 14) (size 15 to 20)
#    0.000    3.154    0.000    2.308    0.000    4.308 
#    1.385    5.000    0.000    0.923    0.000    2.154 
#    0.000    0.615    0.000    6.462    0.000    8.923 
#
# Total GULP energy -289558.958495 kJ/mol
# GULP energy per Si atom -5568.441510 kJ/mol
# Density = 2.167252 g / cm^3
# Si number density = 21.721959 Si / 1000 Ang^3
#
#
#
# Elastic Constant Matrix: (Units=GPa)
#
#
# Indices 1 2 3 4 5 6 
#
# 1 36.3976 6.4548 6.6911 0.0000 0.0000 0.0000
# 2 6.4548 204.3354 78.9972 0.0000 0.0000 0.0000
# 3 6.6911 78.9972 69.3784 0.0000 0.0000 0.0000
# 4 0.0000 0.0000 0.0000 38.0321 0.0000 0.0000
# 5 0.0000 0.0000 0.0000 0.0000 0.3753 0.0000
# 6 0.0000 0.0000 0.0000 0.0000 0.0000 15.2211
#
#
#
# Elastic Compliance Matrix: (Units=1/GPa)
#
#
# Indices 1 2 3 4 5 6 
#
# 1 0.027980 0.000285 -0.003023 0.000000 0.000000 0.000000
# 2 0.000285 0.008745 -0.009985 0.000000 0.000000 0.000000
# 3 -0.003023 -0.009985 0.026075 0.000000 0.000000 0.000000
# 4 0.000000 0.000000 0.000000 0.026294 0.000000 0.000000
# 5 0.000000 0.000000 0.000000 0.000000 2.664757 0.000000
# 6 0.000000 0.000000 0.000000 0.000000 0.000000 0.065698
#
#
# Mechanical properties :
#
#
# Convention : Reuss Voigt Hill
#
# Bulk Modulus (GPa) = 26.77138 54.93308 40.85223
# Shear Modulus (GPa) = 1.74981 25.25691 13.50336
#
# Velocity S-wave (km/s) = 0.89850 3.41359 2.49599
# Velocity P-wave (km/s) = 3.66439 6.39382 5.21098
#
# Compressibility (1/GPa) = 0.03735332
#
# Stress axis : x y z
#
# Youngs Moduli (GPa) = 35.74041 114.34802 38.35129
#
# Poissons Ratio (x) = -0.03256 0.11592
# Poissons Ratio (y) = -0.01018 0.38294
# Poissons Ratio (z) = 0.10803 1.14178
#
# Static dielectric constant tensor:
#      x y z
#    x 1.866460 0.000000 0.000000 
#    y 0.000000 1.844890 0.000000 
#    z 0.000000 0.000000 1.768350 
# 
# From -- ./inp_files/4518.got.cif
#   From: 2010.05.17/outbox.cif.g08.bks.cpg/sg47_3_cif.got.tgz:4518.got - 2010.06.03 20:15:42.
