data_PCOD9384816
_publ_section_title
;
Structure prediction by ZEFSAII (Michael W. Deem and Ramdas Pophale) SiO2 
 PCOD9384816
Probable space group: P M M M
;
_chemical_formula_sum "Si O2"
_cell_formula_units_Z 44
_cell_length_a 9.501533
_cell_length_b 29.176801
_cell_length_c 8.964357
_cell_angle_alpha 90.000000
_cell_angle_beta 90.000000
_cell_angle_gamma 90.000000
_cell_volume 2485.137931
_symmetry_space_group_name_H-M "P M M M"
_symmetry_group_IT_number 47
_symmetry_cell_setting 'orthorhombic'
loop_
_space_group_symop_operation_xyz
x,y,z
-x,-y,z
x,-y,-z
-x,y,-z
-x,-y,-z
x,y,-z
-x,y,z
x,-y,z
loop_
_atom_site_type_symbol
_atom_site_label
_atom_site_fract_x
_atom_site_fract_y
_atom_site_fract_z
Si Si1 0.335308 0.359845 0.680237
Si Si2 0.331763 0.904838 0.176895
Si Si3 0.834027 0.276285 0.821954
Si Si4 0.328851 0.000000 0.328123
Si Si5 0.167165 0.179003 0.322943
Si Si6 0.837333 0.551390 0.681445
O O1 0.322227 0.356864 0.500000
O O2 0.500000 0.359758 0.717344
O O3 0.255914 0.317102 0.752492
O O4 0.261736 0.407242 0.729848
O O5 0.500000 0.900431 0.201960
O O6 0.252340 0.862820 0.252930
O O7 0.285022 0.953420 0.246225
O O8 0.307362 0.904851 0.000000
O O9 0.793344 0.227331 0.752068
O O10 0.000000 0.283697 0.788272
O O11 0.817446 0.274773 0.000000
O O12 0.500000 0.000000 0.325986
O O13 0.283281 0.000000 0.500000
O O14 0.191015 0.181401 0.500000
O O15 0.000000 0.172298 0.297218
O O16 0.834809 0.551052 0.500000
O O17 0.796001 0.500000 0.730144
O O18 0.000000 0.559356 0.725449
#
# Coordination Sequence:
#
# PCOD9384816 Si02
#       6
#     8   8   8   4   8   8
#     4  10  20  32  49  76 107 137 169 208 256 307
#     4  10  20  34  54  80 109 141 176 214 258 309
#     4  10  21  37  56  75  97 131 173 213 256 308
#     4   9  17  31  52  77 106 141 180 220 260 303
#     4  10  21  37  57  80 105 134 170 214 263 312
#     4   8  14  26  46  72 101 134 172 212 253 299
#
# _framework density 17.705254
#
# number of rings (size 3 to 8) (size 9 to 14) (size 15 to 20)
#    0.000    2.455    0.000    3.000    0.000    6.545 
#    0.000    2.273    0.000    3.273    0.000    3.818 
#    0.000    0.000    0.000    0.000    0.000    0.000 
#
# Total GULP energy -245528.440766 kJ/mol
# GULP energy per Si atom -5580.191836 kJ/mol
# Density = 1.766496 g / cm^3
# Si number density = 17.705254 Si / 1000 Ang^3
#
#
#
# Elastic Constant Matrix: (Units=GPa)
#
#
# Indices 1 2 3 4 5 6 
#
# 1 75.4984 106.7615 56.2163 0.0000 0.0000 0.0000
# 2 106.7615 222.8873 77.7151 0.0000 0.0000 0.0000
# 3 56.2163 77.7151 58.6670 0.0000 0.0000 0.0000
# 4 0.0000 0.0000 0.0000 -36.2662 0.0000 0.0000
# 5 0.0000 0.0000 0.0000 0.0000 22.9198 0.0000
# 6 0.0000 0.0000 0.0000 0.0000 0.0000 41.3151
#
#
#
# Elastic Compliance Matrix: (Units=1/GPa)
#
#
# Indices 1 2 3 4 5 6 
#
# 1 0.077305 -0.020814 -0.046504 0.000000 0.000000 0.000000
# 2 -0.020814 0.013941 0.001476 0.000000 0.000000 0.000000
# 3 -0.046504 0.001476 0.059651 0.000000 0.000000 0.000000
# 4 0.000000 0.000000 0.000000 -0.027574 0.000000 0.000000
# 5 0.000000 0.000000 0.000000 0.000000 0.043630 0.000000
# 6 0.000000 0.000000 0.000000 0.000000 0.000000 0.024204
#
#
# Mechanical properties :
#
#
# Convention : Reuss Voigt Hill
#
# Bulk Modulus (GPa) = 52.04395 93.15984 72.60189
# Shear Modulus (GPa) = 15.18618 13.35107 14.26863
#
# Velocity S-wave (km/s) = 2.93187 2.74902 2.84191
# Velocity P-wave (km/s) = 6.39684 7.92511 7.20163
#
# Compressibility (1/GPa) = 0.01921453
#
# Stress axis : x y z
#
# Youngs Moduli (GPa) = 12.93577 71.72835 16.76410
#
# Poissons Ratio (x) = 1.49294 0.77960
# Poissons Ratio (y) = 0.26924 -0.02475
# Poissons Ratio (z) = 0.60157 -0.10589
#
# Static dielectric constant tensor:
#      x y z
#    x 1.589340 0.000000 0.000000 
#    y 0.000000 1.579550 0.000000 
#    z 0.000000 0.000000 1.590910 
# 
# From -- ./inp_files/2086.got.cif
#   From: 2010.05.17/outbox.cif.g08.bks.cpg/sg47_2_cif.got.tgz:2086.got - 2010.06.03 20:15:42.
