data_PCOD9384379
_publ_section_title
;
Structure prediction by ZEFSAII (Michael W. Deem and Ramdas Pophale) SiO2 
 PCOD9384379
Probable space group: P M M M
;
_chemical_formula_sum "Si O2"
_cell_formula_units_Z 64
_cell_length_a 29.398897
_cell_length_b 14.624947
_cell_length_c 7.332035
_cell_angle_alpha 90.000000
_cell_angle_beta 90.000000
_cell_angle_gamma 90.000000
_cell_volume 3152.462049
_symmetry_space_group_name_H-M "P M M M"
_symmetry_group_IT_number 47
_symmetry_cell_setting 'orthorhombic'
loop_
_space_group_symop_operation_xyz
x,y,z
-x,-y,z
x,-y,-z
-x,y,-z
-x,-y,-z
x,y,-z
-x,y,z
x,-y,z
loop_
_atom_site_type_symbol
_atom_site_label
_atom_site_fract_x
_atom_site_fract_y
_atom_site_fract_z
Si Si1 0.625115 0.742702 0.705862
Si Si2 0.552992 0.602047 0.722362
Si Si3 0.703766 0.396059 0.215070
Si Si4 0.876541 0.248369 0.722986
Si Si5 0.306483 0.106217 0.276775
Si Si6 0.949403 0.605404 0.721884
Si Si7 0.773299 0.241797 0.281735
Si Si8 0.049860 0.895068 0.278168
O O1 0.611459 0.768239 0.500000
O O2 0.583129 0.686767 0.789340
O O3 0.664571 0.665763 0.698351
O O4 0.650329 0.832084 0.784407
O O5 0.555504 0.602645 0.500000
O O6 0.500000 0.610297 0.771412
O O7 0.569096 0.500000 0.779132
O O8 0.705635 0.500000 0.282064
O O9 0.749834 0.339001 0.242130
O O10 0.694070 0.398267 0.000000
O O11 0.875033 0.249948 0.500000
O O12 0.906485 0.335348 0.781128
O O13 0.824829 0.240794 0.786475
O O14 0.907553 0.163526 0.780844
O O15 0.306912 0.108054 0.500000
O O16 0.261219 0.161929 0.217854
O O17 0.307232 0.000000 0.221939
O O18 0.949661 0.608798 0.500000
O O19 0.944941 0.500000 0.775360
O O20 0.000000 0.637599 0.778624
O O21 0.775066 0.231656 0.500000
O O22 0.049834 0.892812 0.500000
O O23 0.000000 0.860381 0.221434
O O24 0.053628 0.000000 0.222812
#
# Coordination Sequence:
#
# PCOD9384379 Si02
#       8
#     8   8   8   8   8   8   8   8
#     4   9  16  27  46  68  86 111 149 183 207 241
#     4   8  13  21  36  62  93 118 140 172 213 251
#     4  10  20  32  45  61  84 113 140 171 215 260
#     4   9  15  22  33  50  72  98 129 164 199 235
#     4   8  14  25  40  58  81 108 139 177 217 249
#     4   8  13  20  29  42  63  92 120 145 183 234
#     4   9  18  29  42  62  83 107 141 177 213 253
#     4   8  13  20  30  47  74 107 136 159 192 244
#
# _framework density 20.301590999999998
#
# number of rings (size 3 to 8) (size 9 to 14) (size 15 to 20)
#    0.000    3.375    0.000    3.000    0.000    4.000 
#    0.000    3.750    0.000    6.750    0.000    4.375 
#    0.000    2.000    0.000   12.750    0.000   12.000 
#
# Total GULP energy -356800.386799 kJ/mol
# GULP energy per Si atom -5575.006044 kJ/mol
# Density = 2.025538 g / cm^3
# Si number density = 20.301591 Si / 1000 Ang^3
#
#
#
# Elastic Constant Matrix: (Units=GPa)
#
#
# Indices 1 2 3 4 5 6 
#
# 1 103.6542 63.4504 3.0696 0.0000 0.0000 0.0000
# 2 63.4504 154.0512 0.3326 0.0000 0.0000 0.0000
# 3 3.0696 0.3326 79.7586 0.0000 0.0000 0.0000
# 4 0.0000 0.0000 0.0000 -56.0727 0.0000 0.0000
# 5 0.0000 0.0000 0.0000 0.0000 -48.8209 0.0000
# 6 0.0000 0.0000 0.0000 0.0000 0.0000 32.1297
#
#
#
# Elastic Compliance Matrix: (Units=1/GPa)
#
#
# Indices 1 2 3 4 5 6 
#
# 1 0.012918 -0.005320 -0.000475 0.000000 0.000000 0.000000
# 2 -0.005320 0.008682 0.000169 0.000000 0.000000 0.000000
# 3 -0.000475 0.000169 0.012555 0.000000 0.000000 0.000000
# 4 0.000000 0.000000 0.000000 -0.017834 0.000000 0.000000
# 5 0.000000 0.000000 0.000000 0.000000 -0.020483 0.000000
# 6 0.000000 0.000000 0.000000 0.000000 0.000000 0.031124
#
#
# Mechanical properties :
#
#
# Convention : Reuss Voigt Hill
#
# Bulk Modulus (GPa) = 43.66196 52.35212 48.00704
# Shear Modulus (GPa) = 109.05490 3.48796 56.27143
#
# Velocity S-wave (km/s) = 7.33717 1.31218 5.27048
# Velocity P-wave (km/s) = 9.66085 5.30461 7.79330
#
# Compressibility (1/GPa) = 0.02290323
#
# Stress axis : x y z
#
# Youngs Moduli (GPa) = 77.41253 115.18096 79.64692
#
# Poissons Ratio (x) = 0.61271 0.03783
# Poissons Ratio (y) = 0.41180 -0.01342
# Poissons Ratio (z) = 0.03677 -0.01941
#
# Static dielectric constant tensor:
#      x y z
#    x 1.705580 0.000000 0.000000 
#    y 0.000000 1.703090 0.000000 
#    z 0.000000 0.000000 1.809390 
# 
# From -- ./inp_files/14383.got.cif
#   From: 2010.05.17/outbox.cif.g08.bks.cpg/sg47_8_cif.got.tgz:14383.got - 2010.06.03 20:15:42.
