data_PCOD9384886
_publ_section_title
;
Structure prediction by ZEFSAII (Michael W. Deem and Ramdas Pophale) SiO2 
 PCOD9384886
Probable space group: P M M M
;
_chemical_formula_sum "Si O2"
_cell_formula_units_Z 64
_cell_length_a 26.114773
_cell_length_b 14.951506
_cell_length_c 7.706802
_cell_angle_alpha 90.000000
_cell_angle_beta 90.000000
_cell_angle_gamma 90.000000
_cell_volume 3009.160802
_symmetry_space_group_name_H-M "P M M M"
_symmetry_group_IT_number 47
_symmetry_cell_setting 'orthorhombic'
loop_
_space_group_symop_operation_xyz
x,y,z
-x,-y,z
x,-y,-z
-x,y,-z
-x,-y,-z
x,y,-z
-x,y,z
x,-y,z
loop_
_atom_site_type_symbol
_atom_site_label
_atom_site_fract_x
_atom_site_fract_y
_atom_site_fract_z
Si Si1 0.863168 0.248554 0.201567
Si Si2 0.057429 0.396106 0.709685
Si Si3 0.057605 0.896333 0.788103
Si Si4 0.341617 0.398799 0.206564
Si Si5 0.421542 0.098234 0.204072
Si Si6 0.751507 0.720056 0.797976
Si Si7 0.554959 0.702876 0.701343
Si Si8 0.301739 0.098572 0.291210
O O1 0.899970 0.333662 0.210720
O O2 0.897172 0.167563 0.276856
O O3 0.808252 0.273717 0.280963
O O4 0.853286 0.224579 0.000000
O O5 0.060005 0.389545 0.500000
O O6 0.064322 0.500000 0.755285
O O7 0.000000 0.368901 0.763315
O O8 0.000000 0.869065 0.732199
O O9 0.065121 0.000000 0.740480
O O10 0.057514 0.892047 0.000000
O O11 0.346298 0.500000 0.275426
O O12 0.292081 0.345530 0.277971
O O13 0.393638 0.342134 0.228386
O O14 0.334333 0.405016 0.000000
O O15 0.441870 0.189504 0.284229
O O16 0.360272 0.102084 0.228177
O O17 0.437883 0.000000 0.271801
O O18 0.433703 0.100846 0.000000
O O19 0.728723 0.819542 0.787287
O O20 0.757571 0.693685 0.000000
O O21 0.554294 0.678867 0.500000
O O22 0.500000 0.674767 0.779814
O O23 0.302000 0.107010 0.500000
O O24 0.281136 0.000000 0.246024
#
# Coordination Sequence:
#
# PCOD9384886 Si02
#       8
#     8   8   8   8   8   8   8   8
#     4  10  20  32  52  83 112 139 181 234 280 325
#     4   9  19  36  55  75 104 143 183 224 276 337
#     4   8  14  26  45  71 106 146 184 224 272 321
#     4  10  22  41  62  81 106 145 191 236 286 345
#     4  10  20  35  58  87 118 152 188 225 269 325
#     4  10  21  36  55  82 114 148 185 229 282 337
#     4  11  24  40  60  88 119 148 183 232 284 336
#     4  10  20  34  55  82 112 148 188 228 270 320
#
# _framework density 21.268387000000001
#
# number of rings (size 3 to 8) (size 9 to 14) (size 15 to 20)
#    0.000    2.250    1.250    2.250    0.000    5.750 
#    0.000    5.625    0.000    0.375    0.000    1.750 
#    0.000    0.000    0.000    0.000    0.000    0.000 
#
# Total GULP energy -357182.331482 kJ/mol
# GULP energy per Si atom -5580.973929 kJ/mol
# Density = 2.121998 g / cm^3
# Si number density = 21.268387 Si / 1000 Ang^3
#
#
#
# Elastic Constant Matrix: (Units=GPa)
#
#
# Indices 1 2 3 4 5 6 
#
# 1 185.8594 89.0375 2.4369 0.0000 0.0000 0.0000
# 2 89.0375 119.5741 -2.0933 0.0000 0.0000 0.0000
# 3 2.4369 -2.0933 38.1502 0.0000 0.0000 0.0000
# 4 0.0000 0.0000 0.0000 119.8302 0.0000 0.0000
# 5 0.0000 0.0000 0.0000 0.0000 6.1727 0.0000
# 6 0.0000 0.0000 0.0000 0.0000 0.0000 3.3091
#
#
#
# Elastic Compliance Matrix: (Units=1/GPa)
#
#
# Indices 1 2 3 4 5 6 
#
# 1 0.008393 -0.006265 -0.000880 0.000000 0.000000 0.000000
# 2 -0.006265 0.013048 0.001116 0.000000 0.000000 0.000000
# 3 -0.000880 0.001116 0.026330 0.000000 0.000000 0.000000
# 4 0.000000 0.000000 0.000000 0.008345 0.000000 0.000000
# 5 0.000000 0.000000 0.000000 0.000000 0.162004 0.000000
# 6 0.000000 0.000000 0.000000 0.000000 0.000000 0.302195
#
#
# Mechanical properties :
#
#
# Convention : Reuss Voigt Hill
#
# Bulk Modulus (GPa) = 28.00126 58.03845 43.01985
# Shear Modulus (GPa) = 9.18649 42.80924 25.99786
#
# Velocity S-wave (km/s) = 2.08055 4.49130 3.50004
# Velocity P-wave (km/s) = 4.35498 7.36502 6.05018
#
# Compressibility (1/GPa) = 0.03571268
#
# Stress axis : x y z
#
# Youngs Moduli (GPa) = 119.14125 76.64100 37.98001
#
# Poissons Ratio (x) = 0.48018 0.03342
# Poissons Ratio (y) = 0.74646 -0.04239
# Poissons Ratio (z) = 0.10484 -0.08554
#
# Static dielectric constant tensor:
#      x y z
#    x 1.783070 0.000000 0.000000 
#    y 0.000000 1.758200 0.000000 
#    z 0.000000 0.000000 1.786060 
# 
# From -- ./inp_files/12709.got.cif
#   From: 2010.05.17/outbox.cif.g08.bks.cpg/sg47_7_cif.got.tgz:12709.got - 2010.06.03 20:15:42.
