data_PCOD9384597
_publ_section_title
;
Structure prediction by ZEFSAII (Michael W. Deem and Ramdas Pophale) SiO2 
 PCOD9384597
Probable space group: P M M M
;
_chemical_formula_sum "Si O2"
_cell_formula_units_Z 44
_cell_length_a 9.408061
_cell_length_b 7.447509
_cell_length_c 31.275789
_cell_angle_alpha 90.000000
_cell_angle_beta 90.000000
_cell_angle_gamma 90.000000
_cell_volume 2191.388791
_symmetry_space_group_name_H-M "P M M M"
_symmetry_group_IT_number 47
_symmetry_cell_setting 'orthorhombic'
loop_
_space_group_symop_operation_xyz
x,y,z
-x,-y,z
x,-y,-z
-x,y,-z
-x,-y,-z
x,y,-z
-x,y,z
x,-y,z
loop_
_atom_site_type_symbol
_atom_site_label
_atom_site_fract_x
_atom_site_fract_y
_atom_site_fract_z
Si Si1 0.668765 0.287328 0.381927
Si Si2 0.160587 0.784561 0.129366
Si Si3 0.163481 0.280837 0.703334
Si Si4 0.335864 0.781057 0.952006
Si Si5 0.327576 0.000000 0.548459
Si Si6 0.661072 0.285340 0.214506
O O1 0.500000 0.258254 0.374099
O O2 0.689417 0.500000 0.388726
O O3 0.756488 0.230339 0.340209
O O4 0.711651 0.172977 0.423269
O O5 0.236142 0.717729 0.086213
O O6 0.255746 0.747255 0.170678
O O7 0.000000 0.716382 0.134526
O O8 0.152795 0.000000 0.125515
O O9 0.162987 0.500000 0.704204
O O10 0.249763 0.217964 0.744889
O O11 0.000000 0.222199 0.704230
O O12 0.500000 0.727935 0.944815
O O13 0.334029 0.000000 0.951709
O O14 0.293814 0.725367 0.000000
O O15 0.500000 0.000000 0.546024
O O16 0.273141 0.000000 0.500000
O O17 0.500000 0.215115 0.213062
O O18 0.651793 0.500000 0.219697
#
# Coordination Sequence:
#
# PCOD9384597 Si02
#       6
#     8   8   8   8   4   8
#     4   9  17  31  52  76 103 137 177 219 263 314
#     4  10  20  32  47  71 102 131 162 203 251 304
#     4   9  17  31  52  75  99 129 166 207 250 299
#     4   8  14  26  45  67  91 123 163 205 250 300
#     4   9  18  32  51  79 111 139 175 223 268 311
#     4  10  20  34  53  75  99 131 170 208 251 306
#
# _framework density 20.078590999999999
#
# number of rings (size 3 to 8) (size 9 to 14) (size 15 to 20)
#    0.000    2.818    0.000    2.182    0.000    5.091 
#    1.636    4.091    0.000    1.636    0.000    6.364 
#    0.000    0.000    0.000    0.000    0.000    0.000 
#
# Total GULP energy -245639.964407 kJ/mol
# GULP energy per Si atom -5582.726464 kJ/mol
# Density = 2.003289 g / cm^3
# Si number density = 20.078591 Si / 1000 Ang^3
#
#
#
# Elastic Constant Matrix: (Units=GPa)
#
#
# Indices 1 2 3 4 5 6 
#
# 1 151.1735 28.5046 125.0853 0.0000 0.0000 0.0000
# 2 28.5046 65.5821 32.4153 0.0000 0.0000 0.0000
# 3 125.0853 32.4153 224.5213 0.0000 0.0000 0.0000
# 4 0.0000 0.0000 0.0000 24.7055 0.0000 0.0000
# 5 0.0000 0.0000 0.0000 0.0000 -381.7385 0.0000
# 6 0.0000 0.0000 0.0000 0.0000 0.0000 8.0644
#
#
#
# Elastic Compliance Matrix: (Units=1/GPa)
#
#
# Indices 1 2 3 4 5 6 
#
# 1 0.012548 -0.002152 -0.006680 0.000000 0.000000 0.000000
# 2 -0.002152 0.016789 -0.001225 0.000000 0.000000 0.000000
# 3 -0.006680 -0.001225 0.008352 0.000000 0.000000 0.000000
# 4 0.000000 0.000000 0.000000 0.040477 0.000000 0.000000
# 5 0.000000 0.000000 0.000000 0.000000 -0.002620 0.000000
# 6 0.000000 0.000000 0.000000 0.000000 0.000000 0.124002
#
#
# Mechanical properties :
#
#
# Convention : Reuss Voigt Hill
#
# Bulk Modulus (GPa) = 56.89861 90.36525 73.63193
# Shear Modulus (GPa) = 22.17090 -52.77561 -15.30236
#
# Velocity S-wave (km/s) = 3.32656 -5.13240 -2.76365
# Velocity P-wave (km/s) = 6.56918 3.15933 5.15439
#
# Compressibility (1/GPa) = 0.01757512
#
# Stress axis : x y z
#
# Youngs Moduli (GPa) = 79.69453 59.56318 119.72725
#
# Poissons Ratio (x) = 0.12819 0.79978
# Poissons Ratio (y) = 0.17151 0.14666
# Poissons Ratio (z) = 0.53236 0.07296
#
# Static dielectric constant tensor:
#      x y z
#    x 1.690840 0.000000 0.000000 
#    y 0.000000 1.802920 0.000000 
#    z 0.000000 0.000000 1.668140 
# 
# From -- ./inp_files/33917.got.cif
#   From: 2010.05.17/outbox.cif.g08.bks.cpg/sg47_17_cif.got.tgz:33917.got - 2010.06.03 20:15:42.
