data_PCOD9384555
_publ_section_title
;
Structure prediction by ZEFSAII (Michael W. Deem and Ramdas Pophale) SiO2 
 PCOD9384555
Probable space group: P M M M
;
_chemical_formula_sum "Si O2"
_cell_formula_units_Z 48
_cell_length_a 14.316255
_cell_length_b 20.285616
_cell_length_c 8.029050
_cell_angle_alpha 90.000000
_cell_angle_beta 90.000000
_cell_angle_gamma 90.000000
_cell_volume 2331.748940
_symmetry_space_group_name_H-M "P M M M"
_symmetry_group_IT_number 47
_symmetry_cell_setting 'orthorhombic'
loop_
_space_group_symop_operation_xyz
x,y,z
-x,-y,z
x,-y,-z
-x,y,-z
-x,-y,-z
x,y,-z
-x,y,z
x,-y,z
loop_
_atom_site_type_symbol
_atom_site_label
_atom_site_fract_x
_atom_site_fract_y
_atom_site_fract_z
Si Si1 0.757907 0.185027 0.186793
Si Si2 0.113442 0.428914 0.194558
Si Si3 0.386345 0.428655 0.304218
Si Si4 0.111335 0.711432 0.686725
Si Si5 0.895342 0.076756 0.203521
Si Si6 0.605945 0.714472 0.699452
O O1 0.838561 0.240521 0.187512
O O2 0.810918 0.122386 0.265437
O O3 0.671472 0.223587 0.265452
O O4 0.730255 0.166820 0.000000
O O5 0.144336 0.500000 0.261219
O O6 0.142547 0.363949 0.290411
O O7 0.000000 0.429319 0.199464
O O8 0.139300 0.423798 0.000000
O O9 0.359920 0.430331 0.500000
O O10 0.500000 0.427056 0.299391
O O11 0.358381 0.500000 0.229492
O O12 0.358296 0.356966 0.233476
O O13 0.135751 0.733221 0.500000
O O14 0.000000 0.713695 0.706727
O O15 0.000000 0.098504 0.257164
O O16 0.884541 0.000000 0.247724
O O17 0.894958 0.080663 0.000000
O O18 0.602025 0.706576 0.500000
O O19 0.500000 0.725005 0.760226
#
# Coordination Sequence:
#
# PCOD9384555 Si02
#       6
#     8   8   8   8   8   8
#     4  11  21  32  51  77 103 131 163 203 253 307
#     4   8  14  26  44  64  88 122 164 209 255 298
#     4   7  10  20  42  69  91 115 156 209 257 295
#     4  10  20  32  47  69  98 131 166 204 245 296
#     4   8  15  30  53  80 106 130 160 201 249 301
#     4   9  18  33  52  73 100 135 172 212 259 307
#
# _framework density 20.585405000000002
#
# number of rings (size 3 to 8) (size 9 to 14) (size 15 to 20)
#    0.000    3.167    0.000    4.000    0.000    2.333 
#    0.000    2.500    0.000    6.000    0.000   11.667 
#    0.000    0.000    0.000    0.000    0.000    0.000 
#
# Total GULP energy -267490.119758 kJ/mol
# GULP energy per Si atom -5572.710828 kJ/mol
# Density = 2.053855 g / cm^3
# Si number density = 20.585405 Si / 1000 Ang^3
#
#
#
# Elastic Constant Matrix: (Units=GPa)
#
#
# Indices 1 2 3 4 5 6 
#
# 1 99.5186 55.2627 10.0249 0.0000 0.0000 0.0000
# 2 55.2627 117.9552 1.9024 0.0000 0.0000 0.0000
# 3 10.0249 1.9024 16.0516 0.0000 0.0000 0.0000
# 4 0.0000 0.0000 0.0000 7.9213 0.0000 0.0000
# 5 0.0000 0.0000 0.0000 0.0000 16.2146 0.0000
# 6 0.0000 0.0000 0.0000 0.0000 0.0000 65.8442
#
#
#
# Elastic Compliance Matrix: (Units=1/GPa)
#
#
# Indices 1 2 3 4 5 6 
#
# 1 0.014615 -0.006713 -0.008332 0.000000 0.000000 0.000000
# 2 -0.006713 0.011577 0.002820 0.000000 0.000000 0.000000
# 3 -0.008332 0.002820 0.067169 0.000000 0.000000 0.000000
# 4 0.000000 0.000000 0.000000 0.126243 0.000000 0.000000
# 5 0.000000 0.000000 0.000000 0.000000 0.061673 0.000000
# 6 0.000000 0.000000 0.000000 0.000000 0.000000 0.015187
#
#
# Mechanical properties :
#
#
# Convention : Reuss Voigt Hill
#
# Bulk Modulus (GPa) = 14.51132 40.87840 27.69486
# Shear Modulus (GPa) = 14.53975 29.08503 21.81239
#
# Velocity S-wave (km/s) = 2.66054 3.76293 3.25869
# Velocity P-wave (km/s) = 4.06234 6.22740 5.25753
#
# Compressibility (1/GPa) = 0.06891170
#
# Stress axis : x y z
#
# Youngs Moduli (GPa) = 68.42061 86.37514 14.88787
#
# Poissons Ratio (x) = 0.57984 0.12405
# Poissons Ratio (y) = 0.45931 -0.04199
# Poissons Ratio (z) = 0.57011 -0.24362
#
# Static dielectric constant tensor:
#      x y z
#    x 1.779200 0.000000 0.000000 
#    y 0.000000 1.762710 0.000000 
#    z 0.000000 0.000000 1.783010 
# 
# From -- ./inp_files/6821.got.cif
#   From: 2010.05.17/outbox.cif.g08.bks.cpg/sg47_4_cif.got.tgz:6821.got - 2010.06.03 20:15:42.
