data_PCOD9384291
_publ_section_title
;
Structure prediction by ZEFSAII (Michael W. Deem and Ramdas Pophale) SiO2 
 PCOD9384291
Probable space group: P M M M
;
_chemical_formula_sum "Si O2"
_cell_formula_units_Z 56
_cell_length_a 14.549578
_cell_length_b 26.587585
_cell_length_c 8.956228
_cell_angle_alpha 90.000000
_cell_angle_beta 90.000000
_cell_angle_gamma 90.000000
_cell_volume 3464.610597
_symmetry_space_group_name_H-M "P M M M"
_symmetry_group_IT_number 47
_symmetry_cell_setting 'orthorhombic'
loop_
_space_group_symop_operation_xyz
x,y,z
-x,-y,z
x,-y,-z
-x,y,-z
-x,-y,-z
x,y,-z
-x,y,z
x,-y,z
loop_
_atom_site_type_symbol
_atom_site_label
_atom_site_fract_x
_atom_site_fract_y
_atom_site_fract_z
Si Si1 0.784724 0.556187 0.678239
Si Si2 0.890878 0.840666 0.677426
Si Si3 0.219226 0.749427 0.821053
Si Si4 0.395066 0.403722 0.821598
Si Si5 0.888594 0.055647 0.825648
Si Si6 0.394469 0.706843 0.322679
Si Si7 0.107018 0.648419 0.820606
O O1 0.780500 0.561458 0.500000
O O2 0.818853 0.500000 0.714216
O O3 0.683081 0.563241 0.745840
O O4 0.847285 0.600069 0.745496
O O5 0.879981 0.835933 0.500000
O O6 0.834701 0.797583 0.760777
O O7 0.860100 0.896043 0.731353
O O8 0.000000 0.835477 0.712208
O O9 0.318956 0.743260 0.747268
O O10 0.162074 0.698992 0.780099
O O11 0.226514 0.751280 0.000000
O O12 0.500000 0.420107 0.790715
O O13 0.384510 0.347352 0.756941
O O14 0.382034 0.402623 0.000000
O O15 0.000000 0.054686 0.819498
O O16 0.857002 0.000000 0.775864
O O17 0.863701 0.062063 0.000000
O O18 0.379487 0.700819 0.500000
O O19 0.500000 0.723354 0.299589
O O20 0.000000 0.653198 0.780165
O O21 0.113396 0.642919 0.000000
#
# Coordination Sequence:
#
# PCOD9384291 Si02
#       7
#     8   8   8   8   8   8   8
#     4  11  24  39  55  76 101 129 162 202 249 300
#     4  10  20  31  45  70 104 141 179 217 257 299
#     4  11  21  34  54  77 102 133 169 207 248 298
#     4  10  20  35  56  80 103 128 159 194 238 295
#     4   8  14  26  44  65  93 133 178 220 260 300
#     4  10  20  34  54  79 105 131 159 195 243 299
#     4  10  22  39  57  76  97 127 167 207 249 296
#
# _framework density 16.163432
#
# number of rings (size 3 to 8) (size 9 to 14) (size 15 to 20)
#    0.000    2.000    1.429    3.000    0.000    6.000 
#    0.000    4.286    0.000    0.000    0.000    0.000 
#    0.000    0.571    0.000    6.000    0.000    2.857 
#
# Total GULP energy -312538.076904 kJ/mol
# GULP energy per Si atom -5581.037088 kJ/mol
# Density = 1.612664 g / cm^3
# Si number density = 16.163432 Si / 1000 Ang^3
#
#
#
# Elastic Constant Matrix: (Units=GPa)
#
#
# Indices 1 2 3 4 5 6 
#
# 1 73.6889 47.3800 36.1771 0.0000 0.0000 0.0000
# 2 47.3800 113.7577 45.0296 0.0000 0.0000 0.0000
# 3 36.1771 45.0296 45.7204 0.0000 0.0000 0.0000
# 4 0.0000 0.0000 0.0000 33.6607 0.0000 0.0000
# 5 0.0000 0.0000 0.0000 0.0000 24.0424 0.0000
# 6 0.0000 0.0000 0.0000 0.0000 0.0000 8.5524
#
#
#
# Elastic Compliance Matrix: (Units=1/GPa)
#
#
# Indices 1 2 3 4 5 6 
#
# 1 0.023216 -0.003930 -0.014499 0.000000 0.000000 0.000000
# 2 -0.003930 0.015073 -0.011735 0.000000 0.000000 0.000000
# 3 -0.014499 -0.011735 0.044903 0.000000 0.000000 0.000000
# 4 0.000000 0.000000 0.000000 0.029708 0.000000 0.000000
# 5 0.000000 0.000000 0.000000 0.000000 0.041593 0.000000
# 6 0.000000 0.000000 0.000000 0.000000 0.000000 0.116926
#
#
# Mechanical properties :
#
#
# Convention : Reuss Voigt Hill
#
# Bulk Modulus (GPa) = 43.74028 54.48225 49.11127
# Shear Modulus (GPa) = 14.73323 20.22311 17.47817
#
# Velocity S-wave (km/s) = 3.02241 3.54102 3.29194
# Velocity P-wave (km/s) = 6.26897 7.10624 6.70069
#
# Compressibility (1/GPa) = 0.02286222
#
# Stress axis : x y z
#
# Youngs Moduli (GPa) = 43.07409 66.34503 22.27022
#
# Poissons Ratio (x) = 0.26073 0.32290
# Poissons Ratio (y) = 0.16928 0.26135
# Poissons Ratio (z) = 0.62455 0.77858
#
# Static dielectric constant tensor:
#      x y z
#    x 1.536630 0.000000 0.000000 
#    y 0.000000 1.534740 0.000000 
#    z 0.000000 0.000000 1.536010 
# 
# From -- ./inp_files/7366.got.cif
#   From: 2010.05.17/outbox.cif.g08.bks.cpg/sg47_4_cif.got.tgz:7366.got - 2010.06.03 20:15:42.
