data_PCOD9384097
_publ_section_title
;
Structure prediction by ZEFSAII (Michael W. Deem and Ramdas Pophale) SiO2 
 PCOD9384097
Probable space group: P M M M
;
_chemical_formula_sum "Si O2"
_cell_formula_units_Z 52
_cell_length_a 9.095530
_cell_length_b 23.261332
_cell_length_c 15.591168
_cell_angle_alpha 90.000000
_cell_angle_beta 90.000000
_cell_angle_gamma 90.000000
_cell_volume 3298.688009
_symmetry_space_group_name_H-M "P M M M"
_symmetry_group_IT_number 47
_symmetry_cell_setting 'orthorhombic'
loop_
_space_group_symop_operation_xyz
x,y,z
-x,-y,z
x,-y,-z
-x,y,-z
-x,-y,-z
x,y,-z
-x,y,z
x,-y,z
loop_
_atom_site_type_symbol
_atom_site_label
_atom_site_fract_x
_atom_site_fract_y
_atom_site_fract_z
Si Si1 0.170083 0.098035 0.674327
Si Si2 0.830167 0.231169 0.271788
Si Si3 0.675590 0.318465 0.600097
Si Si4 0.676238 0.063912 0.153114
Si Si5 0.332924 0.931301 0.500000
Si Si6 0.829496 0.563608 0.603877
Si Si7 0.823456 0.180765 0.904260
O O1 0.172259 0.166122 0.692733
O O2 0.261278 0.068301 0.750252
O O3 0.245785 0.087060 0.584156
O O4 0.000000 0.078964 0.675452
O O5 0.739659 0.271803 0.334557
O O6 0.776647 0.222540 0.173501
O O7 0.000000 0.250983 0.270612
O O8 0.722291 0.308241 0.500000
O O9 0.500000 0.317392 0.601582
O O10 0.733920 0.381363 0.627489
O O11 0.500000 0.069935 0.152924
O O12 0.748721 0.118363 0.106347
O O13 0.712094 0.000000 0.118765
O O14 0.500000 0.908340 0.500000
O O15 0.340461 0.000000 0.500000
O O16 0.827235 0.562058 0.500000
O O17 0.780290 0.500000 0.633359
O O18 0.000000 0.571521 0.629432
O O19 0.000000 0.172766 0.893967
O O20 0.794680 0.202738 0.000000
#
# Coordination Sequence:
#
# PCOD9384097 Si02
#       7
#     8   8   8   8   4   8   8
#     4  10  21  35  50  67  86 116 157 197 236 278
#     4   9  19  34  50  68  91 120 154 194 236 278
#     4  10  20  30  43  68  99 132 166 197 231 270
#     4  10  20  33  49  70  95 119 144 180 232 291
#     4  11  23  35  47  65  89 117 150 191 240 289
#     4   8  14  26  44  65  91 127 167 201 233 267
#     4   9  19  36  55  73  92 117 152 194 241 290
#
# _framework density 15.763843
#
# number of rings (size 3 to 8) (size 9 to 14) (size 15 to 20)
#    0.000    2.538    0.000    3.462    1.077    8.615 
#    0.000    3.077    0.000    0.000    0.000    0.000 
#    0.000    0.615    0.000    7.077    0.000    2.308 
#
# Total GULP energy -289823.105232 kJ/mol
# GULP energy per Si atom -5573.521254 kJ/mol
# Density = 1.572796 g / cm^3
# Si number density = 15.763843 Si / 1000 Ang^3
#
#
#
# Elastic Constant Matrix: (Units=GPa)
#
#
# Indices 1 2 3 4 5 6 
#
# 1 48.7818 34.0806 30.0030 0.0000 0.0000 0.0000
# 2 34.0806 81.2510 37.0322 0.0000 0.0000 0.0000
# 3 30.0030 37.0322 96.5813 0.0000 0.0000 0.0000
# 4 0.0000 0.0000 0.0000 4.8252 0.0000 0.0000
# 5 0.0000 0.0000 0.0000 0.0000 -6.3098 0.0000
# 6 0.0000 0.0000 0.0000 0.0000 0.0000 36.8878
#
#
#
# Elastic Compliance Matrix: (Units=1/GPa)
#
#
# Indices 1 2 3 4 5 6 
#
# 1 0.031388 -0.010568 -0.005698 0.000000 0.000000 0.000000
# 2 -0.010568 0.018472 -0.003800 0.000000 0.000000 0.000000
# 3 -0.005698 -0.003800 0.013581 0.000000 0.000000 0.000000
# 4 0.000000 0.000000 0.000000 0.207247 0.000000 0.000000
# 5 0.000000 0.000000 0.000000 0.000000 -0.158483 0.000000
# 6 0.000000 0.000000 0.000000 0.000000 0.000000 0.027109
#
#
# Mechanical properties :
#
#
# Convention : Reuss Voigt Hill
#
# Bulk Modulus (GPa) = 42.90356 47.64951 45.27654
# Shear Modulus (GPa) = 26.70709 15.44718 21.07714
#
# Velocity S-wave (km/s) = 4.12053 3.13375 3.66054
# Velocity P-wave (km/s) = 7.06498 6.58685 6.83010
#
# Compressibility (1/GPa) = 0.02330809
#
# Stress axis : x y z
#
# Youngs Moduli (GPa) = 31.85977 54.13528 73.63171
#
# Poissons Ratio (x) = 0.57212 0.41958
# Poissons Ratio (y) = 0.33670 0.27978
# Poissons Ratio (z) = 0.18155 0.20570
#
# Static dielectric constant tensor:
#      x y z
#    x 1.532010 0.000000 0.000000 
#    y 0.000000 1.521090 0.000000 
#    z 0.000000 0.000000 1.536190 
# 
# From -- ./inp_files/21812.got.cif
#   From: 2010.05.17/outbox.cif.g08.bks.cpg/sg47_11_cif.got.tgz:21812.got - 2010.06.03 20:15:42.
