data_PCOD9384856
_publ_section_title
;
Structure prediction by ZEFSAII (Michael W. Deem and Ramdas Pophale) SiO2 
 PCOD9384856
Probable space group: P M M M
;
_chemical_formula_sum "Si O2"
_cell_formula_units_Z 52
_cell_length_a 7.699558
_cell_length_b 16.558256
_cell_length_c 20.221179
_cell_angle_alpha 90.000000
_cell_angle_beta 90.000000
_cell_angle_gamma 90.000000
_cell_volume 2578.023437
_symmetry_space_group_name_H-M "P M M M"
_symmetry_group_IT_number 47
_symmetry_cell_setting 'orthorhombic'
loop_
_space_group_symop_operation_xyz
x,y,z
-x,-y,z
x,-y,-z
-x,y,-z
-x,-y,-z
x,y,-z
-x,y,z
x,-y,z
loop_
_atom_site_type_symbol
_atom_site_label
_atom_site_fract_x
_atom_site_fract_y
_atom_site_fract_z
Si Si1 0.708347 0.410959 0.213548
Si Si2 0.500000 0.586466 0.579032
Si Si3 0.709849 0.844514 0.073484
Si Si4 0.204201 0.087569 0.789718
Si Si5 0.794742 0.288325 0.424512
Si Si6 0.207078 0.757134 0.715413
Si Si7 0.288343 0.344219 0.073890
O O1 0.500000 0.415524 0.210730
O O2 0.772369 0.500000 0.235501
O O3 0.743570 0.331458 0.257510
O O4 0.771185 0.392515 0.138443
O O5 0.500000 0.500000 0.612742
O O6 0.500000 0.577592 0.500000
O O7 0.674338 0.635466 0.591836
O O8 0.500000 0.847346 0.076137
O O9 0.781095 0.897853 0.132208
O O10 0.759838 0.750188 0.082570
O O11 0.764226 0.869384 0.000000
O O12 0.282104 0.167790 0.756223
O O13 0.000000 0.085326 0.772323
O O14 0.279525 0.000000 0.772011
O O15 0.754358 0.261635 0.500000
O O16 0.755457 0.231210 0.362517
O O17 0.000000 0.307366 0.422780
O O18 0.000000 0.758651 0.722953
O O19 0.500000 0.347395 0.073517
O O20 0.231870 0.370258 0.000000
#
# Coordination Sequence:
#
# PCOD9384856 Si02
#       7
#     8   4   8   8   8   8   8
#     4  10  20  32  50  77 104 135 176 218 260 309
#     4   9  18  32  52  82 115 145 182 227 273 321
#     4   9  17  31  52  75 101 135 175 219 264 313
#     4  10  21  36  54  77 105 137 174 218 271 328
#     4   9  19  36  57  80 107 145 189 226 271 333
#     4  10  21  37  55  75 104 140 173 216 270 321
#     4   8  14  27  47  70  97 130 169 215 262 304
#
# _framework density 20.170490999999998
#
# number of rings (size 3 to 8) (size 9 to 14) (size 15 to 20)
#    0.000    2.692    1.538    0.923    1.077    2.462 
#    0.000    6.154    0.000    0.923    0.000    4.308 
#    0.000    1.846    0.000    0.154    0.000    0.000 
#
# Total GULP energy -289752.320906 kJ/mol
# GULP energy per Si atom -5572.160017 kJ/mol
# Density = 2.012458 g / cm^3
# Si number density = 20.170491 Si / 1000 Ang^3
#
#
#
# Elastic Constant Matrix: (Units=GPa)
#
#
# Indices 1 2 3 4 5 6 
#
# 1 26.2176 10.3504 13.0472 0.0000 0.0000 0.0000
# 2 10.3504 125.1594 70.4645 0.0000 0.0000 0.0000
# 3 13.0472 70.4645 122.8366 0.0000 0.0000 0.0000
# 4 0.0000 0.0000 0.0000 3.3973 0.0000 0.0000
# 5 0.0000 0.0000 0.0000 0.0000 9.5039 0.0000
# 6 0.0000 0.0000 0.0000 0.0000 0.0000 -21.8419
#
#
#
# Elastic Compliance Matrix: (Units=1/GPa)
#
#
# Indices 1 2 3 4 5 6 
#
# 1 0.040429 -0.001367 -0.003510 0.000000 0.000000 0.000000
# 2 -0.001367 0.011847 -0.006651 0.000000 0.000000 0.000000
# 3 -0.003510 -0.006651 0.012329 0.000000 0.000000 0.000000
# 4 0.000000 0.000000 0.000000 0.294348 0.000000 0.000000
# 5 0.000000 0.000000 0.000000 0.000000 0.105220 0.000000
# 6 0.000000 0.000000 0.000000 0.000000 0.000000 -0.045784
#
#
# Mechanical properties :
#
#
# Convention : Reuss Voigt Hill
#
# Bulk Modulus (GPa) = 24.06800 51.32643 37.69721
# Shear Modulus (GPa) = 10.98190 10.23530 10.60860
#
# Velocity S-wave (km/s) = 2.33588 2.25509 2.29584
# Velocity P-wave (km/s) = 4.38558 5.68173 5.07521
#
# Compressibility (1/GPa) = 0.04154895
#
# Stress axis : x y z
#
# Youngs Moduli (GPa) = 24.73481 84.40699 81.10978
#
# Poissons Ratio (x) = 0.11542 0.28468
# Poissons Ratio (y) = 0.03382 0.53946
# Poissons Ratio (z) = 0.08681 0.56139
#
# Static dielectric constant tensor:
#      x y z
#    x 1.706280 0.000000 0.000000 
#    y 0.000000 1.749690 0.000000 
#    z 0.000000 0.000000 1.741160 
# 
# From -- ./inp_files/29552.got.cif
#   From: 2010.05.17/outbox.cif.g08.bks.cpg/sg47_15_cif.got.tgz:29552.got - 2010.06.03 20:15:42.
