data_PCOD9384554
_publ_section_title
;
Structure prediction by ZEFSAII (Michael W. Deem and Ramdas Pophale) SiO2 
 PCOD9384554
Probable space group: P M M M
;
_chemical_formula_sum "Si O2"
_cell_formula_units_Z 44
_cell_length_a 7.804420
_cell_length_b 8.460007
_cell_length_c 31.679844
_cell_angle_alpha 90.000000
_cell_angle_beta 90.000000
_cell_angle_gamma 90.000000
_cell_volume 2091.675887
_symmetry_space_group_name_H-M "P M M M"
_symmetry_group_IT_number 47
_symmetry_cell_setting 'orthorhombic'
loop_
_space_group_symop_operation_xyz
x,y,z
-x,-y,z
x,-y,-z
-x,y,-z
-x,-y,-z
x,y,-z
-x,y,z
x,-y,z
loop_
_atom_site_type_symbol
_atom_site_label
_atom_site_fract_x
_atom_site_fract_y
_atom_site_fract_z
Si Si1 0.291259 0.314469 0.045754
Si Si2 0.704653 0.500000 0.452075
Si Si3 0.206683 0.182820 0.400327
Si Si4 0.194479 0.686479 0.220979
Si Si5 0.704343 0.825050 0.866591
Si Si6 0.196709 0.811200 0.306996
O O1 0.500000 0.303410 0.045829
O O2 0.249541 0.500000 0.047016
O O3 0.226057 0.238187 0.088895
O O4 0.233934 0.249996 0.000000
O O5 0.500000 0.500000 0.453341
O O6 0.772690 0.500000 0.500000
O O7 0.754447 0.666254 0.429651
O O8 0.272803 0.223932 0.353017
O O9 0.000000 0.172677 0.397588
O O10 0.263234 0.000000 0.411517
O O11 0.190529 0.500000 0.226276
O O12 0.268058 0.724112 0.175236
O O13 0.279525 0.754708 0.263365
O O14 0.000000 0.750761 0.219794
O O15 0.500000 0.833437 0.872208
O O16 0.771919 0.000000 0.858329
O O17 0.000000 0.746912 0.307291
O O18 0.187777 0.000000 0.305230
#
# Coordination Sequence:
#
# PCOD9384554 Si02
#       6
#     8   4   8   8   8   8
#     4   8  14  26  45  67  90 119 157 202 252 303
#     4  11  25  41  57  83 121 163 199 231 280 347
#     4   9  19  37  63  91 115 145 191 247 296 334
#     4  10  20  32  50  76 102 133 171 207 250 308
#     4  10  20  32  47  69  98 131 165 204 251 301
#     4   8  15  30  53  80 106 132 167 215 268 316
#
# _framework density 21.035762999999999
#
# number of rings (size 3 to 8) (size 9 to 14) (size 15 to 20)
#    0.000    2.818    0.000    3.000    1.273    4.000 
#    0.000    4.545    0.000    1.636    0.000    3.818 
#    0.000    0.000    0.000    0.000    0.000    0.000 
#
# Total GULP energy -245025.619839 kJ/mol
# GULP energy per Si atom -5568.764087 kJ/mol
# Density = 2.098788 g / cm^3
# Si number density = 21.035763 Si / 1000 Ang^3
#
#
#
# Elastic Constant Matrix: (Units=GPa)
#
#
# Indices 1 2 3 4 5 6 
#
# 1 28.4515 7.6590 9.8401 0.0000 0.0000 0.0000
# 2 7.6590 77.9673 83.4525 0.0000 0.0000 0.0000
# 3 9.8401 83.4525 201.3777 0.0000 0.0000 0.0000
# 4 0.0000 0.0000 0.0000********** 0.0000 0.0000
# 5 0.0000 0.0000 0.0000 0.0000 8.4610 0.0000
# 6 0.0000 0.0000 0.0000 0.0000 0.0000 10.0662
#
#
#
# Elastic Compliance Matrix: (Units=1/GPa)
#
#
# Indices 1 2 3 4 5 6 
#
# 1 0.036134 -0.002983 -0.000530 0.000000 0.000000 0.000000
# 2 -0.002983 0.023296 -0.009508 0.000000 0.000000 0.000000
# 3 -0.000530 -0.009508 0.008932 0.000000 0.000000 0.000000
# 4 0.000000 0.000000 0.000000 -0.000042 0.000000 0.000000
# 5 0.000000 0.000000 0.000000 0.000000 0.118189 0.000000
# 6 0.000000 0.000000 0.000000 0.000000 0.000000 0.099342
#
#
# Mechanical properties :
#
#
# Convention : Reuss Voigt Hill
#
# Bulk Modulus (GPa) = 23.62922 56.63333 40.13127
# Shear Modulus (GPa) = 15.33745 -4778.14980 -2381.40618
#
# Velocity S-wave (km/s) = 2.70314 -47.71134 -33.68282
# Velocity P-wave (km/s) = 4.58256 54.84690 38.64701
#
# Compressibility (1/GPa) = 0.04232049
#
# Stress axis : x y z
#
# Youngs Moduli (GPa) = 27.67506 42.92542 111.95676
#
# Poissons Ratio (x) = 0.12804 0.05929
# Poissons Ratio (y) = 0.08255 1.06453
# Poissons Ratio (z) = 0.01466 0.40815
#
# Static dielectric constant tensor:
#      x y z
#    x 1.817120 0.000000 0.000000 
#    y 0.000000 1.740370 0.000000 
#    z 0.000000 0.000000 1.804440 
# 
# From -- ./inp_files/33916.got.cif
#   From: 2010.05.17/outbox.cif.g08.bks.cpg/sg47_17_cif.got.tgz:33916.got - 2010.06.03 20:15:42.
