data_PCOD9384657
_publ_section_title
;
Structure prediction by ZEFSAII (Michael W. Deem and Ramdas Pophale) SiO2 
 PCOD9384657
Probable space group: P M M M
;
_chemical_formula_sum "Si O2"
_cell_formula_units_Z 40
_cell_length_a 9.286488
_cell_length_b 7.477316
_cell_length_c 28.634509
_cell_angle_alpha 90.000000
_cell_angle_beta 90.000000
_cell_angle_gamma 90.000000
_cell_volume 1988.323188
_symmetry_space_group_name_H-M "P M M M"
_symmetry_group_IT_number 47
_symmetry_cell_setting 'orthorhombic'
loop_
_space_group_symop_operation_xyz
x,y,z
-x,-y,z
x,-y,-z
-x,y,-z
-x,-y,-z
x,y,-z
-x,y,z
x,-y,z
loop_
_atom_site_type_symbol
_atom_site_label
_atom_site_fract_x
_atom_site_fract_y
_atom_site_fract_z
Si Si1 0.834059 0.781186 0.406976
Si Si2 0.662962 0.213447 0.315873
Si Si3 0.163432 0.714662 0.221576
Si Si4 0.325159 0.000000 0.947010
Si Si5 0.671578 0.288204 0.871475
Si Si6 0.665902 0.218350 0.500000
O O1 0.752751 0.719544 0.360314
O O2 0.749226 0.725375 0.453370
O O3 0.000000 0.724279 0.407634
O O4 0.834494 0.000000 0.406755
O O5 0.500000 0.284345 0.314211
O O6 0.746327 0.243861 0.267747
O O7 0.652996 0.000000 0.321962
O O8 0.157004 0.500000 0.218463
O O9 0.243880 0.774208 0.174565
O O10 0.000000 0.782777 0.224856
O O11 0.284837 0.172903 0.916398
O O12 0.500000 0.000000 0.949433
O O13 0.270658 0.000000 0.000000
O O14 0.500000 0.263072 0.863750
O O15 0.695968 0.500000 0.878576
O O16 0.500000 0.275946 0.500000
O O17 0.665413 0.000000 0.500000
#
# Coordination Sequence:
#
# PCOD9384657 Si02
#       6
#     8   8   8   4   8   4
#     4   9  16  26  40  61  91 126 165 208 257 312
#     4  10  20  32  48  72 101 131 165 209 260 313
#     4  10  21  36  53  74 101 134 172 213 259 312
#     4   9  18  32  53  83 113 141 181 228 271 320
#     4   9  18  33  53  77 107 142 180 224 272 321
#     4   9  15  23  37  57  86 125 166 209 258 311
#
# _framework density 20.117455
#
# number of rings (size 3 to 8) (size 9 to 14) (size 15 to 20)
#    0.000    2.600    0.000    2.100    1.400    6.400 
#    0.000    2.000    0.000    1.200    0.000    3.500 
#    0.000    5.600    0.000    0.000    0.000    0.000 
#
# Total GULP energy -223382.871837 kJ/mol
# GULP energy per Si atom -5584.571796 kJ/mol
# Density = 2.007167 g / cm^3
# Si number density = 20.117455 Si / 1000 Ang^3
#
#
#
# Elastic Constant Matrix: (Units=GPa)
#
#
# Indices 1 2 3 4 5 6 
#
# 1 167.9150 31.0550 122.9163 0.0000 0.0000 0.0000
# 2 31.0550 63.3066 35.5045 0.0000 0.0000 0.0000
# 3 122.9163 35.5045 239.3509 0.0000 0.0000 0.0000
# 4 0.0000 0.0000 0.0000 118.3197 0.0000 0.0000
# 5 0.0000 0.0000 0.0000 0.0000 468.9323 0.0000
# 6 0.0000 0.0000 0.0000 0.0000 0.0000 6.6215
#
#
#
# Elastic Compliance Matrix: (Units=1/GPa)
#
#
# Indices 1 2 3 4 5 6 
#
# 1 0.009808 -0.002167 -0.004715 0.000000 0.000000 0.000000
# 2 -0.002167 0.017708 -0.001514 0.000000 0.000000 0.000000
# 3 -0.004715 -0.001514 0.006824 0.000000 0.000000 0.000000
# 4 0.000000 0.000000 0.000000 0.008452 0.000000 0.000000
# 5 0.000000 0.000000 0.000000 0.000000 0.002133 0.000000
# 6 0.000000 0.000000 0.000000 0.000000 0.000000 0.151023
#
#
# Mechanical properties :
#
#
# Convention : Reuss Voigt Hill
#
# Bulk Modulus (GPa) = 56.98707 94.39159 75.68933
# Shear Modulus (GPa) = 22.87399 137.51448 80.19423
#
# Velocity S-wave (km/s) = 3.37563 8.27673 6.32057
# Velocity P-wave (km/s) = 6.60166 11.76270 9.53790
#
# Compressibility (1/GPa) = 0.01754784
#
# Stress axis : x y z
#
# Youngs Moduli (GPa) = 101.95992 56.47116 146.54057
#
# Poissons Ratio (x) = 0.12236 0.69098
# Poissons Ratio (y) = 0.22092 0.22187
# Poissons Ratio (z) = 0.48077 0.08550
#
# Static dielectric constant tensor:
#      x y z
#    x 1.693340 0.000000 0.000000 
#    y 0.000000 1.792740 0.000000 
#    z 0.000000 0.000000 1.663260 
# 
# From -- ./inp_files/12990.got.cif
#   From: 2010.05.17/outbox.cif.g08.bks.cpg/sg47_7_cif.got.tgz:12990.got - 2010.06.03 20:15:42.
