data_PCOD9384754
_publ_section_title
;
Structure prediction by ZEFSAII (Michael W. Deem and Ramdas Pophale) SiO2 
 PCOD9384754
Probable space group: P M M M
;
_chemical_formula_sum "Si O2"
_cell_formula_units_Z 48
_cell_length_a 8.788611
_cell_length_b 15.698632
_cell_length_c 20.539494
_cell_angle_alpha 90.000000
_cell_angle_beta 90.000000
_cell_angle_gamma 90.000000
_cell_volume 2833.816937
_symmetry_space_group_name_H-M "P M M M"
_symmetry_group_IT_number 47
_symmetry_cell_setting 'orthorhombic'
loop_
_space_group_symop_operation_xyz
x,y,z
-x,-y,z
x,-y,-z
-x,y,-z
-x,-y,-z
x,y,-z
-x,y,z
x,-y,z
loop_
_atom_site_type_symbol
_atom_site_label
_atom_site_fract_x
_atom_site_fract_y
_atom_site_fract_z
Si Si1 0.825052 0.500000 0.577519
Si Si2 0.176151 0.265684 0.236808
Si Si3 0.316253 0.905395 0.284565
Si Si4 0.821636 0.682663 0.387519
Si Si5 0.682666 0.856015 0.429228
Si Si6 0.682099 0.400951 0.138050
Si Si7 0.173325 0.397055 0.000000
O O1 0.830696 0.500000 0.500000
O O2 0.756318 0.410821 0.599299
O O3 0.000000 0.500000 0.603209
O O4 0.250139 0.172059 0.242617
O O5 0.183424 0.300121 0.310736
O O6 0.256591 0.333735 0.190310
O O7 0.000000 0.258393 0.217756
O O8 0.500000 0.898483 0.284500
O O9 0.264806 0.896281 0.360617
O O10 0.274223 0.000000 0.261688
O O11 0.731744 0.757637 0.422872
O O12 0.000000 0.685212 0.408533
O O13 0.737063 0.888884 0.500000
O O14 0.500000 0.863867 0.429340
O O15 0.500000 0.400493 0.138185
O O16 0.731473 0.500000 0.150629
O O17 0.742143 0.374487 0.066699
O O18 0.168964 0.500000 0.000000
O O19 0.000000 0.365425 0.000000
#
# Coordination Sequence:
#
# PCOD9384754 Si02
#       7
#     4   8   8   8   8   8   4
#     4   9  16  26  41  59  79 110 155 200 239 285
#     4  10  20  32  49  72  98 129 166 209 251 294
#     4   9  18  33  51  69  93 125 161 205 256 311
#     4   9  18  30  44  61  84 118 158 201 244 291
#     4   9  17  29  45  65  89 115 148 196 252 307
#     4  10  20  33  51  76 108 143 175 204 239 285
#     4   9  17  31  51  77 108 141 174 207 241 277
#
# _framework density 16.938286000000002
#
# number of rings (size 3 to 8) (size 9 to 14) (size 15 to 20)
#    0.000    2.667    0.000    1.750    1.167    4.333 
#    0.000    2.083    0.000    1.500    0.000    5.250 
#    0.000    4.667    0.000    0.000    0.000    0.000 
#
# Total GULP energy -267428.619313 kJ/mol
# GULP energy per Si atom -5571.429569 kJ/mol
# Density = 1.689973 g / cm^3
# Si number density = 16.938286 Si / 1000 Ang^3
#
#
#
# Elastic Constant Matrix: (Units=GPa)
#
#
# Indices 1 2 3 4 5 6 
#
# 1 40.4889 29.7518 30.2800 0.0000 0.0000 0.0000
# 2 29.7518 120.3028 38.1458 0.0000 0.0000 0.0000
# 3 30.2800 38.1458 75.4453 0.0000 0.0000 0.0000
# 4 0.0000 0.0000 0.0000 3.8653 0.0000 0.0000
# 5 0.0000 0.0000 0.0000 0.0000 20.1665 0.0000
# 6 0.0000 0.0000 0.0000 0.0000 0.0000 18.0859
#
#
#
# Elastic Compliance Matrix: (Units=1/GPa)
#
#
# Indices 1 2 3 4 5 6 
#
# 1 0.038064 -0.005442 -0.012526 0.000000 0.000000 0.000000
# 2 -0.005442 0.010677 -0.003214 0.000000 0.000000 0.000000
# 3 -0.012526 -0.003214 0.019907 0.000000 0.000000 0.000000
# 4 0.000000 0.000000 0.000000 0.258710 0.000000 0.000000
# 5 0.000000 0.000000 0.000000 0.000000 0.049587 0.000000
# 6 0.000000 0.000000 0.000000 0.000000 0.000000 0.055292
#
#
# Mechanical properties :
#
#
# Convention : Reuss Voigt Hill
#
# Bulk Modulus (GPa) = 38.04491 48.06581 43.05536
# Shear Modulus (GPa) = 10.34418 17.62752 13.98585
#
# Velocity S-wave (km/s) = 2.47391 3.22947 2.87661
# Velocity P-wave (km/s) = 5.53805 6.50727 6.04213
#
# Compressibility (1/GPa) = 0.02628473
#
# Stress axis : x y z
#
# Youngs Moduli (GPa) = 26.27127 93.65536 50.23340
#
# Poissons Ratio (x) = 0.50967 0.62921
# Poissons Ratio (y) = 0.14297 0.16147
# Poissons Ratio (z) = 0.32906 0.30105
#
# Static dielectric constant tensor:
#      x y z
#    x 1.583570 0.000000 0.000000 
#    y 0.000000 1.580470 0.000000 
#    z 0.000000 0.000000 1.563730 
# 
# From -- ./inp_files/21054.got.cif
#   From: 2010.05.17/outbox.cif.g08.bks.cpg/sg47_11_cif.got.tgz:21054.got - 2010.06.03 20:15:42.
