data_PCOD9384705
_publ_section_title
;
Structure prediction by ZEFSAII (Michael W. Deem and Ramdas Pophale) SiO2 
 PCOD9384705
Probable space group: P M M M
;
_chemical_formula_sum "Si O2"
_cell_formula_units_Z 44
_cell_length_a 7.547441
_cell_length_b 29.200304
_cell_length_c 9.353720
_cell_angle_alpha 90.000000
_cell_angle_beta 90.000000
_cell_angle_gamma 90.000000
_cell_volume 2061.443636
_symmetry_space_group_name_H-M "P M M M"
_symmetry_group_IT_number 47
_symmetry_cell_setting 'orthorhombic'
loop_
_space_group_symop_operation_xyz
x,y,z
-x,-y,z
x,-y,-z
-x,y,-z
-x,-y,-z
x,y,-z
-x,y,z
x,-y,z
loop_
_atom_site_type_symbol
_atom_site_label
_atom_site_fract_x
_atom_site_fract_y
_atom_site_fract_z
Si Si1 0.288880 0.408440 0.162067
Si Si2 0.282817 0.319626 0.335079
Si Si3 0.787044 0.860854 0.661568
Si Si4 0.783837 0.948687 0.165299
Si Si5 0.712183 0.769461 0.837792
Si Si6 0.789193 0.500000 0.662277
O O1 0.500000 0.402114 0.150587
O O2 0.221960 0.364538 0.249492
O O3 0.261418 0.454775 0.250342
O O4 0.218381 0.411455 0.000000
O O5 0.226546 0.320399 0.500000
O O6 0.500000 0.319755 0.335796
O O7 0.223399 0.273764 0.254085
O O8 0.720011 0.855175 0.500000
O O9 0.721235 0.907409 0.735772
O O10 0.747823 0.816837 0.757610
O O11 0.000000 0.864602 0.654403
O O12 0.000000 0.948389 0.167453
O O13 0.728526 0.000000 0.208539
O O14 0.731647 0.941322 0.000000
O O15 0.500000 0.764486 0.846325
O O16 0.781433 0.769669 0.000000
O O17 0.716657 0.500000 0.500000
O O18 0.000000 0.500000 0.652146
#
# Coordination Sequence:
#
# PCOD9384705 Si02
#       6
#     8   8   8   8   8   4
#     4  10  20  35  57  83 107 133 170 213 253 297
#     4   9  17  31  53  79 105 133 166 207 253 298
#     4  10  20  32  48  73 103 133 166 206 252 301
#     4   8  14  26  45  68  94 126 164 205 249 297
#     4  10  20  34  53  76 102 134 171 209 251 300
#     4  11  24  39  54  76 108 143 176 211 254 302
#
# _framework density 21.344266000000001
#
# number of rings (size 3 to 8) (size 9 to 14) (size 15 to 20)
#    0.000    2.455    0.000    3.273    0.000    7.636 
#    0.000    2.727    0.000    6.000    0.000    3.818 
#    0.000    0.000    0.000    0.000    0.000    0.000 
#
# Total GULP energy -245829.923660 kJ/mol
# GULP energy per Si atom -5587.043720 kJ/mol
# Density = 2.129569 g / cm^3
# Si number density = 21.344266 Si / 1000 Ang^3
#
#
#
# Elastic Constant Matrix: (Units=GPa)
#
#
# Indices 1 2 3 4 5 6 
#
# 1 51.6299 -1.0805 7.8798 0.0000 0.0000 0.0000
# 2 -1.0805 226.9889 153.2040 0.0000 0.0000 0.0000
# 3 7.8798 153.2040 241.7260 0.0000 0.0000 0.0000
# 4 0.0000 0.0000 0.0000 61.3742 0.0000 0.0000
# 5 0.0000 0.0000 0.0000 0.0000 8.4303 0.0000
# 6 0.0000 0.0000 0.0000 0.0000 0.0000 19.1330
#
#
#
# Elastic Compliance Matrix: (Units=1/GPa)
#
#
# Indices 1 2 3 4 5 6 
#
# 1 0.019574 0.000915 -0.001218 0.000000 0.000000 0.000000
# 2 0.000915 0.007742 -0.004936 0.000000 0.000000 0.000000
# 3 -0.001218 -0.004936 0.007305 0.000000 0.000000 0.000000
# 4 0.000000 0.000000 0.000000 0.016293 0.000000 0.000000
# 5 0.000000 0.000000 0.000000 0.000000 0.118620 0.000000
# 6 0.000000 0.000000 0.000000 0.000000 0.000000 0.052266
#
#
# Mechanical properties :
#
#
# Convention : Reuss Voigt Hill
#
# Bulk Modulus (GPa) = 41.42137 93.37238 67.39688
# Shear Modulus (GPa) = 20.80506 41.81026 31.30766
#
# Velocity S-wave (km/s) = 3.12547 4.43069 3.83403
# Velocity P-wave (km/s) = 5.69852 8.36753 7.15852
#
# Compressibility (1/GPa) = 0.02414213
#
# Stress axis : x y z
#
# Youngs Moduli (GPa) = 51.08894 129.17120 136.88679
#
# Poissons Ratio (x) = -0.11825 0.16676
# Poissons Ratio (y) = -0.04677 0.67573
# Poissons Ratio (z) = 0.06224 0.63765
#
# Static dielectric constant tensor:
#      x y z
#    x 1.835780 0.000000 0.000000 
#    y 0.000000 1.725680 0.000000 
#    z 0.000000 0.000000 1.752790 
# 
# From -- ./inp_files/2008.got.cif
#   From: 2010.05.17/outbox.cif.g08.bks.cpg/sg47_2_cif.got.tgz:2008.got - 2010.06.03 20:15:42.
