data_PCOD9384691
_publ_section_title
;
Structure prediction by ZEFSAII (Michael W. Deem and Ramdas Pophale) SiO2 
 PCOD9384691
Probable space group: P M M M
;
_chemical_formula_sum "Si O2"
_cell_formula_units_Z 44
_cell_length_a 9.215491
_cell_length_b 29.555220
_cell_length_c 9.413109
_cell_angle_alpha 90.000000
_cell_angle_beta 90.000000
_cell_angle_gamma 90.000000
_cell_volume 2563.809565
_symmetry_space_group_name_H-M "P M M M"
_symmetry_group_IT_number 47
_symmetry_cell_setting 'orthorhombic'
loop_
_space_group_symop_operation_xyz
x,y,z
-x,-y,z
x,-y,-z
-x,y,-z
-x,-y,-z
x,y,-z
-x,y,z
x,-y,z
loop_
_atom_site_type_symbol
_atom_site_label
_atom_site_fract_x
_atom_site_fract_y
_atom_site_fract_z
Si Si1 0.822963 0.822809 0.335576
Si Si2 0.177172 0.911010 0.163609
Si Si3 0.832595 0.277094 0.327091
Si Si4 0.822874 0.000000 0.663863
Si Si5 0.826907 0.448771 0.168897
Si Si6 0.671090 0.632067 0.330164
O O1 0.778586 0.829400 0.500000
O O2 0.776033 0.864604 0.239201
O O3 0.778144 0.772779 0.284098
O O4 0.000000 0.821949 0.335749
O O5 0.222999 0.954861 0.253169
O O6 0.000000 0.910917 0.164358
O O7 0.223272 0.913685 0.000000
O O8 0.832482 0.275911 0.500000
O O9 0.740387 0.320277 0.282240
O O10 0.000000 0.282720 0.281856
O O11 0.776084 0.000000 0.500000
O O12 0.000000 0.000000 0.663313
O O13 0.783902 0.500000 0.210761
O O14 0.745210 0.410012 0.253270
O O15 0.000000 0.444679 0.191586
O O16 0.801168 0.444288 0.000000
O O17 0.695202 0.628397 0.500000
O O18 0.500000 0.632210 0.304089
#
# Coordination Sequence:
#
# PCOD9384691 Si02
#       6
#     8   8   8   4   8   8
#     4   8  13  22  36  51  67  94 135 176 211 253
#     4   9  15  21  29  44  68  95 125 167 217 260
#     4   8  14  26  44  63  84 114 151 188 225 266
#     4   9  15  21  29  41  61  95 136 169 200 251
#     4   9  19  36  55  73  94 123 160 198 234 275
#     4  10  20  32  48  73 102 128 155 190 233 280
#
# _framework density 17.161960000000001
#
# number of rings (size 3 to 8) (size 9 to 14) (size 15 to 20)
#    0.000    3.182    0.000    3.000    0.000    5.455 
#    0.000    3.636    0.000    3.273    0.000    0.000 
#    0.000    0.000    0.000    0.818    0.000   20.182 
#
# Total GULP energy -245083.165010 kJ/mol
# GULP energy per Si atom -5570.071932 kJ/mol
# Density = 1.712290 g / cm^3
# Si number density = 17.161960 Si / 1000 Ang^3
#
#
#
# Elastic Constant Matrix: (Units=GPa)
#
#
# Indices 1 2 3 4 5 6 
#
# 1 22.5811 56.7661 31.5127 0.0000 0.0000 0.0000
# 2 56.7661 222.8578 92.9274 0.0000 0.0000 0.0000
# 3 31.5127 92.9274 81.0387 0.0000 0.0000 0.0000
# 4 0.0000 0.0000 0.0000 -13.8691 0.0000 0.0000
# 5 0.0000 0.0000 0.0000 0.0000 11.8131 0.0000
# 6 0.0000 0.0000 0.0000 0.0000 0.0000 -4.7747
#
#
#
# Elastic Compliance Matrix: (Units=1/GPa)
#
#
# Indices 1 2 3 4 5 6 
#
# 1 0.149983 -0.026606 -0.027813 0.000000 0.000000 0.000000
# 2 -0.026606 0.013318 -0.004926 0.000000 0.000000 0.000000
# 3 -0.027813 -0.004926 0.028804 0.000000 0.000000 0.000000
# 4 0.000000 0.000000 0.000000 -0.072103 0.000000 0.000000
# 5 0.000000 0.000000 0.000000 0.000000 0.084652 0.000000
# 6 0.000000 0.000000 0.000000 0.000000 0.000000 -0.209436
#
#
# Mechanical properties :
#
#
# Convention : Reuss Voigt Hill
#
# Bulk Modulus (GPa) = 13.62125 76.54333 45.08229
# Shear Modulus (GPa) = 36.13224 8.31862 22.22543
#
# Velocity S-wave (km/s) = 4.59341 2.20401 3.60257
# Velocity P-wave (km/s) = 6.00721 7.15362 6.60533
#
# Compressibility (1/GPa) = 0.07341470
#
# Stress axis : x y z
#
# Youngs Moduli (GPa) = 6.66743 75.08447 34.71719
#
# Poissons Ratio (x) = 1.99769 0.96560
# Poissons Ratio (y) = 0.17739 0.17103
# Poissons Ratio (z) = 0.18544 0.36988
#
# Static dielectric constant tensor:
#      x y z
#    x 1.554760 0.000000 0.000000 
#    y 0.000000 1.589000 0.000000 
#    z 0.000000 0.000000 1.569490 
# 
# From -- ./inp_files/2163.got.cif
#   From: 2010.05.17/outbox.cif.g08.bks.cpg/sg47_2_cif.got.tgz:2163.got - 2010.06.03 20:15:42.
