data_PCOD9384897
_publ_section_title
;
Structure prediction by ZEFSAII (Michael W. Deem and Ramdas Pophale) SiO2 
 PCOD9384897
Probable space group: P M M M
;
_chemical_formula_sum "Si O2"
_cell_formula_units_Z 40
_cell_length_a 7.394908
_cell_length_b 13.086482
_cell_length_c 19.842641
_cell_angle_alpha 90.000000
_cell_angle_beta 90.000000
_cell_angle_gamma 90.000000
_cell_volume 1920.238454
_symmetry_space_group_name_H-M "P M M M"
_symmetry_group_IT_number 47
_symmetry_cell_setting 'orthorhombic'
loop_
_space_group_symop_operation_xyz
x,y,z
-x,-y,z
x,-y,-z
-x,y,-z
-x,-y,-z
x,y,-z
-x,y,z
x,-y,z
loop_
_atom_site_type_symbol
_atom_site_label
_atom_site_fract_x
_atom_site_fract_y
_atom_site_fract_z
Si Si1 0.708967 0.000000 0.082114
Si Si2 0.220315 0.116331 0.423151
Si Si3 0.717025 0.221912 0.923515
Si Si4 0.779049 0.695258 0.335184
Si Si5 0.779694 0.500000 0.577034
Si Si6 0.215629 0.383892 0.808296
O O1 0.787140 0.889373 0.101175
O O2 0.500000 0.000000 0.104840
O O3 0.710136 0.000000 0.000000
O O4 0.273650 0.143201 0.500000
O O5 0.281258 0.199401 0.369148
O O6 0.000000 0.116745 0.422706
O O7 0.277335 0.000000 0.409356
O O8 0.500000 0.211402 0.927476
O O9 0.753726 0.313610 0.873007
O O10 0.781934 0.240748 0.000000
O O11 0.724987 0.600831 0.382583
O O12 0.717001 0.671315 0.259532
O O13 0.000000 0.697537 0.334540
O O14 0.718824 0.500000 0.500000
O O15 0.000000 0.500000 0.576205
O O16 0.285497 0.500000 0.814494
O O17 0.000000 0.392158 0.800194
#
# Coordination Sequence:
#
# PCOD9384897 Si02
#       6
#     4   8   8   8   4   8
#     4   7  12  28  53  75  93 113 140 185 242 282
#     4   8  13  21  34  53  79 113 151 190 232 276
#     4   9  18  34  56  77  94 117 155 199 237 279
#     4   9  15  25  37  53  84 122 154 187 229 276
#     4   9  14  20  36  58  76 107 158 200 223 255
#     4  10  20  33  46  64  99 138 162 190 238 286
#
# _framework density 20.830746999999999
#
# number of rings (size 3 to 8) (size 9 to 14) (size 15 to 20)
#    0.000    3.200    1.000    2.400    0.000    3.600 
#    1.800    2.500    0.000    1.800    0.000    0.000 
#    0.000    4.000    0.000    2.200    0.000    2.000 
#
# Total GULP energy -223112.192286 kJ/mol
# GULP energy per Si atom -5577.804807 kJ/mol
# Density = 2.078334 g / cm^3
# Si number density = 20.830747 Si / 1000 Ang^3
#
#
#
# Elastic Constant Matrix: (Units=GPa)
#
#
# Indices 1 2 3 4 5 6 
#
# 1 70.1602 5.8830 2.9921 0.0000 0.0000 0.0000
# 2 5.8830 208.9743 126.6208 0.0000 0.0000 0.0000
# 3 2.9921 126.6208 157.3190 0.0000 0.0000 0.0000
# 4 0.0000 0.0000 0.0000 14.2887 0.0000 0.0000
# 5 0.0000 0.0000 0.0000 0.0000 28.4296 0.0000
# 6 0.0000 0.0000 0.0000 0.0000 0.0000 5.5769
#
#
#
# Elastic Compliance Matrix: (Units=1/GPa)
#
#
# Indices 1 2 3 4 5 6 
#
# 1 0.014288 -0.000464 0.000101 0.000000 0.000000 0.000000
# 2 -0.000464 0.009355 -0.007521 0.000000 0.000000 0.000000
# 3 0.000101 -0.007521 0.012408 0.000000 0.000000 0.000000
# 4 0.000000 0.000000 0.000000 0.069985 0.000000 0.000000
# 5 0.000000 0.000000 0.000000 0.000000 0.035175 0.000000
# 6 0.000000 0.000000 0.000000 0.000000 0.000000 0.179311
#
#
# Mechanical properties :
#
#
# Convention : Reuss Voigt Hill
#
# Bulk Modulus (GPa) = 49.29861 78.60503 63.95182
# Shear Modulus (GPa) = 14.57514 29.72288 22.14901
#
# Velocity S-wave (km/s) = 2.64804 3.78150 3.26434
# Velocity P-wave (km/s) = 5.75040 7.54210 6.70636
#
# Compressibility (1/GPa) = 0.02028455
#
# Stress axis : x y z
#
# Youngs Moduli (GPa) = 69.99047 106.88925 80.59283
#
# Poissons Ratio (x) = 0.04957 -0.00818
# Poissons Ratio (y) = 0.03246 0.60615
# Poissons Ratio (z) = -0.00710 0.80392
#
# Static dielectric constant tensor:
#      x y z
#    x 1.843920 0.000000 0.000000 
#    y 0.000000 1.745790 0.000000 
#    z 0.000000 0.000000 1.706280 
# 
# From -- ./inp_files/29333.got.cif
#   From: 2010.05.17/outbox.cif.g08.bks.cpg/sg47_15_cif.got.tgz:29333.got - 2010.06.03 20:15:42.
