data_PCOD9384264
_publ_section_title
;
Structure prediction by ZEFSAII (Michael W. Deem and Ramdas Pophale) SiO2 
 PCOD9384264
Probable space group: P M M M
;
_chemical_formula_sum "Si O2"
_cell_formula_units_Z 44
_cell_length_a 7.368383
_cell_length_b 29.093023
_cell_length_c 9.659612
_cell_angle_alpha 90.000000
_cell_angle_beta 90.000000
_cell_angle_gamma 90.000000
_cell_volume 2070.716884
_symmetry_space_group_name_H-M "P M M M"
_symmetry_group_IT_number 47
_symmetry_cell_setting 'orthorhombic'
loop_
_space_group_symop_operation_xyz
x,y,z
-x,-y,z
x,-y,-z
-x,y,-z
-x,-y,-z
x,y,-z
-x,y,z
x,-y,z
loop_
_atom_site_type_symbol
_atom_site_label
_atom_site_fract_x
_atom_site_fract_y
_atom_site_fract_z
Si Si1 0.714640 0.138818 0.345252
Si Si2 0.278621 0.500000 0.839775
Si Si3 0.721594 0.411956 0.340323
Si Si4 0.278651 0.222028 0.158574
Si Si5 0.720922 0.674036 0.159280
Si Si6 0.218106 0.948472 0.156953
O O1 0.789292 0.135407 0.500000
O O2 0.500000 0.147093 0.356645
O O3 0.787609 0.181935 0.258435
O O4 0.733882 0.091660 0.261417
O O5 0.500000 0.500000 0.842367
O O6 0.222556 0.454961 0.754281
O O7 0.219728 0.500000 0.000000
O O8 0.779717 0.415618 0.500000
O O9 0.500000 0.412068 0.341749
O O10 0.780101 0.364986 0.265518
O O11 0.500000 0.221781 0.159756
O O12 0.223128 0.273983 0.195574
O O13 0.224124 0.213019 0.000000
O O14 0.500000 0.673578 0.159460
O O15 0.775611 0.664432 0.000000
O O16 0.000000 0.949947 0.152462
O O17 0.280479 0.000000 0.195203
O O18 0.281364 0.938466 0.000000
#
# Coordination Sequence:
#
# PCOD9384264 Si02
#       6
#     8   4   8   8   8   8
#     4  10  20  31  45  69  98 123 147 179 221 267
#     4   9  15  21  27  33  45  69 103 145 190 235
#     4   9  15  20  26  37  53  74 103 143 192 242
#     4   8  14  25  40  56  76 104 136 169 205 247
#     4   8  13  21  32  45  61  84 116 152 192 239
#     4   9  19  36  55  72  90 116 152 189 222 260
#
# _framework density 21.248678000000002
#
# number of rings (size 3 to 8) (size 9 to 14) (size 15 to 20)
#    0.000    3.182    0.000    3.000    0.000    6.182 
#    0.000    6.364    0.000    0.000    0.000    0.000 
#    0.000    0.000    0.000    0.000    0.000    0.000 
#
# Total GULP energy -245627.246410 kJ/mol
# GULP energy per Si atom -5582.437418 kJ/mol
# Density = 2.120032 g / cm^3
# Si number density = 21.248678 Si / 1000 Ang^3
#
#
#
# Elastic Constant Matrix: (Units=GPa)
#
#
# Indices 1 2 3 4 5 6 
#
# 1 75.3975 2.9600 6.0993 0.0000 0.0000 0.0000
# 2 2.9600 213.1546 171.1097 0.0000 0.0000 0.0000
# 3 6.0993 171.1097 210.7716 0.0000 0.0000 0.0000
# 4 0.0000 0.0000 0.0000 -18.5075 0.0000 0.0000
# 5 0.0000 0.0000 0.0000 0.0000 -35.2149 0.0000
# 6 0.0000 0.0000 0.0000 0.0000 0.0000 99.6504
#
#
#
# Elastic Compliance Matrix: (Units=1/GPa)
#
#
# Indices 1 2 3 4 5 6 
#
# 1 0.013304 0.000357 -0.000675 0.000000 0.000000 0.000000
# 2 0.000357 0.013479 -0.010953 0.000000 0.000000 0.000000
# 3 -0.000675 -0.010953 0.013656 0.000000 0.000000 0.000000
# 4 0.000000 0.000000 0.000000 -0.054032 0.000000 0.000000
# 5 0.000000 0.000000 0.000000 0.000000 -0.028397 0.000000
# 6 0.000000 0.000000 0.000000 0.000000 0.000000 0.010035
#
#
# Mechanical properties :
#
#
# Convention : Reuss Voigt Hill
#
# Bulk Modulus (GPa) = 55.87538 95.51794 75.69666
# Shear Modulus (GPa) = -1449.64220 30.46258 -709.58981
#
# Velocity S-wave (km/s) = -26.14781 3.79043 -18.29400
# Velocity P-wave (km/s) = 29.75328 8.01289 20.26143
#
# Compressibility (1/GPa) = 0.01789697
#
# Stress axis : x y z
#
# Youngs Moduli (GPa) = 75.16757 74.19064 73.22941
#
# Poissons Ratio (x) = -0.02648 0.04941
# Poissons Ratio (y) = -0.02682 0.80206
# Poissons Ratio (z) = 0.05071 0.81259
#
# Static dielectric constant tensor:
#      x y z
#    x 1.847090 0.000000 0.000000 
#    y 0.000000 1.731670 0.000000 
#    z 0.000000 0.000000 1.726280 
# 
# From -- ./inp_files/2162.got.cif
#   From: 2010.05.17/outbox.cif.g08.bks.cpg/sg47_2_cif.got.tgz:2162.got - 2010.06.03 20:15:42.
