data_PCOD9384250
_publ_section_title
;
Structure prediction by ZEFSAII (Michael W. Deem and Ramdas Pophale) SiO2 
 PCOD9384250
Probable space group: P M M M
;
_chemical_formula_sum "Si O2"
_cell_formula_units_Z 64
_cell_length_a 18.574232
_cell_length_b 7.656346
_cell_length_c 21.398794
_cell_angle_alpha 90.000000
_cell_angle_beta 90.000000
_cell_angle_gamma 90.000000
_cell_volume 3043.138477
_symmetry_space_group_name_H-M "P M M M"
_symmetry_group_IT_number 47
_symmetry_cell_setting 'orthorhombic'
loop_
_space_group_symop_operation_xyz
x,y,z
-x,-y,z
x,-y,-z
-x,y,-z
-x,-y,-z
x,y,-z
-x,y,z
x,-y,z
loop_
_atom_site_type_symbol
_atom_site_label
_atom_site_fract_x
_atom_site_fract_y
_atom_site_fract_z
Si Si1 0.134796 0.213415 0.430638
Si Si2 0.921953 0.789596 0.700265
Si Si3 0.363853 0.707187 0.795286
Si Si4 0.640335 0.791000 0.932347
Si Si5 0.421819 0.205630 0.663427
Si Si6 0.800597 0.709201 0.200469
Si Si7 0.699096 0.787244 0.570396
Si Si8 0.808687 0.703838 0.066848
O O1 0.111485 0.269764 0.500000
O O2 0.090650 0.272178 0.370651
O O3 0.218105 0.267158 0.421066
O O4 0.133072 0.000000 0.431087
O O5 0.855017 0.742999 0.743783
O O6 0.000000 0.727755 0.723561
O O7 0.923471 0.000000 0.698521
O O8 0.362209 0.500000 0.787369
O O9 0.392512 0.742898 0.865323
O O10 0.407588 0.779462 0.737129
O O11 0.281089 0.775655 0.790323
O O12 0.721365 0.714111 0.931335
O O13 0.646469 0.000000 0.932862
O O14 0.607747 0.738354 0.000000
O O15 0.500000 0.282067 0.648126
O O16 0.355487 0.278022 0.623072
O O17 0.424382 0.000000 0.648404
O O18 0.793974 0.500000 0.193602
O O19 0.830568 0.778736 0.133949
O O20 0.676328 0.738555 0.500000
O O21 0.700836 0.000000 0.572702
O O22 0.829551 0.500000 0.065418
O O23 0.830923 0.782874 0.000000
#
# Coordination Sequence:
#
# PCOD9384250 Si02
#       8
#     8   8   8   8   8   8   8   8
#     4   8  14  26  45  68  93 121 154 193 235 279
#     4  10  20  31  45  68  96 126 159 195 238 287
#     4  10  20  33  50  71  96 129 167 204 242 286
#     4   9  16  26  44  72 101 125 153 194 244 293
#     4  10  20  32  48  72 101 132 164 199 240 285
#     4   9  18  31  48  70  93 122 159 196 237 282
#     4   8  14  26  46  72  99 126 157 194 239 290
#     4   8  14  26  44  67  95 123 154 195 239 283
#
# _framework density 21.030919000000001
#
# number of rings (size 3 to 8) (size 9 to 14) (size 15 to 20)
#    0.000    3.000    0.000    3.000    0.000    5.250 
#    0.000    2.500    0.000    1.500    0.000   10.500 
#    0.000    0.000    0.000    0.000    0.000    0.000 
#
# Total GULP energy -356641.132146 kJ/mol
# GULP energy per Si atom -5572.517690 kJ/mol
# Density = 2.098305 g / cm^3
# Si number density = 21.030919 Si / 1000 Ang^3
#
#
#
# Elastic Constant Matrix: (Units=GPa)
#
#
# Indices 1 2 3 4 5 6 
#
# 1 21.9269 2.0836 3.8814 0.0000 0.0000 0.0000
# 2 2.0836 39.5031 -7.6480 0.0000 0.0000 0.0000
# 3 3.8814 -7.6480 75.9565 0.0000 0.0000 0.0000
# 4 0.0000 0.0000 0.0000 43.1955 0.0000 0.0000
# 5 0.0000 0.0000 0.0000 0.0000 -4.7312 0.0000
# 6 0.0000 0.0000 0.0000 0.0000 0.0000 8.7656
#
#
#
# Elastic Compliance Matrix: (Units=1/GPa)
#
#
# Indices 1 2 3 4 5 6 
#
# 1 0.046360 -0.002962 -0.002667 0.000000 0.000000 0.000000
# 2 -0.002962 0.026007 0.002770 0.000000 0.000000 0.000000
# 3 -0.002667 0.002770 0.013581 0.000000 0.000000 0.000000
# 4 0.000000 0.000000 0.000000 0.023151 0.000000 0.000000
# 5 0.000000 0.000000 0.000000 0.000000 -0.211363 0.000000
# 6 0.000000 0.000000 0.000000 0.000000 0.000000 0.114083
#
#
# Mechanical properties :
#
#
# Convention : Reuss Voigt Hill
#
# Bulk Modulus (GPa) = 12.46424 14.89117 13.67770
# Shear Modulus (GPa) = 112.92164 18.71728 65.81946
#
# Velocity S-wave (km/s) = 7.33551 2.98650 5.60040
# Velocity P-wave (km/s) = 8.81395 4.35755 6.95248
#
# Compressibility (1/GPa) = 0.08022951
#
# Stress axis : x y z
#
# Youngs Moduli (GPa) = 21.57046 38.45125 73.63432
#
# Poissons Ratio (x) = 0.11388 0.19640
# Poissons Ratio (y) = 0.06388 -0.20396
# Poissons Ratio (z) = 0.05753 -0.10651
#
# Static dielectric constant tensor:
#      x y z
#    x 1.731520 0.000000 0.000000 
#    y 0.000000 1.645610 0.000000 
#    z 0.000000 0.000000 1.821100 
# 
# From -- ./inp_files/31333.got.cif
#   From: 2010.05.17/outbox.cif.g08.bks.cpg/sg47_16_cif.got.tgz:31333.got - 2010.06.03 20:15:42.
