data_PCOD9384278
_publ_section_title
;
Structure prediction by ZEFSAII (Michael W. Deem and Ramdas Pophale) SiO2 
 PCOD9384278
Probable space group: P M M M
;
_chemical_formula_sum "Si O2"
_cell_formula_units_Z 52
_cell_length_a 7.767623
_cell_length_b 21.450462
_cell_length_c 14.922455
_cell_angle_alpha 90.000000
_cell_angle_beta 90.000000
_cell_angle_gamma 90.000000
_cell_volume 2486.366052
_symmetry_space_group_name_H-M "P M M M"
_symmetry_group_IT_number 47
_symmetry_cell_setting 'orthorhombic'
loop_
_space_group_symop_operation_xyz
x,y,z
-x,-y,z
x,-y,-z
-x,y,-z
-x,-y,-z
x,y,-z
-x,y,z
x,-y,z
loop_
_atom_site_type_symbol
_atom_site_label
_atom_site_fract_x
_atom_site_fract_y
_atom_site_fract_z
Si Si1 0.698043 0.115871 0.721721
Si Si2 0.711276 0.174509 0.102508
Si Si3 0.290700 0.684240 0.896160
Si Si4 0.208241 0.374746 0.398506
Si Si5 0.792073 0.232182 0.603850
Si Si6 0.201133 0.000000 0.599921
Si Si7 0.703828 0.567914 0.783458
O O1 0.500000 0.100758 0.736780
O O2 0.775120 0.128115 0.820342
O O3 0.715052 0.180999 0.668893
O O4 0.762689 0.061274 0.658158
O O5 0.500000 0.174483 0.103461
O O6 0.766398 0.245447 0.125914
O O7 0.762739 0.161084 0.000000
O O8 0.500000 0.685294 0.889555
O O9 0.224026 0.628229 0.834875
O O10 0.247996 0.672517 0.000000
O O11 0.263793 0.389292 0.500000
O O12 0.261715 0.303353 0.377140
O O13 0.273609 0.419816 0.321837
O O14 0.000000 0.375799 0.397794
O O15 0.747527 0.218806 0.500000
O O16 0.000000 0.229216 0.610678
O O17 0.283679 0.000000 0.500000
O O18 0.000000 0.000000 0.586537
O O19 0.500000 0.566369 0.803253
O O20 0.776019 0.500000 0.808004
#
# Coordination Sequence:
#
# PCOD9384278 Si02
#       7
#     8   8   8   8   8   4   8
#     4  11  21  33  55  84 109 135 170 212 252 291
#     4   8  15  29  50  77 106 133 163 203 254 306
#     4   8  14  27  48  73 102 134 165 200 247 306
#     4   9  19  35  52  69  92 128 173 213 251 306
#     4   9  18  33  52  74 101 132 165 205 258 314
#     4  11  25  43  58  73 104 150 185 207 242 293
#     4  10  20  31  45  70 101 130 165 213 265 308
#
# _framework density 20.914055999999999
#
# number of rings (size 3 to 8) (size 9 to 14) (size 15 to 20)
#    0.000    2.692    0.000    3.923    0.000    5.846 
#    0.000    5.000    0.000    4.615    0.000    7.538 
#    0.000    0.000    0.000    0.000    0.000    0.000 
#
# Total GULP energy -290146.091095 kJ/mol
# GULP energy per Si atom -5579.732521 kJ/mol
# Density = 2.086645 g / cm^3
# Si number density = 20.914056 Si / 1000 Ang^3
#
#
#
# Elastic Constant Matrix: (Units=GPa)
#
#
# Indices 1 2 3 4 5 6 
#
# 1 26.9265 10.2437 7.0502 0.0000 0.0000 0.0000
# 2 10.2437 82.9646 86.7061 0.0000 0.0000 0.0000
# 3 7.0502 86.7061 126.9568 0.0000 0.0000 0.0000
# 4 0.0000 0.0000 0.0000 17.4552 0.0000 0.0000
# 5 0.0000 0.0000 0.0000 0.0000 31.7263 0.0000
# 6 0.0000 0.0000 0.0000 0.0000 0.0000 13.0571
#
#
#
# Elastic Compliance Matrix: (Units=1/GPa)
#
#
# Indices 1 2 3 4 5 6 
#
# 1 0.039535 -0.009037 0.003977 0.000000 0.000000 0.000000
# 2 -0.009037 0.044174 -0.029667 0.000000 0.000000 0.000000
# 3 0.003977 -0.029667 0.027917 0.000000 0.000000 0.000000
# 4 0.000000 0.000000 0.000000 0.057290 0.000000 0.000000
# 5 0.000000 0.000000 0.000000 0.000000 0.031520 0.000000
# 6 0.000000 0.000000 0.000000 0.000000 0.000000 0.076586
#
#
# Mechanical properties :
#
#
# Convention : Reuss Voigt Hill
#
# Bulk Modulus (GPa) = 23.71317 49.42754 36.57035
# Shear Modulus (GPa) = 13.86825 21.30424 17.58625
#
# Velocity S-wave (km/s) = 2.57788 3.19510 2.90294
# Velocity P-wave (km/s) = 4.49707 6.10709 5.36284
#
# Compressibility (1/GPa) = 0.04217066
#
# Stress axis : x y z
#
# Youngs Moduli (GPa) = 25.29403 22.63751 35.81993
#
# Poissons Ratio (x) = 0.20458 -0.14244
# Poissons Ratio (y) = 0.22859 1.06268
# Poissons Ratio (z) = -0.10059 0.67160
#
# Static dielectric constant tensor:
#      x y z
#    x 1.773640 0.000000 0.000000 
#    y 0.000000 1.753490 0.000000 
#    z 0.000000 0.000000 1.778500 
# 
# From -- ./inp_files/7104.got.cif
#   From: 2010.05.17/outbox.cif.g08.bks.cpg/sg47_4_cif.got.tgz:7104.got - 2010.06.03 20:15:42.
