data_PCOD9384292
_publ_section_title
;
Structure prediction by ZEFSAII (Michael W. Deem and Ramdas Pophale) SiO2 
 PCOD9384292
Probable space group: P M M M
;
_chemical_formula_sum "Si O2"
_cell_formula_units_Z 52
_cell_length_a 8.319176
_cell_length_b 9.879684
_cell_length_c 36.135206
_cell_angle_alpha 90.000000
_cell_angle_beta 90.000000
_cell_angle_gamma 90.000000
_cell_volume 2969.982574
_symmetry_space_group_name_H-M "P M M M"
_symmetry_group_IT_number 47
_symmetry_cell_setting 'orthorhombic'
loop_
_space_group_symop_operation_xyz
x,y,z
-x,-y,z
x,-y,-z
-x,y,-z
-x,-y,-z
x,y,-z
-x,y,z
x,-y,z
loop_
_atom_site_type_symbol
_atom_site_label
_atom_site_fract_x
_atom_site_fract_y
_atom_site_fract_z
Si Si1 0.308483 0.344015 0.743401
Si Si2 0.815196 0.335852 0.336042
Si Si3 0.693772 0.344222 0.958722
Si Si4 0.194083 0.842540 0.809779
Si Si5 0.321304 0.334920 0.586512
Si Si6 0.193699 0.154834 0.892881
Si Si7 0.000000 0.335057 0.542918
O O1 0.500000 0.346269 0.739484
O O2 0.252931 0.500000 0.748832
O O3 0.236829 0.290605 0.704687
O O4 0.261088 0.252980 0.778054
O O5 0.805540 0.500000 0.335077
O O6 0.708178 0.293025 0.370839
O O7 0.000000 0.299549 0.343362
O O8 0.500000 0.343609 0.958814
O O9 0.746115 0.500000 0.953467
O O10 0.751139 0.250703 0.925649
O O11 0.747173 0.300282 0.000000
O O12 0.246217 0.803014 0.851471
O O13 0.000000 0.836157 0.808609
O O14 0.239642 0.000000 0.804173
O O15 0.500000 0.292199 0.573976
O O16 0.320207 0.500000 0.585635
O O17 0.165249 0.291183 0.563034
O O18 0.000000 0.153601 0.892397
O O19 0.248246 0.000000 0.898911
O O20 0.000000 0.500000 0.544536
O O21 0.000000 0.295562 0.500000
#
# Coordination Sequence:
#
# PCOD9384292 Si02
#       7
#     8   8   8   8   8   8   4
#     4  10  20  31  45  70  98 121 153 198 241 283
#     4   9  15  25  41  59  81 110 145 187 236 285
#     4   9  19  35  52  72 100 130 158 191 234 283
#     4   9  19  36  53  68  92 127 162 194 235 288
#     4   9  15  23  35  50  71 102 141 187 238 288
#     4   9  19  35  53  73  96 123 158 198 236 279
#     4   9  16  24  32  46  70 102 145 191 235 289
#
# _framework density 17.508520000000001
#
# number of rings (size 3 to 8) (size 9 to 14) (size 15 to 20)
#    0.000    2.846    0.769    2.308    0.000    5.846 
#    0.000    8.462    0.000    0.000    0.000    0.000 
#    0.000    0.000    0.000    0.000    0.000    1.538 
#
# Total GULP energy -289689.777437 kJ/mol
# GULP energy per Si atom -5570.957258 kJ/mol
# Density = 1.746867 g / cm^3
# Si number density = 17.508520 Si / 1000 Ang^3
#
#
#
# Elastic Constant Matrix: (Units=GPa)
#
#
# Indices 1 2 3 4 5 6 
#
# 1 71.8699 18.3007 54.4599 0.0000 0.0000 0.0000
# 2 18.3007 24.2276 44.2560 0.0000 0.0000 0.0000
# 3 54.4599 44.2560 147.4873 0.0000 0.0000 0.0000
# 4 0.0000 0.0000 0.0000 -12.4058 0.0000 0.0000
# 5 0.0000 0.0000 0.0000 0.0000 -0.8852 0.0000
# 6 0.0000 0.0000 0.0000 0.0000 0.0000 19.8598
#
#
#
# Elastic Compliance Matrix: (Units=1/GPa)
#
#
# Indices 1 2 3 4 5 6 
#
# 1 0.019451 -0.003481 -0.006138 0.000000 0.000000 0.000000
# 2 -0.003481 0.091965 -0.026310 0.000000 0.000000 0.000000
# 3 -0.006138 -0.026310 0.016942 0.000000 0.000000 0.000000
# 4 0.000000 0.000000 0.000000 -0.080608 0.000000 0.000000
# 5 0.000000 0.000000 0.000000 0.000000 -1.129750 0.000000
# 6 0.000000 0.000000 0.000000 0.000000 0.000000 0.050353
#
#
# Mechanical properties :
#
#
# Convention : Reuss Voigt Hill
#
# Bulk Modulus (GPa) = 17.69914 53.06869 35.38391
# Shear Modulus (GPa) = -5.31376 9.75166 2.21895
#
# Velocity S-wave (km/s) = -1.74400 2.36257 1.12699
# Velocity P-wave (km/s) = 2.46484 6.14966 4.68475
#
# Compressibility (1/GPa) = 0.05649993
#
# Stress axis : x y z
#
# Youngs Moduli (GPa) = 51.40995 10.87365 59.02626
#
# Poissons Ratio (x) = 0.03785 0.36230
# Poissons Ratio (y) = 0.17895 1.55301
# Poissons Ratio (z) = 0.31556 0.28609
#
# Static dielectric constant tensor:
#      x y z
#    x 1.618300 0.000000 0.000000 
#    y 0.000000 1.568970 0.000000 
#    z 0.000000 0.000000 1.598030 
# 
# From -- ./inp_files/34302.got.cif
#   From: 2010.05.17/outbox.cif.g08.bks.cpg/sg47_18_cif.got.tgz:34302.got - 2010.06.03 20:15:42.
