data_PCOD9384032
_publ_section_title
;
Structure prediction by ZEFSAII (Michael W. Deem and Ramdas Pophale) SiO2 
 PCOD9384032
Probable space group: P M M M
;
_chemical_formula_sum "Si O2"
_cell_formula_units_Z 48
_cell_length_a 16.064022
_cell_length_b 7.840724
_cell_length_c 18.220137
_cell_angle_alpha 90.000000
_cell_angle_beta 90.000000
_cell_angle_gamma 90.000000
_cell_volume 2294.891170
_symmetry_space_group_name_H-M "P M M M"
_symmetry_group_IT_number 47
_symmetry_cell_setting 'orthorhombic'
loop_
_space_group_symop_operation_xyz
x,y,z
-x,-y,z
x,-y,-z
-x,y,-z
-x,-y,-z
x,y,-z
-x,y,z
x,-y,z
loop_
_atom_site_type_symbol
_atom_site_label
_atom_site_fract_x
_atom_site_fract_y
_atom_site_fract_z
Si Si1 0.092490 0.794289 0.646004
Si Si2 0.268384 0.704944 0.418613
Si Si3 0.408437 0.296846 0.692981
Si Si4 0.405437 0.296508 0.000000
Si Si5 0.669006 0.203000 0.843169
Si Si6 0.000000 0.208642 0.916709
Si Si7 0.854918 0.791501 0.808986
O O1 0.172348 0.744598 0.598712
O O2 0.112486 0.737125 0.729290
O O3 0.000000 0.733991 0.623623
O O4 0.089755 0.000000 0.646526
O O5 0.290423 0.767969 0.500000
O O6 0.275267 0.500000 0.418787
O O7 0.331837 0.771512 0.356195
O O8 0.500000 0.227333 0.673932
O O9 0.410838 0.500000 0.680764
O O10 0.390282 0.269677 0.778843
O O11 0.359949 0.243906 0.925162
O O12 0.409432 0.500000 0.000000
O O13 0.500000 0.227899 0.000000
O O14 0.761923 0.268351 0.825861
O O15 0.670690 0.000000 0.835873
O O16 0.081069 0.262296 0.871627
O O17 0.000000 0.000000 0.917576
O O18 0.000000 0.267871 0.000000
O O19 0.854280 0.000000 0.808329
#
# Coordination Sequence:
#
# PCOD9384032 Si02
#       7
#     8   8   8   4   8   4   8
#     4  10  19  35  59  84 113 150 191 233 280 339
#     4  10  22  39  58  83 116 151 190 240 293 345
#     4  10  21  38  60  84 112 150 194 236 286 350
#     4  11  25  43  59  78 111 152 190 231 281 339
#     4  11  22  36  59  88 116 145 186 238 288 337
#     4   9  16  26  46  76 111 144 175 217 270 324
#     4   9  17  30  49  79 112 142 178 224 273 324
#
# _framework density 20.916024
#
# number of rings (size 3 to 8) (size 9 to 14) (size 15 to 20)
#    0.000    2.000    2.500    1.250    1.167    4.333 
#    0.000    3.333    0.000    0.000    0.000    2.917 
#    0.000    0.000    0.000    0.000    0.000    0.000 
#
# Total GULP energy -268066.673462 kJ/mol
# GULP energy per Si atom -5584.722364 kJ/mol
# Density = 2.086842 g / cm^3
# Si number density = 20.916024 Si / 1000 Ang^3
#
#
#
# Elastic Constant Matrix: (Units=GPa)
#
#
# Indices 1 2 3 4 5 6 
#
# 1 157.3524 10.3388 51.1689 0.0000 0.0000 0.0000
# 2 10.3388 25.7063 0.3231 0.0000 0.0000 0.0000
# 3 51.1689 0.3231 115.0761 0.0000 0.0000 0.0000
# 4 0.0000 0.0000 0.0000 10.4918 0.0000 0.0000
# 5 0.0000 0.0000 0.0000 0.0000 16.3438 0.0000
# 6 0.0000 0.0000 0.0000 0.0000 0.0000 20.7623
#
#
#
# Elastic Compliance Matrix: (Units=1/GPa)
#
#
# Indices 1 2 3 4 5 6 
#
# 1 0.007660 -0.003038 -0.003397 0.000000 0.000000 0.000000
# 2 -0.003038 0.040107 0.001238 0.000000 0.000000 0.000000
# 3 -0.003397 0.001238 0.010197 0.000000 0.000000 0.000000
# 4 0.000000 0.000000 0.000000 0.095313 0.000000 0.000000
# 5 0.000000 0.000000 0.000000 0.000000 0.061185 0.000000
# 6 0.000000 0.000000 0.000000 0.000000 0.000000 0.048164
#
#
# Mechanical properties :
#
#
# Convention : Reuss Voigt Hill
#
# Bulk Modulus (GPa) = 21.02172 46.86625 33.94399
# Shear Modulus (GPa) = 17.30842 25.27316 21.29079
#
# Velocity S-wave (km/s) = 2.87978 3.47985 3.19394
# Velocity P-wave (km/s) = 4.59673 6.21300 5.46495
#
# Compressibility (1/GPa) = 0.04756985
#
# Stress axis : x y z
#
# Youngs Moduli (GPa) = 130.55643 24.93315 98.06766
#
# Poissons Ratio (x) = 0.07574 0.33316
# Poissons Ratio (y) = 0.39662 -0.12143
# Poissons Ratio (z) = 0.44354 -0.03087
#
# Static dielectric constant tensor:
#      x y z
#    x 1.760280 0.000000 0.000000 
#    y 0.000000 1.772190 0.000000 
#    z 0.000000 0.000000 1.981780 
# 
# From -- ./inp_files/28011.got.cif
#   From: 2010.05.17/outbox.cif.g08.bks.cpg/sg47_15_cif.got.tgz:28011.got - 2010.06.03 20:15:42.
