data_PCOD9384257
_publ_section_title
;
Structure prediction by ZEFSAII (Michael W. Deem and Ramdas Pophale) SiO2 
 PCOD9384257
Probable space group: P M M M
;
_chemical_formula_sum "Si O2"
_cell_formula_units_Z 48
_cell_length_a 32.182435
_cell_length_b 9.908914
_cell_length_c 7.354236
_cell_angle_alpha 90.000000
_cell_angle_beta 90.000000
_cell_angle_gamma 90.000000
_cell_volume 2345.214239
_symmetry_space_group_name_H-M "P M M M"
_symmetry_group_IT_number 47
_symmetry_cell_setting 'orthorhombic'
loop_
_space_group_symop_operation_xyz
x,y,z
-x,-y,z
x,-y,-z
-x,y,-z
-x,-y,-z
x,y,-z
-x,y,z
x,-y,z
loop_
_atom_site_type_symbol
_atom_site_label
_atom_site_fract_x
_atom_site_fract_y
_atom_site_fract_z
Si Si1 0.047441 0.153622 0.221682
Si Si2 0.880367 0.651904 0.785128
Si Si3 0.364606 0.343217 0.277852
Si Si4 0.196032 0.847075 0.718483
Si Si5 0.289796 0.154891 0.721431
Si Si6 0.544681 0.338692 0.719112
O O1 0.081257 0.260035 0.287999
O O2 0.000000 0.183693 0.275902
O O3 0.057616 0.000000 0.277319
O O4 0.048021 0.153918 0.000000
O O5 0.877063 0.500000 0.711551
O O6 0.838515 0.738460 0.766050
O O7 0.887957 0.639920 0.000000
O O8 0.364851 0.341566 0.500000
O O9 0.360331 0.500000 0.224682
O O10 0.325897 0.254359 0.216461
O O11 0.410109 0.290004 0.218216
O O12 0.197311 0.852852 0.500000
O O13 0.242775 0.811253 0.779737
O O14 0.186025 0.000000 0.782196
O O15 0.289889 0.158967 0.500000
O O16 0.298013 0.000000 0.773623
O O17 0.544267 0.323083 0.500000
O O18 0.500000 0.285376 0.786231
O O19 0.544877 0.500000 0.754254
#
# Coordination Sequence:
#
# PCOD9384257 Si02
#       6
#     8   8   8   8   8   8
#     4   8  14  26  45  67  89 115 147 178 206 241
#     4  10  20  31  45  69  97 120 142 172 214 259
#     4   8  12  17  27  43  60  81 114 154 193 234
#     4   9  18  32  48  64  83 112 150 185 216 254
#     4   8  14  24  36  50  69  93 123 162 205 243
#     4   7   9  13  21  34  53  77 107 145 186 226
#
# _framework density 20.467212
#
# number of rings (size 3 to 8) (size 9 to 14) (size 15 to 20)
#    0.000    3.667    0.000    3.500    0.000    2.333 
#    0.000    3.333    0.000    1.000    0.000    7.000 
#    0.000    0.000    0.000    0.000    0.000    0.833 
#
# Total GULP energy -267500.715642 kJ/mol
# GULP energy per Si atom -5572.931576 kJ/mol
# Density = 2.042063 g / cm^3
# Si number density = 20.467212 Si / 1000 Ang^3
#
#
#
# Elastic Constant Matrix: (Units=GPa)
#
#
# Indices 1 2 3 4 5 6 
#
# 1 217.0673 142.6007 3.9550 0.0000 0.0000 0.0000
# 2 142.6007 132.3539 5.4210 0.0000 0.0000 0.0000
# 3 3.9550 5.4210 73.4682 0.0000 0.0000 0.0000
# 4 0.0000 0.0000 0.0000 -2.9690 0.0000 0.0000
# 5 0.0000 0.0000 0.0000 0.0000 4.6747 0.0000
# 6 0.0000 0.0000 0.0000 0.0000 0.0000 36.2251
#
#
#
# Elastic Compliance Matrix: (Units=1/GPa)
#
#
# Indices 1 2 3 4 5 6 
#
# 1 0.015778 -0.017017 0.000406 0.000000 0.000000 0.000000
# 2 -0.017017 0.025930 -0.000997 0.000000 0.000000 0.000000
# 3 0.000406 -0.000997 0.013663 0.000000 0.000000 0.000000
# 4 0.000000 0.000000 0.000000 -0.336811 0.000000 0.000000
# 5 0.000000 0.000000 0.000000 0.000000 0.213916 0.000000
# 6 0.000000 0.000000 0.000000 0.000000 0.000000 0.027605
#
#
# Mechanical properties :
#
#
# Convention : Reuss Voigt Hill
#
# Bulk Modulus (GPa) = 49.61179 80.76032 65.18605
# Shear Modulus (GPa) = 2479.23863 25.64699 1252.44281
#
# Velocity S-wave (km/s) = 34.84181 3.54372 24.76398
# Velocity P-wave (km/s) = 40.53264 7.50253 29.14775
#
# Compressibility (1/GPa) = 0.02015650
#
# Stress axis : x y z
#
# Youngs Moduli (GPa) = 63.37785 38.56484 73.19008
#
# Poissons Ratio (x) = 0.65624 -0.02973
# Poissons Ratio (y) = 1.07847 0.07299
# Poissons Ratio (z) = -0.02574 0.03846
#
# Static dielectric constant tensor:
#      x y z
#    x 1.739920 0.000000 0.000000 
#    y 0.000000 1.694370 0.000000 
#    z 0.000000 0.000000 1.876260 
# 
# From -- ./inp_files/19993.got.cif
#   From: 2010.05.17/outbox.cif.g08.bks.cpg/sg47_10_cif.got.tgz:19993.got - 2010.06.03 20:15:42.
