data_PCOD9384039
_publ_section_title
;
Structure prediction by ZEFSAII (Michael W. Deem and Ramdas Pophale) SiO2 
 PCOD9384039
Probable space group: P M M M
;
_chemical_formula_sum "Si O2"
_cell_formula_units_Z 37
_cell_length_a 21.467631
_cell_length_b 11.242803
_cell_length_c 7.344905
_cell_angle_alpha 90.000000
_cell_angle_beta 90.000000
_cell_angle_gamma 90.000000
_cell_volume 1772.739434
_symmetry_space_group_name_H-M "P M M M"
_symmetry_group_IT_number 47
_symmetry_cell_setting 'orthorhombic'
loop_
_space_group_symop_operation_xyz
x,y,z
-x,-y,z
x,-y,-z
-x,y,-z
-x,-y,-z
x,y,-z
-x,y,z
x,-y,z
loop_
_atom_site_type_symbol
_atom_site_label
_atom_site_fract_x
_atom_site_fract_y
_atom_site_fract_z
Si Si1 0.430260 0.259407 0.786801
Si Si2 0.788775 0.500000 0.724336
Si Si3 0.355711 0.500000 0.282835
Si Si4 0.688878 0.132977 0.779178
Si Si5 0.815554 0.244663 0.293236
Si Si6 0.000000 0.000000 0.000000
Si Si7 0.882523 0.000000 0.724356
O O1 0.500000 0.261803 0.709731
O O2 0.395279 0.385287 0.773739
O O3 0.379792 0.166794 0.713291
O O4 0.436413 0.231415 0.000000
O O5 0.788583 0.500000 0.500000
O O6 0.715904 0.500000 0.782880
O O7 0.821592 0.622603 0.785807
O O8 0.352695 0.500000 0.500000
O O9 0.741454 0.221152 0.709308
O O10 0.705543 0.000000 0.723750
O O11 0.690045 0.139293 0.000000
O O12 0.838227 0.253156 0.500000
O O13 0.846177 0.122550 0.222260
O O14 0.945600 0.000000 0.161128
O O15 0.888686 0.000000 0.500000
#
# Coordination Sequence:
#
# PCOD9384039 Si02
#       7
#     8   4   4   8   8   1   4
#     4  10  21  35  48  66 100 146 193 244 307 370
#     4   9  18  32  54  85 119 152 190 248 311 354
#     4  11  20  32  51  74 100 137 188 243 299 360
#     4  10  20  32  51  76 105 141 193 250 305 363
#     4  10  19  35  59  88 121 155 197 244 296 355
#     4  12  26  44  76 100 144 168 200 250 276 338
#     4  10  23  41  69 102 130 170 209 240 291 351
#
# _framework density 20.871652999999998
#
# number of rings (size 3 to 8) (size 9 to 14) (size 15 to 20)
#    0.000    1.946    3.243    0.811    1.514    2.162 
#    0.000    2.703    0.000    1.297    0.000    6.811 
#    0.000    0.000    0.000    0.000    0.000    0.000 
#
# Total GULP energy -206096.746683 kJ/mol
# GULP energy per Si atom -5570.182343 kJ/mol
# Density = 2.082415 g / cm^3
# Si number density = 20.871653 Si / 1000 Ang^3
#
#
#
# Elastic Constant Matrix: (Units=GPa)
#
#
# Indices 1 2 3 4 5 6 
#
# 1 112.6262 49.6862 13.3580 0.0000 0.0000 0.0000
# 2 49.6862 163.3506 3.7293 0.0000 0.0000 0.0000
# 3 13.3580 3.7293 90.4867 0.0000 0.0000 0.0000
# 4 0.0000 0.0000 0.0000 4.2928 0.0000 0.0000
# 5 0.0000 0.0000 0.0000 0.0000 24.0896 0.0000
# 6 0.0000 0.0000 0.0000 0.0000 0.0000 -2.6981
#
#
#
# Elastic Compliance Matrix: (Units=1/GPa)
#
#
# Indices 1 2 3 4 5 6 
#
# 1 0.010432 -0.003141 -0.001411 0.000000 0.000000 0.000000
# 2 -0.003141 0.007073 0.000172 0.000000 0.000000 0.000000
# 3 -0.001411 0.000172 0.011252 0.000000 0.000000 0.000000
# 4 0.000000 0.000000 0.000000 0.232950 0.000000 0.000000
# 5 0.000000 0.000000 0.000000 0.000000 0.041512 0.000000
# 6 0.000000 0.000000 0.000000 0.000000 0.000000 -0.370637
#
#
# Mechanical properties :
#
#
# Convention : Reuss Voigt Hill
#
# Bulk Modulus (GPa) = 50.00229 55.55670 52.77949
# Shear Modulus (GPa) = -96.16614 25.11620 -35.52497
#
# Velocity S-wave (km/s) = -6.79522 3.47272 -4.13009
# Velocity P-wave (km/s) = 6.12843 6.53879 1.61215
#
# Compressibility (1/GPa) = 0.01999908
#
# Stress axis : x y z
#
# Youngs Moduli (GPa) = 95.86039 141.37833 88.86926
#
# Poissons Ratio (x) = 0.44405 0.12535
# Poissons Ratio (y) = 0.30108 -0.01530
# Poissons Ratio (z) = 0.13521 -0.02434
#
# Static dielectric constant tensor:
#      x y z
#    x 1.704890 0.000000 0.000000 
#    y 0.000000 1.796990 0.000000 
#    z 0.000000 0.000000 1.860750 
# 
# From -- ./inp_files/10620.got.cif
#   From: 2010.05.17/outbox.cif.g08.bks.cpg/sg47_6_cif.got.tgz:10620.got - 2010.06.03 20:15:42.
