data_PCOD9384644
_publ_section_title
;
Structure prediction by ZEFSAII (Michael W. Deem and Ramdas Pophale) SiO2 
 PCOD9384644
Probable space group: P M M M
;
_chemical_formula_sum "Si O2"
_cell_formula_units_Z 52
_cell_length_a 9.195306
_cell_length_b 17.499678
_cell_length_c 18.594615
_cell_angle_alpha 90.000000
_cell_angle_beta 90.000000
_cell_angle_gamma 90.000000
_cell_volume 2992.150504
_symmetry_space_group_name_H-M "P M M M"
_symmetry_group_IT_number 47
_symmetry_cell_setting 'orthorhombic'
loop_
_space_group_symop_operation_xyz
x,y,z
-x,-y,z
x,-y,-z
-x,y,-z
-x,-y,-z
x,y,-z
-x,y,z
x,-y,z
loop_
_atom_site_type_symbol
_atom_site_label
_atom_site_fract_x
_atom_site_fract_y
_atom_site_fract_z
Si Si1 0.832231 0.592291 0.918900
Si Si2 0.333289 0.634479 0.778192
Si Si3 0.674698 0.736021 0.581201
Si Si4 0.667656 0.809148 0.274428
Si Si5 0.826185 0.585423 0.637911
Si Si6 0.170202 0.093029 0.000000
Si Si7 0.175348 0.089871 0.157514
O O1 0.828225 0.500000 0.917225
O O2 0.728406 0.622354 0.857298
O O3 0.000000 0.615291 0.905279
O O4 0.793302 0.616487 0.000000
O O5 0.500000 0.608035 0.771975
O O6 0.329346 0.723887 0.758553
O O7 0.233473 0.592719 0.719325
O O8 0.704197 0.761414 0.500000
O O9 0.500000 0.725497 0.589647
O O10 0.719896 0.795212 0.643616
O O11 0.750440 0.654572 0.595633
O O12 0.500000 0.835429 0.275972
O O13 0.759453 0.863309 0.223204
O O14 0.791958 0.500000 0.610640
O O15 0.000000 0.594955 0.636965
O O16 0.229930 0.116971 0.921933
O O17 0.000000 0.114954 0.000000
O O18 0.174073 0.000000 0.000000
O O19 0.000000 0.096430 0.157302
O O20 0.210462 0.000000 0.164357
#
# Coordination Sequence:
#
# PCOD9384644 Si02
#       7
#     8   8   8   8   8   4   8
#     4   9  18  32  48  66  90 122 163 211 258 300
#     4  10  20  33  48  67  94 128 167 207 247 295
#     4   9  19  36  55  73  97 131 169 207 247 296
#     4   9  19  34  50  72 100 128 160 200 246 293
#     4  10  20  32  48  72 100 128 160 203 253 302
#     4   7  12  26  47  71  99 127 156 191 228 271
#     4   9  17  31  53  78 102 130 165 202 239 286
#
# _framework density 17.378805
#
# number of rings (size 3 to 8) (size 9 to 14) (size 15 to 20)
#    0.000    2.846    0.000    3.692    0.000    7.692 
#    1.385    2.692    0.000    1.846    0.000    3.231 
#    0.000    0.000    0.000    0.000    0.000    0.000 
#
# Total GULP energy -289751.351198 kJ/mol
# GULP energy per Si atom -5572.141369 kJ/mol
# Density = 1.733925 g / cm^3
# Si number density = 17.378805 Si / 1000 Ang^3
#
#
#
# Elastic Constant Matrix: (Units=GPa)
#
#
# Indices 1 2 3 4 5 6 
#
# 1 29.3457 21.7189 38.6682 0.0000 0.0000 0.0000
# 2 21.7189 42.1278 45.5504 0.0000 0.0000 0.0000
# 3 38.6682 45.5504 149.9934 0.0000 0.0000 0.0000
# 4 0.0000 0.0000 0.0000 13.1579 0.0000 0.0000
# 5 0.0000 0.0000 0.0000 0.0000 27.9287 0.0000
# 6 0.0000 0.0000 0.0000 0.0000 0.0000 29.5929
#
#
#
# Elastic Compliance Matrix: (Units=1/GPa)
#
#
# Indices 1 2 3 4 5 6 
#
# 1 0.063053 -0.022231 -0.009504 0.000000 0.000000 0.000000
# 2 -0.022231 0.043180 -0.007382 0.000000 0.000000 0.000000
# 3 -0.009504 -0.007382 0.011359 0.000000 0.000000 0.000000
# 4 0.000000 0.000000 0.000000 0.076000 0.000000 0.000000
# 5 0.000000 0.000000 0.000000 0.000000 0.035805 0.000000
# 6 0.000000 0.000000 0.000000 0.000000 0.000000 0.033792
#
#
# Mechanical properties :
#
#
# Convention : Reuss Voigt Hill
#
# Bulk Modulus (GPa) = 25.40754 48.14912 36.77833
# Shear Modulus (GPa) = 14.10272 21.83785 17.97029
#
# Velocity S-wave (km/s) = 2.85176 3.54867 3.21913
# Velocity P-wave (km/s) = 5.04925 6.67507 5.91826
#
# Compressibility (1/GPa) = 0.03935840
#
# Stress axis : x y z
#
# Youngs Moduli (GPa) = 15.85975 23.15884 88.03728
#
# Poissons Ratio (x) = 0.51484 0.83669
# Poissons Ratio (y) = 0.35257 0.64989
# Poissons Ratio (z) = 0.15073 0.17096
#
# Static dielectric constant tensor:
#      x y z
#    x 1.586870 0.000000 0.000000 
#    y 0.000000 1.576190 0.000000 
#    z 0.000000 0.000000 1.619810 
# 
# From -- ./inp_files/26720.got.cif
#   From: 2010.05.17/outbox.cif.g08.bks.cpg/sg47_14_cif.got.tgz:26720.got - 2010.06.03 20:15:42.
