data_PCOD9384395
_publ_section_title
;
Structure prediction by ZEFSAII (Michael W. Deem and Ramdas Pophale) SiO2 
 PCOD9384395
Probable space group: P M M M
;
_chemical_formula_sum "Si O2"
_cell_formula_units_Z 40
_cell_length_a 9.333634
_cell_length_b 7.386523
_cell_length_c 27.357603
_cell_angle_alpha 90.000000
_cell_angle_beta 90.000000
_cell_angle_gamma 90.000000
_cell_volume 1886.118020
_symmetry_space_group_name_H-M "P M M M"
_symmetry_group_IT_number 47
_symmetry_cell_setting 'orthorhombic'
loop_
_space_group_symop_operation_xyz
x,y,z
-x,-y,z
x,-y,-z
-x,y,-z
-x,-y,-z
x,y,-z
-x,y,z
x,-y,z
loop_
_atom_site_type_symbol
_atom_site_label
_atom_site_fract_x
_atom_site_fract_y
_atom_site_fract_z
Si Si1 0.670118 0.279568 0.000000
Si Si2 0.664714 0.778640 0.596721
Si Si3 0.161383 0.215037 0.690883
Si Si4 0.673476 0.284636 0.894790
Si Si5 0.164875 0.220827 0.500000
Si Si6 0.335927 0.282259 0.211328
O O1 0.727206 0.214666 0.052627
O O2 0.680264 0.500000 0.000000
O O3 0.500000 0.238051 0.000000
O O4 0.500000 0.720628 0.594950
O O5 0.742743 0.716034 0.646088
O O6 0.752119 0.722484 0.548785
O O7 0.663721 0.000000 0.596881
O O8 0.238168 0.240266 0.742679
O O9 0.000000 0.288309 0.690746
O O10 0.151019 0.000000 0.683120
O O11 0.500000 0.263847 0.894628
O O12 0.702430 0.500000 0.895387
O O13 0.719746 0.215030 0.841622
O O14 0.000000 0.279256 0.500000
O O15 0.164284 0.000000 0.500000
O O16 0.500000 0.218363 0.219005
O O17 0.342874 0.500000 0.207640
#
# Coordination Sequence:
#
# PCOD9384395 Si02
#       6
#     4   8   8   8   4   8
#     4   7   8  12  26  50  80 109 132 160 206 259
#     4   9  16  26  41  61  85 113 145 181 221 263
#     4  10  20  32  45  63  88 118 152 188 224 262
#     4   7  10  17  31  54  83 110 135 167 210 259
#     4   9  15  23  37  59  88 117 142 173 216 263
#     4   9  17  29  45  66  91 117 146 181 221 266
#
# _framework density 21.207581999999999
#
# number of rings (size 3 to 8) (size 9 to 14) (size 15 to 20)
#    0.000    3.400    0.000    3.900    0.000    5.200 
#    0.000    0.000    0.000    0.000    0.000    2.100 
#    0.000   15.200    0.000    0.000    0.000    0.000 
#
# Total GULP energy -222974.265073 kJ/mol
# GULP energy per Si atom -5574.356627 kJ/mol
# Density = 2.115931 g / cm^3
# Si number density = 21.207582 Si / 1000 Ang^3
#
#
#
# Elastic Constant Matrix: (Units=GPa)
#
#
# Indices 1 2 3 4 5 6 
#
# 1 137.5335 5.5996 120.2615 0.0000 0.0000 0.0000
# 2 5.5996 70.9899 4.1652 0.0000 0.0000 0.0000
# 3 120.2615 4.1652 270.4487 0.0000 0.0000 0.0000
# 4 0.0000 0.0000 0.0000 12.0108 0.0000 0.0000
# 5 0.0000 0.0000 0.0000 0.0000 -13.5773 0.0000
# 6 0.0000 0.0000 0.0000 0.0000 0.0000 2.0735
#
#
#
# Elastic Compliance Matrix: (Units=1/GPa)
#
#
# Indices 1 2 3 4 5 6 
#
# 1 0.011925 -0.000630 -0.005293 0.000000 0.000000 0.000000
# 2 -0.000630 0.014133 0.000063 0.000000 0.000000 0.000000
# 3 -0.005293 0.000063 0.006050 0.000000 0.000000 0.000000
# 4 0.000000 0.000000 0.000000 0.083258 0.000000 0.000000
# 5 0.000000 0.000000 0.000000 0.000000 -0.073652 0.000000
# 6 0.000000 0.000000 0.000000 0.000000 0.000000 0.482288
#
#
# Mechanical properties :
#
#
# Convention : Reuss Voigt Hill
#
# Bulk Modulus (GPa) = 49.05178 82.11383 65.58280
# Shear Modulus (GPa) = 9.21629 23.36446 16.29037
#
# Velocity S-wave (km/s) = 2.08691 3.32279 2.77454
# Velocity P-wave (km/s) = 5.38391 7.31604 6.42304
#
# Compressibility (1/GPa) = 0.02038662
#
# Stress axis : x y z
#
# Youngs Moduli (GPa) = 83.85833 70.75866 165.28261
#
# Poissons Ratio (x) = 0.04458 0.87484
# Poissons Ratio (y) = 0.05284 -0.01033
# Poissons Ratio (z) = 0.44386 -0.00442
#
# Static dielectric constant tensor:
#      x y z
#    x 1.707780 0.000000 0.000000 
#    y 0.000000 1.883420 0.000000 
#    z 0.000000 0.000000 1.790550 
# 
# From -- ./inp_files/33011.got.cif
#   From: 2010.05.17/outbox.cif.g08.bks.cpg/sg47_17_cif.got.tgz:33011.got - 2010.06.03 20:15:42.
