data_PCOD9384776
_publ_section_title
;
Structure prediction by ZEFSAII (Michael W. Deem and Ramdas Pophale) SiO2 
 PCOD9384776
Probable space group: P M M M
;
_chemical_formula_sum "Si O2"
_cell_formula_units_Z 44
_cell_length_a 9.466421
_cell_length_b 29.934095
_cell_length_c 7.550180
_cell_angle_alpha 90.000000
_cell_angle_beta 90.000000
_cell_angle_gamma 90.000000
_cell_volume 2139.485035
_symmetry_space_group_name_H-M "P M M M"
_symmetry_group_IT_number 47
_symmetry_cell_setting 'orthorhombic'
loop_
_space_group_symop_operation_xyz
x,y,z
-x,-y,z
x,-y,-z
-x,y,-z
-x,-y,-z
x,y,-z
-x,y,z
x,-y,z
loop_
_atom_site_type_symbol
_atom_site_label
_atom_site_fract_x
_atom_site_fract_y
_atom_site_fract_z
Si Si1 0.837039 0.550221 0.716092
Si Si2 0.663384 0.904083 0.713289
Si Si3 0.340167 0.634692 0.712933
Si Si4 0.671612 0.000000 0.711277
Si Si5 0.840189 0.277207 0.212498
Si Si6 0.338580 0.193591 0.788910
O O1 0.835207 0.550522 0.500000
O O2 0.796166 0.500000 0.771183
O O3 0.736783 0.589865 0.778626
O O4 0.000000 0.558047 0.768705
O O5 0.660813 0.906500 0.500000
O O6 0.500000 0.902213 0.775945
O O7 0.724744 0.855864 0.759455
O O8 0.723074 0.951717 0.779034
O O9 0.347213 0.630983 0.500000
O O10 0.500000 0.639312 0.780060
O O11 0.247543 0.678107 0.752324
O O12 0.500000 0.000000 0.732212
O O13 0.698432 0.000000 0.500000
O O14 0.756233 0.233883 0.281358
O O15 0.000000 0.280288 0.281270
O O16 0.848907 0.272494 0.000000
O O17 0.500000 0.195094 0.717584
O O18 0.348967 0.199343 0.000000
#
# Coordination Sequence:
#
# PCOD9384776 Si02
#       6
#     8   8   8   4   8   8
#     4   8  14  26  45  69  98 131 162 191 227 272
#     4   8  13  22  38  60  86 116 147 178 216 266
#     4  10  20  32  49  75 102 126 155 194 238 281
#     4   7  10  18  33  55  84 115 144 174 212 261
#     4  10  21  36  52  68  89 123 163 198 237 286
#     4   9  17  29  44  63  88 115 144 184 233 278
#
# _framework density 20.565697
#
# number of rings (size 3 to 8) (size 9 to 14) (size 15 to 20)
#    0.000    3.182    0.000    2.727    0.000    3.273 
#    0.000    4.091    0.000    3.273    0.000    4.455 
#    0.000    5.091    0.000    0.000    0.000    0.000 
#
# Total GULP energy -245213.037513 kJ/mol
# GULP energy per Si atom -5573.023580 kJ/mol
# Density = 2.051889 g / cm^3
# Si number density = 20.565697 Si / 1000 Ang^3
#
#
#
# Elastic Constant Matrix: (Units=GPa)
#
#
# Indices 1 2 3 4 5 6 
#
# 1 111.7935 114.3499 6.0155 0.0000 0.0000 0.0000
# 2 114.3499 244.0906 1.7148 0.0000 0.0000 0.0000
# 3 6.0155 1.7148 48.7705 0.0000 0.0000 0.0000
# 4 0.0000 0.0000 0.0000 32.5647 0.0000 0.0000
# 5 0.0000 0.0000 0.0000 0.0000 7.6165 0.0000
# 6 0.0000 0.0000 0.0000 0.0000 0.0000 -81.8163
#
#
#
# Elastic Compliance Matrix: (Units=1/GPa)
#
#
# Indices 1 2 3 4 5 6 
#
# 1 0.017341 -0.008111 -0.001854 0.000000 0.000000 0.000000
# 2 -0.008111 0.007891 0.000723 0.000000 0.000000 0.000000
# 3 -0.001854 0.000723 0.020707 0.000000 0.000000 0.000000
# 4 0.000000 0.000000 0.000000 0.030708 0.000000 0.000000
# 5 0.000000 0.000000 0.000000 0.000000 0.131293 0.000000
# 6 0.000000 0.000000 0.000000 0.000000 0.000000 -0.012223
#
#
# Mechanical properties :
#
#
# Convention : Reuss Voigt Hill
#
# Bulk Modulus (GPa) = 36.42086 72.09058 54.25572
# Shear Modulus (GPa) = 22.38595 10.51127 16.44861
#
# Velocity S-wave (km/s) = 3.30284 2.26322 2.83116
# Velocity P-wave (km/s) = 5.68269 6.47761 6.09313
#
# Compressibility (1/GPa) = 0.02745679
#
# Stress axis : x y z
#
# Youngs Moduli (GPa) = 57.66646 126.71920 48.29182
#
# Poissons Ratio (x) = 1.02780 0.08952
# Poissons Ratio (y) = 0.46772 -0.03491
# Poissons Ratio (z) = 0.10690 -0.09161
#
# Static dielectric constant tensor:
#      x y z
#    x 1.714140 0.000000 0.000000 
#    y 0.000000 1.757690 0.000000 
#    z 0.000000 0.000000 1.785930 
# 
# From -- ./inp_files/2072.got.cif
#   From: 2010.05.17/outbox.cif.g08.bks.cpg/sg47_2_cif.got.tgz:2072.got - 2010.06.03 20:15:42.
