data_PCOD9384511
_publ_section_title
;
Structure prediction by ZEFSAII (Michael W. Deem and Ramdas Pophale) SiO2 
 PCOD9384511
Probable space group: P M M M
;
_chemical_formula_sum "Si O2"
_cell_formula_units_Z 52
_cell_length_a 8.168804
_cell_length_b 15.046022
_cell_length_c 25.409628
_cell_angle_alpha 90.000000
_cell_angle_beta 90.000000
_cell_angle_gamma 90.000000
_cell_volume 3123.046678
_symmetry_space_group_name_H-M "P M M M"
_symmetry_group_IT_number 47
_symmetry_cell_setting 'orthorhombic'
loop_
_space_group_symop_operation_xyz
x,y,z
-x,-y,z
x,-y,-z
-x,y,-z
-x,-y,-z
x,y,-z
-x,y,z
x,-y,z
loop_
_atom_site_type_symbol
_atom_site_label
_atom_site_fract_x
_atom_site_fract_y
_atom_site_fract_z
Si Si1 0.307997 0.901149 0.290132
Si Si2 0.196032 0.500000 0.059880
Si Si3 0.305311 0.402861 0.843875
Si Si4 0.806960 0.901823 0.407881
Si Si5 0.806924 0.725361 0.757070
Si Si6 0.200286 0.289277 0.442110
Si Si7 0.200238 0.602040 0.660530
O O1 0.500000 0.899400 0.303292
O O2 0.213037 0.888485 0.345099
O O3 0.270667 0.821639 0.250758
O O4 0.267487 0.000000 0.269916
O O5 0.256159 0.583367 0.095174
O O6 0.000000 0.500000 0.059800
O O7 0.255256 0.500000 0.000000
O O8 0.500000 0.395958 0.840160
O O9 0.254327 0.500000 0.820288
O O10 0.227121 0.323567 0.811792
O O11 0.741456 0.812483 0.434398
O O12 0.000000 0.905285 0.420388
O O13 0.737354 0.000000 0.420783
O O14 0.745245 0.660494 0.710351
O O15 0.000000 0.735854 0.749919
O O16 0.247759 0.321897 0.500000
O O17 0.252883 0.349937 0.393360
O O18 0.000000 0.287463 0.440252
O O19 0.254397 0.500000 0.663554
O O20 0.000000 0.601555 0.661048
#
# Coordination Sequence:
#
# PCOD9384511 Si02
#       7
#     8   4   8   8   8   8   8
#     4  10  20  32  47  67  91 119 151 191 244 304
#     4   9  17  31  51  75 107 147 186 217 246 279
#     4   9  19  31  46  72 105 139 173 208 246 286
#     4   9  16  28  45  64  85 108 140 183 236 298
#     4  11  19  30  49  69  95 126 161 204 245 294
#     4   9  16  26  40  61  86 110 143 187 238 295
#     4   9  17  27  40  62  88 116 148 188 240 287
#
# _framework density 16.650407999999999
#
# number of rings (size 3 to 8) (size 9 to 14) (size 15 to 20)
#    0.462    2.077    1.538    1.846    0.000    2.769 
#    0.000    3.077    0.000    0.462    0.000    2.154 
#    0.000    1.846    0.000    6.462    0.000    2.769 
#
# Total GULP energy -289667.678938 kJ/mol
# GULP energy per Si atom -5570.532287 kJ/mol
# Density = 1.661251 g / cm^3
# Si number density = 16.650408 Si / 1000 Ang^3
#
#
#
# Elastic Constant Matrix: (Units=GPa)
#
#
# Indices 1 2 3 4 5 6 
#
# 1 12.4434 7.7171 -2.4023 0.0000 0.0000 0.0000
# 2 7.7171 99.7087 44.6593 0.0000 0.0000 0.0000
# 3 -2.4023 44.6593 88.2912 0.0000 0.0000 0.0000
# 4 0.0000 0.0000 0.0000 8.4658 0.0000 0.0000
# 5 0.0000 0.0000 0.0000 0.0000 -12.2149 0.0000
# 6 0.0000 0.0000 0.0000 0.0000 0.0000 14.0937
#
#
#
# Elastic Compliance Matrix: (Units=1/GPa)
#
#
# Indices 1 2 3 4 5 6 
#
# 1 0.088156 -0.010211 0.007563 0.000000 0.000000 0.000000
# 2 -0.010211 0.014150 -0.007435 0.000000 0.000000 0.000000
# 3 0.007563 -0.007435 0.015293 0.000000 0.000000 0.000000
# 4 0.000000 0.000000 0.000000 0.118123 0.000000 0.000000
# 5 0.000000 0.000000 0.000000 0.000000 -0.081867 0.000000
# 6 0.000000 0.000000 0.000000 0.000000 0.000000 0.070954
#
#
# Mechanical properties :
#
#
# Convention : Reuss Voigt Hill
#
# Bulk Modulus (GPa) = 10.26334 33.37682 21.82008
# Shear Modulus (GPa) = 18.02126 12.10020 15.06073
#
# Velocity S-wave (km/s) = 3.29345 2.69870 3.01080
# Velocity P-wave (km/s) = 4.54311 5.45892 5.02193
#
# Compressibility (1/GPa) = 0.09743418
#
# Stress axis : x y z
#
# Youngs Moduli (GPa) = 11.34350 70.67357 65.39079
#
# Poissons Ratio (x) = 0.72162 -0.49457
# Poissons Ratio (y) = 0.11582 0.48618
# Poissons Ratio (z) = -0.08579 0.52545
#
# Static dielectric constant tensor:
#      x y z
#    x 1.588840 0.000000 0.000000 
#    y 0.000000 1.578420 0.000000 
#    z 0.000000 0.000000 1.547040 
# 
# From -- ./inp_files/31972.got.cif
#   From: 2010.05.17/outbox.cif.g08.bks.cpg/sg47_16_cif.got.tgz:31972.got - 2010.06.03 20:15:42.
