data_PCOD9384035
_publ_section_title
;
Structure prediction by ZEFSAII (Michael W. Deem and Ramdas Pophale) SiO2 
 PCOD9384035
Probable space group: P M M M
;
_chemical_formula_sum "Si O2"
_cell_formula_units_Z 48
_cell_length_a 8.754819
_cell_length_b 10.143462
_cell_length_c 29.616587
_cell_angle_alpha 90.000000
_cell_angle_beta 90.000000
_cell_angle_gamma 90.000000
_cell_volume 2630.076541
_symmetry_space_group_name_H-M "P M M M"
_symmetry_group_IT_number 47
_symmetry_cell_setting 'orthorhombic'
loop_
_space_group_symop_operation_xyz
x,y,z
-x,-y,z
x,-y,-z
-x,y,-z
-x,-y,-z
x,y,-z
-x,y,z
x,-y,z
loop_
_atom_site_type_symbol
_atom_site_label
_atom_site_fract_x
_atom_site_fract_y
_atom_site_fract_z
Si Si1 0.183291 0.850539 0.053435
Si Si2 0.680951 0.844759 0.297733
Si Si3 0.685765 0.000000 0.448564
Si Si4 0.182677 0.500000 0.447769
Si Si5 0.182254 0.152111 0.800077
Si Si6 0.684899 0.743092 0.606724
Si Si7 0.683026 0.346355 0.125480
O O1 0.260127 0.735545 0.082008
O O2 0.000000 0.843545 0.059832
O O3 0.230669 0.000000 0.067248
O O4 0.213747 0.837543 0.000000
O O5 0.500000 0.822756 0.289660
O O6 0.770693 0.821074 0.251630
O O7 0.729884 0.759956 0.340948
O O8 0.697772 0.000000 0.309681
O O9 0.731862 0.127412 0.420733
O O10 0.500000 0.000000 0.449972
O O11 0.740947 0.000000 0.500000
O O12 0.236358 0.500000 0.500000
O O13 0.244534 0.623579 0.420191
O O14 0.000000 0.500000 0.448242
O O15 0.255709 0.260452 0.832548
O O16 0.000000 0.156446 0.805180
O O17 0.231737 0.000000 0.810332
O O18 0.500000 0.734326 0.606124
O O19 0.500000 0.346498 0.126425
O O20 0.734323 0.500000 0.125833
#
# Coordination Sequence:
#
# PCOD9384035 Si02
#       7
#     8   8   4   4   8   8   8
#     4   9  19  37  61  88 117 151 193 238 283 336
#     4   9  17  33  58  87 115 139 173 224 281 335
#     4   9  16  28  53  87 113 133 171 227 274 319
#     4  11  25  41  53  73 111 153 189 225 268 323
#     4  10  21  37  59  85 111 144 187 230 277 336
#     4  10  19  35  59  85 109 140 181 225 274 329
#     4  11  24  39  55  81 117 154 193 238 286 332
#
# _framework density 18.250418
#
# number of rings (size 3 to 8) (size 9 to 14) (size 15 to 20)
#    0.000    2.167    0.833    2.750    0.000    7.333 
#    1.500    2.917    0.000    1.500    0.000    0.000 
#    0.000    0.000    0.000    0.000    0.000    0.000 
#
# Total GULP energy -267880.053200 kJ/mol
# GULP energy per Si atom -5580.834442 kJ/mol
# Density = 1.820888 g / cm^3
# Si number density = 18.250418 Si / 1000 Ang^3
#
#
#
# Elastic Constant Matrix: (Units=GPa)
#
#
# Indices 1 2 3 4 5 6 
#
# 1 31.8862 47.1627 41.3691 0.0000 0.0000 0.0000
# 2 47.1627 175.3669 95.5382 0.0000 0.0000 0.0000
# 3 41.3691 95.5382 127.8876 0.0000 0.0000 0.0000
# 4 0.0000 0.0000 0.0000 42.6847 0.0000 0.0000
# 5 0.0000 0.0000 0.0000 0.0000 33.6538 0.0000
# 6 0.0000 0.0000 0.0000 0.0000 0.0000 31.7021
#
#
#
# Elastic Compliance Matrix: (Units=1/GPa)
#
#
# Indices 1 2 3 4 5 6 
#
# 1 0.062647 -0.009794 -0.012949 0.000000 0.000000 0.000000
# 2 -0.009794 0.011147 -0.005159 0.000000 0.000000 0.000000
# 3 -0.012949 -0.005159 0.015862 0.000000 0.000000 0.000000
# 4 0.000000 0.000000 0.000000 0.023428 0.000000 0.000000
# 5 0.000000 0.000000 0.000000 0.000000 0.029714 0.000000
# 6 0.000000 0.000000 0.000000 0.000000 0.000000 0.031544
#
#
# Mechanical properties :
#
#
# Convention : Reuss Voigt Hill
#
# Bulk Modulus (GPa) = 29.53956 78.14228 53.84092
# Shear Modulus (GPa) = 20.71000 31.67951 26.19475
#
# Velocity S-wave (km/s) = 3.37229 4.17084 3.79264
# Velocity P-wave (km/s) = 5.60214 8.13045 6.98170
#
# Compressibility (1/GPa) = 0.03385290
#
# Stress axis : x y z
#
# Youngs Moduli (GPa) = 15.96243 89.71079 63.04323
#
# Poissons Ratio (x) = 0.87861 0.81632
# Poissons Ratio (y) = 0.15633 0.32525
# Poissons Ratio (z) = 0.20669 0.46283
#
# Static dielectric constant tensor:
#      x y z
#    x 1.616620 0.000000 0.000000 
#    y 0.000000 1.593060 0.000000 
#    z 0.000000 0.000000 1.620960 
# 
# From -- ./inp_files/34165.got.cif
#   From: 2010.05.17/outbox.cif.g08.bks.cpg/sg47_18_cif.got.tgz:34165.got - 2010.06.03 20:15:42.
