data_PCOD9384624
_publ_section_title
;
Structure prediction by ZEFSAII (Michael W. Deem and Ramdas Pophale) SiO2 
 PCOD9384624
Probable space group: P M M M
;
_chemical_formula_sum "Si O2"
_cell_formula_units_Z 64
_cell_length_a 7.376787
_cell_length_b 15.123993
_cell_length_c 29.861380
_cell_angle_alpha 90.000000
_cell_angle_beta 90.000000
_cell_angle_gamma 90.000000
_cell_volume 3331.528904
_symmetry_space_group_name_H-M "P M M M"
_symmetry_group_IT_number 47
_symmetry_cell_setting 'orthorhombic'
loop_
_space_group_symop_operation_xyz
x,y,z
-x,-y,z
x,-y,-z
-x,y,-z
-x,-y,-z
x,y,-z
-x,y,z
x,-y,z
loop_
_atom_site_type_symbol
_atom_site_label
_atom_site_fract_x
_atom_site_fract_y
_atom_site_fract_z
Si Si1 0.279892 0.397962 0.631400
Si Si2 0.721522 0.102913 0.146348
Si Si3 0.278932 0.599909 0.733323
Si Si4 0.718813 0.899552 0.686273
Si Si5 0.721481 0.781423 0.769496
Si Si6 0.708872 0.713555 0.548624
Si Si7 0.281710 0.105588 0.951867
Si Si8 0.790243 0.098991 0.582337
O O1 0.500000 0.390945 0.632885
O O2 0.235215 0.500000 0.621510
O O3 0.221264 0.378785 0.682217
O O4 0.211772 0.334298 0.592267
O O5 0.500000 0.102574 0.146265
O O6 0.780992 0.164865 0.186893
O O7 0.781364 0.135766 0.097063
O O8 0.775127 0.000000 0.152601
O O9 0.500000 0.598857 0.733215
O O10 0.220604 0.500000 0.744219
O O11 0.222029 0.679574 0.765297
O O12 0.500000 0.896420 0.685222
O O13 0.779092 0.832534 0.724435
O O14 0.778992 0.882134 0.635602
O O15 0.772757 0.000000 0.697837
O O16 0.500000 0.783070 0.769796
O O17 0.790746 0.694058 0.500000
O O18 0.500000 0.683835 0.546790
O O19 0.707685 0.818503 0.556878
O O20 0.500000 0.116445 0.952213
O O21 0.247638 0.000000 0.951865
O O22 0.214346 0.140594 0.000000
O O23 0.000000 0.096534 0.569366
O O24 0.714207 0.000000 0.575227
#
# Coordination Sequence:
#
# PCOD9384624 Si02
#       8
#     8   8   8   8   8   8   8   8
#     4   8  14  26  44  65  87 106 123 148 186 232
#     4   8  12  16  22  36  60  87 114 144 180 222
#     4   8  13  20  30  45  66  92 117 138 166 210
#     4   9  16  26  42  62  80  98 123 156 192 228
#     4   9  14  19  30  49  73  95 113 141 183 224
#     4  10  20  32  48  70  89 103 124 157 195 231
#     4   7   9  13  20  29  45  75 114 150 179 210
#     4  10  21  35  48  61  80 109 141 166 188 220
#
# _framework density 19.2104
#
# number of rings (size 3 to 8) (size 9 to 14) (size 15 to 20)
#    0.000    3.375    0.000    3.375    0.000    5.000 
#    0.000    2.500    0.000    0.375    0.000    0.875 
#    0.000    0.500    0.000    7.000    0.000    0.875 
#
# Total GULP energy -356774.558460 kJ/mol
# GULP energy per Si atom -5574.602476 kJ/mol
# Density = 1.916668 g / cm^3
# Si number density = 19.210400 Si / 1000 Ang^3
#
#
#
# Elastic Constant Matrix: (Units=GPa)
#
#
# Indices 1 2 3 4 5 6 
#
# 1 64.3230 0.9139 -0.7970 0.0000 0.0000 0.0000
# 2 0.9139 91.7307 72.5174 0.0000 0.0000 0.0000
# 3 -0.7970 72.5174 87.1959 0.0000 0.0000 0.0000
# 4 0.0000 0.0000 0.0000 15.4288 0.0000 0.0000
# 5 0.0000 0.0000 0.0000 0.0000-1253.4439 0.0000
# 6 0.0000 0.0000 0.0000 0.0000 0.0000 -45.3343
#
#
#
# Elastic Compliance Matrix: (Units=1/GPa)
#
#
# Indices 1 2 3 4 5 6 
#
# 1 0.015567 -0.000781 0.000792 0.000000 0.000000 0.000000
# 2 -0.000781 0.031865 -0.026508 0.000000 0.000000 0.000000
# 3 0.000792 -0.026508 0.033522 0.000000 0.000000 0.000000
# 4 0.000000 0.000000 0.000000 0.064814 0.000000 0.000000
# 5 0.000000 0.000000 0.000000 0.000000 -0.000798 0.000000
# 6 0.000000 0.000000 0.000000 0.000000 0.000000 -0.022058
#
#
# Mechanical properties :
#
#
# Convention : Reuss Voigt Hill
#
# Bulk Modulus (GPa) = 35.76623 43.16870 39.46747
# Shear Modulus (GPa) = 26.99391 -245.29554 -109.15081
#
# Velocity S-wave (km/s) = 3.75263 -11.31221 -7.54599
# Velocity P-wave (km/s) = 6.11840 12.16968 7.43863
#
# Compressibility (1/GPa) = 0.02795933
#
# Stress axis : x y z
#
# Youngs Moduli (GPa) = 64.23664 31.38207 29.83151
#
# Poissons Ratio (x) = 0.02452 -0.02363
# Poissons Ratio (y) = 0.05018 0.79078
# Poissons Ratio (z) = -0.05087 0.83189
#
# Static dielectric constant tensor:
#      x y z
#    x 1.553070 0.000000 0.000000 
#    y 0.000000 1.651720 0.000000 
#    z 0.000000 0.000000 1.686250 
# 
# From -- ./inp_files/34438.got.cif
#   From: 2010.05.17/outbox.cif.g08.bks.cpg/sg47_18_cif.got.tgz:34438.got - 2010.06.03 20:15:42.
