data_PCOD9384109
_publ_section_title
;
Structure prediction by ZEFSAII (Michael W. Deem and Ramdas Pophale) SiO2 
 PCOD9384109
Probable space group: P M M M
;
_chemical_formula_sum "Si O2"
_cell_formula_units_Z 34
_cell_length_a 9.474264
_cell_length_b 20.412759
_cell_length_c 9.214140
_cell_angle_alpha 90.000000
_cell_angle_beta 90.000000
_cell_angle_gamma 90.000000
_cell_volume 1781.976601
_symmetry_space_group_name_H-M "P M M M"
_symmetry_group_IT_number 47
_symmetry_cell_setting 'orthorhombic'
loop_
_space_group_symop_operation_xyz
x,y,z
-x,-y,z
x,-y,-z
-x,y,-z
-x,-y,-z
x,y,-z
-x,y,z
x,-y,z
loop_
_atom_site_type_symbol
_atom_site_label
_atom_site_fract_x
_atom_site_fract_y
_atom_site_fract_z
Si Si1 0.831957 0.236002 0.171740
Si Si2 0.169109 0.000000 0.825135
Si Si3 0.500000 0.500000 0.000000
Si Si4 0.747588 0.500000 0.767291
Si Si5 0.331412 0.879763 0.325894
Si Si6 0.831743 0.364036 0.340243
Si Si7 0.000000 0.500000 0.000000
O O1 0.736255 0.186629 0.262999
O O2 0.797573 0.310313 0.218847
O O3 0.000000 0.225515 0.202364
O O4 0.811070 0.226514 0.000000
O O5 0.246002 0.062448 0.754142
O O6 0.000000 0.000000 0.795892
O O7 0.186485 0.000000 0.000000
O O8 0.618587 0.500000 0.873406
O O9 0.755309 0.567136 0.677835
O O10 0.880528 0.500000 0.873337
O O11 0.312426 0.884077 0.500000
O O12 0.500000 0.883773 0.296650
O O13 0.803227 0.335562 0.500000
O O14 0.000000 0.376267 0.330738
#
# Coordination Sequence:
#
# PCOD9384109 Si02
#       7
#     8   4   1   4   8   8   1
#     4  10  22  38  61  91 123 156 199 249 301 356
#     4  11  24  41  66  96 126 157 200 251 300 350
#     4  10  28  38  54  86 124 154 198 244 312 358
#     4  11  21  39  58  87 119 156 199 251 302 365
#     4  11  24  42  62  90 125 164 205 245 293 355
#     4  10  20  36  63  93 117 150 199 254 305 358
#     4  10  20  30  66  86 116 150 198 252 308 342
#
# _framework density 19.079936
#
# number of rings (size 3 to 8) (size 9 to 14) (size 15 to 20)
#    0.000    1.529    1.176    3.176    3.294    9.412 
#    2.118    1.176    0.000    0.000    0.000    0.000 
#    0.000    0.000    0.000    0.000    0.000    0.000 
#
# Total GULP energy -189291.946885 kJ/mol
# GULP energy per Si atom -5567.410202 kJ/mol
# Density = 1.903651 g / cm^3
# Si number density = 19.079936 Si / 1000 Ang^3
#
#
#
# Elastic Constant Matrix: (Units=GPa)
#
#
# Indices 1 2 3 4 5 6 
#
# 1 133.1151 55.4453 66.5425 0.0000 0.0000 0.0000
# 2 55.4453 119.9667 45.8104 0.0000 0.0000 0.0000
# 3 66.5425 45.8104 113.2539 0.0000 0.0000 0.0000
# 4 0.0000 0.0000 0.0000 113.4866 0.0000 0.0000
# 5 0.0000 0.0000 0.0000 0.0000 38.3684 0.0000
# 6 0.0000 0.0000 0.0000 0.0000 0.0000 36.1322
#
#
#
# Elastic Compliance Matrix: (Units=1/GPa)
#
#
# Indices 1 2 3 4 5 6 
#
# 1 0.011629 -0.003271 -0.005510 0.000000 0.000000 0.000000
# 2 -0.003271 0.010778 -0.002438 0.000000 0.000000 0.000000
# 3 -0.005510 -0.002438 0.013053 0.000000 0.000000 0.000000
# 4 0.000000 0.000000 0.000000 0.008812 0.000000 0.000000
# 5 0.000000 0.000000 0.000000 0.000000 0.026063 0.000000
# 6 0.000000 0.000000 0.000000 0.000000 0.000000 0.027676
#
#
# Mechanical properties :
#
#
# Convention : Reuss Voigt Hill
#
# Bulk Modulus (GPa) = 76.78386 77.99243 77.38815
# Shear Modulus (GPa) = 40.06780 50.83327 45.45054
#
# Velocity S-wave (km/s) = 4.58754 5.16721 4.88598
# Velocity P-wave (km/s) = 8.26991 8.75017 8.51343
#
# Compressibility (1/GPa) = 0.01302357
#
# Stress axis : x y z
#
# Youngs Moduli (GPa) = 85.99404 92.77962 76.61058
#
# Poissons Ratio (x) = 0.30345 0.42209
# Poissons Ratio (y) = 0.28125 0.18678
# Poissons Ratio (z) = 0.47379 0.22620
#
# Static dielectric constant tensor:
#      x y z
#    x 1.627590 0.000000 0.000000 
#    y 0.000000 1.686020 0.000000 
#    z 0.000000 0.000000 1.651290 
# 
# From -- ./inp_files/1191.got.cif
#   From: 2010.05.17/outbox.cif.g08.bks.cpg/sg47_1_cif.got.tgz:1191.got - 2010.06.03 20:15:42.
