data_PCOD9384191
_publ_section_title
;
Structure prediction by ZEFSAII (Michael W. Deem and Ramdas Pophale) SiO2 
 PCOD9384191
Probable space group: P M M M
;
_chemical_formula_sum "Si O2"
_cell_formula_units_Z 52
_cell_length_a 19.377076
_cell_length_b 19.470710
_cell_length_c 7.684181
_cell_angle_alpha 90.000000
_cell_angle_beta 90.000000
_cell_angle_gamma 90.000000
_cell_volume 2899.129513
_symmetry_space_group_name_H-M "P M M M"
_symmetry_group_IT_number 47
_symmetry_cell_setting 'orthorhombic'
loop_
_space_group_symop_operation_xyz
x,y,z
-x,-y,z
x,-y,-z
-x,y,-z
-x,-y,-z
x,y,-z
-x,y,z
x,-y,z
loop_
_atom_site_type_symbol
_atom_site_label
_atom_site_fract_x
_atom_site_fract_y
_atom_site_fract_z
Si Si1 0.000000 0.083290 0.803392
Si Si2 0.845773 0.077423 0.706317
Si Si3 0.852806 0.577443 0.787530
Si Si4 0.713767 0.348644 0.204908
Si Si5 0.216468 0.788323 0.701204
Si Si6 0.577197 0.579867 0.212344
Si Si7 0.075952 0.713720 0.789031
O O1 0.925724 0.100792 0.725445
O O2 0.000000 0.000000 0.802454
O O3 0.000000 0.109462 0.000000
O O4 0.833166 0.073485 0.500000
O O5 0.795001 0.135787 0.779234
O O6 0.839154 0.000000 0.778830
O O7 0.864309 0.500000 0.727345
O O8 0.779103 0.607896 0.725688
O O9 0.909943 0.634096 0.742411
O O10 0.850891 0.575966 0.000000
O O11 0.732250 0.268425 0.222376
O O12 0.640339 0.373462 0.275802
O O13 0.712140 0.364072 0.000000
O O14 0.235462 0.795370 0.500000
O O15 0.140299 0.754982 0.715076
O O16 0.500000 0.599068 0.271521
O O17 0.589605 0.500000 0.258216
O O18 0.575854 0.582660 0.000000
O O19 0.000000 0.736335 0.733113
O O20 0.079668 0.719248 0.000000
#
# Coordination Sequence:
#
# PCOD9384191 Si02
#       7
#     4   8   8   8   8   8   8
#     4   9  17  27  41  63  85 103 126 163 214 263
#     4   9  18  32  46  59  78 105 139 176 213 257
#     4   8  13  22  38  58  76  98 133 171 203 236
#     4   9  16  27  43  63  88 114 139 169 207 246
#     4  10  20  31  44  60  79 108 142 173 210 255
#     4   8  13  22  41  71  99 119 144 178 209 238
#     4   9  18  30  42  58  79 103 133 174 220 257
#
# _framework density 17.936418
#
# number of rings (size 3 to 8) (size 9 to 14) (size 15 to 20)
#    0.000    3.154    0.000    2.538    1.077    4.615 
#    0.000    1.538    0.000   12.000    0.000    5.385 
#    0.000    0.615    0.000    7.692    0.000    0.000 
#
# Total GULP energy -289686.254573 kJ/mol
# GULP energy per Si atom -5570.889511 kJ/mol
# Density = 1.789559 g / cm^3
# Si number density = 17.936418 Si / 1000 Ang^3
#
#
#
# Elastic Constant Matrix: (Units=GPa)
#
#
# Indices 1 2 3 4 5 6 
#
# 1 86.8532 25.2375 -2.3933 0.0000 0.0000 0.0000
# 2 25.2375 82.9831 -8.3364 0.0000 0.0000 0.0000
# 3 -2.3933 -8.3364 25.3167 0.0000 0.0000 0.0000
# 4 0.0000 0.0000 0.0000 11.6762 0.0000 0.0000
# 5 0.0000 0.0000 0.0000 0.0000 -9.4420 0.0000
# 6 0.0000 0.0000 0.0000 0.0000 0.0000 21.2765
#
#
#
# Elastic Compliance Matrix: (Units=1/GPa)
#
#
# Indices 1 2 3 4 5 6 
#
# 1 0.012630 -0.003848 -0.000073 0.000000 0.000000 0.000000
# 2 -0.003848 0.013636 0.004126 0.000000 0.000000 0.000000
# 3 -0.000073 0.004126 0.040851 0.000000 0.000000 0.000000
# 4 0.000000 0.000000 0.000000 0.085644 0.000000 0.000000
# 5 0.000000 0.000000 0.000000 0.000000 -0.105909 0.000000
# 6 0.000000 0.000000 0.000000 0.000000 0.000000 0.047000
#
#
# Mechanical properties :
#
#
# Convention : Reuss Voigt Hill
#
# Bulk Modulus (GPa) = 14.80916 24.90761 19.85838
# Shear Modulus (GPa) = 43.12151 16.74515 29.93333
#
# Velocity S-wave (km/s) = 4.90851 3.05878 4.08960
# Velocity P-wave (km/s) = 6.35603 5.13727 5.77887
#
# Compressibility (1/GPa) = 0.06752577
#
# Stress axis : x y z
#
# Youngs Moduli (GPa) = 79.17695 73.33751 24.47896
#
# Poissons Ratio (x) = 0.28224 0.00179
# Poissons Ratio (y) = 0.30471 -0.10100
# Poissons Ratio (z) = 0.00580 -0.30260
#
# Static dielectric constant tensor:
#      x y z
#    x 1.601150 0.000000 0.000000 
#    y 0.000000 1.667680 0.000000 
#    z 0.000000 0.000000 1.682160 
# 
# From -- ./inp_files/9833.got.cif
#   From: 2010.05.17/outbox.cif.g08.bks.cpg/sg47_5_cif.got.tgz:9833.got - 2010.06.03 20:15:42.
