data_PCOD9384347
_publ_section_title
;
Structure prediction by ZEFSAII (Michael W. Deem and Ramdas Pophale) SiO2 
 PCOD9384347
Probable space group: P M M M
;
_chemical_formula_sum "Si O2"
_cell_formula_units_Z 48
_cell_length_a 24.023422
_cell_length_b 8.983705
_cell_length_c 17.551371
_cell_angle_alpha 90.000000
_cell_angle_beta 90.000000
_cell_angle_gamma 90.000000
_cell_volume 3787.925241
_symmetry_space_group_name_H-M "P M M M"
_symmetry_group_IT_number 47
_symmetry_cell_setting 'orthorhombic'
loop_
_space_group_symop_operation_xyz
x,y,z
-x,-y,z
x,-y,-z
-x,y,-z
-x,-y,-z
x,y,-z
-x,y,z
x,-y,z
loop_
_atom_site_type_symbol
_atom_site_label
_atom_site_fract_x
_atom_site_fract_y
_atom_site_fract_z
Si Si1 0.825909 0.329841 0.592579
Si Si2 0.061507 0.825543 0.592533
Si Si3 0.500000 0.680753 0.586984
Si Si4 0.289430 0.177442 0.409961
Si Si5 0.390366 0.679073 0.318795
Si Si6 0.434015 0.819655 0.832554
Si Si7 0.567506 0.826768 0.000000
O O1 0.828178 0.328793 0.500000
O O2 0.818568 0.500000 0.617086
O O3 0.884742 0.263923 0.619776
O O4 0.772150 0.232628 0.612776
O O5 0.061554 0.817509 0.500000
O O6 0.000000 0.773219 0.617573
O O7 0.067064 0.000000 0.611801
O O8 0.500000 0.500000 0.585151
O O9 0.500000 0.734367 0.500000
O O10 0.555494 0.725685 0.631654
O O11 0.297295 0.214188 0.500000
O O12 0.336055 0.257883 0.360194
O O13 0.293503 0.000000 0.401984
O O14 0.388524 0.500000 0.316149
O O15 0.399868 0.745465 0.235038
O O16 0.500000 0.785196 0.822678
O O17 0.416204 0.765730 0.917241
O O18 0.429217 0.000000 0.830013
O O19 0.500000 0.825499 0.000000
O O20 0.584510 0.000000 0.000000
#
# Coordination Sequence:
#
# PCOD9384347 Si02
#       7
#     8   8   4   8   8   8   4
#     4   9  16  25  37  52  69  90 117 151 190 228
#     4   8  13  21  33  49  69  92 116 144 181 222
#     4   9  18  30  41  52  69  94 120 149 189 233
#     4  10  20  32  43  54  69  93 127 163 196 229
#     4  11  20  30  43  58  77  97 121 152 192 234
#     4   9  16  28  45  62  80  98 119 145 177 219
#     4   7  12  24  43  63  79  99 119 137 168 215
#
# _framework density 12.671844
#
# number of rings (size 3 to 8) (size 9 to 14) (size 15 to 20)
#    0.000    2.833    0.833    3.500    0.000    4.000 
#    0.000    2.083    0.000    3.500    0.000    0.000 
#    0.000    0.000    0.000    0.000    0.000    0.000 
#
# Total GULP energy -267204.629418 kJ/mol
# GULP energy per Si atom -5566.763113 kJ/mol
# Density = 1.264300 g / cm^3
# Si number density = 12.671844 Si / 1000 Ang^3
#
#
#
# Elastic Constant Matrix: (Units=GPa)
#
#
# Indices 1 2 3 4 5 6 
#
# 1 92.0362 34.6322 39.4765 0.0000 0.0000 0.0000
# 2 34.6322 39.4630 26.6602 0.0000 0.0000 0.0000
# 3 39.4765 26.6602 75.0041 0.0000 0.0000 0.0000
# 4 0.0000 0.0000 0.0000 11.0271 0.0000 0.0000
# 5 0.0000 0.0000 0.0000 0.0000 1.1658 0.0000
# 6 0.0000 0.0000 0.0000 0.0000 0.0000 20.5504
#
#
#
# Elastic Compliance Matrix: (Units=1/GPa)
#
#
# Indices 1 2 3 4 5 6 
#
# 1 0.017511 -0.012030 -0.004941 0.000000 0.000000 0.000000
# 2 -0.012030 0.041612 -0.008460 0.000000 0.000000 0.000000
# 3 -0.004941 -0.008460 0.018940 0.000000 0.000000 0.000000
# 4 0.000000 0.000000 0.000000 0.090686 0.000000 0.000000
# 5 0.000000 0.000000 0.000000 0.000000 0.857768 0.000000
# 6 0.000000 0.000000 0.000000 0.000000 0.000000 0.048661
#
#
# Mechanical properties :
#
#
# Convention : Reuss Voigt Hill
#
# Bulk Modulus (GPa) = 36.75982 45.33792 41.04887
# Shear Modulus (GPa) = 4.40488 13.59762 9.00125
#
# Velocity S-wave (km/s) = 1.86646 3.27931 2.66810
# Velocity P-wave (km/s) = 5.80663 7.08482 6.47733
#
# Compressibility (1/GPa) = 0.02720362
#
# Stress axis : x y z
#
# Youngs Moduli (GPa) = 57.10675 24.03129 52.79870
#
# Poissons Ratio (x) = 0.28909 0.26085
# Poissons Ratio (y) = 0.68698 0.44665
# Poissons Ratio (z) = 0.28214 0.20329
#
# Static dielectric constant tensor:
#      x y z
#    x 1.409270 0.000000 0.000000 
#    y 0.000000 1.423040 0.000000 
#    z 0.000000 0.000000 1.402610 
# 
# From -- ./inp_files/11426.got.cif
#   From: 2010.05.17/outbox.cif.g08.bks.cpg/sg47_6_cif.got.tgz:11426.got - 2010.06.03 20:15:42.
