data_PCOD9384243
_publ_section_title
;
Structure prediction by ZEFSAII (Michael W. Deem and Ramdas Pophale) SiO2 
 PCOD9384243
Probable space group: P M M M
;
_chemical_formula_sum "Si O2"
_cell_formula_units_Z 64
_cell_length_a 15.162034
_cell_length_b 30.082003
_cell_length_c 7.673814
_cell_angle_alpha 90.000000
_cell_angle_beta 90.000000
_cell_angle_gamma 90.000000
_cell_volume 3500.059964
_symmetry_space_group_name_H-M "P M M M"
_symmetry_group_IT_number 47
_symmetry_cell_setting 'orthorhombic'
loop_
_space_group_symop_operation_xyz
x,y,z
-x,-y,z
x,-y,-z
-x,y,-z
-x,-y,-z
x,y,-z
-x,y,z
x,-y,z
loop_
_atom_site_type_symbol
_atom_site_label
_atom_site_fract_x
_atom_site_fract_y
_atom_site_fract_z
Si Si1 0.727855 0.223657 0.200577
Si Si2 0.101672 0.729943 0.213481
Si Si3 0.400089 0.855930 0.707199
Si Si4 0.599094 0.594580 0.287160
Si Si5 0.393136 0.952175 0.705747
Si Si6 0.900314 0.629824 0.790837
Si Si7 0.772751 0.451321 0.708923
Si Si8 0.398505 0.696585 0.710700
O O1 0.823561 0.236157 0.277410
O O2 0.668546 0.183700 0.270653
O O3 0.669291 0.268230 0.214864
O O4 0.742691 0.212661 0.000000
O O5 0.125759 0.679421 0.269332
O O6 0.000000 0.738558 0.264436
O O7 0.103367 0.730389 0.000000
O O8 0.409049 0.862158 0.500000
O O9 0.500000 0.845715 0.773321
O O10 0.367647 0.903838 0.778645
O O11 0.598413 0.594073 0.500000
O O12 0.500000 0.583529 0.230176
O O13 0.675730 0.562243 0.225904
O O14 0.619275 0.645634 0.236837
O O15 0.369764 0.953106 0.500000
O O16 0.500000 0.951724 0.715088
O O17 0.363788 0.000000 0.780732
O O18 0.837282 0.589466 0.745240
O O19 0.000000 0.621422 0.727964
O O20 0.902954 0.632157 0.000000
O O21 0.767155 0.454121 0.500000
O O22 0.800552 0.500000 0.774682
O O23 0.393549 0.698877 0.500000
O O24 0.500000 0.707030 0.759210
#
# Coordination Sequence:
#
# PCOD9384243 Si02
#       8
#     8   8   8   8   8   8   8   8
#     4  11  20  27  41  64  87 111 138 172 213 252
#     4   8  16  32  50  65  81 104 138 177 213 250
#     4   9  17  28  41  59  88 124 152 174 207 248
#     4   8  15  29  47  64  82 108 143 175 199 232
#     4   7  10  19  37  58  77 104 149 193 213 228
#     4   9  18  34  54  69  81 104 138 171 204 248
#     4  10  20  31  45  68  93 112 131 162 206 248
#     4   9  17  29  44  60  81 112 144 170 200 240
#
# _framework density 18.285401
#
# number of rings (size 3 to 8) (size 9 to 14) (size 15 to 20)
#    0.000    3.125    0.000    4.125    0.000    3.000 
#    0.000    3.125    0.000    4.500    0.000    2.625 
#    0.000    0.500    0.000    6.250    0.000    0.250 
#
# Total GULP energy -356553.888887 kJ/mol
# GULP energy per Si atom -5571.154514 kJ/mol
# Density = 1.824378 g / cm^3
# Si number density = 18.285401 Si / 1000 Ang^3
#
#
#
# Elastic Constant Matrix: (Units=GPa)
#
#
# Indices 1 2 3 4 5 6 
#
# 1 91.5082 83.4979 4.6525 0.0000 0.0000 0.0000
# 2 83.4979 117.2205 10.1717 0.0000 0.0000 0.0000
# 3 4.6525 10.1717 28.5074 0.0000 0.0000 0.0000
# 4 0.0000 0.0000 0.0000 236.5830 0.0000 0.0000
# 5 0.0000 0.0000 0.0000 0.0000 10.7070 0.0000
# 6 0.0000 0.0000 0.0000 0.0000 0.0000 16.1426
#
#
#
# Elastic Compliance Matrix: (Units=1/GPa)
#
#
# Indices 1 2 3 4 5 6 
#
# 1 0.031458 -0.022665 0.002953 0.000000 0.000000 0.000000
# 2 -0.022665 0.025132 -0.005269 0.000000 0.000000 0.000000
# 3 0.002953 -0.005269 0.036477 0.000000 0.000000 0.000000
# 4 0.000000 0.000000 0.000000 0.004227 0.000000 0.000000
# 5 0.000000 0.000000 0.000000 0.000000 0.093397 0.000000
# 6 0.000000 0.000000 0.000000 0.000000 0.000000 0.061948
#
#
# Mechanical properties :
#
#
# Convention : Reuss Voigt Hill
#
# Bulk Modulus (GPa) = 23.19819 48.20892 35.70356
# Shear Modulus (GPa) = 15.77446 61.94747 38.86096
#
# Velocity S-wave (km/s) = 2.94033 5.82680 4.61504
# Velocity P-wave (km/s) = 4.92358 8.46704 6.92577
#
# Compressibility (1/GPa) = 0.04310681
#
# Stress axis : x y z
#
# Youngs Moduli (GPa) = 31.78796 39.78924 27.41489
#
# Poissons Ratio (x) = 0.90181 -0.08095
# Poissons Ratio (y) = 0.72046 0.14444
# Poissons Ratio (z) = -0.09386 0.20963
#
# Static dielectric constant tensor:
#      x y z
#    x 1.631070 0.000000 0.000000 
#    y 0.000000 1.662230 0.000000 
#    z 0.000000 0.000000 1.708900 
# 
# From -- ./inp_files/8340.got.cif
#   From: 2010.05.17/outbox.cif.g08.bks.cpg/sg47_5_cif.got.tgz:8340.got - 2010.06.03 20:15:42.
