data_PCOD9384840
_publ_section_title
;
Structure prediction by ZEFSAII (Michael W. Deem and Ramdas Pophale) SiO2 
 PCOD9384840
Probable space group: P M M M
;
_chemical_formula_sum "Si O2"
_cell_formula_units_Z 48
_cell_length_a 30.093956
_cell_length_b 8.987399
_cell_length_c 10.390329
_cell_angle_alpha 90.000000
_cell_angle_beta 90.000000
_cell_angle_gamma 90.000000
_cell_volume 2810.234776
_symmetry_space_group_name_H-M "P M M M"
_symmetry_group_IT_number 47
_symmetry_cell_setting 'orthorhombic'
loop_
_space_group_symop_operation_xyz
x,y,z
-x,-y,z
x,-y,-z
-x,y,-z
-x,-y,-z
x,y,-z
-x,y,z
x,-y,z
loop_
_atom_site_type_symbol
_atom_site_label
_atom_site_fract_x
_atom_site_fract_y
_atom_site_fract_z
Si Si1 0.550957 0.819181 0.000000
Si Si2 0.690629 0.679453 0.652367
Si Si3 0.789707 0.670696 0.344017
Si Si4 0.051998 0.320965 0.852633
Si Si5 0.446859 0.324935 0.500000
Si Si6 0.601809 0.178919 0.258542
Si Si7 0.118647 0.177559 0.349863
O O1 0.577599 0.775012 0.127139
O O2 0.500000 0.765848 0.000000
O O3 0.549346 0.000000 0.000000
O O4 0.685531 0.716125 0.500000
O O5 0.687325 0.500000 0.662414
O O6 0.740490 0.721827 0.696014
O O7 0.651513 0.758357 0.728913
O O8 0.787712 0.668151 0.500000
O O9 0.796514 0.500000 0.301224
O O10 0.832123 0.768325 0.309575
O O11 0.055903 0.500000 0.844314
O O12 0.082814 0.247390 0.745818
O O13 0.000000 0.283472 0.832953
O O14 0.063805 0.277995 0.000000
O O15 0.435121 0.500000 0.500000
O O16 0.500000 0.310841 0.500000
O O17 0.425997 0.246977 0.624047
O O18 0.602265 0.000000 0.266936
O O19 0.111741 0.223920 0.500000
O O20 0.116309 0.000000 0.345290
#
# Coordination Sequence:
#
# PCOD9384840 Si02
#       7
#     4   8   8   8   4   8   8
#     4   9  20  38  55  73 103 139 173 211 254 305
#     4   9  17  31  52  78 109 138 167 210 260 307
#     4   8  15  29  50  74 101 139 178 210 252 306
#     4   9  19  36  56  76 100 136 182 226 266 314
#     4  11  23  37  53  77 109 137 167 215 264 305
#     4  11  21  34  56  81 103 135 175 213 258 311
#     4  10  20  32  49  78 112 141 172 216 265 311
#
# _framework density 17.080424000000001
#
# number of rings (size 3 to 8) (size 9 to 14) (size 15 to 20)
#    0.000    2.500    0.833    3.250    0.000    4.000 
#    0.000    5.833    1.833    3.000    0.000    0.000 
#    0.000    0.000    0.000    0.000    0.000    0.000 
#
# Total GULP energy -267667.731141 kJ/mol
# GULP energy per Si atom -5576.411065 kJ/mol
# Density = 1.704155 g / cm^3
# Si number density = 17.080424 Si / 1000 Ang^3
#
#
#
# Elastic Constant Matrix: (Units=GPa)
#
#
# Indices 1 2 3 4 5 6 
#
# 1 156.9970 58.7483 92.0091 0.0000 0.0000 0.0000
# 2 58.7483 44.8852 45.0701 0.0000 0.0000 0.0000
# 3 92.0091 45.0701 117.8031 0.0000 0.0000 0.0000
# 4 0.0000 0.0000 0.0000 8.7949 0.0000 0.0000
# 5 0.0000 0.0000 0.0000 0.0000 31.0619 0.0000
# 6 0.0000 0.0000 0.0000 0.0000 0.0000 11.2297
#
#
#
# Elastic Compliance Matrix: (Units=1/GPa)
#
#
# Indices 1 2 3 4 5 6 
#
# 1 0.015367 -0.013090 -0.006994 0.000000 0.000000 0.000000
# 2 -0.013090 0.047328 -0.007883 0.000000 0.000000 0.000000
# 3 -0.006994 -0.007883 0.016967 0.000000 0.000000 0.000000
# 4 0.000000 0.000000 0.000000 0.113703 0.000000 0.000000
# 5 0.000000 0.000000 0.000000 0.000000 0.032194 0.000000
# 6 0.000000 0.000000 0.000000 0.000000 0.000000 0.089050
#
#
# Mechanical properties :
#
#
# Convention : Reuss Voigt Hill
#
# Bulk Modulus (GPa) = 42.14536 79.03783 60.59159
# Shear Modulus (GPa) = 13.21173 18.47446 15.84310
#
# Velocity S-wave (km/s) = 2.78421 3.29236 3.04889
# Velocity P-wave (km/s) = 5.92148 7.79918 6.92428
#
# Compressibility (1/GPa) = 0.02372741
#
# Stress axis : x y z
#
# Youngs Moduli (GPa) = 65.07582 21.12928 58.93696
#
# Poissons Ratio (x) = 0.27658 0.41220
# Poissons Ratio (y) = 0.85185 0.46461
# Poissons Ratio (z) = 0.45513 0.16657
#
# Static dielectric constant tensor:
#      x y z
#    x 1.581670 0.000000 0.000000 
#    y 0.000000 1.572090 0.000000 
#    z 0.000000 0.000000 1.561560 
# 
# From -- ./inp_files/13865.got.cif
#   From: 2010.05.17/outbox.cif.g08.bks.cpg/sg47_7_cif.got.tgz:13865.got - 2010.06.03 20:15:42.
