data_PCOD9384400
_publ_section_title
;
Structure prediction by ZEFSAII (Michael W. Deem and Ramdas Pophale) SiO2 
 PCOD9384400
Probable space group: P M M M
;
_chemical_formula_sum "Si O2"
_cell_formula_units_Z 36
_cell_length_a 9.348796
_cell_length_b 7.407651
_cell_length_c 24.459452
_cell_angle_alpha 90.000000
_cell_angle_beta 90.000000
_cell_angle_gamma 90.000000
_cell_volume 1693.881087
_symmetry_space_group_name_H-M "P M M M"
_symmetry_group_IT_number 47
_symmetry_cell_setting 'orthorhombic'
loop_
_space_group_symop_operation_xyz
x,y,z
-x,-y,z
x,-y,-z
-x,y,-z
-x,-y,-z
x,y,-z
-x,y,z
x,-y,z
loop_
_atom_site_type_symbol
_atom_site_label
_atom_site_fract_x
_atom_site_fract_y
_atom_site_fract_z
Si Si1 0.172715 0.215569 0.941177
Si Si2 0.338748 0.285469 0.713304
Si Si3 0.335317 0.720235 0.500000
Si Si4 0.163970 0.782823 0.822515
Si Si5 0.164536 0.279229 0.608076
O O1 0.220264 0.283682 0.881721
O O2 0.000000 0.237978 0.940498
O O3 0.199842 0.000000 0.942177
O O4 0.224502 0.287711 0.000000
O O5 0.500000 0.212523 0.713166
O O6 0.349071 0.500000 0.704716
O O7 0.261628 0.259781 0.771133
O O8 0.242903 0.216780 0.663206
O O9 0.336098 0.500000 0.500000
O O10 0.500000 0.778614 0.500000
O O11 0.252052 0.776714 0.445502
O O12 0.000000 0.719111 0.814082
O O13 0.157083 0.000000 0.826483
O O14 0.163431 0.500000 0.608268
O O15 0.000000 0.221320 0.606146
#
# Coordination Sequence:
#
# PCOD9384400 Si02
#       5
#     8   8   4   8   8
#     4   7  10  19  38  64  90 112 137 176 225 270
#     4  10  20  32  45  63  90 124 158 189 225 270
#     4   9  15  23  37  59  88 117 144 179 224 271
#     4   9  17  29  47  71  94 116 147 187 229 273
#     4   9  16  26  41  61  85 114 149 188 228 267
#
# _framework density 21.252967999999999
#
# number of rings (size 3 to 8) (size 9 to 14) (size 15 to 20)
#    0.000    3.222    0.000    3.667    0.000    5.778 
#    0.000    0.000    0.000    1.333    0.000    8.556 
#    0.000    6.222    0.000    0.000    0.000    0.000 
#
# Total GULP energy -200778.926260 kJ/mol
# GULP energy per Si atom -5577.192396 kJ/mol
# Density = 2.120460 g / cm^3
# Si number density = 21.252968 Si / 1000 Ang^3
#
#
#
# Elastic Constant Matrix: (Units=GPa)
#
#
# Indices 1 2 3 4 5 6 
#
# 1 161.0621 6.1826 130.1138 0.0000 0.0000 0.0000
# 2 6.1826 68.1004 2.9080 0.0000 0.0000 0.0000
# 3 130.1138 2.9080 264.3837 0.0000 0.0000 0.0000
# 4 0.0000 0.0000 0.0000 15.4824 0.0000 0.0000
# 5 0.0000 0.0000 0.0000 0.0000 -18.0862 0.0000
# 6 0.0000 0.0000 0.0000 0.0000 0.0000 4.9029
#
#
#
# Elastic Compliance Matrix: (Units=1/GPa)
#
#
# Indices 1 2 3 4 5 6 
#
# 1 0.010342 -0.000722 -0.005082 0.000000 0.000000 0.000000
# 2 -0.000722 0.014741 0.000193 0.000000 0.000000 0.000000
# 3 -0.005082 0.000193 0.006281 0.000000 0.000000 0.000000
# 4 0.000000 0.000000 0.000000 0.064590 0.000000 0.000000
# 5 0.000000 0.000000 0.000000 0.000000 -0.055291 0.000000
# 6 0.000000 0.000000 0.000000 0.000000 0.000000 0.203962
#
#
# Mechanical properties :
#
#
# Convention : Reuss Voigt Hill
#
# Bulk Modulus (GPa) = 49.64371 85.77278 67.70825
# Shear Modulus (GPa) = 19.04328 24.08261 21.56294
#
# Velocity S-wave (km/s) = 2.99662 3.36987 3.18871
# Velocity P-wave (km/s) = 5.94829 7.45567 6.74423
#
# Compressibility (1/GPa) = 0.02014354
#
# Stress axis : x y z
#
# Youngs Moduli (GPa) = 96.69626 67.83572 159.20734
#
# Poissons Ratio (x) = 0.04897 0.80903
# Poissons Ratio (y) = 0.06980 -0.03075
# Poissons Ratio (z) = 0.49137 -0.01310
#
# Static dielectric constant tensor:
#      x y z
#    x 1.715040 0.000000 0.000000 
#    y 0.000000 1.864980 0.000000 
#    z 0.000000 0.000000 1.777490 
# 
# From -- ./inp_files/1436.got.cif
#   From: 2010.05.17/outbox.cif.g08.bks.cpg/sg47_1_cif.got.tgz:1436.got - 2010.06.03 20:15:42.
