data_PCOD9384259
_publ_section_title
;
Structure prediction by ZEFSAII (Michael W. Deem and Ramdas Pophale) SiO2 
 PCOD9384259
Probable space group: P M M M
;
_chemical_formula_sum "Si O2"
_cell_formula_units_Z 44
_cell_length_a 9.951452
_cell_length_b 29.181112
_cell_length_c 7.374144
_cell_angle_alpha 90.000000
_cell_angle_beta 90.000000
_cell_angle_gamma 90.000000
_cell_volume 2141.410383
_symmetry_space_group_name_H-M "P M M M"
_symmetry_group_IT_number 47
_symmetry_cell_setting 'orthorhombic'
loop_
_space_group_symop_operation_xyz
x,y,z
-x,-y,z
x,-y,-z
-x,y,-z
-x,-y,-z
x,y,-z
-x,y,z
x,-y,z
loop_
_atom_site_type_symbol
_atom_site_label
_atom_site_fract_x
_atom_site_fract_y
_atom_site_fract_z
Si Si1 0.151358 0.865332 0.214043
Si Si2 0.155568 0.600035 0.777931
Si Si3 0.650527 0.052210 0.718094
Si Si4 0.654077 0.785742 0.778708
Si Si5 0.163334 0.500000 0.788371
Si Si6 0.654023 0.318011 0.220732
O O1 0.235344 0.912015 0.231952
O O2 0.242411 0.823880 0.287417
O O3 0.000000 0.868199 0.287852
O O4 0.139342 0.856545 0.000000
O O5 0.204097 0.549666 0.714864
O O6 0.246952 0.642110 0.718098
O O7 0.000000 0.606134 0.725341
O O8 0.157357 0.599009 0.000000
O O9 0.646644 0.051131 0.500000
O O10 0.500000 0.066079 0.780197
O O11 0.675490 0.000000 0.779887
O O12 0.500000 0.795262 0.723033
O O13 0.689965 0.733829 0.724116
O O14 0.653695 0.786516 0.000000
O O15 0.000000 0.500000 0.781400
O O16 0.202453 0.500000 0.000000
O O17 0.500000 0.326586 0.275129
O O18 0.656512 0.318290 0.000000
#
# Coordination Sequence:
#
# PCOD9384259 Si02
#       6
#     8   8   8   8   4   8
#     4  10  20  31  45  69  97 120 144 178 219 260
#     4   8  12  17  25  35  48  71 104 142 185 233
#     4   9  19  36  55  72  90 116 151 184 212 250
#     4   8  14  25  39  53  73 103 134 164 202 248
#     4   7  10  16  23  31  45  67  99 139 182 229
#     4   8  13  20  29  42  60  82 111 149 193 238
#
# _framework density 20.547205000000002
#
# number of rings (size 3 to 8) (size 9 to 14) (size 15 to 20)
#    0.000    3.545    0.000    3.273    0.000    2.909 
#    0.000    6.818    0.000    2.727    0.000    0.000 
#    0.000    0.000    0.000    0.000    0.000    0.000 
#
# Total GULP energy -245322.477460 kJ/mol
# GULP energy per Si atom -5575.510851 kJ/mol
# Density = 2.050044 g / cm^3
# Si number density = 20.547205 Si / 1000 Ang^3
#
#
#
# Elastic Constant Matrix: (Units=GPa)
#
#
# Indices 1 2 3 4 5 6 
#
# 1 153.4253 142.8166 5.4928 0.0000 0.0000 0.0000
# 2 142.8166 194.0170 3.0290 0.0000 0.0000 0.0000
# 3 5.4928 3.0290 71.5933 0.0000 0.0000 0.0000
# 4 0.0000 0.0000 0.0000 132.4653 0.0000 0.0000
# 5 0.0000 0.0000 0.0000 0.0000 -9.9672 0.0000
# 6 0.0000 0.0000 0.0000 0.0000 0.0000 44.1887
#
#
#
# Elastic Compliance Matrix: (Units=1/GPa)
#
#
# Indices 1 2 3 4 5 6 
#
# 1 0.020769 -0.015273 -0.000947 0.000000 0.000000 0.000000
# 2 -0.015273 0.016389 0.000478 0.000000 0.000000 0.000000
# 3 -0.000947 0.000478 0.014020 0.000000 0.000000 0.000000
# 4 0.000000 0.000000 0.000000 0.007549 0.000000 0.000000
# 5 0.000000 0.000000 0.000000 0.000000 -0.100329 0.000000
# 6 0.000000 0.000000 0.000000 0.000000 0.000000 0.022630
#
#
# Mechanical properties :
#
#
# Convention : Reuss Voigt Hill
#
# Bulk Modulus (GPa) = 50.77614 80.19026 65.48320
# Shear Modulus (GPa) = 262.08292 51.18385 156.63338
#
# Velocity S-wave (km/s) = 11.30613 4.99644 8.74051
# Velocity P-wave (km/s) = 13.97153 8.50870 11.56723
#
# Compressibility (1/GPa) = 0.01969429
#
# Stress axis : x y z
#
# Youngs Moduli (GPa) = 48.14869 61.01477 71.32558
#
# Poissons Ratio (x) = 0.93190 0.06756
# Poissons Ratio (y) = 0.73539 -0.03412
# Poissons Ratio (z) = 0.04561 -0.02919
#
# Static dielectric constant tensor:
#      x y z
#    x 1.697360 0.000000 0.000000 
#    y 0.000000 1.725810 0.000000 
#    z 0.000000 0.000000 1.850150 
# 
# From -- ./inp_files/2029.got.cif
#   From: 2010.05.17/outbox.cif.g08.bks.cpg/sg47_2_cif.got.tgz:2029.got - 2010.06.03 20:15:42.
