data_PCOD9384107
_publ_section_title
;
Structure prediction by ZEFSAII (Michael W. Deem and Ramdas Pophale) SiO2 
 PCOD9384107
Probable space group: P M M M
;
_chemical_formula_sum "Si O2"
_cell_formula_units_Z 52
_cell_length_a 14.595573
_cell_length_b 22.374740
_cell_length_c 9.276013
_cell_angle_alpha 90.000000
_cell_angle_beta 90.000000
_cell_angle_gamma 90.000000
_cell_volume 3029.287518
_symmetry_space_group_name_H-M "P M M M"
_symmetry_group_IT_number 47
_symmetry_cell_setting 'orthorhombic'
loop_
_space_group_symop_operation_xyz
x,y,z
-x,-y,z
x,-y,-z
-x,y,-z
-x,-y,-z
x,y,-z
-x,y,z
x,-y,z
loop_
_atom_site_type_symbol
_atom_site_label
_atom_site_fract_x
_atom_site_fract_y
_atom_site_fract_z
Si Si1 0.891283 0.817861 0.669167
Si Si2 0.218749 0.934889 0.673423
Si Si3 0.391883 0.571119 0.500000
Si Si4 0.728172 0.341860 0.337481
Si Si5 0.604996 0.894050 0.171747
Si Si6 0.392288 0.752652 0.831325
Si Si7 0.893505 0.693400 0.172003
O O1 0.868921 0.807317 0.500000
O O2 0.838825 0.877026 0.720310
O O3 0.871785 0.758979 0.762396
O O4 0.000000 0.828740 0.677505
O O5 0.223429 0.932564 0.500000
O O6 0.319226 0.928862 0.740223
O O7 0.179341 0.000000 0.713338
O O8 0.383025 0.500000 0.500000
O O9 0.500000 0.586503 0.500000
O O10 0.338780 0.601688 0.365209
O O11 0.756930 0.324628 0.500000
O O12 0.668894 0.289388 0.266579
O O13 0.818940 0.350187 0.243029
O O14 0.500000 0.908835 0.209561
O O15 0.619141 0.823079 0.198800
O O16 0.615486 0.903680 0.000000
O O17 0.500000 0.739117 0.811187
O O18 0.369909 0.742986 0.000000
O O19 0.000000 0.680007 0.207959
O O20 0.884671 0.694536 0.000000
#
# Coordination Sequence:
#
# PCOD9384107 Si02
#       7
#     8   8   4   8   8   8   8
#     4   9  18  33  53  75 102 133 166 208 260 317
#     4  10  21  34  47  66  92 124 167 213 257 307
#     4   9  20  38  57  81 115 151 183 216 252 290
#     4  10  20  30  53  81 107 141 180 216 252 302
#     4   9  19  34  49  66  91 125 162 204 260 319
#     4   9  17  30  49  75 106 133 163 212 271 326
#     4  10  20  34  53  80 113 142 170 213 271 325
#
# _framework density 17.165752000000001
#
# number of rings (size 3 to 8) (size 9 to 14) (size 15 to 20)
#    0.462    2.077    0.000    3.231    0.000    5.846 
#    0.000    4.615    0.000    2.769    0.000    9.692 
#    0.000    0.000    0.000    0.000    0.000    0.000 
#
# Total GULP energy -289802.435529 kJ/mol
# GULP energy per Si atom -5573.123760 kJ/mol
# Density = 1.712668 g / cm^3
# Si number density = 17.165752 Si / 1000 Ang^3
#
#
#
# Elastic Constant Matrix: (Units=GPa)
#
#
# Indices 1 2 3 4 5 6 
#
# 1 85.3122 55.4165 33.5303 0.0000 0.0000 0.0000
# 2 55.4165 50.2938 22.1338 0.0000 0.0000 0.0000
# 3 33.5303 22.1338 42.9417 0.0000 0.0000 0.0000
# 4 0.0000 0.0000 0.0000 2.7312 0.0000 0.0000
# 5 0.0000 0.0000 0.0000 0.0000 32.8115 0.0000
# 6 0.0000 0.0000 0.0000 0.0000 0.0000 16.6238
#
#
#
# Elastic Compliance Matrix: (Units=1/GPa)
#
#
# Indices 1 2 3 4 5 6 
#
# 1 0.046011 -0.045122 -0.012669 0.000000 0.000000 0.000000
# 2 -0.045122 0.069966 -0.000831 0.000000 0.000000 0.000000
# 3 -0.012669 -0.000831 0.033608 0.000000 0.000000 0.000000
# 4 0.000000 0.000000 0.000000 0.366138 0.000000 0.000000
# 5 0.000000 0.000000 0.000000 0.000000 0.030477 0.000000
# 6 0.000000 0.000000 0.000000 0.000000 0.000000 0.060155
#
#
# Mechanical properties :
#
#
# Convention : Reuss Voigt Hill
#
# Bulk Modulus (GPa) = 30.91981 44.52320 37.72150
# Shear Modulus (GPa) = 6.80847 14.93110 10.86979
#
# Velocity S-wave (km/s) = 1.99372 2.95247 2.51913
# Velocity P-wave (km/s) = 4.83234 6.13321 5.52122
#
# Compressibility (1/GPa) = 0.03234173
#
# Stress axis : x y z
#
# Youngs Moduli (GPa) = 21.73402 14.29261 29.75454
#
# Poissons Ratio (x) = 0.64490 0.37697
# Poissons Ratio (y) = 0.98067 0.02472
# Poissons Ratio (z) = 0.27536 0.01188
#
# Static dielectric constant tensor:
#      x y z
#    x 1.601580 0.000000 0.000000 
#    y 0.000000 1.573490 0.000000 
#    z 0.000000 0.000000 1.570110 
# 
# From -- ./inp_files/7618.got.cif
#   From: 2010.05.17/outbox.cif.g08.bks.cpg/sg47_4_cif.got.tgz:7618.got - 2010.06.03 20:15:42.
