data_PCOD9384635
_publ_section_title
;
Structure prediction by ZEFSAII (Michael W. Deem and Ramdas Pophale) SiO2 
 PCOD9384635
Probable space group: P M M M
;
_chemical_formula_sum "Si O2"
_cell_formula_units_Z 52
_cell_length_a 36.112366
_cell_length_b 8.985869
_cell_length_c 7.334451
_cell_angle_alpha 90.000000
_cell_angle_beta 90.000000
_cell_angle_gamma 90.000000
_cell_volume 2380.036612
_symmetry_space_group_name_H-M "P M M M"
_symmetry_group_IT_number 47
_symmetry_cell_setting 'orthorhombic'
loop_
_space_group_symop_operation_xyz
x,y,z
-x,-y,z
x,-y,-z
-x,y,-z
-x,-y,-z
x,y,-z
-x,y,z
x,-y,z
loop_
_atom_site_type_symbol
_atom_site_label
_atom_site_fract_x
_atom_site_fract_y
_atom_site_fract_z
Si Si1 0.336744 0.831844 0.220981
Si Si2 0.190542 0.165431 0.217824
Si Si3 0.422067 0.824994 0.221765
Si Si4 0.114155 0.666164 0.717968
Si Si5 0.040366 0.173057 0.721934
Si Si6 0.263815 0.331037 0.777268
Si Si7 0.543405 0.500000 0.779877
O O1 0.379040 0.806566 0.277704
O O2 0.303847 0.726723 0.283982
O O3 0.326480 0.000000 0.270064
O O4 0.337827 0.823213 0.000000
O O5 0.152913 0.253629 0.249820
O O6 0.228432 0.238322 0.285945
O O7 0.186245 0.000000 0.290196
O O8 0.194821 0.157892 0.000000
O O9 0.441162 0.666010 0.278541
O O10 0.433035 0.000000 0.275611
O O11 0.424657 0.827847 0.000000
O O12 0.109883 0.659694 0.500000
O O13 0.116233 0.500000 0.789981
O O14 0.077305 0.746929 0.787515
O O15 0.040634 0.177754 0.500000
O O16 0.000000 0.233505 0.778826
O O17 0.042046 0.000000 0.773329
O O18 0.258373 0.500000 0.723614
O O19 0.264401 0.324676 0.000000
O O20 0.500000 0.500000 0.736993
O O21 0.548446 0.500000 0.000000
#
# Coordination Sequence:
#
# PCOD9384635 Si02
#       7
#     8   8   8   8   8   8   4
#     4   8  13  21  32  46  64  86 114 150 193 242
#     4  10  20  33  48  65  88 119 152 184 220 265
#     4   8  14  22  30  40  55  76 104 143 190 239
#     4  10  20  32  48  71  96 121 149 182 221 264
#     4   8  14  26  45  68  92 117 146 180 216 255
#     4   9  16  24  37  57  78 101 128 162 206 254
#     4   9  16  22  28  38  52  74 106 144 189 245
#
# _framework density 21.848402
#
# number of rings (size 3 to 8) (size 9 to 14) (size 15 to 20)
#    0.000    3.154    0.000    2.769    1.077    4.308 
#    0.000    3.077    0.000    0.462    0.000    3.231 
#    0.000    0.000    0.000    0.000    0.000    0.000 
#
# Total GULP energy -289824.858988 kJ/mol
# GULP energy per Si atom -5573.554981 kJ/mol
# Density = 2.179867 g / cm^3
# Si number density = 21.848402 Si / 1000 Ang^3
#
#
#
# Elastic Constant Matrix: (Units=GPa)
#
#
# Indices 1 2 3 4 5 6 
#
# 1 149.5825 113.4761 1.0862 0.0000 0.0000 0.0000
# 2 113.4761 183.0059 5.0351 0.0000 0.0000 0.0000
# 3 1.0862 5.0351 83.5919 0.0000 0.0000 0.0000
# 4 0.0000 0.0000 0.0000 -6.0331 0.0000 0.0000
# 5 0.0000 0.0000 0.0000 0.0000 -0.8143 0.0000
# 6 0.0000 0.0000 0.0000 0.0000 0.0000 52.4589
#
#
#
# Elastic Compliance Matrix: (Units=1/GPa)
#
#
# Indices 1 2 3 4 5 6 
#
# 1 0.012631 -0.007841 0.000308 0.000000 0.000000 0.000000
# 2 -0.007841 0.010340 -0.000521 0.000000 0.000000 0.000000
# 3 0.000308 -0.000521 0.011990 0.000000 0.000000 0.000000
# 4 0.000000 0.000000 0.000000 -0.165751 0.000000 0.000000
# 5 0.000000 0.000000 0.000000 0.000000 -1.228087 0.000000
# 6 0.000000 0.000000 0.000000 0.000000 0.000000 0.019063
#
#
# Mechanical properties :
#
#
# Convention : Reuss Voigt Hill
#
# Bulk Modulus (GPa) = 53.03679 72.81945 62.92812
# Shear Modulus (GPa) = -3.79529 28.89449 12.54960
#
# Velocity S-wave (km/s) = -1.31942 3.64056 2.39925
# Velocity P-wave (km/s) = 4.69110 7.14656 6.04482
#
# Compressibility (1/GPa) = 0.01885484
#
# Stress axis : x y z
#
# Youngs Moduli (GPa) = 79.17004 96.70876 83.40102
#
# Poissons Ratio (x) = 0.75825 -0.02570
# Poissons Ratio (y) = 0.62074 0.04345
# Poissons Ratio (z) = -0.02440 0.05038
#
# Static dielectric constant tensor:
#      x y z
#    x 1.754940 0.000000 0.000000 
#    y 0.000000 1.993720 0.000000 
#    z 0.000000 0.000000 1.641000 
# 
# From -- ./inp_files/20038.got.cif
#   From: 2010.05.17/outbox.cif.g08.bks.cpg/sg47_11_cif.got.tgz:20038.got - 2010.06.03 20:15:42.
