data_PCOD9384073
_publ_section_title
;
Structure prediction by ZEFSAII (Michael W. Deem and Ramdas Pophale) SiO2 
 PCOD9384073
Probable space group: P M M M
;
_chemical_formula_sum "Si O2"
_cell_formula_units_Z 45
_cell_length_a 18.754996
_cell_length_b 7.621119
_cell_length_c 15.076749
_cell_angle_alpha 90.000000
_cell_angle_beta 90.000000
_cell_angle_gamma 90.000000
_cell_volume 2154.980891
_symmetry_space_group_name_H-M "P M M M"
_symmetry_group_IT_number 47
_symmetry_cell_setting 'orthorhombic'
loop_
_space_group_symop_operation_xyz
x,y,z
-x,-y,z
x,-y,-z
-x,y,-z
-x,-y,-z
x,y,-z
-x,y,z
x,-y,z
loop_
_atom_site_type_symbol
_atom_site_label
_atom_site_fract_x
_atom_site_fract_y
_atom_site_fract_z
Si Si1 0.109771 0.703507 0.402343
Si Si2 0.500000 0.693050 0.853406
Si Si3 0.724316 0.787833 0.596938
Si Si4 0.076868 0.794785 0.795558
Si Si5 0.217631 0.214582 0.897241
Si Si6 0.649455 0.786689 0.223745
Si Si7 0.500000 0.000000 0.000000
O O1 0.089254 0.776157 0.500000
O O2 0.088730 0.500000 0.400964
O O3 0.195487 0.716892 0.397348
O O4 0.082834 0.785138 0.311137
O O5 0.500000 0.500000 0.894013
O O6 0.427864 0.714228 0.797355
O O7 0.500000 0.847440 0.923889
O O8 0.695145 0.740649 0.500000
O O9 0.678138 0.731833 0.680177
O O10 0.730644 0.000000 0.601214
O O11 0.148002 0.723269 0.842550
O O12 0.000000 0.717240 0.821749
O O13 0.075412 0.000000 0.819731
O O14 0.290543 0.267226 0.848155
O O15 0.217447 0.000000 0.895325
O O16 0.215373 0.268108 0.000000
O O17 0.645708 0.000000 0.221484
#
# Coordination Sequence:
#
# PCOD9384073 Si02
#       7
#     8   4   8   8   8   8   1
#     4  10  20  33  51  78 112 149 189 240 302 363
#     4  12  27  43  68  99 130 170 210 258 318 372
#     4   9  17  32  59  90 119 157 204 248 298 361
#     4  10  20  35  54  79 110 146 192 246 297 352
#     4   9  18  32  56  85 113 152 193 237 301 363
#     4  10  19  37  62  88 127 166 200 252 311 364
#     4  12  26  52  68  94 138 168 208 264 320 370
#
# _framework density 20.881855000000002
#
# number of rings (size 3 to 8) (size 9 to 14) (size 15 to 20)
#    0.000    2.133    2.667    0.667    1.244    2.844 
#    0.000    4.000    0.000    4.267    0.000    1.244 
#    0.000    0.000    0.000    0.000    0.000    0.000 
#
# Total GULP energy -250978.195141 kJ/mol
# GULP energy per Si atom -5577.293225 kJ/mol
# Density = 2.083433 g / cm^3
# Si number density = 20.881855 Si / 1000 Ang^3
#
#
#
# Elastic Constant Matrix: (Units=GPa)
#
#
# Indices 1 2 3 4 5 6 
#
# 1 177.0807 13.8914 89.8846 0.0000 0.0000 0.0000
# 2 13.8914 65.3841 14.1555 0.0000 0.0000 0.0000
# 3 89.8846 14.1555 147.5962 0.0000 0.0000 0.0000
# 4 0.0000 0.0000 0.0000 39.9263 0.0000 0.0000
# 5 0.0000 0.0000 0.0000 0.0000 -9.4278 0.0000
# 6 0.0000 0.0000 0.0000 0.0000 0.0000 2.6189
#
#
#
# Elastic Compliance Matrix: (Units=1/GPa)
#
#
# Indices 1 2 3 4 5 6 
#
# 1 0.008203 -0.000675 -0.004931 0.000000 0.000000 0.000000
# 2 -0.000675 0.015674 -0.001092 0.000000 0.000000 0.000000
# 3 -0.004931 -0.001092 0.009883 0.000000 0.000000 0.000000
# 4 0.000000 0.000000 0.000000 0.025046 0.000000 0.000000
# 5 0.000000 0.000000 0.000000 0.000000 -0.106069 0.000000
# 6 0.000000 0.000000 0.000000 0.000000 0.000000 0.381842
#
#
# Mechanical properties :
#
#
# Convention : Reuss Voigt Hill
#
# Bulk Modulus (GPa) = 49.10695 69.54712 59.32704
# Shear Modulus (GPa) = 14.09390 24.76543 19.42967
#
# Velocity S-wave (km/s) = 2.60077 3.44754 3.05365
# Velocity P-wave (km/s) = 5.70844 7.01603 6.39574
#
# Compressibility (1/GPa) = 0.02036372
#
# Stress axis : x y z
#
# Youngs Moduli (GPa) = 121.90798 63.79941 101.18652
#
# Poissons Ratio (x) = 0.04308 0.49892
# Poissons Ratio (y) = 0.08232 0.11050
# Poissons Ratio (z) = 0.60109 0.06967
#
# Static dielectric constant tensor:
#      x y z
#    x 1.733190 0.000000 0.000000 
#    y 0.000000 1.768110 0.000000 
#    z 0.000000 0.000000 1.731620 
# 
# From -- ./inp_files/24355.got.cif
#   From: 2010.05.17/outbox.cif.g08.bks.cpg/sg47_13_cif.got.tgz:24355.got - 2010.06.03 20:15:42.
