data_PCOD9384179
_publ_section_title
;
Structure prediction by ZEFSAII (Michael W. Deem and Ramdas Pophale) SiO2 
 PCOD9384179
Probable space group: P M M M
;
_chemical_formula_sum "Si O2"
_cell_formula_units_Z 44
_cell_length_a 9.830652
_cell_length_b 29.506044
_cell_length_c 7.369365
_cell_angle_alpha 90.000000
_cell_angle_beta 90.000000
_cell_angle_gamma 90.000000
_cell_volume 2137.584913
_symmetry_space_group_name_H-M "P M M M"
_symmetry_group_IT_number 47
_symmetry_cell_setting 'orthorhombic'
loop_
_space_group_symop_operation_xyz
x,y,z
-x,-y,z
x,-y,-z
-x,y,-z
-x,-y,-z
x,y,-z
-x,y,z
x,-y,z
loop_
_atom_site_type_symbol
_atom_site_label
_atom_site_fract_x
_atom_site_fract_y
_atom_site_fract_z
Si Si1 0.153892 0.315946 0.284226
Si Si2 0.343309 0.765171 0.278669
Si Si3 0.157294 0.050420 0.721114
Si Si4 0.656421 0.867288 0.279007
Si Si5 0.665370 0.500000 0.208406
Si Si6 0.344883 0.598674 0.781768
O O1 0.143482 0.309160 0.500000
O O2 0.241209 0.273449 0.213620
O O3 0.241023 0.361413 0.258418
O O4 0.000000 0.318974 0.212749
O O5 0.343447 0.764502 0.500000
O O6 0.500000 0.756571 0.223569
O O7 0.304331 0.816270 0.223567
O O8 0.160004 0.050837 0.500000
O O9 0.248245 0.092126 0.784054
O O10 0.000000 0.055797 0.774536
O O11 0.203585 0.000000 0.776853
O O12 0.659628 0.867545 0.500000
O O13 0.500000 0.874634 0.225547
O O14 0.500000 0.500000 0.205213
O O15 0.701200 0.549047 0.287816
O O16 0.714729 0.500000 0.000000
O O17 0.500000 0.608378 0.718486
O O18 0.352632 0.594708 0.000000
#
# Coordination Sequence:
#
# PCOD9384179 Si02
#       6
#     8   8   8   8   4   8
#     4  10  20  31  43  63  91 120 148 178 215 258
#     4   8  14  25  39  53  71  98 133 172 211 250
#     4   8  13  19  25  35  54  81 113 150 193 240
#     4   8  13  20  30  44  60  81 115 159 203 243
#     4   7  12  26  48  71  90 108 138 179 214 249
#     4   9  17  31  52  73  90 112 144 180 217 256
#
# _framework density 20.583977999999998
#
# number of rings (size 3 to 8) (size 9 to 14) (size 15 to 20)
#    0.000    3.545    0.000    3.273    0.000    2.545 
#    0.000    6.364    0.000    4.364    0.000    0.000 
#    0.000    0.000    0.000    0.000    0.000    0.909 
#
# Total GULP energy -245314.605199 kJ/mol
# GULP energy per Si atom -5575.331936 kJ/mol
# Density = 2.053713 g / cm^3
# Si number density = 20.583978 Si / 1000 Ang^3
#
#
#
# Elastic Constant Matrix: (Units=GPa)
#
#
# Indices 1 2 3 4 5 6 
#
# 1 132.4628 145.4289 5.4416 0.0000 0.0000 0.0000
# 2 145.4289 246.4839 4.7745 0.0000 0.0000 0.0000
# 3 5.4416 4.7745 73.8142 0.0000 0.0000 0.0000
# 4 0.0000 0.0000 0.0000 14.0167 0.0000 0.0000
# 5 0.0000 0.0000 0.0000 0.0000 5.1034 0.0000
# 6 0.0000 0.0000 0.0000 0.0000 0.0000 -20.0076
#
#
#
# Elastic Compliance Matrix: (Units=1/GPa)
#
#
# Indices 1 2 3 4 5 6 
#
# 1 0.021476 -0.012656 -0.000765 0.000000 0.000000 0.000000
# 2 -0.012656 0.011521 0.000188 0.000000 0.000000 0.000000
# 3 -0.000765 0.000188 0.013592 0.000000 0.000000 0.000000
# 4 0.000000 0.000000 0.000000 0.071343 0.000000 0.000000
# 5 0.000000 0.000000 0.000000 0.000000 0.195947 0.000000
# 6 0.000000 0.000000 0.000000 0.000000 0.000000 -0.049981
#
#
# Mechanical properties :
#
#
# Convention : Reuss Voigt Hill
#
# Bulk Modulus (GPa) = 49.69590 84.89453 67.29521
# Shear Modulus (GPa) = 16.83099 19.63024 18.23062
#
# Velocity S-wave (km/s) = 2.86260 3.09150 2.97925
# Velocity P-wave (km/s) = 5.92633 7.35362 6.67821
#
# Compressibility (1/GPa) = 0.02012239
#
# Stress axis : x y z
#
# Youngs Moduli (GPa) = 46.56436 86.80028 73.57410
#
# Poissons Ratio (x) = 1.09855 0.05625
# Poissons Ratio (y) = 0.58932 -0.01382
# Poissons Ratio (z) = 0.03560 -0.01630
#
# Static dielectric constant tensor:
#      x y z
#    x 1.691270 0.000000 0.000000 
#    y 0.000000 1.735430 0.000000 
#    z 0.000000 0.000000 1.852860 
# 
# From -- ./inp_files/1987.got.cif
#   From: 2010.05.17/outbox.cif.g08.bks.cpg/sg47_1_cif.got.tgz:1987.got - 2010.06.03 20:15:42.
