data_PCOD9384773
_publ_section_title
;
Structure prediction by ZEFSAII (Michael W. Deem and Ramdas Pophale) SiO2 
 PCOD9384773
Probable space group: P M M M
;
_chemical_formula_sum "Si O2"
_cell_formula_units_Z 64
_cell_length_a 24.658571
_cell_length_b 7.365263
_cell_length_c 14.549604
_cell_angle_alpha 90.000000
_cell_angle_beta 90.000000
_cell_angle_gamma 90.000000
_cell_volume 2642.453402
_symmetry_space_group_name_H-M "P M M M"
_symmetry_group_IT_number 47
_symmetry_cell_setting 'orthorhombic'
loop_
_space_group_symop_operation_xyz
x,y,z
-x,-y,z
x,-y,-z
-x,y,-z
-x,-y,-z
x,y,-z
-x,y,z
x,-y,z
loop_
_atom_site_type_symbol
_atom_site_label
_atom_site_fract_x
_atom_site_fract_y
_atom_site_fract_z
Si Si1 0.678786 0.279353 0.601187
Si Si2 0.558579 0.784192 0.859301
Si Si3 0.240435 0.751167 0.749182
Si Si4 0.154230 0.286989 0.106433
Si Si5 0.061504 0.781548 0.246554
Si Si6 0.679058 0.779300 0.898636
Si Si7 0.849422 0.778670 0.392289
Si Si8 0.441533 0.283744 0.358939
O O1 0.701124 0.246610 0.500000
O O2 0.680672 0.500000 0.618238
O O3 0.714140 0.182579 0.677188
O O4 0.616024 0.220589 0.603819
O O5 0.500000 0.712565 0.891858
O O6 0.616324 0.719932 0.895626
O O7 0.560086 0.751361 0.750092
O O8 0.557949 0.000000 0.877222
O O9 0.196280 0.813057 0.825676
O O10 0.284768 0.684415 0.823072
O O11 0.197649 0.691372 0.670359
O O12 0.170043 0.500000 0.109413
O O13 0.096320 0.272867 0.157130
O O14 0.153618 0.228416 0.000000
O O15 0.095235 0.731382 0.338273
O O16 0.000000 0.714219 0.245931
O O17 0.059874 0.000000 0.245949
O O18 0.680834 0.000000 0.881851
O O19 0.701219 0.747081 0.000000
O O20 0.848947 0.730942 0.500000
O O21 0.841955 0.000000 0.385814
O O22 0.500000 0.212599 0.391950
O O23 0.442236 0.500000 0.375514
#
# Coordination Sequence:
#
# PCOD9384773 Si02
#       8
#     8   8   8   8   8   8   8   8
#     4  10  20  32  49  74  99 129 173 220 265 316
#     4   9  17  31  51  73  98 130 169 215 268 326
#     4  11  19  34  52  72 103 142 177 222 266 311
#     4  10  22  38  56  80 110 146 185 221 262 311
#     4   9  19  36  59  87 116 145 178 217 260 305
#     4  10  20  32  49  75 103 135 176 221 270 323
#     4   9  18  32  52  79 109 142 180 218 257 303
#     4   9  17  31  51  73  98 130 168 212 265 324
#
# _framework density 24.219915
#
# number of rings (size 3 to 8) (size 9 to 14) (size 15 to 20)
#    0.000    2.375    1.250    1.500    0.000    2.000 
#    0.000    5.000    0.000    5.625    0.000    7.000 
#    0.000    0.000    0.000    0.000    0.000    0.000 
#
# Total GULP energy -356530.531282 kJ/mol
# GULP energy per Si atom -5570.789551 kJ/mol
# Density = 2.416479 g / cm^3
# Si number density = 24.219915 Si / 1000 Ang^3
#
#
#
# Elastic Constant Matrix: (Units=GPa)
#
#
# Indices 1 2 3 4 5 6 
#
# 1 215.7137 26.3410 98.4488 0.0000 0.0000 0.0000
# 2 26.3410 111.9894 27.3206 0.0000 0.0000 0.0000
# 3 98.4488 27.3206 240.0412 0.0000 0.0000 0.0000
# 4 0.0000 0.0000 0.0000 -8.1372 0.0000 0.0000
# 5 0.0000 0.0000 0.0000 0.0000 -2.6282 0.0000
# 6 0.0000 0.0000 0.0000 0.0000 0.0000 -169.6013
#
#
#
# Elastic Compliance Matrix: (Units=1/GPa)
#
#
# Indices 1 2 3 4 5 6 
#
# 1 0.005773 -0.000802 -0.002276 0.000000 0.000000 0.000000
# 2 -0.000802 0.009296 -0.000729 0.000000 0.000000 0.000000
# 3 -0.002276 -0.000729 0.005182 0.000000 0.000000 0.000000
# 4 0.000000 0.000000 0.000000 -0.122893 0.000000 0.000000
# 5 0.000000 0.000000 0.000000 0.000000 -0.380484 0.000000
# 6 0.000000 0.000000 0.000000 0.000000 0.000000 -0.005896
#
#
# Mechanical properties :
#
#
# Convention : Reuss Voigt Hill
#
# Bulk Modulus (GPa) = 79.13981 96.88502 88.01241
# Shear Modulus (GPa) = -10.47789 -8.36440 -9.42115
#
# Velocity S-wave (km/s) = -2.08220 -1.86038 -1.97441
# Velocity P-wave (km/s) = 5.19285 5.95604 5.58749
#
# Compressibility (1/GPa) = 0.01263587
#
# Stress axis : x y z
#
# Youngs Moduli (GPa) = 173.23255 107.57328 192.95876
#
# Poissons Ratio (x) = 0.08632 0.43921
# Poissons Ratio (y) = 0.13901 0.14065
# Poissons Ratio (z) = 0.39431 0.07841
#
# Static dielectric constant tensor:
#      x y z
#    x 1.902700 0.000000 0.000000 
#    y 0.000000 2.111470 0.000000 
#    z 0.000000 0.000000 1.844140 
# 
# From -- ./inp_files/25527.got.cif
#   From: 2010.05.17/outbox.cif.g08.bks.cpg/sg47_13_cif.got.tgz:25527.got - 2010.06.03 20:15:42.
