data_PCOD9384828
_publ_section_title
;
Structure prediction by ZEFSAII (Michael W. Deem and Ramdas Pophale) SiO2 
 PCOD9384828
Probable space group: P M M M
;
_chemical_formula_sum "Si O2"
_cell_formula_units_Z 52
_cell_length_a 8.891195
_cell_length_b 23.021281
_cell_length_c 15.356029
_cell_angle_alpha 90.000000
_cell_angle_beta 90.000000
_cell_angle_gamma 90.000000
_cell_volume 3143.174878
_symmetry_space_group_name_H-M "P M M M"
_symmetry_group_IT_number 47
_symmetry_cell_setting 'orthorhombic'
loop_
_space_group_symop_operation_xyz
x,y,z
-x,-y,z
x,-y,-z
-x,y,-z
-x,-y,-z
x,y,-z
-x,y,z
x,-y,z
loop_
_atom_site_type_symbol
_atom_site_label
_atom_site_fract_x
_atom_site_fract_y
_atom_site_fract_z
Si Si1 0.331902 0.500000 0.602349
Si Si2 0.680343 0.226154 0.209968
Si Si3 0.820094 0.121662 0.898124
Si Si4 0.820720 0.382213 0.658091
Si Si5 0.672539 0.000000 0.105554
Si Si6 0.818657 0.430936 0.000000
Si Si7 0.680654 0.355563 0.844042
Si Si8 0.318832 0.265275 0.403608
O O1 0.500000 0.500000 0.643202
O O2 0.350791 0.500000 0.500000
O O3 0.239088 0.556861 0.624986
O O4 0.500000 0.218393 0.208225
O O5 0.758291 0.172834 0.162121
O O6 0.713516 0.286141 0.157556
O O7 0.724784 0.233686 0.312451
O O8 0.754713 0.059403 0.868980
O O9 0.000000 0.119899 0.894953
O O10 0.775694 0.131049 0.000000
O O11 0.749994 0.375701 0.753367
O O12 0.755783 0.328519 0.603155
O O13 0.000000 0.379703 0.660144
O O14 0.500000 0.000000 0.135140
O O15 0.673214 0.000000 0.000000
O O16 0.753250 0.395196 0.918263
O O17 0.777164 0.500000 0.000000
O O18 0.000000 0.428252 0.000000
O O19 0.500000 0.361800 0.845647
O O20 0.282823 0.239969 0.500000
O O21 0.500000 0.271757 0.399400
#
# Coordination Sequence:
#
# PCOD9384828 Si02
#       8
#     4   8   8   8   4   4   8   8
#     4  11  23  37  53  72  95 126 161 197 247 317
#     4   9  19  34  53  79 106 137 178 219 259 307
#     4  10  20  32  49  76 111 148 180 215 260 308
#     4  11  22  35  53  76 102 127 158 207 263 313
#     4   9  17  31  51  75 104 143 184 221 255 298
#     4  11  25  41  57  77 103 132 171 222 274 320
#     4  10  22  40  58  76 100 135 177 217 258 313
#     4   9  18  35  56  76 102 136 173 214 261 316
#
# _framework density 16.543783999999999
#
# number of rings (size 3 to 8) (size 9 to 14) (size 15 to 20)
#    0.000    2.077    0.000    4.385    2.154    8.308 
#    0.000    0.000    0.000    0.000    0.000    0.538 
#    0.000    4.308    0.000    0.000    0.000    0.000 
#
# Total GULP energy -289940.121481 kJ/mol
# GULP energy per Si atom -5575.771567 kJ/mol
# Density = 1.650613 g / cm^3
# Si number density = 16.543784 Si / 1000 Ang^3
#
#
#
# Elastic Constant Matrix: (Units=GPa)
#
#
# Indices 1 2 3 4 5 6 
#
# 1 55.2538 61.5211 41.5052 0.0000 0.0000 0.0000
# 2 61.5211 138.9215 74.3364 0.0000 0.0000 0.0000
# 3 41.5052 74.3364 103.9485 0.0000 0.0000 0.0000
# 4 0.0000 0.0000 0.0000 11.7544 0.0000 0.0000
# 5 0.0000 0.0000 0.0000 0.0000 76.2991 0.0000
# 6 0.0000 0.0000 0.0000 0.0000 0.0000 58.6410
#
#
#
# Elastic Compliance Matrix: (Units=1/GPa)
#
#
# Indices 1 2 3 4 5 6 
#
# 1 0.037229 -0.013822 -0.004981 0.000000 0.000000 0.000000
# 2 -0.013822 0.016792 -0.006489 0.000000 0.000000 0.000000
# 3 -0.004981 -0.006489 0.016250 0.000000 0.000000 0.000000
# 4 0.000000 0.000000 0.000000 0.085074 0.000000 0.000000
# 5 0.000000 0.000000 0.000000 0.000000 0.013106 0.000000
# 6 0.000000 0.000000 0.000000 0.000000 0.000000 0.017053
#
#
# Mechanical properties :
#
#
# Convention : Reuss Voigt Hill
#
# Bulk Modulus (GPa) = 50.79562 72.53880 61.66721
# Shear Modulus (GPa) = 20.60582 37.38963 28.99772
#
# Velocity S-wave (km/s) = 3.53304 4.75915 4.19117
# Velocity P-wave (km/s) = 6.88575 8.61052 7.79598
#
# Compressibility (1/GPa) = 0.01968674
#
# Stress axis : x y z
#
# Youngs Moduli (GPa) = 26.86063 59.55352 61.53975
#
# Poissons Ratio (x) = 0.82313 0.30652
# Poissons Ratio (y) = 0.37126 0.39935
# Poissons Ratio (z) = 0.13379 0.38646
#
# Static dielectric constant tensor:
#      x y z
#    x 1.552890 0.000000 0.000000 
#    y 0.000000 1.717790 0.000000 
#    z 0.000000 0.000000 1.484640 
# 
# From -- ./inp_files/21536.got.cif
#   From: 2010.05.17/outbox.cif.g08.bks.cpg/sg47_11_cif.got.tgz:21536.got - 2010.06.03 20:15:42.
