data_PCOD9384246
_publ_section_title
;
Structure prediction by ZEFSAII (Michael W. Deem and Ramdas Pophale) SiO2 
 PCOD9384246
Probable space group: P M M M
;
_chemical_formula_sum "Si O2"
_cell_formula_units_Z 56
_cell_length_a 7.766132
_cell_length_b 24.150541
_cell_length_c 15.103547
_cell_angle_alpha 90.000000
_cell_angle_beta 90.000000
_cell_angle_gamma 90.000000
_cell_volume 2832.765230
_symmetry_space_group_name_H-M "P M M M"
_symmetry_group_IT_number 47
_symmetry_cell_setting 'orthorhombic'
loop_
_space_group_symop_operation_xyz
x,y,z
-x,-y,z
x,-y,-z
-x,y,-z
-x,-y,-z
x,y,-z
-x,y,z
x,-y,z
loop_
_atom_site_type_symbol
_atom_site_label
_atom_site_fract_x
_atom_site_fract_y
_atom_site_fract_z
Si Si1 0.789954 0.762328 0.398754
Si Si2 0.293103 0.562799 0.599113
Si Si3 0.293736 0.286384 0.900431
Si Si4 0.290431 0.162584 0.896751
Si Si5 0.791728 0.111396 0.600383
Si Si6 0.796626 0.663626 0.277138
Si Si7 0.295718 0.939491 0.218433
O O1 0.740399 0.749127 0.500000
O O2 0.735408 0.825297 0.379305
O O3 0.722842 0.716005 0.332013
O O4 0.000000 0.762643 0.396649
O O5 0.231618 0.579161 0.500000
O O6 0.500000 0.560777 0.595450
O O7 0.231942 0.500000 0.616805
O O8 0.247668 0.607283 0.672840
O O9 0.500000 0.282594 0.905765
O O10 0.229919 0.224725 0.873272
O O11 0.253515 0.330219 0.824821
O O12 0.230076 0.298445 0.000000
O O13 0.500000 0.163171 0.890300
O O14 0.224317 0.113037 0.835553
O O15 0.248545 0.153203 0.000000
O O16 0.736712 0.097866 0.500000
O O17 0.728355 0.072112 0.677748
O O18 0.000000 0.110554 0.601066
O O19 0.000000 0.669211 0.280966
O O20 0.500000 0.940974 0.200139
O O21 0.224053 0.000000 0.194938
#
# Coordination Sequence:
#
# PCOD9384246 Si02
#       7
#     8   8   8   8   8   8   8
#     4   8  15  28  45  68  97 124 152 190 238 290
#     4   9  19  36  55  75 104 143 181 210 235 272
#     4   9  18  33  52  72  96 129 167 205 245 293
#     4   8  15  30  51  72  94 122 157 196 239 291
#     4   9  18  33  50  64  84 121 163 196 230 281
#     4  11  20  29  49  79 107 133 161 201 252 298
#     4  10  20  31  45  68  94 118 149 195 247 291
#
# _framework density 19.768671000000001
#
# number of rings (size 3 to 8) (size 9 to 14) (size 15 to 20)
#    0.000    2.857    0.000    3.857    0.000    2.571 
#    0.000    4.286    0.000    3.429    0.000    4.000 
#    0.000    0.000    0.000    0.000    0.000    0.000 
#
# Total GULP energy -312396.577543 kJ/mol
# GULP energy per Si atom -5578.510313 kJ/mol
# Density = 1.972368 g / cm^3
# Si number density = 19.768671 Si / 1000 Ang^3
#
#
#
# Elastic Constant Matrix: (Units=GPa)
#
#
# Indices 1 2 3 4 5 6 
#
# 1 27.4254 6.0127 2.5221 0.0000 0.0000 0.0000
# 2 6.0127 99.1381 87.9726 0.0000 0.0000 0.0000
# 3 2.5221 87.9726 114.1444 0.0000 0.0000 0.0000
# 4 0.0000 0.0000 0.0000 16.9268 0.0000 0.0000
# 5 0.0000 0.0000 0.0000 0.0000 -94.4189 0.0000
# 6 0.0000 0.0000 0.0000 0.0000 0.0000 10.2218
#
#
#
# Elastic Compliance Matrix: (Units=1/GPa)
#
#
# Indices 1 2 3 4 5 6 
#
# 1 0.037256 -0.004837 0.002905 0.000000 0.000000 0.000000
# 2 -0.004837 0.032540 -0.024972 0.000000 0.000000 0.000000
# 3 0.002905 -0.024972 0.027943 0.000000 0.000000 0.000000
# 4 0.000000 0.000000 0.000000 0.059078 0.000000 0.000000
# 5 0.000000 0.000000 0.000000 0.000000 -0.010591 0.000000
# 6 0.000000 0.000000 0.000000 0.000000 0.000000 0.097830
#
#
# Mechanical properties :
#
#
# Convention : Reuss Voigt Hill
#
# Bulk Modulus (GPa) = 22.76352 48.19140 35.47746
# Shear Modulus (GPa) = 15.99961 -3.84070 6.07945
#
# Velocity S-wave (km/s) = 2.84798 -1.39536 1.75556
# Velocity P-wave (km/s) = 4.72806 4.67274 4.70049
#
# Compressibility (1/GPa) = 0.04392993
#
# Stress axis : x y z
#
# Youngs Moduli (GPa) = 26.84137 30.73162 35.78736
#
# Poissons Ratio (x) = 0.14866 -0.10397
# Poissons Ratio (y) = 0.12985 0.89368
# Poissons Ratio (z) = -0.07798 0.76743
#
# Static dielectric constant tensor:
#      x y z
#    x 1.728400 0.000000 0.000000 
#    y 0.000000 1.706890 0.000000 
#    z 0.000000 0.000000 1.720880 
# 
# From -- ./inp_files/7283.got.cif
#   From: 2010.05.17/outbox.cif.g08.bks.cpg/sg47_4_cif.got.tgz:7283.got - 2010.06.03 20:15:42.
