data_PCOD9384930
_publ_section_title
;
Structure prediction by ZEFSAII (Michael W. Deem and Ramdas Pophale) SiO2 
 PCOD9384930
Probable space group: P M M M
;
_chemical_formula_sum "Si O2"
_cell_formula_units_Z 60
_cell_length_a 18.215000
_cell_length_b 21.793613
_cell_length_c 7.675982
_cell_angle_alpha 90.000000
_cell_angle_beta 90.000000
_cell_angle_gamma 90.000000
_cell_volume 3047.139647
_symmetry_space_group_name_H-M "P M M M"
_symmetry_group_IT_number 47
_symmetry_cell_setting 'orthorhombic'
loop_
_space_group_symop_operation_xyz
x,y,z
-x,-y,z
x,-y,-z
-x,y,-z
-x,-y,-z
x,y,-z
-x,y,z
x,-y,z
loop_
_atom_site_type_symbol
_atom_site_label
_atom_site_fract_x
_atom_site_fract_y
_atom_site_fract_z
Si Si1 0.241830 0.299869 0.289930
Si Si2 0.758079 0.431293 0.300562
Si Si3 0.918965 0.250293 0.209227
Si Si4 0.155781 0.872298 0.795586
Si Si5 0.690461 0.174381 0.699580
Si Si6 0.916495 0.000000 0.708791
Si Si7 0.414141 0.068450 0.287360
Si Si8 0.920869 0.573394 0.801241
O O1 0.249109 0.301195 0.500000
O O2 0.267833 0.366517 0.221267
O O3 0.155087 0.287060 0.256520
O O4 0.288251 0.241175 0.223687
O O5 0.732198 0.434427 0.500000
O O6 0.746135 0.500000 0.222951
O O7 0.846018 0.419614 0.301562
O O8 0.901094 0.180275 0.262614
O O9 0.000000 0.268147 0.275350
O O10 0.922765 0.252299 0.000000
O O11 0.232140 0.861208 0.699953
O O12 0.123984 0.939080 0.769355
O O13 0.170198 0.861902 0.000000
O O14 0.666951 0.185857 0.500000
O O15 0.632327 0.126555 0.778135
O O16 0.917295 0.000000 0.500000
O O17 0.000000 0.000000 0.773410
O O18 0.409073 0.068608 0.500000
O O19 0.500000 0.074223 0.242895
O O20 0.388862 0.000000 0.231052
O O21 0.926649 0.500000 0.814835
O O22 0.000000 0.594924 0.732396
O O23 0.912464 0.597259 0.000000
#
# Coordination Sequence:
#
# PCOD9384930 Si02
#       8
#     8   8   8   8   8   4   8   8
#     4   9  18  30  42  60  83 108 142 181 222 262
#     4   9  17  28  40  53  73 102 135 173 215 259
#     4   9  18  32  47  60  77 106 144 183 224 270
#     4  10  20  33  48  66  88 116 149 186 228 272
#     4   9  17  30  48  68  92 119 146 180 215 258
#     4  11  23  35  47  65  88 115 152 197 239 274
#     4   8  14  25  44  72 100 122 144 171 206 251
#     4   8  14  24  36  50  69  93 123 163 212 262
#
# _framework density 19.690598000000001
#
# number of rings (size 3 to 8) (size 9 to 14) (size 15 to 20)
#    0.000    3.000    0.000    1.800    0.933    3.200 
#    0.000    4.000    0.000    0.400    0.000    0.933 
#    0.000    0.533    0.000    7.467    0.000    0.000 
#
# Total GULP energy -334116.497252 kJ/mol
# GULP energy per Si atom -5568.608288 kJ/mol
# Density = 1.964578 g / cm^3
# Si number density = 19.690598 Si / 1000 Ang^3
#
#
#
# Elastic Constant Matrix: (Units=GPa)
#
#
# Indices 1 2 3 4 5 6 
#
# 1 52.1997 55.2507 1.2131 0.0000 0.0000 0.0000
# 2 55.2507 211.2205 -0.1458 0.0000 0.0000 0.0000
# 3 1.2131 -0.1458 39.6437 0.0000 0.0000 0.0000
# 4 0.0000 0.0000 0.0000 1.1175 0.0000 0.0000
# 5 0.0000 0.0000 0.0000 0.0000 -28.6353 0.0000
# 6 0.0000 0.0000 0.0000 0.0000 0.0000 -1.9969
#
#
#
# Elastic Compliance Matrix: (Units=1/GPa)
#
#
# Indices 1 2 3 4 5 6 
#
# 1 0.026520 -0.006938 -0.000837 0.000000 0.000000 0.000000
# 2 -0.006938 0.006549 0.000236 0.000000 0.000000 0.000000
# 3 -0.000837 0.000236 0.025251 0.000000 0.000000 0.000000
# 4 0.000000 0.000000 0.000000 0.894880 0.000000 0.000000
# 5 0.000000 0.000000 0.000000 0.000000 -0.034922 0.000000
# 6 0.000000 0.000000 0.000000 0.000000 0.000000 -0.500788
#
#
# Mechanical properties :
#
#
# Convention : Reuss Voigt Hill
#
# Bulk Modulus (GPa) = 23.12472 46.18887 34.65679
# Shear Modulus (GPa) = 11.18617 10.54679 10.86648
#
# Velocity S-wave (km/s) = 2.38606 2.31687 2.35172
# Velocity P-wave (km/s) = 4.40007 5.53764 5.00130
#
# Compressibility (1/GPa) = 0.04324376
#
# Stress axis : x y z
#
# Youngs Moduli (GPa) = 37.70785 152.68901 39.60211
#
# Poissons Ratio (x) = 1.05929 0.03315
# Poissons Ratio (y) = 0.26160 -0.00936
# Poissons Ratio (z) = 0.03156 -0.03609
#
# Static dielectric constant tensor:
#      x y z
#    x 1.663810 0.000000 0.000000 
#    y 0.000000 1.782450 0.000000 
#    z 0.000000 0.000000 1.742310 
# 
# From -- ./inp_files/9955.got.cif
#   From: 2010.05.17/outbox.cif.g08.bks.cpg/sg47_5_cif.got.tgz:9955.got - 2010.06.03 20:15:42.
