data_PCOD9384168
_publ_section_title
;
Structure prediction by ZEFSAII (Michael W. Deem and Ramdas Pophale) SiO2 
 PCOD9384168
Probable space group: P M M M
;
_chemical_formula_sum "Si O2"
_cell_formula_units_Z 64
_cell_length_a 19.789582
_cell_length_b 24.696227
_cell_length_c 7.643099
_cell_angle_alpha 90.000000
_cell_angle_beta 90.000000
_cell_angle_gamma 90.000000
_cell_volume 3735.396559
_symmetry_space_group_name_H-M "P M M M"
_symmetry_group_IT_number 47
_symmetry_cell_setting 'orthorhombic'
loop_
_space_group_symop_operation_xyz
x,y,z
-x,-y,z
x,-y,-z
-x,y,-z
-x,-y,-z
x,y,-z
-x,y,z
x,-y,z
loop_
_atom_site_type_symbol
_atom_site_label
_atom_site_fract_x
_atom_site_fract_y
_atom_site_fract_z
Si Si1 0.295989 0.163744 0.710122
Si Si2 0.924679 0.111544 0.208936
Si Si3 0.217347 0.060040 0.707001
Si Si4 0.422139 0.439001 0.286065
Si Si5 0.216432 0.728818 0.285182
Si Si6 0.423435 0.230144 0.791561
Si Si7 0.339927 0.662801 0.293996
Si Si8 0.074082 0.238787 0.709900
O O1 0.290013 0.162609 0.500000
O O2 0.265563 0.107581 0.779149
O O3 0.249714 0.214086 0.770134
O O4 0.372601 0.180844 0.750831
O O5 0.860586 0.078452 0.275404
O O6 0.915508 0.174883 0.254825
O O7 0.000000 0.095480 0.273237
O O8 0.924930 0.106580 0.000000
O O9 0.231492 0.057003 0.500000
O O10 0.226867 0.000000 0.782002
O O11 0.421725 0.437984 0.500000
O O12 0.500000 0.429536 0.233601
O O13 0.402776 0.500000 0.233356
O O14 0.374668 0.390851 0.220513
O O15 0.216943 0.728316 0.500000
O O16 0.267533 0.682382 0.223331
O O17 0.139186 0.728718 0.225654
O O18 0.500000 0.223241 0.726069
O O19 0.389416 0.285344 0.721949
O O20 0.425741 0.235665 0.000000
O O21 0.330215 0.652816 0.500000
O O22 0.072374 0.244936 0.500000
O O23 0.000000 0.253589 0.779838
#
# Coordination Sequence:
#
# PCOD9384168 Si02
#       8
#     8   8   8   8   8   8   8   8
#     4   9  17  31  48  65  84 105 134 171 211 255
#     4  10  20  31  43  62  88 115 142 172 206 247
#     4  10  20  34  51  67  83 106 139 177 212 250
#     4   8  13  21  35  57  83 111 145 180 211 247
#     4   8  13  23  39  60  81 101 131 171 209 246
#     4  10  20  31  44  65  90 112 136 169 207 252
#     4   9  16  26  42  62  86 113 141 177 215 248
#     4   9  15  25  42  59  79 109 141 172 208 249
#
# _framework density 17.133388
#
# number of rings (size 3 to 8) (size 9 to 14) (size 15 to 20)
#    0.000    2.875    1.250    2.250    0.000    3.250 
#    0.000    1.250    0.000    0.750    0.000    4.375 
#    0.000    0.500    0.000    7.000    0.000    0.000 
#
# Total GULP energy -356632.659363 kJ/mol
# GULP energy per Si atom -5572.385303 kJ/mol
# Density = 1.709439 g / cm^3
# Si number density = 17.133388 Si / 1000 Ang^3
#
#
#
# Elastic Constant Matrix: (Units=GPa)
#
#
# Indices 1 2 3 4 5 6 
#
# 1 127.7348 78.5621 -3.2906 0.0000 0.0000 0.0000
# 2 78.5621 118.2661 1.8615 0.0000 0.0000 0.0000
# 3 -3.2906 1.8615 31.9764 0.0000 0.0000 0.0000
# 4 0.0000 0.0000 0.0000 -12.8014 0.0000 0.0000
# 5 0.0000 0.0000 0.0000 0.0000 -356.2500 0.0000
# 6 0.0000 0.0000 0.0000 0.0000 0.0000 27.0343
#
#
#
# Elastic Compliance Matrix: (Units=1/GPa)
#
#
# Indices 1 2 3 4 5 6 
#
# 1 0.013350 -0.008898 0.001892 0.000000 0.000000 0.000000
# 2 -0.008898 0.014394 -0.001754 0.000000 0.000000 0.000000
# 3 0.001892 -0.001754 0.031570 0.000000 0.000000 0.000000
# 4 0.000000 0.000000 0.000000 -0.078117 0.000000 0.000000
# 5 0.000000 0.000000 0.000000 0.000000 -0.002807 0.000000
# 6 0.000000 0.000000 0.000000 0.000000 0.000000 0.036990
#
#
# Mechanical properties :
#
#
# Convention : Reuss Voigt Hill
#
# Bulk Modulus (GPa) = 23.92676 48.02704 35.97690
# Shear Modulus (GPa) = 106.76628 -55.01379 25.87624
#
# Velocity S-wave (km/s) = 7.90253 -5.67264 3.89045
# Velocity P-wave (km/s) = 9.86215 3.84876 6.42063
#
# Compressibility (1/GPa) = 0.04179421
#
# Stress axis : x y z
#
# Youngs Moduli (GPa) = 74.90588 69.47387 31.67583
#
# Poissons Ratio (x) = 0.61818 -0.05992
# Poissons Ratio (y) = 0.66651 0.05555
# Poissons Ratio (z) = -0.14171 0.12183
#
# Static dielectric constant tensor:
#      x y z
#    x 1.608070 0.000000 0.000000 
#    y 0.000000 1.572160 0.000000 
#    z 0.000000 0.000000 1.613080 
# 
# From -- ./inp_files/10267.got.cif
#   From: 2010.05.17/outbox.cif.g08.bks.cpg/sg47_6_cif.got.tgz:10267.got - 2010.06.03 20:15:42.
