data_PCOD9384335
_publ_section_title
;
Structure prediction by ZEFSAII (Michael W. Deem and Ramdas Pophale) SiO2 
 PCOD9384335
Probable space group: P M M M
;
_chemical_formula_sum "Si O2"
_cell_formula_units_Z 40
_cell_length_a 7.398138
_cell_length_b 13.766064
_cell_length_c 17.778776
_cell_angle_alpha 90.000000
_cell_angle_beta 90.000000
_cell_angle_gamma 90.000000
_cell_volume 1810.648172
_symmetry_space_group_name_H-M "P M M M"
_symmetry_group_IT_number 47
_symmetry_cell_setting 'orthorhombic'
loop_
_space_group_symop_operation_xyz
x,y,z
-x,-y,z
x,-y,-z
-x,y,-z
-x,-y,-z
x,y,-z
-x,y,z
x,-y,z
loop_
_atom_site_type_symbol
_atom_site_label
_atom_site_fract_x
_atom_site_fract_y
_atom_site_fract_z
Si Si1 0.780790 0.108032 0.084799
Si Si2 0.779471 0.701028 0.157672
Si Si3 0.778787 0.500000 0.585783
Si Si4 0.215904 0.689721 0.674537
Si Si5 0.789779 0.384707 0.000000
Si Si6 0.716532 0.109826 0.413420
O O1 0.728630 0.187123 0.144590
O O2 0.000000 0.105805 0.083808
O O3 0.716412 0.000000 0.099978
O O4 0.725473 0.136296 0.000000
O O5 0.715441 0.674166 0.240332
O O6 0.000000 0.691265 0.157993
O O7 0.715778 0.649332 0.080852
O O8 0.722399 0.500000 0.500000
O O9 0.717915 0.400028 0.624524
O O10 0.000000 0.500000 0.587693
O O11 0.244002 0.797094 0.639103
O O12 0.000000 0.679956 0.678664
O O13 0.787425 0.500000 0.000000
O O14 0.000000 0.349840 0.000000
O O15 0.779602 0.126980 0.500000
O O16 0.500000 0.104818 0.416076
O O17 0.779135 0.000000 0.390490
#
# Coordination Sequence:
#
# PCOD9384335 Si02
#       6
#     8   8   4   8   4   8
#     4   8  12  19  31  46  71 110 147 178 222 278
#     4   9  16  25  37  60  92 125 163 204 243 287
#     4   9  18  32  47  66 100 140 167 195 249 311
#     4  10  20  31  49  77 107 135 170 214 255 300
#     4   9  16  24  37  55  86 133 173 203 244 294
#     4   9  19  37  58  77 100 132 168 207 257 317
#
# _framework density 22.091535
#
# number of rings (size 3 to 8) (size 9 to 14) (size 15 to 20)
#    0.000    3.000    1.000    1.800    1.400    2.400 
#    0.000    3.500    0.000    1.800    0.000    0.700 
#    0.000    2.400    0.000    0.000    0.000    0.000 
#
# Total GULP energy -222995.255522 kJ/mol
# GULP energy per Si atom -5574.881388 kJ/mol
# Density = 2.204125 g / cm^3
# Si number density = 22.091535 Si / 1000 Ang^3
#
#
#
# Elastic Constant Matrix: (Units=GPa)
#
#
# Indices 1 2 3 4 5 6 
#
# 1 73.8469 4.0516 9.7204 0.0000 0.0000 0.0000
# 2 4.0516 138.1703 116.4867 0.0000 0.0000 0.0000
# 3 9.7204 116.4867 209.4000 0.0000 0.0000 0.0000
# 4 0.0000 0.0000 0.0000 26.1367 0.0000 0.0000
# 5 0.0000 0.0000 0.0000 0.0000 1.2649 0.0000
# 6 0.0000 0.0000 0.0000 0.0000 0.0000 13.6083
#
#
#
# Elastic Compliance Matrix: (Units=1/GPa)
#
#
# Indices 1 2 3 4 5 6 
#
# 1 0.013629 0.000252 -0.000773 0.000000 0.000000 0.000000
# 2 0.000252 0.013634 -0.007596 0.000000 0.000000 0.000000
# 3 -0.000773 -0.007596 0.009037 0.000000 0.000000 0.000000
# 4 0.000000 0.000000 0.000000 0.038260 0.000000 0.000000
# 5 0.000000 0.000000 0.000000 0.000000 0.790575 0.000000
# 6 0.000000 0.000000 0.000000 0.000000 0.000000 0.073484
#
#
# Mechanical properties :
#
#
# Convention : Reuss Voigt Hill
#
# Bulk Modulus (GPa) = 49.83454 75.77050 62.80252
# Shear Modulus (GPa) = 5.19997 27.61256 16.40627
#
# Velocity S-wave (km/s) = 1.53588 3.53925 2.72812
# Velocity P-wave (km/s) = 5.07469 7.14665 6.19786
#
# Compressibility (1/GPa) = 0.02006640
#
# Stress axis : x y z
#
# Youngs Moduli (GPa) = 73.37064 73.34515 110.65493
#
# Poissons Ratio (x) = -0.01847 0.08551
# Poissons Ratio (y) = -0.01848 0.84056
# Poissons Ratio (z) = 0.05670 0.55715
#
# Static dielectric constant tensor:
#      x y z
#    x 1.853910 0.000000 0.000000 
#    y 0.000000 1.795370 0.000000 
#    z 0.000000 0.000000 1.813760 
# 
# From -- ./inp_files/20728.got.cif
#   From: 2010.05.17/outbox.cif.g08.bks.cpg/sg47_11_cif.got.tgz:20728.got - 2010.06.03 20:15:42.
