data_PCOD9384523
_publ_section_title
;
Structure prediction by ZEFSAII (Michael W. Deem and Ramdas Pophale) SiO2 
 PCOD9384523
Probable space group: P M M M
;
_chemical_formula_sum "Si O2"
_cell_formula_units_Z 52
_cell_length_a 23.169837
_cell_length_b 14.139452
_cell_length_c 8.628999
_cell_angle_alpha 90.000000
_cell_angle_beta 90.000000
_cell_angle_gamma 90.000000
_cell_volume 2826.935991
_symmetry_space_group_name_H-M "P M M M"
_symmetry_group_IT_number 47
_symmetry_cell_setting 'orthorhombic'
loop_
_space_group_symop_operation_xyz
x,y,z
-x,-y,z
x,-y,-z
-x,y,-z
-x,-y,-z
x,y,-z
-x,y,z
x,-y,z
loop_
_atom_site_type_symbol
_atom_site_label
_atom_site_fract_x
_atom_site_fract_y
_atom_site_fract_z
Si Si1 0.562812 0.385027 0.818393
Si Si2 0.320080 0.113226 0.171894
Si Si3 0.770917 0.765466 0.679481
Si Si4 0.563727 0.114859 0.677881
Si Si5 0.876568 0.890430 0.313019
Si Si6 0.310242 0.391124 0.813018
Si Si7 0.000000 0.885598 0.823228
O O1 0.500000 0.357393 0.749363
O O2 0.563959 0.500000 0.815868
O O3 0.626015 0.357978 0.753663
O O4 0.561827 0.357264 0.000000
O O5 0.277644 0.154203 0.298860
O O6 0.385068 0.143295 0.210279
O O7 0.317746 0.000000 0.173435
O O8 0.303255 0.146741 0.000000
O O9 0.780196 0.742971 0.500000
O O10 0.828750 0.815584 0.743043
O O11 0.741796 0.675514 0.760430
O O12 0.572929 0.145952 0.500000
O O13 0.500000 0.143236 0.729719
O O14 0.564310 0.000000 0.674115
O O15 0.874017 0.892357 0.500000
O O16 0.940449 0.860384 0.260766
O O17 0.865769 0.000000 0.260385
O O18 0.301564 0.500000 0.764160
O O19 0.313477 0.390224 0.000000
O O20 0.000000 0.000000 0.825390
O O21 0.000000 0.851646 0.000000
#
# Coordination Sequence:
#
# PCOD9384523 Si02
#       7
#     8   8   8   8   8   8   4
#     4   7  10  20  42  69  91 113 147 194 250 309
#     4  10  20  32  47  68  94 124 159 202 249 296
#     4  11  22  34  50  72  99 134 172 206 243 292
#     4   8  14  26  44  63  84 115 155 198 245 295
#     4   9  18  33  52  74 103 139 174 204 236 281
#     4   9  18  33  52  73  98 128 164 211 265 315
#     4   9  17  29  49  79 110 137 164 197 239 284
#
# _framework density 18.394473000000001
#
# number of rings (size 3 to 8) (size 9 to 14) (size 15 to 20)
#    0.000    3.000    0.000    3.462    0.000    4.308 
#    0.000    3.846    0.000    3.231    0.000    2.692 
#    0.000    4.308    0.000    0.000    0.000    0.000 
#
# Total GULP energy -289707.655325 kJ/mol
# GULP energy per Si atom -5571.301064 kJ/mol
# Density = 1.835261 g / cm^3
# Si number density = 18.394473 Si / 1000 Ang^3
#
#
#
# Elastic Constant Matrix: (Units=GPa)
#
#
# Indices 1 2 3 4 5 6 
#
# 1 144.5987 49.0653 15.5007 0.0000 0.0000 0.0000
# 2 49.0653 87.6727 12.0529 0.0000 0.0000 0.0000
# 3 15.5007 12.0529 8.3006 0.0000 0.0000 0.0000
# 4 0.0000 0.0000 0.0000 18.4260 0.0000 0.0000
# 5 0.0000 0.0000 0.0000 0.0000 19.4732 0.0000
# 6 0.0000 0.0000 0.0000 0.0000 0.0000 49.3869
#
#
#
# Elastic Compliance Matrix: (Units=1/GPa)
#
#
# Indices 1 2 3 4 5 6 
#
# 1 0.009470 -0.003584 -0.012480 0.000000 0.000000 0.000000
# 2 -0.003584 0.015607 -0.015970 0.000000 0.000000 0.000000
# 3 -0.012480 -0.015970 0.166966 0.000000 0.000000 0.000000
# 4 0.000000 0.000000 0.000000 0.054271 0.000000 0.000000
# 5 0.000000 0.000000 0.000000 0.000000 0.051353 0.000000
# 6 0.000000 0.000000 0.000000 0.000000 0.000000 0.020248
#
#
# Mechanical properties :
#
#
# Convention : Reuss Voigt Hill
#
# Bulk Modulus (GPa) = 7.81393 43.75666 25.78530
# Shear Modulus (GPa) = 11.77466 28.38742 20.08104
#
# Velocity S-wave (km/s) = 2.53280 3.93269 3.30766
# Velocity P-wave (km/s) = 3.57920 6.66791 5.35125
#
# Compressibility (1/GPa) = 0.12797650
#
# Stress axis : x y z
#
# Youngs Moduli (GPa) = 105.60136 64.07275 5.98923
#
# Poissons Ratio (x) = 0.22963 0.07474
# Poissons Ratio (y) = 0.37847 0.09565
# Poissons Ratio (z) = 1.31786 1.02323
#
# Static dielectric constant tensor:
#      x y z
#    x 1.650200 0.000000 0.000000 
#    y 0.000000 1.679620 0.000000 
#    z 0.000000 0.000000 1.655390 
# 
# From -- ./inp_files/11010.got.cif
#   From: 2010.05.17/outbox.cif.g08.bks.cpg/sg47_6_cif.got.tgz:11010.got - 2010.06.03 20:15:42.
