data_PCOD9384322
_publ_section_title
;
Structure prediction by ZEFSAII (Michael W. Deem and Ramdas Pophale) SiO2 
 PCOD9384322
Probable space group: P M M M
;
_chemical_formula_sum "Si O2"
_cell_formula_units_Z 60
_cell_length_a 20.341857
_cell_length_b 18.698102
_cell_length_c 9.440551
_cell_angle_alpha 90.000000
_cell_angle_beta 90.000000
_cell_angle_gamma 90.000000
_cell_volume 3590.752440
_symmetry_space_group_name_H-M "P M M M"
_symmetry_group_IT_number 47
_symmetry_cell_setting 'orthorhombic'
loop_
_space_group_symop_operation_xyz
x,y,z
-x,-y,z
x,-y,-z
-x,y,-z
-x,-y,-z
x,y,-z
-x,y,z
x,-y,z
loop_
_atom_site_type_symbol
_atom_site_label
_atom_site_fract_x
_atom_site_fract_y
_atom_site_fract_z
Si Si1 0.803510 0.231086 0.665523
Si Si2 0.077600 0.715237 0.166709
Si Si3 0.377808 0.860991 0.836932
Si Si4 0.682534 0.702865 0.166604
Si Si5 0.575733 0.416727 0.172075
Si Si6 0.736822 0.920982 0.661347
Si Si7 0.079502 0.580066 0.341151
Si Si8 0.500000 0.915760 0.668160
O O1 0.806693 0.250195 0.500000
O O2 0.873219 0.237646 0.742196
O O3 0.748547 0.280601 0.743546
O O4 0.782338 0.148152 0.674923
O O5 0.095694 0.635499 0.219516
O O6 0.000000 0.726786 0.196603
O O7 0.087886 0.723731 0.000000
O O8 0.356849 0.777977 0.826633
O O9 0.318587 0.909040 0.778207
O O10 0.437745 0.878193 0.736450
O O11 0.392982 0.876887 0.000000
O O12 0.633154 0.639107 0.215336
O O13 0.699370 0.690559 0.000000
O O14 0.500000 0.398441 0.216363
O O15 0.588208 0.500000 0.212708
O O16 0.575392 0.414449 0.000000
O O17 0.708719 0.917667 0.500000
O O18 0.766959 0.000000 0.676443
O O19 0.099984 0.603099 0.500000
O O20 0.104222 0.500000 0.316242
O O21 0.000000 0.576678 0.344322
O O22 0.500000 0.909340 0.500000
O O23 0.500000 0.000000 0.704175
#
# Coordination Sequence:
#
# PCOD9384322 Si02
#       8
#     8   8   8   8   8   8   8   4
#     4  10  20  34  53  75 100 130 167 206 249 304
#     4  10  20  33  51  75 103 134 168 207 251 301
#     4  10  20  31  47  72  98 125 159 200 246 297
#     4   9  18  32  51  73 101 130 161 207 255 298
#     4   8  14  26  48  76 101 129 169 213 253 293
#     4   9  18  34  54  73  95 125 162 203 248 300
#     4   8  14  26  45  69  97 128 161 196 235 282
#     4  11  23  35  45  61  92 131 164 196 237 287
#
# _framework density 16.709588
#
# number of rings (size 3 to 8) (size 9 to 14) (size 15 to 20)
#    0.000    2.733    0.000    2.600    0.933    4.533 
#    0.000    2.000    0.000    3.200    0.000    3.733 
#    0.000    0.000    0.000    0.000    0.000    0.000 
#
# Total GULP energy -334023.392083 kJ/mol
# GULP energy per Si atom -5567.056535 kJ/mol
# Density = 1.667156 g / cm^3
# Si number density = 16.709588 Si / 1000 Ang^3
#
#
#
# Elastic Constant Matrix: (Units=GPa)
#
#
# Indices 1 2 3 4 5 6 
#
# 1 77.2996 40.5256 53.1496 0.0000 0.0000 0.0000
# 2 40.5256 78.9142 33.7273 0.0000 0.0000 0.0000
# 3 53.1496 33.7273 72.2049 0.0000 0.0000 0.0000
# 4 0.0000 0.0000 0.0000 21.1734 0.0000 0.0000
# 5 0.0000 0.0000 0.0000 0.0000 24.8102 0.0000
# 6 0.0000 0.0000 0.0000 0.0000 0.0000 7.9102
#
#
#
# Elastic Compliance Matrix: (Units=1/GPa)
#
#
# Indices 1 2 3 4 5 6 
#
# 1 0.029176 -0.007252 -0.018089 0.000000 0.000000 0.000000
# 2 -0.007252 0.017635 -0.002899 0.000000 0.000000 0.000000
# 3 -0.018089 -0.002899 0.028519 0.000000 0.000000 0.000000
# 4 0.000000 0.000000 0.000000 0.047229 0.000000 0.000000
# 5 0.000000 0.000000 0.000000 0.000000 0.040306 0.000000
# 6 0.000000 0.000000 0.000000 0.000000 0.000000 0.126418
#
#
# Mechanical properties :
#
#
# Convention : Reuss Voigt Hill
#
# Bulk Modulus (GPa) = 53.05106 53.69149 53.37128
# Shear Modulus (GPa) = 14.20259 17.51318 15.85789
#
# Velocity S-wave (km/s) = 2.91858 3.24094 3.08397
# Velocity P-wave (km/s) = 6.57079 6.79756 6.68514
#
# Compressibility (1/GPa) = 0.01884977
#
# Stress axis : x y z
#
# Youngs Moduli (GPa) = 34.27433 56.70413 35.06438
#
# Poissons Ratio (x) = 0.41123 0.63428
# Poissons Ratio (y) = 0.24856 0.10166
# Poissons Ratio (z) = 0.61999 0.16440
#
# Static dielectric constant tensor:
#      x y z
#    x 1.571020 0.000000 0.000000 
#    y 0.000000 1.579860 0.000000 
#    z 0.000000 0.000000 1.557110 
# 
# From -- ./inp_files/11630.got.cif
#   From: 2010.05.17/outbox.cif.g08.bks.cpg/sg47_6_cif.got.tgz:11630.got - 2010.06.03 20:15:42.
