data_PCOD9384135
_publ_section_title
;
Structure prediction by ZEFSAII (Michael W. Deem and Ramdas Pophale) SiO2 
 PCOD9384135
Probable space group: P M M M
;
_chemical_formula_sum "Si O2"
_cell_formula_units_Z 64
_cell_length_a 31.766273
_cell_length_b 8.947319
_cell_length_c 14.724652
_cell_angle_alpha 90.000000
_cell_angle_beta 90.000000
_cell_angle_gamma 90.000000
_cell_volume 4185.084441
_symmetry_space_group_name_H-M "P M M M"
_symmetry_group_IT_number 47
_symmetry_cell_setting 'orthorhombic'
loop_
_space_group_symop_operation_xyz
x,y,z
-x,-y,z
x,-y,-z
-x,y,-z
-x,-y,-z
x,y,-z
-x,y,z
x,-y,z
loop_
_atom_site_type_symbol
_atom_site_label
_atom_site_fract_x
_atom_site_fract_y
_atom_site_fract_z
Si Si1 0.156442 0.820290 0.103509
Si Si2 0.123363 0.321369 0.717815
Si Si3 0.745138 0.818573 0.100711
Si Si4 0.366667 0.322046 0.607507
Si Si5 0.453516 0.825180 0.610061
Si Si6 0.792414 0.320330 0.606768
Si Si7 0.048465 0.820200 0.605572
Si Si8 0.287578 0.179758 0.292929
O O1 0.129996 0.742231 0.181516
O O2 0.205769 0.777583 0.114235
O O3 0.153971 0.000000 0.113441
O O4 0.144111 0.783089 0.000000
O O5 0.121243 0.500000 0.719609
O O6 0.164797 0.278359 0.659121
O O7 0.082295 0.255893 0.669764
O O8 0.718780 0.770778 0.188104
O O9 0.744152 0.000000 0.099146
O O10 0.731896 0.766718 0.000000
O O11 0.362172 0.284346 0.500000
O O12 0.363435 0.500000 0.615832
O O13 0.412747 0.266947 0.638721
O O14 0.329726 0.243731 0.662928
O O15 0.454266 0.817742 0.500000
O O16 0.500000 0.774354 0.641392
O O17 0.448591 0.000000 0.634066
O O18 0.795619 0.284846 0.500000
O O19 0.786902 0.500000 0.615111
O O20 0.752597 0.239729 0.651444
O O21 0.056471 0.780093 0.500000
O O22 0.000000 0.779769 0.626587
O O23 0.051842 0.000000 0.612541
O O24 0.288052 0.000000 0.296097
#
# Coordination Sequence:
#
# PCOD9384135 Si02
#       8
#     8   8   8   8   8   8   8   8
#     4   9  17  32  53  73  95 124 159 198 238 281
#     4  11  21  32  50  75 102 128 156 193 237 286
#     4   8  15  29  48  68  89 114 149 195 240 277
#     4  10  20  31  42  59  90 130 162 189 228 279
#     4   8  14  26  44  64  85 111 150 200 241 270
#     4  10  21  34  44  60  93 131 159 185 222 269
#     4   9  19  36  56  76  98 126 161 199 235 275
#     4  11  20  30  47  67  88 118 158 198 232 270
#
# _framework density 15.292403999999999
#
# number of rings (size 3 to 8) (size 9 to 14) (size 15 to 20)
#    0.000    2.500    1.250    3.375    0.000    4.500 
#    0.000    1.875    0.000    1.875    0.000    2.625 
#    0.000    0.500    0.000    5.750    0.000    1.875 
#
# Total GULP energy -356783.434416 kJ/mol
# GULP energy per Si atom -5574.741163 kJ/mol
# Density = 1.525760 g / cm^3
# Si number density = 15.292404 Si / 1000 Ang^3
#
#
#
# Elastic Constant Matrix: (Units=GPa)
#
#
# Indices 1 2 3 4 5 6 
#
# 1 126.5316 47.7636 80.3847 0.0000 0.0000 0.0000
# 2 47.7636 31.9595 43.7531 0.0000 0.0000 0.0000
# 3 80.3847 43.7531 115.7245 0.0000 0.0000 0.0000
# 4 0.0000 0.0000 0.0000 13.8490 0.0000 0.0000
# 5 0.0000 0.0000 0.0000 0.0000 6.6270 0.0000
# 6 0.0000 0.0000 0.0000 0.0000 0.0000 24.1289
#
#
#
# Elastic Compliance Matrix: (Units=1/GPa)
#
#
# Indices 1 2 3 4 5 6 
#
# 1 0.019562 -0.022041 -0.005254 0.000000 0.000000 0.000000
# 2 -0.022041 0.089698 -0.018603 0.000000 0.000000 0.000000
# 3 -0.005254 -0.018603 0.019324 0.000000 0.000000 0.000000
# 4 0.000000 0.000000 0.000000 0.072207 0.000000 0.000000
# 5 0.000000 0.000000 0.000000 0.000000 0.150897 0.000000
# 6 0.000000 0.000000 0.000000 0.000000 0.000000 0.041444
#
#
# Mechanical properties :
#
#
# Convention : Reuss Voigt Hill
#
# Bulk Modulus (GPa) = 27.18353 68.66872 47.92613
# Shear Modulus (GPa) = 10.05647 15.74192 12.89920
#
# Velocity S-wave (km/s) = 2.56718 3.21190 2.90746
# Velocity P-wave (km/s) = 5.15768 7.66527 6.53292
#
# Compressibility (1/GPa) = 0.03678698
#
# Stress axis : x y z
#
# Youngs Moduli (GPa) = 51.12054 11.14852 51.74822
#
# Poissons Ratio (x) = 0.24573 0.27191
# Poissons Ratio (y) = 1.12677 0.96265
# Poissons Ratio (z) = 0.26861 0.20739
#
# Static dielectric constant tensor:
#      x y z
#    x 1.494640 0.000000 0.000000 
#    y 0.000000 1.508350 0.000000 
#    z 0.000000 0.000000 1.503200 
# 
# From -- ./inp_files/14312.got.cif
#   From: 2010.05.17/outbox.cif.g08.bks.cpg/sg47_8_cif.got.tgz:14312.got - 2010.06.03 20:15:42.
