data_PCOD9384382
_publ_section_title
;
Structure prediction by ZEFSAII (Michael W. Deem and Ramdas Pophale) SiO2 
 PCOD9384382
Probable space group: P M M M
;
_chemical_formula_sum "Si O2"
_cell_formula_units_Z 40
_cell_length_a 7.384556
_cell_length_b 27.093984
_cell_length_c 9.517734
_cell_angle_alpha 90.000000
_cell_angle_beta 90.000000
_cell_angle_gamma 90.000000
_cell_volume 1904.280066
_symmetry_space_group_name_H-M "P M M M"
_symmetry_group_IT_number 47
_symmetry_cell_setting 'orthorhombic'
loop_
_space_group_symop_operation_xyz
x,y,z
-x,-y,z
x,-y,-z
-x,y,-z
-x,-y,-z
x,y,-z
-x,y,z
x,-y,z
loop_
_atom_site_type_symbol
_atom_site_label
_atom_site_fract_x
_atom_site_fract_y
_atom_site_fract_z
Si Si1 0.717811 0.160396 0.161095
Si Si2 0.214978 0.742747 0.658462
Si Si3 0.283820 0.053097 0.169551
Si Si4 0.220440 0.444500 0.338158
Si Si5 0.221631 0.649641 0.161298
O O1 0.500000 0.156858 0.153950
O O2 0.760318 0.206056 0.259947
O O3 0.784487 0.106828 0.215540
O O4 0.781530 0.168470 0.000000
O O5 0.287979 0.744218 0.500000
O O6 0.284280 0.696978 0.750264
O O7 0.000000 0.734843 0.647516
O O8 0.500000 0.052251 0.196251
O O9 0.211668 0.000000 0.220699
O O10 0.261231 0.053593 0.000000
O O11 0.274321 0.435354 0.500000
O O12 0.277543 0.500000 0.298562
O O13 0.279638 0.400804 0.236783
O O14 0.000000 0.444412 0.336818
O O15 0.000000 0.649825 0.161270
O O16 0.279152 0.652424 0.000000
#
# Coordination Sequence:
#
# PCOD9384382 Si02
#       5
#     8   8   8   8   8
#     4   9  17  29  47  71  94 114 141 181 225 265
#     4  10  20  32  45  61  85 120 157 187 218 262
#     4   7  10  19  38  64  90 112 135 168 213 262
#     4   8  13  21  33  50  75 107 139 171 211 260
#     4   9  16  25  38  56  78 106 142 183 223 261
#
# _framework density 21.005313999999998
#
# number of rings (size 3 to 8) (size 9 to 14) (size 15 to 20)
#    0.000    3.400    0.000    3.600    0.000    4.400 
#    0.000    2.000    0.000    1.200    0.000    7.000 
#    0.000    0.800    0.000    8.400    0.000   11.600 
#
# Total GULP energy -223024.564440 kJ/mol
# GULP energy per Si atom -5575.614111 kJ/mol
# Density = 2.095750 g / cm^3
# Si number density = 21.005314 Si / 1000 Ang^3
#
#
#
# Elastic Constant Matrix: (Units=GPa)
#
#
# Indices 1 2 3 4 5 6 
#
# 1 70.8961 4.4176 6.5436 0.0000 0.0000 0.0000
# 2 4.4176 253.8386 139.1545 0.0000 0.0000 0.0000
# 3 6.5436 139.1545 144.0476 0.0000 0.0000 0.0000
# 4 0.0000 0.0000 0.0000 -60.5580 0.0000 0.0000
# 5 0.0000 0.0000 0.0000 0.0000 2.9535 0.0000
# 6 0.0000 0.0000 0.0000 0.0000 0.0000 12.4723
#
#
#
# Elastic Compliance Matrix: (Units=1/GPa)
#
#
# Indices 1 2 3 4 5 6 
#
# 1 0.014171 0.000226 -0.000862 0.000000 0.000000 0.000000
# 2 0.000226 0.008378 -0.008104 0.000000 0.000000 0.000000
# 3 -0.000862 -0.008104 0.014810 0.000000 0.000000 0.000000
# 4 0.000000 0.000000 0.000000 -0.016513 0.000000 0.000000
# 5 0.000000 0.000000 0.000000 0.000000 0.338583 0.000000
# 6 0.000000 0.000000 0.000000 0.000000 0.000000 0.080178
#
#
# Mechanical properties :
#
#
# Convention : Reuss Voigt Hill
#
# Bulk Modulus (GPa) = 50.30460 85.44597 67.87529
# Shear Modulus (GPa) = 10.78257 12.21799 11.50028
#
# Velocity S-wave (km/s) = 2.26813 2.41438 2.34240
# Velocity P-wave (km/s) = 5.55515 6.96699 6.30074
#
# Compressibility (1/GPa) = 0.01987890
#
# Stress axis : x y z
#
# Youngs Moduli (GPa) = 70.56845 119.35969 67.52314
#
# Poissons Ratio (x) = -0.02696 0.05820
# Poissons Ratio (y) = -0.01594 0.54719
# Poissons Ratio (z) = 0.06083 0.96726
#
# Static dielectric constant tensor:
#      x y z
#    x 1.873990 0.000000 0.000000 
#    y 0.000000 1.769460 0.000000 
#    z 0.000000 0.000000 1.705490 
# 
# From -- ./inp_files/1652.got.cif
#   From: 2010.05.17/outbox.cif.g08.bks.cpg/sg47_1_cif.got.tgz:1652.got - 2010.06.03 20:15:42.
