data_PCOD9384229
_publ_section_title
;
Structure prediction by ZEFSAII (Michael W. Deem and Ramdas Pophale) SiO2 
 PCOD9384229
Probable space group: P M M M
;
_chemical_formula_sum "Si O2"
_cell_formula_units_Z 48
_cell_length_a 16.150663
_cell_length_b 16.180602
_cell_length_c 8.888193
_cell_angle_alpha 90.000000
_cell_angle_beta 90.000000
_cell_angle_gamma 90.000000
_cell_volume 2322.728812
_symmetry_space_group_name_H-M "P M M M"
_symmetry_group_IT_number 47
_symmetry_cell_setting 'orthorhombic'
loop_
_space_group_symop_operation_xyz
x,y,z
-x,-y,z
x,-y,-z
-x,y,-z
-x,-y,-z
x,y,-z
-x,y,z
x,-y,z
loop_
_atom_site_type_symbol
_atom_site_label
_atom_site_fract_x
_atom_site_fract_y
_atom_site_fract_z
Si Si1 0.218679 0.407548 0.681822
Si Si2 0.408852 0.781681 0.834944
Si Si3 0.407861 0.615360 0.676665
Si Si4 0.313845 0.907229 0.333995
Si Si5 0.906216 0.272146 0.179719
Si Si6 0.116263 0.092495 0.326079
O O1 0.219566 0.397081 0.500000
O O2 0.184928 0.500000 0.715451
O O3 0.315916 0.409238 0.732510
O O4 0.163608 0.332978 0.749609
O O5 0.500000 0.820074 0.831660
O O6 0.406192 0.712461 0.708859
O O7 0.342934 0.849805 0.798576
O O8 0.397204 0.743176 0.000000
O O9 0.409068 0.595823 0.500000
O O10 0.500000 0.589220 0.737031
O O11 0.339837 0.876118 0.500000
O O12 0.215456 0.909874 0.331398
O O13 0.345987 0.000000 0.317808
O O14 0.903903 0.177033 0.238889
O O15 0.000000 0.303057 0.213574
O O16 0.894890 0.271252 0.000000
O O17 0.088964 0.099886 0.500000
O O18 0.090871 0.000000 0.270227
#
# Coordination Sequence:
#
# PCOD9384229 Si02
#       6
#     8   8   8   8   8   8
#     4  10  22  40  63  91 120 153 197 247 296 348
#     4  10  20  31  44  67 101 140 183 231 279 330
#     4   9  18  34  57  84 114 147 182 225 282 346
#     4   9  18  32  49  70  98 134 178 228 281 338
#     4  11  25  42  60  86 121 160 200 244 296 352
#     4   9  19  37  61  88 116 147 187 237 292 349
#
# _framework density 20.665348000000002
#
# number of rings (size 3 to 8) (size 9 to 14) (size 15 to 20)
#    0.000    2.333    0.000    3.000    0.000   10.000 
#    0.000    8.333    0.000    0.000    0.000    3.500 
#    0.000    0.000    0.000    0.000    0.000    0.000 
#
# Total GULP energy -267222.300880 kJ/mol
# GULP energy per Si atom -5567.131268 kJ/mol
# Density = 2.061831 g / cm^3
# Si number density = 20.665348 Si / 1000 Ang^3
#
#
#
# Elastic Constant Matrix: (Units=GPa)
#
#
# Indices 1 2 3 4 5 6 
#
# 1 110.7471 74.6350 32.4429 0.0000 0.0000 0.0000
# 2 74.6350 122.5468 40.0893 0.0000 0.0000 0.0000
# 3 32.4429 40.0893 37.4456 0.0000 0.0000 0.0000
# 4 0.0000 0.0000 0.0000 -3.9511 0.0000 0.0000
# 5 0.0000 0.0000 0.0000 0.0000 22.1409 0.0000
# 6 0.0000 0.0000 0.0000 0.0000 0.0000 55.1968
#
#
#
# Elastic Compliance Matrix: (Units=1/GPa)
#
#
# Indices 1 2 3 4 5 6 
#
# 1 0.015963 -0.007999 -0.005267 0.000000 0.000000 0.000000
# 2 -0.007999 0.016567 -0.010806 0.000000 0.000000 0.000000
# 3 -0.005267 -0.010806 0.042837 0.000000 0.000000 0.000000
# 4 0.000000 0.000000 0.000000 -0.253096 0.000000 0.000000
# 5 0.000000 0.000000 0.000000 0.000000 0.045165 0.000000
# 6 0.000000 0.000000 0.000000 0.000000 0.000000 0.018117
#
#
# Mechanical properties :
#
#
# Convention : Reuss Voigt Hill
#
# Bulk Modulus (GPa) = 36.73257 62.78598 49.75928
# Shear Modulus (GPa) = -87.36965 22.91548 -32.22708
#
# Velocity S-wave (km/s) = -6.50923 3.33360 -3.95330
# Velocity P-wave (km/s) = 6.21932 6.72796 1.81459
#
# Compressibility (1/GPa) = 0.02722380
#
# Stress axis : x y z
#
# Youngs Moduli (GPa) = 62.64367 60.36090 23.34414
#
# Poissons Ratio (x) = 0.48284 0.12294
# Poissons Ratio (y) = 0.50111 0.25226
# Poissons Ratio (z) = 0.32992 0.65226
#
# Static dielectric constant tensor:
#      x y z
#    x 1.773090 0.000000 0.000000 
#    y 0.000000 1.735490 0.000000 
#    z 0.000000 0.000000 1.737480 
# 
# From -- ./inp_files/9123.got.cif
#   From: 2010.05.17/outbox.cif.g08.bks.cpg/sg47_5_cif.got.tgz:9123.got - 2010.06.03 20:15:42.
