data_PCOD9384071
_publ_section_title
;
Structure prediction by ZEFSAII (Michael W. Deem and Ramdas Pophale) SiO2 
 PCOD9384071
Probable space group: P M M M
;
_chemical_formula_sum "Si O2"
_cell_formula_units_Z 37
_cell_length_a 7.424402
_cell_length_b 13.095858
_cell_length_c 19.515469
_cell_angle_alpha 90.000000
_cell_angle_beta 90.000000
_cell_angle_gamma 90.000000
_cell_volume 1897.467863
_symmetry_space_group_name_H-M "P M M M"
_symmetry_group_IT_number 47
_symmetry_cell_setting 'orthorhombic'
loop_
_space_group_symop_operation_xyz
x,y,z
-x,-y,z
x,-y,-z
-x,y,-z
-x,-y,-z
x,y,-z
-x,y,z
x,-y,z
loop_
_atom_site_type_symbol
_atom_site_label
_atom_site_fract_x
_atom_site_fract_y
_atom_site_fract_z
Si Si1 0.218132 0.889159 0.390382
Si Si2 0.500000 0.000000 0.000000
Si Si3 0.780425 0.000000 0.126811
Si Si4 0.781420 0.169299 0.237512
Si Si5 0.791530 0.610529 0.727376
Si Si6 0.707528 0.662184 0.573557
O O1 0.269671 0.880253 0.310225
O O2 0.285329 0.785564 0.424124
O O3 0.000000 0.885661 0.394932
O O4 0.275999 0.000000 0.416711
O O5 0.340918 0.000000 0.059937
O O6 0.734517 0.098735 0.173791
O O7 0.000000 0.000000 0.115226
O O8 0.714034 0.286114 0.239910
O O9 0.000000 0.172765 0.238913
O O10 0.710048 0.500000 0.743303
O O11 0.790463 0.625541 0.644861
O O12 0.000000 0.607210 0.748672
O O13 0.784457 0.629189 0.500000
O O14 0.500000 0.629876 0.575836
#
# Coordination Sequence:
#
# PCOD9384071 Si02
#       6
#     8   1   4   8   8   8
#     4   9  16  29  49  71  92 122 173 225 266 316
#     4  12  26  36  52  98 126 148 192 196 228 324
#     4  10  19  37  59  82 122 156 173 212 257 299
#     4   8  14  29  53  76 101 136 168 205 267 312
#     4   9  18  33  53  76  98 124 173 232 272 315
#     4  10  21  33  42  59  94 137 174 215 274 335
#
# _framework density 19.499670999999999
#
# number of rings (size 3 to 8) (size 9 to 14) (size 15 to 20)
#    0.000    2.811    1.081    2.108    0.000    3.459 
#    7.784    4.324    0.000    0.000    0.000    1.514 
#    0.000    5.189    0.000    0.000    0.000    0.000 
#
# Total GULP energy -206066.871181 kJ/mol
# GULP energy per Si atom -5569.374897 kJ/mol
# Density = 1.945529 g / cm^3
# Si number density = 19.499671 Si / 1000 Ang^3
#
#
#
# Elastic Constant Matrix: (Units=GPa)
#
#
# Indices 1 2 3 4 5 6 
#
# 1 75.9237 10.7130 19.8877 0.0000 0.0000 0.0000
# 2 10.7130 161.6040 43.6796 0.0000 0.0000 0.0000
# 3 19.8877 43.6796 119.8532 0.0000 0.0000 0.0000
# 4 0.0000 0.0000 0.0000 0.1337 0.0000 0.0000
# 5 0.0000 0.0000 0.0000 0.0000 15.8568 0.0000
# 6 0.0000 0.0000 0.0000 0.0000 0.0000 -38.0876
#
#
#
# Elastic Compliance Matrix: (Units=1/GPa)
#
#
# Indices 1 2 3 4 5 6 
#
# 1 0.013785 -0.000328 -0.002168 0.000000 0.000000 0.000000
# 2 -0.000328 0.006872 -0.002450 0.000000 0.000000 0.000000
# 3 -0.002168 -0.002450 0.009596 0.000000 0.000000 0.000000
# 4 0.000000 0.000000 0.000000 7.478969 0.000000 0.000000
# 5 0.000000 0.000000 0.000000 0.000000 0.063064 0.000000
# 6 0.000000 0.000000 0.000000 0.000000 0.000000 -0.026255
#
#
# Mechanical properties :
#
#
# Convention : Reuss Voigt Hill
#
# Bulk Modulus (GPa) = 49.11193 56.21574 52.66383
# Shear Modulus (GPa) = 0.66114 14.45395 7.55754
#
# Velocity S-wave (km/s) = 0.58291 2.72553 1.97082
# Velocity P-wave (km/s) = 5.06890 6.22867 5.67847
#
# Compressibility (1/GPa) = 0.02036165
#
# Stress axis : x y z
#
# Youngs Moduli (GPa) = 72.54128 145.51990 104.20827
#
# Poissons Ratio (x) = 0.04771 0.22592
# Poissons Ratio (y) = 0.02378 0.25531
# Poissons Ratio (z) = 0.15727 0.35653
#
# Static dielectric constant tensor:
#      x y z
#    x 1.744000 0.000000 0.000000 
#    y 0.000000 1.746340 0.000000 
#    z 0.000000 0.000000 1.631260 
# 
# From -- ./inp_files/26299.got.cif
#   From: 2010.05.17/outbox.cif.g08.bks.cpg/sg47_14_cif.got.tgz:26299.got - 2010.06.03 20:15:42.
