data_PCOD9384603
_publ_section_title
;
Structure prediction by ZEFSAII (Michael W. Deem and Ramdas Pophale) SiO2 
 PCOD9384603
Probable space group: P M M M
;
_chemical_formula_sum "Si O2"
_cell_formula_units_Z 40
_cell_length_a 7.755524
_cell_length_b 9.496292
_cell_length_c 26.535543
_cell_angle_alpha 90.000000
_cell_angle_beta 90.000000
_cell_angle_gamma 90.000000
_cell_volume 1954.308790
_symmetry_space_group_name_H-M "P M M M"
_symmetry_group_IT_number 47
_symmetry_cell_setting 'orthorhombic'
loop_
_space_group_symop_operation_xyz
x,y,z
-x,-y,z
x,-y,-z
-x,y,-z
-x,-y,-z
x,y,-z
-x,y,z
x,-y,z
loop_
_atom_site_type_symbol
_atom_site_label
_atom_site_fract_x
_atom_site_fract_y
_atom_site_fract_z
Si Si1 0.795728 0.343628 0.000000
Si Si2 0.707049 0.159161 0.903743
Si Si3 0.788815 0.837489 0.401476
Si Si4 0.205641 0.340681 0.694164
Si Si5 0.708159 0.838118 0.208876
Si Si6 0.789377 0.337291 0.500000
O O1 0.748932 0.260023 0.949586
O O2 0.718529 0.500000 0.000000
O O3 0.000000 0.355131 0.000000
O O4 0.500000 0.152208 0.900993
O O5 0.767144 0.201865 0.847682
O O6 0.770458 0.000000 0.913692
O O7 0.728867 0.758227 0.350994
O O8 0.735873 0.747803 0.450250
O O9 0.000000 0.839575 0.401235
O O10 0.732700 0.000000 0.403487
O O11 0.275226 0.500000 0.692594
O O12 0.234963 0.266183 0.747533
O O13 0.000000 0.350228 0.686750
O O14 0.500000 0.838623 0.208906
O O15 0.764457 0.000000 0.218529
O O16 0.732582 0.500000 0.500000
O O17 0.000000 0.339561 0.500000
#
# Coordination Sequence:
#
# PCOD9384603 Si02
#       6
#     4   8   8   8   8   4
#     4  11  24  37  50  76 112 141 166 201 246 296
#     4   9  19  37  59  79  99 128 169 212 250 293
#     4   9  16  26  41  62  90 126 167 207 248 297
#     4  10  20  32  47  71 103 135 166 204 252 302
#     4   9  19  36  56  77 100 128 166 210 252 296
#     4   9  15  23  37  59  90 125 160 203 254 303
#
# _framework density 20.467593999999998
#
# number of rings (size 3 to 8) (size 9 to 14) (size 15 to 20)
#    0.000    2.600    0.000    3.300    0.000    9.200 
#    0.000    6.000    0.000    0.000    0.000    0.700 
#    0.000    5.600    0.000    0.000    0.000    0.000 
#
# Total GULP energy -223290.724859 kJ/mol
# GULP energy per Si atom -5582.268121 kJ/mol
# Density = 2.042101 g / cm^3
# Si number density = 20.467594 Si / 1000 Ang^3
#
#
#
# Elastic Constant Matrix: (Units=GPa)
#
#
# Indices 1 2 3 4 5 6 
#
# 1 26.6640 7.4947 2.9786 0.0000 0.0000 0.0000
# 2 7.4947 208.0536 151.4424 0.0000 0.0000 0.0000
# 3 2.9786 151.4424 207.1166 0.0000 0.0000 0.0000
# 4 0.0000 0.0000 0.0000 -29.5452 0.0000 0.0000
# 5 0.0000 0.0000 0.0000 0.0000 27.3125 0.0000
# 6 0.0000 0.0000 0.0000 0.0000 0.0000 15.1103
#
#
#
# Elastic Compliance Matrix: (Units=1/GPa)
#
#
# Indices 1 2 3 4 5 6 
#
# 1 0.037979 -0.002075 0.000971 0.000000 0.000000 0.000000
# 2 -0.002075 0.010389 -0.007566 0.000000 0.000000 0.000000
# 3 0.000971 -0.007566 0.010347 0.000000 0.000000 0.000000
# 4 0.000000 0.000000 0.000000 -0.033846 0.000000 0.000000
# 5 0.000000 0.000000 0.000000 0.000000 0.036613 0.000000
# 6 0.000000 0.000000 0.000000 0.000000 0.000000 0.066180
#
#
# Mechanical properties :
#
#
# Convention : Reuss Voigt Hill
#
# Bulk Modulus (GPa) = 24.17007 85.07393 54.62200
# Shear Modulus (GPa) = 31.48764 21.23675 26.36219
#
# Velocity S-wave (km/s) = 3.92652 3.22464 3.59276
# Velocity P-wave (km/s) = 5.69134 7.45116 6.62990
#
# Compressibility (1/GPa) = 0.04137348
#
# Stress axis : x y z
#
# Youngs Moduli (GPa) = 26.33066 96.25795 96.64911
#
# Poissons Ratio (x) = 0.19972 -0.09384
# Poissons Ratio (y) = 0.05463 0.73128
# Poissons Ratio (z) = -0.02557 0.72832
#
# Static dielectric constant tensor:
#      x y z
#    x 1.765590 0.000000 0.000000 
#    y 0.000000 1.717340 0.000000 
#    z 0.000000 0.000000 1.712790 
# 
# From -- ./inp_files/1881.got.cif
#   From: 2010.05.17/outbox.cif.g08.bks.cpg/sg47_1_cif.got.tgz:1881.got - 2010.06.03 20:15:42.
