data_PCOD9384392
_publ_section_title
;
Structure prediction by ZEFSAII (Michael W. Deem and Ramdas Pophale) SiO2 
 PCOD9384392
Probable space group: P M M M
;
_chemical_formula_sum "Si O2"
_cell_formula_units_Z 44
_cell_length_a 8.786661
_cell_length_b 14.631504
_cell_length_c 21.673411
_cell_angle_alpha 90.000000
_cell_angle_beta 90.000000
_cell_angle_gamma 90.000000
_cell_volume 2786.378486
_symmetry_space_group_name_H-M "P M M M"
_symmetry_group_IT_number 47
_symmetry_cell_setting 'orthorhombic'
loop_
_space_group_symop_operation_xyz
x,y,z
-x,-y,z
x,-y,-z
-x,y,-z
-x,-y,-z
x,y,-z
-x,y,z
x,-y,z
loop_
_atom_site_type_symbol
_atom_site_label
_atom_site_fract_x
_atom_site_fract_y
_atom_site_fract_z
Si Si1 0.181980 0.789954 0.312381
Si Si2 0.317714 0.109305 0.569348
Si Si3 0.172816 0.611041 0.500000
Si Si4 0.681579 0.893487 0.196017
Si Si5 0.813868 0.396129 0.365412
Si Si6 0.820145 0.110429 0.932438
O O1 0.236228 0.840176 0.374743
O O2 0.251837 0.837524 0.252779
O O3 0.228044 0.683522 0.318657
O O4 0.000000 0.794975 0.309026
O O5 0.269828 0.138584 0.500000
O O6 0.500000 0.123011 0.574146
O O7 0.291155 0.000000 0.573972
O O8 0.162293 0.500000 0.500000
O O9 0.243631 0.632625 0.433871
O O10 0.000000 0.648056 0.500000
O O11 0.500000 0.891472 0.198208
O O12 0.737012 0.858124 0.129315
O O13 0.730668 0.000000 0.201958
O O14 0.765577 0.500000 0.351696
O O15 0.000000 0.397990 0.369416
O O16 0.000000 0.129827 0.927608
O O17 0.803712 0.000000 0.933357
O O18 0.766095 0.143482 0.000000
#
# Coordination Sequence:
#
# PCOD9384392 Si02
#       6
#     8   8   4   8   8   8
#     4  11  21  29  45  69  89 111 145 190 231 265
#     4   9  19  35  49  59  79 115 152 183 221 270
#     4   7  10  20  38  56  76 101 126 160 213 273
#     4  10  20  32  45  62  90 128 161 184 211 257
#     4   8  15  27  42  62  87 111 136 174 228 284
#     4   8  14  26  45  68  93 119 147 183 223 255
#
# _framework density 15.791105999999999
#
# number of rings (size 3 to 8) (size 9 to 14) (size 15 to 20)
#    0.000    3.000    0.000    3.818    1.273    4.364 
#    0.000    2.727    0.000    2.182    0.000    1.273 
#    0.000    0.727    0.000    8.364    0.000    2.727 
#
# Total GULP energy -245046.605351 kJ/mol
# GULP energy per Si atom -5569.241031 kJ/mol
# Density = 1.575517 g / cm^3
# Si number density = 15.791106 Si / 1000 Ang^3
#
#
#
# Elastic Constant Matrix: (Units=GPa)
#
#
# Indices 1 2 3 4 5 6 
#
# 1 20.4086 21.0512 41.4884 0.0000 0.0000 0.0000
# 2 21.0512 63.1177 65.9574 0.0000 0.0000 0.0000
# 3 41.4884 65.9574 152.8167 0.0000 0.0000 0.0000
# 4 0.0000 0.0000 0.0000 8.6391 0.0000 0.0000
# 5 0.0000 0.0000 0.0000 0.0000 19.5367 0.0000
# 6 0.0000 0.0000 0.0000 0.0000 0.0000 1.3440
#
#
#
# Elastic Compliance Matrix: (Units=1/GPa)
#
#
# Indices 1 2 3 4 5 6 
#
# 1 0.112873 -0.010243 -0.026223 0.000000 0.000000 0.000000
# 2 -0.010243 0.029790 -0.010077 0.000000 0.000000 0.000000
# 3 -0.026223 -0.010077 0.018012 0.000000 0.000000 0.000000
# 4 0.000000 0.000000 0.000000 0.115753 0.000000 0.000000
# 5 0.000000 0.000000 0.000000 0.000000 0.051186 0.000000
# 6 0.000000 0.000000 0.000000 0.000000 0.000000 0.744072
#
#
# Mechanical properties :
#
#
# Convention : Reuss Voigt Hill
#
# Bulk Modulus (GPa) = 14.79515 54.81523 34.80519
# Shear Modulus (GPa) = 4.21123 13.09369 8.65246
#
# Velocity S-wave (km/s) = 1.63482 2.88267 2.34334
# Velocity P-wave (km/s) = 3.59905 6.77258 5.42314
#
# Compressibility (1/GPa) = 0.06758970
#
# Stress axis : x y z
#
# Youngs Moduli (GPa) = 8.85953 33.56865 55.51729
#
# Poissons Ratio (x) = 0.34383 1.45584
# Poissons Ratio (y) = 0.09075 0.55944
# Poissons Ratio (z) = 0.23232 0.33826
#
# Static dielectric constant tensor:
#      x y z
#    x 1.535500 0.000000 0.000000 
#    y 0.000000 1.532900 0.000000 
#    z 0.000000 0.000000 1.540070 
# 
# From -- ./inp_files/29446.got.cif
#   From: 2010.05.17/outbox.cif.g08.bks.cpg/sg47_15_cif.got.tgz:29446.got - 2010.06.03 20:15:42.
