data_PCOD9384195
_publ_section_title
;
Structure prediction by ZEFSAII (Michael W. Deem and Ramdas Pophale) SiO2 
 PCOD9384195
Probable space group: P M M M
;
_chemical_formula_sum "Si O2"
_cell_formula_units_Z 64
_cell_length_a 14.725777
_cell_length_b 31.770465
_cell_length_c 8.931206
_cell_angle_alpha 90.000000
_cell_angle_beta 90.000000
_cell_angle_gamma 90.000000
_cell_volume 4178.418131
_symmetry_space_group_name_H-M "P M M M"
_symmetry_group_IT_number 47
_symmetry_cell_setting 'orthorhombic'
loop_
_space_group_symop_operation_xyz
x,y,z
-x,-y,z
x,-y,-z
-x,y,-z
-x,-y,-z
x,y,-z
-x,y,z
x,-y,z
loop_
_atom_site_type_symbol
_atom_site_label
_atom_site_fract_x
_atom_site_fract_y
_atom_site_fract_z
Si Si1 0.290674 0.125681 0.320142
Si Si2 0.715504 0.710295 0.179196
Si Si3 0.896459 0.259334 0.680158
Si Si4 0.393019 0.366578 0.678500
Si Si5 0.606508 0.795106 0.819979
Si Si6 0.100496 0.839166 0.318239
Si Si7 0.389972 0.453576 0.824742
Si Si8 0.605994 0.048463 0.179955
O O1 0.293193 0.125796 0.500000
O O2 0.349957 0.164598 0.259176
O O3 0.186882 0.134033 0.269255
O O4 0.331359 0.082548 0.258245
O O5 0.817149 0.714962 0.241532
O O6 0.664311 0.670179 0.245854
O O7 0.660462 0.752758 0.222292
O O8 0.716171 0.707801 0.000000
O O9 0.886875 0.262007 0.500000
O O10 0.886066 0.209928 0.722277
O O11 0.000000 0.271741 0.717981
O O12 0.386206 0.363858 0.500000
O O13 0.500000 0.361948 0.719617
O O14 0.361318 0.412649 0.733408
O O15 0.500000 0.791091 0.783469
O O16 0.614118 0.800386 0.000000
O O17 0.099123 0.840246 0.500000
O O18 0.000000 0.852435 0.266114
O O19 0.500000 0.454362 0.816756
O O20 0.358460 0.500000 0.773411
O O21 0.366242 0.448816 0.000000
O O22 0.500000 0.056302 0.217916
O O23 0.626963 0.000000 0.219833
O O24 0.613738 0.052320 0.000000
#
# Coordination Sequence:
#
# PCOD9384195 Si02
#       8
#     8   8   8   8   8   8   8   8
#     4  11  20  30  50  76  96 115 149 195 233 267
#     4  11  21  32  47  66  93 127 162 200 236 278
#     4   9  17  32  52  69  90 122 157 194 237 283
#     4  10  20  31  44  64  92 128 167 204 241 285
#     4  10  21  34  45  61  91 130 162 186 221 273
#     4   8  15  29  48  69  94 122 149 181 226 278
#     4   8  14  26  44  64  87 118 157 200 244 288
#     4   9  19  36  54  69  91 126 158 182 220 277
#
# _framework density 15.316801
#
# number of rings (size 3 to 8) (size 9 to 14) (size 15 to 20)
#    0.000    2.500    1.250    3.375    0.000    4.500 
#    0.000    1.875    0.000    1.875    0.000    2.625 
#    0.000    0.500    0.000    5.250    0.000    2.500 
#
# Total GULP energy -356783.577993 kJ/mol
# GULP energy per Si atom -5574.743406 kJ/mol
# Density = 1.528194 g / cm^3
# Si number density = 15.316801 Si / 1000 Ang^3
#
#
#
# Elastic Constant Matrix: (Units=GPa)
#
#
# Indices 1 2 3 4 5 6 
#
# 1 114.5226 76.9795 41.5899 0.0000 0.0000 0.0000
# 2 76.9795 121.4873 45.4955 0.0000 0.0000 0.0000
# 3 41.5899 45.4955 31.2044 0.0000 0.0000 0.0000
# 4 0.0000 0.0000 0.0000 20.5140 0.0000 0.0000
# 5 0.0000 0.0000 0.0000 0.0000 17.4263 0.0000
# 6 0.0000 0.0000 0.0000 0.0000 0.0000 6.2347
#
#
#
# Elastic Compliance Matrix: (Units=1/GPa)
#
#
# Indices 1 2 3 4 5 6 
#
# 1 0.018434 -0.005462 -0.016606 0.000000 0.000000 0.000000
# 2 -0.005462 0.019749 -0.021514 0.000000 0.000000 0.000000
# 3 -0.016606 -0.021514 0.085546 0.000000 0.000000 0.000000
# 4 0.000000 0.000000 0.000000 0.048747 0.000000 0.000000
# 5 0.000000 0.000000 0.000000 0.000000 0.057385 0.000000
# 6 0.000000 0.000000 0.000000 0.000000 0.000000 0.160393
#
#
# Mechanical properties :
#
#
# Convention : Reuss Voigt Hill
#
# Bulk Modulus (GPa) = 27.34780 66.14933 46.74856
# Shear Modulus (GPa) = 10.21231 15.71161 12.96196
#
# Velocity S-wave (km/s) = 2.58493 3.20625 2.91221
# Velocity P-wave (km/s) = 5.17713 7.54903 6.47266
#
# Compressibility (1/GPa) = 0.03656601
#
# Stress axis : x y z
#
# Youngs Moduli (GPa) = 54.24848 50.63607 11.68957
#
# Poissons Ratio (x) = 0.27656 0.19411
# Poissons Ratio (y) = 0.29629 0.25149
# Poissons Ratio (z) = 0.90084 1.08938
#
# Static dielectric constant tensor:
#      x y z
#    x 1.505220 0.000000 0.000000 
#    y 0.000000 1.496030 0.000000 
#    z 0.000000 0.000000 1.510710 
# 
# From -- ./inp_files/8205.got.cif
#   From: 2010.05.17/outbox.cif.g08.bks.cpg/sg47_5_cif.got.tgz:8205.got - 2010.06.03 20:15:42.
