data_PCOD9384834
_publ_section_title
;
Structure prediction by ZEFSAII (Michael W. Deem and Ramdas Pophale) SiO2 
 PCOD9384834
Probable space group: P M M M
;
_chemical_formula_sum "Si O2"
_cell_formula_units_Z 52
_cell_length_a 19.305667
_cell_length_b 9.655190
_cell_length_c 15.581520
_cell_angle_alpha 90.000000
_cell_angle_beta 90.000000
_cell_angle_gamma 90.000000
_cell_volume 2904.393504
_symmetry_space_group_name_H-M "P M M M"
_symmetry_group_IT_number 47
_symmetry_cell_setting 'orthorhombic'
loop_
_space_group_symop_operation_xyz
x,y,z
-x,-y,z
x,-y,-z
-x,y,-z
-x,-y,-z
x,y,-z
-x,y,z
x,-y,z
loop_
_atom_site_type_symbol
_atom_site_label
_atom_site_fract_x
_atom_site_fract_y
_atom_site_fract_z
Si Si1 0.917875 0.341202 0.147799
Si Si2 0.915062 0.155675 0.500000
Si Si3 0.665477 0.335923 0.896373
Si Si4 0.204642 0.845075 0.899761
Si Si5 0.584268 0.339735 0.597714
Si Si6 0.416472 0.160632 0.761360
Si Si7 0.916257 0.348762 0.650244
O O1 0.901695 0.500000 0.120657
O O2 0.870076 0.226098 0.106522
O O3 0.902710 0.330301 0.249556
O O4 0.000000 0.320837 0.134229
O O5 0.891270 0.233800 0.585237
O O6 0.000000 0.155990 0.500000
O O7 0.891415 0.000000 0.500000
O O8 0.664700 0.500000 0.877414
O O9 0.737956 0.264103 0.868536
O O10 0.609378 0.250910 0.841883
O O11 0.656336 0.322008 0.000000
O O12 0.207149 0.000000 0.861094
O O13 0.220345 0.859992 0.000000
O O14 0.605911 0.303501 0.500000
O O15 0.500000 0.337325 0.597805
O O16 0.604527 0.500000 0.614848
O O17 0.607063 0.236874 0.673361
O O18 0.500000 0.160038 0.760868
O O19 0.393256 0.000000 0.766327
O O20 0.890905 0.500000 0.623126
O O21 0.000000 0.350716 0.643553
#
# Coordination Sequence:
#
# PCOD9384834 Si02
#       7
#     8   4   8   8   8   8   8
#     4   9  18  32  50  73  99 127 162 203 245 292
#     4   9  15  21  33  57  87 117 149 185 226 273
#     4  10  21  37  56  75  97 131 176 220 258 304
#     4  10  21  36  53  73  98 128 162 202 251 307
#     4   8  14  26  45  70 102 139 177 216 254 294
#     4  10  20  32  49  77 111 143 174 212 260 309
#     4   8  14  25  40  59  86 119 152 186 226 273
#
# _framework density 17.903911000000001
#
# number of rings (size 3 to 8) (size 9 to 14) (size 15 to 20)
#    0.000    2.846    0.000    3.000    0.000    5.538 
#    0.000    6.154    0.000    0.000    2.000    0.000 
#    0.000    0.000    0.000    0.000    0.000    0.000 
#
# Total GULP energy -289485.642235 kJ/mol
# GULP energy per Si atom -5567.031581 kJ/mol
# Density = 1.786316 g / cm^3
# Si number density = 17.903911 Si / 1000 Ang^3
#
#
#
# Elastic Constant Matrix: (Units=GPa)
#
#
# Indices 1 2 3 4 5 6 
#
# 1 23.8873 32.4347 13.1667 0.0000 0.0000 0.0000
# 2 32.4347 156.6656 62.4633 0.0000 0.0000 0.0000
# 3 13.1667 62.4633 51.5644 0.0000 0.0000 0.0000
# 4 0.0000 0.0000 0.0000 13.8585 0.0000 0.0000
# 5 0.0000 0.0000 0.0000 0.0000 -16.0874 0.0000
# 6 0.0000 0.0000 0.0000 0.0000 0.0000 16.1994
#
#
#
# Elastic Compliance Matrix: (Units=1/GPa)
#
#
# Indices 1 2 3 4 5 6 
#
# 1 0.058240 -0.011853 -0.000513 0.000000 0.000000 0.000000
# 2 -0.011853 0.014758 -0.014851 0.000000 0.000000 0.000000
# 3 -0.000513 -0.014851 0.037514 0.000000 0.000000 0.000000
# 4 0.000000 0.000000 0.000000 0.072158 0.000000 0.000000
# 5 0.000000 0.000000 0.000000 0.000000 -0.062160 0.000000
# 6 0.000000 0.000000 0.000000 0.000000 0.000000 0.061731
#
#
# Mechanical properties :
#
#
# Convention : Reuss Voigt Hill
#
# Bulk Modulus (GPa) = 17.83204 49.80519 33.81861
# Shear Modulus (GPa) = 19.57964 11.06427 15.32195
#
# Velocity S-wave (km/s) = 3.31054 2.48862 2.92856
# Velocity P-wave (km/s) = 4.95928 6.01133 5.51047
#
# Compressibility (1/GPa) = 0.05607883
#
# Stress axis : x y z
#
# Youngs Moduli (GPa) = 17.17018 67.75952 26.65673
#
# Poissons Ratio (x) = 0.80316 0.01367
# Poissons Ratio (y) = 0.20352 0.39587
# Poissons Ratio (z) = 0.00881 1.00628
#
# Static dielectric constant tensor:
#      x y z
#    x 1.606820 0.000000 0.000000 
#    y 0.000000 1.624470 0.000000 
#    z 0.000000 0.000000 1.638190 
# 
# From -- ./inp_files/24991.got.cif
#   From: 2010.05.17/outbox.cif.g08.bks.cpg/sg47_13_cif.got.tgz:24991.got - 2010.06.03 20:15:42.
