data_PCOD9384354
_publ_section_title
;
Structure prediction by ZEFSAII (Michael W. Deem and Ramdas Pophale) SiO2 
 PCOD9384354
Probable space group: P M M M
;
_chemical_formula_sum "Si O2"
_cell_formula_units_Z 40
_cell_length_a 21.270647
_cell_length_b 14.697576
_cell_length_c 8.949893
_cell_angle_alpha 90.000000
_cell_angle_beta 90.000000
_cell_angle_gamma 90.000000
_cell_volume 2797.977759
_symmetry_space_group_name_H-M "P M M M"
_symmetry_group_IT_number 47
_symmetry_cell_setting 'orthorhombic'
loop_
_space_group_symop_operation_xyz
x,y,z
-x,-y,z
x,-y,-z
-x,y,-z
-x,-y,-z
x,y,-z
-x,y,z
x,-y,z
loop_
_atom_site_type_symbol
_atom_site_label
_atom_site_fract_x
_atom_site_fract_y
_atom_site_fract_z
Si Si1 0.573106 0.399177 0.181447
Si Si2 0.870969 0.110600 0.171872
Si Si3 0.621016 0.205837 0.819881
Si Si4 0.000000 0.889068 0.327204
Si Si5 0.260026 0.108273 0.322189
Si Si6 0.500000 0.891319 0.322096
O O1 0.500000 0.386125 0.225813
O O2 0.593391 0.500000 0.232100
O O3 0.612714 0.311485 0.226805
O O4 0.573533 0.400372 0.000000
O O5 0.808484 0.136472 0.261761
O O6 0.936150 0.141177 0.246276
O O7 0.872538 0.000000 0.173085
O O8 0.866880 0.139817 0.000000
O O9 0.684659 0.162308 0.758543
O O10 0.561653 0.151862 0.752712
O O11 0.619155 0.200496 0.000000
O O12 0.000000 0.862021 0.500000
O O13 0.000000 0.000000 0.323337
O O14 0.263512 0.120733 0.500000
O O15 0.267609 0.000000 0.291651
O O16 0.500000 0.873320 0.500000
O O17 0.500000 0.000000 0.300732
#
# Coordination Sequence:
#
# PCOD9384354 Si02
#       6
#     8   8   8   4   8   4
#     4   8  14  27  47  68  86 102 126 166 216 265
#     4   9  16  26  40  58  79 106 144 185 215 243
#     4  11  20  31  48  67  82 104 140 179 214 251
#     4   9  15  23  37  57  81 109 140 175 216 257
#     4  10  20  32  43  57  83 118 148 175 214 259
#     4  11  23  35  44  57  82 114 143 173 212 253
#
# _framework density 14.29604
#
# number of rings (size 3 to 8) (size 9 to 14) (size 15 to 20)
#    0.000    2.400    1.000    3.600    0.000    8.000 
#    0.000    0.000    0.000    3.000    0.000    0.000 
#    0.000    0.000    0.000    0.900    0.000   18.700 
#
# Total GULP energy -222941.173642 kJ/mol
# GULP energy per Si atom -5573.529341 kJ/mol
# Density = 1.426350 g / cm^3
# Si number density = 14.296040 Si / 1000 Ang^3
#
#
#
# Elastic Constant Matrix: (Units=GPa)
#
#
# Indices 1 2 3 4 5 6 
#
# 1 133.1220 56.3486 54.9914 0.0000 0.0000 0.0000
# 2 56.3486 72.6708 44.0604 0.0000 0.0000 0.0000
# 3 54.9914 44.0604 70.9190 0.0000 0.0000 0.0000
# 4 0.0000 0.0000 0.0000 4.3979 0.0000 0.0000
# 5 0.0000 0.0000 0.0000 0.0000 25.4112 0.0000
# 6 0.0000 0.0000 0.0000 0.0000 0.0000 1.1839
#
#
#
# Elastic Compliance Matrix: (Units=1/GPa)
#
#
# Indices 1 2 3 4 5 6 
#
# 1 0.012560 -0.006151 -0.005918 0.000000 0.000000 0.000000
# 2 -0.006151 0.025089 -0.010818 0.000000 0.000000 0.000000
# 3 -0.005918 -0.010818 0.025410 0.000000 0.000000 0.000000
# 4 0.000000 0.000000 0.000000 0.227383 0.000000 0.000000
# 5 0.000000 0.000000 0.000000 0.000000 0.039353 0.000000
# 6 0.000000 0.000000 0.000000 0.000000 0.000000 0.844687
#
#
# Mechanical properties :
#
#
# Convention : Reuss Voigt Hill
#
# Bulk Modulus (GPa) = 57.84944 65.27917 61.56430
# Shear Modulus (GPa) = 4.07825 14.28600 9.18213
#
# Velocity S-wave (km/s) = 1.69083 3.16460 2.53708
# Velocity P-wave (km/s) = 6.66071 7.68859 7.19304
#
# Compressibility (1/GPa) = 0.01728625
#
# Stress axis : x y z
#
# Youngs Moduli (GPa) = 79.61684 39.85817 39.35469
#
# Poissons Ratio (x) = 0.24517 0.23289
# Poissons Ratio (y) = 0.48974 0.42572
# Poissons Ratio (z) = 0.47115 0.43117
#
# Static dielectric constant tensor:
#      x y z
#    x 1.455290 0.000000 0.000000 
#    y 0.000000 1.461010 0.000000 
#    z 0.000000 0.000000 1.479300 
# 
# From -- ./inp_files/10815.got.cif
#   From: 2010.05.17/outbox.cif.g08.bks.cpg/sg47_6_cif.got.tgz:10815.got - 2010.06.03 20:15:42.
