data_PCOD9384499
_publ_section_title
;
Structure prediction by ZEFSAII (Michael W. Deem and Ramdas Pophale) SiO2 
 PCOD9384499
Probable space group: P M M M
;
_chemical_formula_sum "Si O2"
_cell_formula_units_Z 52
_cell_length_a 8.969357
_cell_length_b 13.690254
_cell_length_c 24.717683
_cell_angle_alpha 90.000000
_cell_angle_beta 90.000000
_cell_angle_gamma 90.000000
_cell_volume 3035.152901
_symmetry_space_group_name_H-M "P M M M"
_symmetry_group_IT_number 47
_symmetry_cell_setting 'orthorhombic'
loop_
_space_group_symop_operation_xyz
x,y,z
-x,-y,z
x,-y,-z
-x,y,-z
-x,-y,-z
x,y,-z
-x,y,z
x,-y,z
loop_
_atom_site_type_symbol
_atom_site_label
_atom_site_fract_x
_atom_site_fract_y
_atom_site_fract_z
Si Si1 0.323315 0.194045 0.372984
Si Si2 0.318463 0.000000 0.562582
Si Si3 0.175862 0.226435 0.840078
Si Si4 0.320715 0.113478 0.062520
Si Si5 0.829607 0.884154 0.269804
Si Si6 0.178363 0.388744 0.651803
Si Si7 0.672482 0.386080 0.769463
O O1 0.500000 0.204133 0.380048
O O2 0.270036 0.100650 0.408296
O O3 0.283036 0.163996 0.311639
O O4 0.246662 0.299035 0.382056
O O5 0.500000 0.000000 0.565399
O O6 0.274369 0.000000 0.500000
O O7 0.243865 0.183827 0.894699
O O8 0.196970 0.148308 0.791502
O O9 0.257037 0.321393 0.816485
O O10 0.000000 0.243894 0.846091
O O11 0.500000 0.120568 0.067431
O O12 0.279907 0.000000 0.073214
O O13 0.281941 0.134927 0.000000
O O14 0.000000 0.853943 0.284020
O O15 0.819275 0.000000 0.274477
O O16 0.221549 0.500000 0.635292
O O17 0.236745 0.375846 0.713448
O O18 0.000000 0.382733 0.651240
O O19 0.500000 0.358335 0.759799
O O20 0.677021 0.500000 0.784026
#
# Coordination Sequence:
#
# PCOD9384499 Si02
#       7
#     8   4   8   8   8   8   8
#     4  11  20  32  54  80 106 141 182 222 267 317
#     4   9  20  38  57  81 113 147 184 227 272 317
#     4  11  21  32  50  76 105 140 174 209 264 321
#     4   9  19  36  55  74  99 135 177 220 263 307
#     4  10  20  32  46  70 108 145 171 207 260 317
#     4  10  20  34  52  76 109 146 179 217 271 326
#     4  10  20  33  50  74 104 137 175 216 257 310
#
# _framework density 17.132580000000001
#
# number of rings (size 3 to 8) (size 9 to 14) (size 15 to 20)
#    0.000    1.923    2.308    2.769    0.000    3.692 
#    0.000    0.769    0.000    4.615    0.000    6.462 
#    0.000    0.000    0.000    0.000    0.000    0.000 
#
# Total GULP energy -290102.493878 kJ/mol
# GULP energy per Si atom -5578.894113 kJ/mol
# Density = 1.709359 g / cm^3
# Si number density = 17.132580 Si / 1000 Ang^3
#
#
#
# Elastic Constant Matrix: (Units=GPa)
#
#
# Indices 1 2 3 4 5 6 
#
# 1 56.8370 49.0035 27.5164 0.0000 0.0000 0.0000
# 2 49.0035 136.4475 52.2456 0.0000 0.0000 0.0000
# 3 27.5164 52.2456 57.5923 0.0000 0.0000 0.0000
# 4 0.0000 0.0000 0.0000 14.7381 0.0000 0.0000
# 5 0.0000 0.0000 0.0000 0.0000 55.7941 0.0000
# 6 0.0000 0.0000 0.0000 0.0000 0.0000 27.4828
#
#
#
# Elastic Compliance Matrix: (Units=1/GPa)
#
#
# Indices 1 2 3 4 5 6 
#
# 1 0.026882 -0.007257 -0.006260 0.000000 0.000000 0.000000
# 2 -0.007257 0.013189 -0.008497 0.000000 0.000000 0.000000
# 3 -0.006260 -0.008497 0.028062 0.000000 0.000000 0.000000
# 4 0.000000 0.000000 0.000000 0.067851 0.000000 0.000000
# 5 0.000000 0.000000 0.000000 0.000000 0.017923 0.000000
# 6 0.000000 0.000000 0.000000 0.000000 0.000000 0.036386
#
#
# Mechanical properties :
#
#
# Convention : Reuss Voigt Hill
#
# Bulk Modulus (GPa) = 41.48603 56.48976 48.98790
# Shear Modulus (GPa) = 20.63074 27.74378 24.18726
#
# Velocity S-wave (km/s) = 3.47390 4.02849 3.76143
# Velocity P-wave (km/s) = 6.35279 7.39473 6.89347
#
# Compressibility (1/GPa) = 0.02410450
#
# Stress axis : x y z
#
# Youngs Moduli (GPa) = 37.19965 75.82277 35.63494
#
# Poissons Ratio (x) = 0.55028 0.22308
# Poissons Ratio (y) = 0.26997 0.30278
# Poissons Ratio (z) = 0.23287 0.64425
#
# Static dielectric constant tensor:
#      x y z
#    x 1.587190 0.000000 0.000000 
#    y 0.000000 1.609330 0.000000 
#    z 0.000000 0.000000 1.544690 
# 
# From -- ./inp_files/31985.got.cif
#   From: 2010.05.17/outbox.cif.g08.bks.cpg/sg47_16_cif.got.tgz:31985.got - 2010.06.03 20:15:42.
