data_PCOD9384547
_publ_section_title
;
Structure prediction by ZEFSAII (Michael W. Deem and Ramdas Pophale) SiO2 
 PCOD9384547
Probable space group: P M M M
;
_chemical_formula_sum "Si O2"
_cell_formula_units_Z 48
_cell_length_a 9.472433
_cell_length_b 32.255372
_cell_length_c 7.514273
_cell_angle_alpha 90.000000
_cell_angle_beta 90.000000
_cell_angle_gamma 90.000000
_cell_volume 2295.887304
_symmetry_space_group_name_H-M "P M M M"
_symmetry_group_IT_number 47
_symmetry_cell_setting 'orthorhombic'
loop_
_space_group_symop_operation_xyz
x,y,z
-x,-y,z
x,-y,-z
-x,y,-z
-x,-y,-z
x,y,-z
-x,y,z
x,-y,z
loop_
_atom_site_type_symbol
_atom_site_label
_atom_site_fract_x
_atom_site_fract_y
_atom_site_fract_z
Si Si1 0.839669 0.714469 0.786164
Si Si2 0.158675 0.873296 0.288877
Si Si3 0.340322 0.203558 0.286841
Si Si4 0.339463 0.953360 0.785593
Si Si5 0.330332 0.455451 0.213693
Si Si6 0.335554 0.635165 0.782167
O O1 0.749032 0.755188 0.746726
O O2 0.759043 0.673391 0.721218
O O3 0.000000 0.717877 0.719095
O O4 0.846662 0.710961 0.000000
O O5 0.147760 0.865975 0.500000
O O6 0.257232 0.836599 0.216074
O O7 0.232725 0.917554 0.266555
O O8 0.000000 0.872565 0.215238
O O9 0.350661 0.198962 0.500000
O O10 0.500000 0.206654 0.216976
O O11 0.500000 0.944145 0.724930
O O12 0.302292 0.000000 0.725125
O O13 0.342447 0.954242 0.000000
O O14 0.500000 0.455210 0.241163
O O15 0.276685 0.500000 0.282800
O O16 0.282060 0.410307 0.277723
O O17 0.308410 0.455915 0.000000
O O18 0.500000 0.640452 0.730160
O O19 0.334758 0.634779 0.000000
#
# Coordination Sequence:
#
# PCOD9384547 Si02
#       6
#     8   8   8   8   8   8
#     4  10  20  32  47  69  97 128 160 194 236 287
#     4  10  21  36  54  77 104 132 162 198 242 291
#     4  10  21  37  56  75  95 123 161 203 245 288
#     4   9  19  36  56  78 105 137 172 207 241 278
#     4   7   9  14  27  49  76 107 145 187 229 272
#     4   8  13  22  37  57  83 116 153 193 234 275
#
# _framework density 20.906950999999999
#
# number of rings (size 3 to 8) (size 9 to 14) (size 15 to 20)
#    0.000    3.000    0.000    3.500    0.000    4.667 
#    0.000    2.500    0.000    0.500    0.000    3.500 
#    0.000    0.667    0.000    7.667    0.000    8.833 
#
# Total GULP energy -267729.623435 kJ/mol
# GULP energy per Si atom -5577.700488 kJ/mol
# Density = 2.085937 g / cm^3
# Si number density = 20.906951 Si / 1000 Ang^3
#
#
#
# Elastic Constant Matrix: (Units=GPa)
#
#
# Indices 1 2 3 4 5 6 
#
# 1 164.7004 129.1897 7.2261 0.0000 0.0000 0.0000
# 2 129.1897 213.7443 -0.0905 0.0000 0.0000 0.0000
# 3 7.2261 -0.0905 52.4639 0.0000 0.0000 0.0000
# 4 0.0000 0.0000 0.0000 22.7155 0.0000 0.0000
# 5 0.0000 0.0000 0.0000 0.0000 10.7601 0.0000
# 6 0.0000 0.0000 0.0000 0.0000 0.0000 -66.5880
#
#
#
# Elastic Compliance Matrix: (Units=1/GPa)
#
#
# Indices 1 2 3 4 5 6 
#
# 1 0.011681 -0.007061 -0.001621 0.000000 0.000000 0.000000
# 2 -0.007061 0.008947 0.000988 0.000000 0.000000 0.000000
# 3 -0.001621 0.000988 0.019286 0.000000 0.000000 0.000000
# 4 0.000000 0.000000 0.000000 0.044023 0.000000 0.000000
# 5 0.000000 0.000000 0.000000 0.000000 0.092936 0.000000
# 6 0.000000 0.000000 0.000000 0.000000 0.000000 -0.015018
#
#
# Mechanical properties :
#
#
# Convention : Reuss Voigt Hill
#
# Bulk Modulus (GPa) = 40.77400 78.17323 59.47362
# Shear Modulus (GPa) = 26.96605 13.01641 19.99123
#
# Velocity S-wave (km/s) = 3.59529 2.49788 3.09560
# Velocity P-wave (km/s) = 6.06463 6.76693 6.42539
#
# Compressibility (1/GPa) = 0.02452543
#
# Stress axis : x y z
#
# Youngs Moduli (GPa) = 85.60624 111.77306 51.85185
#
# Poissons Ratio (x) = 0.78924 0.08406
# Poissons Ratio (y) = 0.60447 -0.05123
# Poissons Ratio (z) = 0.13878 -0.11043
#
# Static dielectric constant tensor:
#      x y z
#    x 1.725410 0.000000 0.000000 
#    y 0.000000 1.749790 0.000000 
#    z 0.000000 0.000000 1.825240 
# 
# From -- ./inp_files/2461.got.cif
#   From: 2010.05.17/outbox.cif.g08.bks.cpg/sg47_2_cif.got.tgz:2461.got - 2010.06.03 20:15:42.
