data_PCOD9384197
_publ_section_title
;
Structure prediction by ZEFSAII (Michael W. Deem and Ramdas Pophale) SiO2 
 PCOD9384197
Probable space group: P M M M
;
_chemical_formula_sum "Si O2"
_cell_formula_units_Z 52
_cell_length_a 8.537398
_cell_length_b 19.551525
_cell_length_c 16.620767
_cell_angle_alpha 90.000000
_cell_angle_beta 90.000000
_cell_angle_gamma 90.000000
_cell_volume 2774.324307
_symmetry_space_group_name_H-M "P M M M"
_symmetry_group_IT_number 47
_symmetry_cell_setting 'orthorhombic'
loop_
_space_group_symop_operation_xyz
x,y,z
-x,-y,z
x,-y,-z
-x,y,-z
-x,-y,-z
x,y,-z
-x,y,z
x,-y,z
loop_
_atom_site_type_symbol
_atom_site_label
_atom_site_fract_x
_atom_site_fract_y
_atom_site_fract_z
Si Si1 0.190941 0.078812 0.000000
Si Si2 0.190101 0.861984 0.170797
Si Si3 0.312320 0.923046 0.333688
Si Si4 0.187620 0.718670 0.756386
Si Si5 0.811228 0.214594 0.409897
Si Si6 0.317870 0.423222 0.757706
Si Si7 0.822849 0.581794 0.411971
O O1 0.240730 0.114666 0.082572
O O2 0.000000 0.079856 0.000000
O O3 0.240522 0.000000 0.000000
O O4 0.258981 0.908244 0.242109
O O5 0.236329 0.784032 0.190989
O O6 0.000000 0.866353 0.175619
O O7 0.500000 0.918489 0.338635
O O8 0.239357 0.862228 0.386411
O O9 0.264452 0.000000 0.357189
O O10 0.240872 0.737075 0.664521
O O11 0.242384 0.645981 0.790861
O O12 0.000000 0.717535 0.754729
O O13 0.755304 0.231505 0.500000
O O14 0.000000 0.217174 0.410554
O O15 0.500000 0.424405 0.777061
O O16 0.252708 0.500000 0.775714
O O17 0.291672 0.411030 0.662309
O O18 0.776515 0.608166 0.500000
O O19 0.837011 0.500000 0.419199
O O20 0.000000 0.607790 0.393633
#
# Coordination Sequence:
#
# PCOD9384197 Si02
#       7
#     4   8   8   8   8   8   8
#     4   9  16  28  53  87 114 133 156 190 231 277
#     4   9  18  33  53  77 103 132 165 196 232 285
#     4  10  20  32  47  70 101 134 166 203 246 288
#     4   9  18  32  49  69  95 127 161 198 241 290
#     4   9  19  35  52  69  90 122 168 215 254 295
#     4  10  20  31  44  65  90 116 152 198 243 287
#     4   8  14  25  40  57  79 109 144 184 234 289
#
# _framework density 18.743302
#
# number of rings (size 3 to 8) (size 9 to 14) (size 15 to 20)
#    0.000    2.846    0.000    2.769    0.000    6.769 
#    0.000    5.000    0.000    1.385    0.000    0.538 
#    0.000    4.308    0.000    0.000    0.000    0.000 
#
# Total GULP energy -289680.266411 kJ/mol
# GULP energy per Si atom -5570.774354 kJ/mol
# Density = 1.870064 g / cm^3
# Si number density = 18.743302 Si / 1000 Ang^3
#
#
#
# Elastic Constant Matrix: (Units=GPa)
#
#
# Indices 1 2 3 4 5 6 
#
# 1 4.9562 15.5960 5.4713 0.0000 0.0000 0.0000
# 2 15.5960 165.4076 37.6184 0.0000 0.0000 0.0000
# 3 5.4713 37.6184 74.7536 0.0000 0.0000 0.0000
# 4 0.0000 0.0000 0.0000 5.6237 0.0000 0.0000
# 5 0.0000 0.0000 0.0000 0.0000 7.2288 0.0000
# 6 0.0000 0.0000 0.0000 0.0000 0.0000 22.7997
#
#
#
# Elastic Compliance Matrix: (Units=1/GPa)
#
#
# Indices 1 2 3 4 5 6 
#
# 1 0.291571 -0.025564 -0.008476 0.000000 0.000000 0.000000
# 2 -0.025564 0.009068 -0.002692 0.000000 0.000000 0.000000
# 3 -0.008476 -0.002692 0.015353 0.000000 0.000000 0.000000
# 4 0.000000 0.000000 0.000000 0.177820 0.000000 0.000000
# 5 0.000000 0.000000 0.000000 0.000000 0.138336 0.000000
# 6 0.000000 0.000000 0.000000 0.000000 0.000000 0.043860
#
#
# Mechanical properties :
#
#
# Convention : Reuss Voigt Hill
#
# Bulk Modulus (GPa) = 4.12325 40.27653 22.19989
# Shear Modulus (GPa) = 6.02181 19.55920 12.79050
#
# Velocity S-wave (km/s) = 1.79437 3.23388 2.61512
# Velocity P-wave (km/s) = 2.54905 5.95643 4.58130
#
# Compressibility (1/GPa) = 0.24252734
#
# Stress axis : x y z
#
# Youngs Moduli (GPa) = 3.42970 110.27270 65.13575
#
# Poissons Ratio (x) = 2.81904 0.55206
# Poissons Ratio (y) = 0.08768 0.17538
# Poissons Ratio (z) = 0.02907 0.29690
#
# Static dielectric constant tensor:
#      x y z
#    x 1.649340 0.000000 0.000000 
#    y 0.000000 1.703240 0.000000 
#    z 0.000000 0.000000 1.650020 
# 
# From -- ./inp_files/21448.got.cif
#   From: 2010.05.17/outbox.cif.g08.bks.cpg/sg47_11_cif.got.tgz:21448.got - 2010.06.03 20:15:42.
