data_PCOD9384493
_publ_section_title
;
Structure prediction by ZEFSAII (Michael W. Deem and Ramdas Pophale) SiO2 
 PCOD9384493
Probable space group: P M M M
;
_chemical_formula_sum "Si O2"
_cell_formula_units_Z 52
_cell_length_a 9.431114
_cell_length_b 35.289554
_cell_length_c 7.515187
_cell_angle_alpha 90.000000
_cell_angle_beta 90.000000
_cell_angle_gamma 90.000000
_cell_volume 2501.203085
_symmetry_space_group_name_H-M "P M M M"
_symmetry_group_IT_number 47
_symmetry_cell_setting 'orthorhombic'
loop_
_space_group_symop_operation_xyz
x,y,z
-x,-y,z
x,-y,-z
-x,y,-z
-x,-y,-z
x,y,-z
-x,y,z
x,-y,z
loop_
_atom_site_type_symbol
_atom_site_label
_atom_site_fract_x
_atom_site_fract_y
_atom_site_fract_z
Si Si1 0.660091 0.353268 0.711096
Si Si2 0.163944 0.278476 0.214508
Si Si3 0.164139 0.804244 0.786505
Si Si4 0.663580 0.500000 0.282816
Si Si5 0.836559 0.574469 0.282182
Si Si6 0.839192 0.113521 0.288280
Si Si7 0.664306 0.958178 0.282783
O O1 0.648858 0.359786 0.500000
O O2 0.500000 0.353169 0.783815
O O3 0.738036 0.313299 0.734299
O O4 0.757171 0.387552 0.779917
O O5 0.218425 0.236865 0.274422
O O6 0.000000 0.283481 0.274996
O O7 0.159557 0.277807 0.000000
O O8 0.228264 0.844829 0.737782
O O9 0.000000 0.805483 0.724136
O O10 0.163036 0.803289 0.000000
O O11 0.500000 0.500000 0.224649
O O12 0.661869 0.500000 0.500000
O O13 0.748003 0.537551 0.227486
O O14 0.838508 0.574643 0.500000
O O15 0.000000 0.573140 0.224660
O O16 0.849248 0.108457 0.500000
O O17 0.752354 0.077799 0.218197
O O18 0.000000 0.114014 0.215520
O O19 0.666830 0.957708 0.500000
O O20 0.500000 0.954927 0.230422
O O21 0.716999 0.000000 0.228478
#
# Coordination Sequence:
#
# PCOD9384493 Si02
#       7
#     8   8   8   4   8   8   8
#     4  10  20  32  46  68  98 127 155 192 239 283
#     4   9  18  33  52  71  90 118 158 196 230 276
#     4   8  15  29  47  65  87 115 144 176 218 268
#     4   9  15  23  37  59  90 125 156 189 232 279
#     4   9  16  26  41  62  89 122 159 195 231 274
#     4   9  16  25  41  67  91 109 138 181 220 253
#     4   8  14  25  40  58  83 115 145 172 209 257
#
# _framework density 20.789995999999999
#
# number of rings (size 3 to 8) (size 9 to 14) (size 15 to 20)
#    0.000    3.154    0.000    2.538    0.000    4.923 
#    0.000    3.846    0.000    3.692    0.000    3.769 
#    0.000    4.308    0.000    0.000    0.000    0.000 
#
# Total GULP energy -289909.301440 kJ/mol
# GULP energy per Si atom -5575.178874 kJ/mol
# Density = 2.074268 g / cm^3
# Si number density = 20.789996 Si / 1000 Ang^3
#
#
#
# Elastic Constant Matrix: (Units=GPa)
#
#
# Indices 1 2 3 4 5 6 
#
# 1 130.7186 116.6642 5.0003 0.0000 0.0000 0.0000
# 2 116.6642 250.4725 0.4708 0.0000 0.0000 0.0000
# 3 5.0003 0.4708 51.2479 0.0000 0.0000 0.0000
# 4 0.0000 0.0000 0.0000 48.4142 0.0000 0.0000
# 5 0.0000 0.0000 0.0000 0.0000 1.1173 0.0000
# 6 0.0000 0.0000 0.0000 0.0000 0.0000 -44.1914
#
#
#
# Elastic Compliance Matrix: (Units=1/GPa)
#
#
# Indices 1 2 3 4 5 6 
#
# 1 0.013169 -0.006132 -0.001229 0.000000 0.000000 0.000000
# 2 -0.006132 0.006847 0.000535 0.000000 0.000000 0.000000
# 3 -0.001229 0.000535 0.019628 0.000000 0.000000 0.000000
# 4 0.000000 0.000000 0.000000 0.020655 0.000000 0.000000
# 5 0.000000 0.000000 0.000000 0.000000 0.895011 0.000000
# 6 0.000000 0.000000 0.000000 0.000000 0.000000 -0.022629
#
#
# Mechanical properties :
#
#
# Convention : Reuss Voigt Hill
#
# Bulk Modulus (GPa) = 38.46903 75.18995 56.82949
# Shear Modulus (GPa) = 5.23562 21.75495 13.49529
#
# Velocity S-wave (km/s) = 1.58865 3.23834 2.55056
# Velocity P-wave (km/s) = 4.68069 7.08713 6.00568
#
# Compressibility (1/GPa) = 0.02599494
#
# Stress axis : x y z
#
# Youngs Moduli (GPa) = 75.93310 146.03950 50.94774
#
# Poissons Ratio (x) = 0.89547 0.06260
# Poissons Ratio (y) = 0.46560 -0.02728
# Poissons Ratio (z) = 0.09329 -0.07819
#
# Static dielectric constant tensor:
#      x y z
#    x 1.711310 0.000000 0.000000 
#    y 0.000000 1.755680 0.000000 
#    z 0.000000 0.000000 1.795330 
# 
# From -- ./inp_files/15467.got.cif
#   From: 2010.05.17/outbox.cif.g08.bks.cpg/sg47_8_cif.got.tgz:15467.got - 2010.06.03 20:15:42.
