data_PCOD9384632
_publ_section_title
;
Structure prediction by ZEFSAII (Michael W. Deem and Ramdas Pophale) SiO2 
 PCOD9384632
Probable space group: P M M M
;
_chemical_formula_sum "Si O2"
_cell_formula_units_Z 52
_cell_length_a 9.561381
_cell_length_b 34.986538
_cell_length_c 7.479967
_cell_angle_alpha 90.000000
_cell_angle_beta 90.000000
_cell_angle_gamma 90.000000
_cell_volume 2502.195716
_symmetry_space_group_name_H-M "P M M M"
_symmetry_group_IT_number 47
_symmetry_cell_setting 'orthorhombic'
loop_
_space_group_symop_operation_xyz
x,y,z
-x,-y,z
x,-y,-z
-x,y,-z
-x,-y,-z
x,y,-z
-x,y,z
x,-y,z
loop_
_atom_site_type_symbol
_atom_site_label
_atom_site_fract_x
_atom_site_fract_y
_atom_site_fract_z
Si Si1 0.341405 0.229851 0.214688
Si Si2 0.340379 0.624976 0.711650
Si Si3 0.838642 0.158386 0.218104
Si Si4 0.841597 0.304735 0.285876
Si Si5 0.339649 0.000000 0.218884
Si Si6 0.337075 0.541061 0.214893
Si Si7 0.838972 0.927581 0.217838
O O1 0.500000 0.233804 0.282267
O O2 0.263189 0.191779 0.280882
O O3 0.248146 0.266843 0.252832
O O4 0.349159 0.226522 0.000000
O O5 0.352535 0.631433 0.500000
O O6 0.500000 0.626019 0.785153
O O7 0.242447 0.658389 0.784654
O O8 0.278991 0.582281 0.733255
O O9 0.798698 0.115371 0.273716
O O10 0.000000 0.165387 0.271382
O O11 0.837382 0.158705 0.000000
O O12 0.851583 0.309072 0.500000
O O13 0.000000 0.301645 0.216375
O O14 0.259387 0.038159 0.277760
O O15 0.500000 0.000000 0.274905
O O16 0.337314 0.000000 0.000000
O O17 0.500000 0.541666 0.274305
O O18 0.277017 0.500000 0.275854
O O19 0.336930 0.540385 0.000000
O O20 0.000000 0.934218 0.270910
O O21 0.836938 0.927698 0.000000
#
# Coordination Sequence:
#
# PCOD9384632 Si02
#       7
#     8   8   8   8   4   8   8
#     4  10  20  32  48  71  95 119 150 189 233 281
#     4   9  17  29  46  68  92 117 148 188 230 271
#     4   8  14  25  40  57  79 109 144 182 224 270
#     4  10  21  36  52  69  92 124 159 194 234 279
#     4   9  15  19  25  41  65  95 134 179 222 263
#     4   8  14  25  42  66  95 123 150 183 224 268
#     4   8  13  21  32  45  65  98 138 176 215 262
#
# _framework density 20.781746999999999
#
# number of rings (size 3 to 8) (size 9 to 14) (size 15 to 20)
#    0.000    3.154    0.000    2.538    0.000    4.308 
#    0.000    6.154    0.000    0.462    0.000    3.231 
#    0.000    0.000    0.000    0.692    0.000   14.154 
#
# Total GULP energy -289989.640455 kJ/mol
# GULP energy per Si atom -5576.723855 kJ/mol
# Density = 2.073445 g / cm^3
# Si number density = 20.781747 Si / 1000 Ang^3
#
#
#
# Elastic Constant Matrix: (Units=GPa)
#
#
# Indices 1 2 3 4 5 6 
#
# 1 142.0571 136.7681 6.1781 0.0000 0.0000 0.0000
# 2 136.7681 237.9032 0.9724 0.0000 0.0000 0.0000
# 3 6.1781 0.9724 57.5619 0.0000 0.0000 0.0000
# 4 0.0000 0.0000 0.0000 20.3390 0.0000 0.0000
# 5 0.0000 0.0000 0.0000 0.0000 3.2009 0.0000
# 6 0.0000 0.0000 0.0000 0.0000 0.0000 43.5315
#
#
#
# Elastic Compliance Matrix: (Units=1/GPa)
#
#
# Indices 1 2 3 4 5 6 
#
# 1 0.015903 -0.009136 -0.001553 0.000000 0.000000 0.000000
# 2 -0.009136 0.009452 0.000821 0.000000 0.000000 0.000000
# 3 -0.001553 0.000821 0.017525 0.000000 0.000000 0.000000
# 4 0.000000 0.000000 0.000000 0.049167 0.000000 0.000000
# 5 0.000000 0.000000 0.000000 0.000000 0.312408 0.000000
# 6 0.000000 0.000000 0.000000 0.000000 0.000000 0.022972
#
#
# Mechanical properties :
#
#
# Convention : Reuss Voigt Hill
#
# Bulk Modulus (GPa) = 43.20560 80.59549 61.90054
# Shear Modulus (GPa) = 10.99198 32.98784 21.98991
#
# Velocity S-wave (km/s) = 2.30233 3.98847 3.25643
# Velocity P-wave (km/s) = 5.28232 7.75091 6.63248
#
# Compressibility (1/GPa) = 0.02314515
#
# Stress axis : x y z
#
# Youngs Moduli (GPa) = 62.88189 105.79496 57.06011
#
# Poissons Ratio (x) = 0.96655 0.08859
# Poissons Ratio (y) = 0.57449 -0.04684
# Poissons Ratio (z) = 0.09763 -0.08685
#
# Static dielectric constant tensor:
#      x y z
#    x 1.728640 0.000000 0.000000 
#    y 0.000000 1.742700 0.000000 
#    z 0.000000 0.000000 1.819530 
# 
# From -- ./inp_files/15644.got.cif
#   From: 2010.05.17/outbox.cif.g08.bks.cpg/sg47_8_cif.got.tgz:15644.got - 2010.06.03 20:15:42.
